data_PCOD8117121
_publ_section_title
;
Structure prediction by ZEFSAII (Michael W. Deem and Ramdas Pophale) SiO2 
 PCOD8117121
Probable space group: P 2/C
;
_chemical_formula_sum "Si O2"
_cell_formula_units_Z 20
_cell_length_a 8.552640
_cell_length_b 12.695260
_cell_length_c 10.245691
_cell_angle_alpha 90.000000
_cell_angle_beta 135.284885
_cell_angle_gamma 90.000000
_cell_volume 782.704596
_symmetry_space_group_name_H-M "P 2/C"
_symmetry_group_IT_number 13
_symmetry_cell_setting 'monoclinic'
loop_
_space_group_symop_operation_xyz
x,y,z
-x,y,1/2-z
-x,-y,-z
x,-y,1/2+z
loop_
_atom_site_type_symbol
_atom_site_label
_atom_site_fract_x
_atom_site_fract_y
_atom_site_fract_z
Si Si1 0.820395 0.203646 0.253546
Si Si2 0.256985 0.551049 0.342064
Si Si3 0.397626 0.235885 0.826604
Si Si4 0.649987 0.006586 0.714696
Si Si5 0.234753 0.397128 0.112184
O O1 0.842783 0.082108 0.317286
O O2 0.847989 0.280431 0.394591
O O3 0.000000 0.228224 0.250000
O O4 0.579897 0.222665 0.047868
O O5 0.500000 0.500000 0.500000
O O6 0.243526 0.667969 0.274918
O O7 0.141320 0.474400 0.168609
O O8 0.135717 0.562655 0.412703
O O9 0.500000 0.268820 0.750000
O O10 0.257086 0.126939 0.722690
O O11 0.500000 0.980418 0.750000
O O12 0.500000 0.000000 0.500000
O O13 0.500000 0.397205 0.250000
#
# Coordination Sequence:
#
# PCOD8117121 Si02
#       5
#     4   4   4   4   4
#     4  11  22  37  59  89 121 153 193 249 305 346
#     4  10  18  31  62  89 113 144 209 240 278 336
#     4  10  19  36  61  87 115 153 201 241 284 346
#     4   9  20  36  60  85 111 153 203 237 280 352
#     4  10  19  34  60  90 111 158 201 244 280 357
#
# _framework density 25.552424999999999
#
# number of rings (size 3 to 8) (size 9 to 14) (size 15 to 20)
#    0.000    2.000    4.000    2.400    2.800    0.000 
#    0.000   10.000    0.000    0.000    0.000    0.000 
#    0.000    0.000    0.000    0.000    0.000    0.000 
#
# Total GULP energy -247888.171359 kJ/mol
# GULP energy per Si atom -12394.408568 kJ/mol
# Density = 2.549427 g / cm^3
# Si number density = 25.552425 Si / 1000 Ang^3
#
#
#
# Elastic Constant Matrix: (Units=GPa)
#
#
# Indices 1 2 3 4 5 6 
#
# 1 135.9634 90.2880 30.9280 0.0000 -42.1974 0.0000
# 2 90.2880 223.2819 37.3270 0.0000 -26.4785 0.0000
# 3 30.9280 37.3270 95.3716 0.0000 -36.3535 0.0000
# 4 0.0000 0.0000 0.0000 9.1123 0.0000 -19.9869
# 5 -42.1974 -26.4785 -36.3535 0.0000 46.5773 0.0000
# 6 0.0000 0.0000 0.0000 -19.9869 0.0000 46.2434
#
#
#
# Elastic Compliance Matrix: (Units=1/GPa)
#
#
# Indices 1 2 3 4 5 6 
#
# 1 0.013191 -0.004317 0.001469 0.000000 0.010642 0.000000
# 2 -0.004317 0.006313 -0.001699 0.000000 -0.001649 0.000000
# 3 0.001469 -0.001699 0.015392 0.000000 0.012378 0.000000
# 4 0.000000 0.000000 0.000000 2.111145 0.000000 0.912460
# 5 0.010642 -0.001649 0.012378 0.000000 0.039835 0.000000
# 6 0.000000 0.000000 0.000000 0.912460 0.000000 0.416000
#
#
# Mechanical properties :
#
#
# Convention : Reuss Voigt Hill
#
# Bulk Modulus (GPa) = 38.75888 85.74475 62.25182
# Shear Modulus (GPa) = 1.90871 40.12486 21.01679
#
# Velocity S-wave (km/s) = 0.86522 3.96699 2.87103
# Velocity P-wave (km/s) = 4.02485 7.38999 5.95027
#
# Compressibility (1/GPa) = 0.02580054
#
# Stress axis : x y z
#
# Youngs Moduli (GPa) = 75.81046 158.40322 64.96693
#
# Poissons Ratio (x) = 0.68389 -0.09542
# Poissons Ratio (y) = 0.32731 0.11039
# Poissons Ratio (z) = -0.11135 0.26916
#
# Static dielectric constant tensor:
#      x y z
#    x 4.403380 0.000000 -1.009170 
#    y 0.000000 5.515880 0.000000 
#    z -1.009170 0.000000 2.959450 
# 
# 
# High freq. dielectric constant tensor:
#      x y z
#    x 2.021700 0.000000 -0.019390 
#    y 0.000000 2.038690 0.000000 
#    z -0.019390 0.000000 2.034080 
# 
# From -- ./inp_files/29132.got.cif
#   From: 2010.06.25/outbox.cif.g09.slc.cpg/sg13_15_cif.got.tgz:29132.got - 2010.06.28 04:50:58.
