data_PCOD8117167
_publ_section_title
;
Structure prediction by ZEFSAII (Michael W. Deem and Ramdas Pophale) SiO2 
 PCOD8117167
Probable space group: P 2/C
;
_chemical_formula_sum "Si O2"
_cell_formula_units_Z 22
_cell_length_a 8.868099
_cell_length_b 8.574293
_cell_length_c 15.470593
_cell_angle_alpha 90.000000
_cell_angle_beta 102.721992
_cell_angle_gamma 90.000000
_cell_volume 1147.468748
_symmetry_space_group_name_H-M "P 2/C"
_symmetry_group_IT_number 13
_symmetry_cell_setting 'monoclinic'
loop_
_space_group_symop_operation_xyz
x,y,z
-x,y,1/2-z
-x,-y,-z
x,-y,1/2+z
loop_
_atom_site_type_symbol
_atom_site_label
_atom_site_fract_x
_atom_site_fract_y
_atom_site_fract_z
Si Si1 0.931801 0.243510 0.972109
Si Si2 0.810358 0.038038 0.554310
Si Si3 0.000000 0.337635 0.250000
Si Si4 0.155260 0.453514 0.108815
Si Si5 0.712999 0.881370 0.700835
Si Si6 0.370924 0.185532 0.125769
O O1 0.815066 0.364240 0.910130
O O2 0.024066 0.125309 0.920282
O O3 0.063295 0.354074 0.026849
O O4 0.837265 0.142015 0.029145
O O5 0.691625 0.116531 0.472026
O O6 0.741387 0.033872 0.643351
O O7 0.946821 0.452941 0.318118
O O8 0.857235 0.231272 0.202373
O O9 0.318228 0.363810 0.138013
O O10 0.693848 0.920016 0.801185
O O11 0.554963 0.804197 0.646591
#
# Coordination Sequence:
#
# PCOD8117167 Si02
#       6
#     4   4   2   4   4   4
#     4   9  18  31  53  78 106 133 180 220 263 320
#     4  10  18  34  55  81 109 144 173 224 273 318
#     4  10  18  32  56  78  98 146 182 220 264 316
#     4   9  17  34  51  75 103 135 178 223 261 315
#     4  10  19  34  55  80 105 141 189 215 270 333
#     4   9  20  34  56  77 108 144 177 227 270 318
#
# _framework density 19.172636000000001
#
# number of rings (size 3 to 8) (size 9 to 14) (size 15 to 20)
#    0.000    2.545    1.818    0.545    2.545    0.000 
#    3.273    0.909    4.000    2.182    0.000    0.000 
#    0.000    0.000    0.000    0.000    0.000    0.000 
#
# Total GULP energy -272549.078867 kJ/mol
# GULP energy per Si atom -12388.594494 kJ/mol
# Density = 1.912900 g / cm^3
# Si number density = 19.172636 Si / 1000 Ang^3
#
#
#
# Elastic Constant Matrix: (Units=GPa)
#
#
# Indices 1 2 3 4 5 6 
#
# 1 89.7028 30.2684 20.6195 0.0000 1.8707 0.0000
# 2 30.2684 91.5590 34.7815 0.0000 -9.2669 0.0000
# 3 20.6195 34.7815 84.4565 0.0000 -13.1469 0.0000
# 4 0.0000 0.0000 0.0000 19.3397 0.0000 2.9967
# 5 1.8707 -9.2669 -13.1469 0.0000 24.1991 0.0000
# 6 0.0000 0.0000 0.0000 2.9967 0.0000 16.8488
#
#
#
# Elastic Compliance Matrix: (Units=1/GPa)
#
#
# Indices 1 2 3 4 5 6 
#
# 1 0.013021 -0.003854 -0.002161 0.000000 -0.003657 0.000000
# 2 -0.003854 0.014201 -0.004386 0.000000 0.003354 0.000000
# 3 -0.002161 -0.004386 0.015226 0.000000 0.006760 0.000000
# 4 0.000000 0.000000 0.000000 0.053172 0.000000 -0.009457
# 5 -0.003657 0.003354 0.006760 0.000000 0.046563 0.000000
# 6 0.000000 0.000000 0.000000 -0.009457 0.000000 0.061033
#
#
# Mechanical properties :
#
#
# Convention : Reuss Voigt Hill
#
# Bulk Modulus (GPa) = 46.19363 48.56192 47.37777
# Shear Modulus (GPa) = 21.62300 24.08080 22.85190
#
# Velocity S-wave (km/s) = 3.36192 3.54785 3.45614
# Velocity P-wave (km/s) = 6.26226 6.49359 6.37897
#
# Compressibility (1/GPa) = 0.02164801
#
# Stress axis : x y z
#
# Youngs Moduli (GPa) = 76.79702 70.41576 65.67538
#
# Poissons Ratio (x) = 0.27137 0.14193
# Poissons Ratio (y) = 0.29596 0.28802
# Poissons Ratio (z) = 0.16597 0.30881
#
# Static dielectric constant tensor:
#      x y z
#    x 3.501470 0.000000 -0.003590 
#    y 0.000000 3.579250 0.000000 
#    z -0.003590 0.000000 3.652080 
# 
# 
# High freq. dielectric constant tensor:
#      x y z
#    x 1.740060 0.000000 -0.005360 
#    y 0.000000 1.716600 0.000000 
#    z -0.005360 0.000000 1.745840 
# 
# From -- ./inp_files/45865.got.cif
#   From: 2010.06.25/outbox.cif.g09.slc.cpg/sg13_23_cif.got.tgz:45865.got - 2010.06.28 04:50:58.
