data_PCOD8117508
_publ_section_title
;
Structure prediction by ZEFSAII (Michael W. Deem and Ramdas Pophale) SiO2 
 PCOD8117508
Probable space group: P 2/C
;
_chemical_formula_sum "Si O2"
_cell_formula_units_Z 32
_cell_length_a 8.930155
_cell_length_b 11.242062
_cell_length_c 31.049046
_cell_angle_alpha 90.000000
_cell_angle_beta 29.148030
_cell_angle_gamma 90.000000
_cell_volume 1518.247390
_symmetry_space_group_name_H-M "P 2/C"
_symmetry_group_IT_number 13
_symmetry_cell_setting 'monoclinic'
loop_
_space_group_symop_operation_xyz
x,y,z
-x,y,1/2-z
-x,-y,-z
x,-y,1/2+z
loop_
_atom_site_type_symbol
_atom_site_label
_atom_site_fract_x
_atom_site_fract_y
_atom_site_fract_z
Si Si1 0.661605 0.194175 0.852027
Si Si2 0.218717 0.438207 0.654176
Si Si3 0.308661 0.154974 0.451108
Si Si4 0.821260 0.421000 0.009158
Si Si5 0.142295 0.637016 0.339371
Si Si6 0.522286 0.014707 0.661175
Si Si7 0.085648 0.089676 0.870341
Si Si8 0.148761 0.027664 0.149914
O O1 0.561306 0.321037 0.895972
O O2 0.000000 0.222886 0.750000
O O3 0.443501 0.147946 0.868184
O O4 0.652264 0.089237 0.889152
O O5 0.473480 0.539683 0.586125
O O6 0.000000 0.465528 0.750000
O O7 0.015542 0.426740 0.661846
O O8 0.219906 0.288832 0.461932
O O9 0.278738 0.084111 0.413576
O O10 0.648512 0.142998 0.388512
O O11 0.077765 0.094637 0.542473
O O12 0.000000 0.500000 0.000000
O O13 0.003447 0.415318 0.918276
O O14 0.500000 0.604399 0.250000
O O15 0.100649 0.780430 0.344524
O O16 0.169996 0.971166 0.743464
O O17 0.585054 0.034731 0.696286
O O18 0.921243 0.988616 0.883142
#
# Coordination Sequence:
#
# PCOD8117508 Si02
#       8
#     4   4   4   4   4   4   4   4
#     4   8  17  30  55  88 118 151 198 245 307 367
#     4  11  22  39  67  95 128 169 216 268 330 381
#     4  10  23  39  57  84 126 164 203 254 319 374
#     4  11  26  45  65  93 125 171 228 274 320 380
#     4  11  23  41  65  96 131 164 214 276 326 383
#     4  10  20  35  59  88 123 160 203 249 311 384
#     4  11  21  34  60  94 128 155 203 258 320 377
#     4  10  18  37  58  89 122 161 199 251 309 388
#
# _framework density 21.076936
#
# number of rings (size 3 to 8) (size 9 to 14) (size 15 to 20)
#    0.000    1.750    1.250    4.125    7.000    1.000 
#    0.000    1.250    0.000    1.500    0.000    0.000 
#    0.000    0.000    0.000    0.000    0.000    0.000 
#
# Total GULP energy -396494.797567 kJ/mol
# GULP energy per Si atom -12390.462424 kJ/mol
# Density = 2.102896 g / cm^3
# Si number density = 21.076936 Si / 1000 Ang^3
#
#
#
# Elastic Constant Matrix: (Units=GPa)
#
#
# Indices 1 2 3 4 5 6 
#
# 1 140.4049 31.9392 24.7573 0.0000 5.4728 0.0000
# 2 31.9392 81.4240 27.8986 0.0000 7.0327 0.0000
# 3 24.7573 27.8986 68.5385 0.0000 5.6854 0.0000
# 4 0.0000 0.0000 0.0000 27.9054 0.0000 -5.6352
# 5 5.4728 7.0327 5.6854 0.0000 32.7357 0.0000
# 6 0.0000 0.0000 0.0000 -5.6352 0.0000 35.0923
#
#
#
# Elastic Compliance Matrix: (Units=1/GPa)
#
#
# Indices 1 2 3 4 5 6 
#
# 1 0.008031 -0.002473 -0.001854 0.000000 -0.000489 0.000000
# 2 -0.002473 0.015175 -0.005122 0.000000 -0.001957 0.000000
# 3 -0.001854 -0.005122 0.017479 0.000000 -0.001626 0.000000
# 4 0.000000 0.000000 0.000000 0.037036 0.000000 0.005947
# 5 -0.000489 -0.001957 -0.001626 0.000000 0.031332 0.000000
# 6 0.000000 0.000000 0.000000 0.005947 0.000000 0.029451
#
#
# Mechanical properties :
#
#
# Convention : Reuss Voigt Hill
#
# Bulk Modulus (GPa) = 45.89364 51.06196 48.47780
# Shear Modulus (GPa) = 30.36479 32.86483 31.61481
#
# Velocity S-wave (km/s) = 3.79973 3.95306 3.87715
# Velocity P-wave (km/s) = 6.40876 6.71674 6.56455
#
# Compressibility (1/GPa) = 0.02178951
#
# Stress axis : x y z
#
# Youngs Moduli (GPa) = 124.52245 65.89709 57.20989
#
# Poissons Ratio (x) = 0.16294 0.10605
# Poissons Ratio (y) = 0.30790 0.29300
# Poissons Ratio (z) = 0.23083 0.33749
#
# Static dielectric constant tensor:
#      x y z
#    x 3.985950 0.000000 -0.095630 
#    y 0.000000 3.685240 0.000000 
#    z -0.095630 0.000000 3.862120 
# 
# 
# High freq. dielectric constant tensor:
#      x y z
#    x 1.846110 0.000000 -0.000430 
#    y 0.000000 1.794360 0.000000 
#    z -0.000430 0.000000 1.831320 
# 
# From -- ./inp_files/96111.got.cif
#   From: 2010.06.25/outbox.cif.g09.slc.cpg/sg13_49_cif.got.tgz:96111.got - 2010.06.28 04:50:58.
