data_PCOD8117064
_publ_section_title
;
Structure prediction by ZEFSAII (Michael W. Deem and Ramdas Pophale) SiO2 
 PCOD8117064
Probable space group: P 2/C
;
_chemical_formula_sum "Si O2"
_cell_formula_units_Z 32
_cell_length_a 9.390502
_cell_length_b 14.187068
_cell_length_c 23.069707
_cell_angle_alpha 90.000000
_cell_angle_beta 144.498280
_cell_angle_gamma 90.000000
_cell_volume 1784.825871
_symmetry_space_group_name_H-M "P 2/C"
_symmetry_group_IT_number 13
_symmetry_cell_setting 'monoclinic'
loop_
_space_group_symop_operation_xyz
x,y,z
-x,y,1/2-z
-x,-y,-z
x,-y,1/2+z
loop_
_atom_site_type_symbol
_atom_site_label
_atom_site_fract_x
_atom_site_fract_y
_atom_site_fract_z
Si Si1 0.600985 0.012220 0.844781
Si Si2 0.405041 0.393319 0.281436
Si Si3 0.779299 0.106681 0.218564
Si Si4 0.992735 0.750000 0.621368
Si Si5 0.633145 0.750000 0.941572
Si Si6 0.278139 0.512220 0.344781
Si Si7 0.545823 0.351873 0.015418
Si Si8 0.984151 0.851873 0.984582
O O1 0.500000 0.046432 0.750000
O O2 0.753580 0.098684 0.921856
O O3 0.376129 0.984738 0.812848
O O4 0.777592 0.923399 0.893055
O O5 0.500000 0.426637 0.250000
O O6 0.590103 0.319139 0.372464
O O7 0.375263 0.484738 0.312848
O O8 0.143790 0.343574 0.186496
O O9 0.600248 0.180861 0.127536
O O10 0.000000 0.073363 0.250000
O O11 0.897808 0.156426 0.313504
O O12 0.717379 0.732721 0.551365
O O13 0.988081 0.767279 0.551365
O O14 0.663295 0.692304 0.011605
O O15 0.883126 0.807696 0.011605
O O16 0.294628 0.423398 0.393055
O O17 0.433843 0.598684 0.421856
O O18 0.000000 0.546432 0.250000
#
# Coordination Sequence:
#
# PCOD8117064 Si02
#       8
#     4   4   4   4   4   4   4   4
#     4  10  20  36  53  79 113 149 174 222 289 333
#     4  10  18  30  54  82 109 136 185 234 274 316
#     4  10  18  30  54  82 109 136 185 234 274 316
#     4  11  18  32  55  84 106 138 187 238 263 320
#     4   9  18  30  51  82 106 140 185 230 269 324
#     4  10  20  36  53  79 113 149 174 222 289 333
#     4  10  20  34  55  81 111 142 185 227 277 330
#     4  10  20  34  55  81 111 142 185 227 277 330
#
# _framework density 17.928920000000002
#
# number of rings (size 3 to 8) (size 9 to 14) (size 15 to 20)
#    0.000    2.000    5.000    0.000    0.000    0.000 
#    0.000    5.000    0.000    0.000    0.000    0.000 
#    0.000    0.000    0.000    0.000    0.000    0.000 
#
# Total GULP energy -396732.305919 kJ/mol
# GULP energy per Si atom -12397.884560 kJ/mol
# Density = 1.788811 g / cm^3
# Si number density = 17.928920 Si / 1000 Ang^3
#
#
#
# Elastic Constant Matrix: (Units=GPa)
#
#
# Indices 1 2 3 4 5 6 
#
# 1 135.4158 50.2378 57.4189 0.0000 -2.2180 0.0000
# 2 50.2378 63.9059 38.1885 0.0000 -0.8798 0.0000
# 3 57.4189 38.1885 73.6926 0.0000 -2.2889 0.0000
# 4 0.0000 0.0000 0.0000 6.2560 0.0000 -1.5763
# 5 -2.2180 -0.8798 -2.2889 0.0000 23.8050 0.0000
# 6 0.0000 0.0000 0.0000 -1.5763 0.0000 27.8439
#
#
#
# Elastic Compliance Matrix: (Units=1/GPa)
#
#
# Indices 1 2 3 4 5 6 
#
# 1 0.012322 -0.005723 -0.006626 0.000000 0.000300 0.000000
# 2 -0.005723 0.025328 -0.008679 0.000000 -0.000432 0.000000
# 3 -0.006626 -0.008679 0.023271 0.000000 0.001299 0.000000
# 4 0.000000 0.000000 0.000000 0.162160 0.000000 0.009180
# 5 0.000300 -0.000432 0.001299 0.000000 0.042145 0.000000
# 6 0.000000 0.000000 0.000000 0.009180 0.000000 0.036434
#
#
# Mechanical properties :
#
#
# Convention : Reuss Voigt Hill
#
# Bulk Modulus (GPa) = 53.01145 62.74496 57.87820
# Shear Modulus (GPa) = 14.28553 20.05892 17.17223
#
# Velocity S-wave (km/s) = 2.82580 3.34848 3.09818
# Velocity P-wave (km/s) = 6.34655 7.07264 6.71941
#
# Compressibility (1/GPa) = 0.01886385
#
# Stress axis : x y z
#
# Youngs Moduli (GPa) = 81.15297 39.48252 42.97246
#
# Poissons Ratio (x) = 0.22597 0.28474
# Poissons Ratio (y) = 0.46446 0.37297
# Poissons Ratio (z) = 0.53773 0.34268
#
# Static dielectric constant tensor:
#      x y z
#    x 3.327660 0.000000 -0.016740 
#    y 0.000000 3.039560 0.000000 
#    z -0.016740 0.000000 3.098410 
# 
# 
# High freq. dielectric constant tensor:
#      x y z
#    x 1.701650 0.000000 -0.002320 
#    y 0.000000 1.662180 0.000000 
#    z -0.002320 0.000000 1.669890 
# 
# From -- ./inp_files/76641.got.cif
#   From: 2010.06.25/outbox.cif.g09.slc.cpg/sg13_39_cif.got.tgz:76641.got - 2010.06.28 04:50:58.
