data_PCOD8117048
_publ_section_title
;
Structure prediction by ZEFSAII (Michael W. Deem and Ramdas Pophale) SiO2 
 PCOD8117048
Probable space group: P 2/C
;
_chemical_formula_sum "Si O2"
_cell_formula_units_Z 32
_cell_length_a 22.053574
_cell_length_b 15.041449
_cell_length_c 16.528417
_cell_angle_alpha 90.000000
_cell_angle_beta 17.433174
_cell_angle_gamma 90.000000
_cell_volume 1642.600430
_symmetry_space_group_name_H-M "P 2/C"
_symmetry_group_IT_number 13
_symmetry_cell_setting 'monoclinic'
loop_
_space_group_symop_operation_xyz
x,y,z
-x,y,1/2-z
-x,-y,-z
x,-y,1/2+z
loop_
_atom_site_type_symbol
_atom_site_label
_atom_site_fract_x
_atom_site_fract_y
_atom_site_fract_z
Si Si1 0.218753 0.840234 0.455590
Si Si2 0.560451 0.692934 0.260892
Si Si3 0.517047 0.155096 0.133681
Si Si4 0.470650 0.603844 0.039994
Si Si5 0.818139 0.800237 0.710453
Si Si6 0.815490 0.263311 0.663561
Si Si7 0.191323 0.260051 0.451864
Si Si8 0.565511 0.955453 0.073671
O O1 0.241117 0.757009 0.491883
O O2 0.240090 0.800029 0.339610
O O3 0.382308 0.917372 0.253507
O O4 0.000000 0.883128 0.750000
O O5 0.500000 0.655728 0.250000
O O6 0.570726 0.613277 0.311097
O O7 0.403790 0.761434 0.498921
O O8 0.500000 0.153932 0.250000
O O9 0.313605 0.186110 0.346941
O O10 0.587610 0.056827 0.016622
O O11 0.693768 0.225204 0.894196
O O12 0.666422 0.655856 0.754508
O O13 0.500000 0.500000 0.000000
O O14 0.266454 0.636968 0.252690
O O15 0.892304 0.787187 0.523534
O O16 0.952850 0.743503 0.602739
O O17 0.780744 0.904303 0.782127
O O18 0.000000 0.292532 0.750000
O O19 0.500000 0.944422 0.250000
#
# Coordination Sequence:
#
# PCOD8117048 Si02
#       8
#     4   4   4   4   4   4   4   4
#     4  10  18  30  51  76 103 135 173 217 270 329
#     4   9  17  32  53  77 106 136 169 218 279 331
#     4  10  21  36  53  76 106 145 192 230 270 328
#     4   9  20  39  58  80 110 139 179 232 280 339
#     4  10  19  34  55  78 108 143 182 227 276 333
#     4  10  20  34  55  76 101 142 178 219 280 340
#     4  10  21  38  58  78 108 149 185 227 285 344
#     4  10  20  33  51  77 110 144 184 237 277 315
#
# _framework density 19.481304999999999
#
# number of rings (size 3 to 8) (size 9 to 14) (size 15 to 20)
#    0.000    2.250    0.000    6.000    0.000    3.000 
#    0.000   10.000    0.000    0.000    0.000    0.000 
#    0.000    0.000    0.000    0.000    0.000    0.000 
#
# Total GULP energy -396449.632154 kJ/mol
# GULP energy per Si atom -12389.051005 kJ/mol
# Density = 1.943696 g / cm^3
# Si number density = 19.481305 Si / 1000 Ang^3
#
#
#
# Elastic Constant Matrix: (Units=GPa)
#
#
# Indices 1 2 3 4 5 6 
#
# 1 113.4344 49.7033 20.7602 0.0000 -5.9320 0.0000
# 2 49.7033 125.1907 23.1729 0.0000 -0.2003 0.0000
# 3 20.7602 23.1729 61.2597 0.0000 -1.2197 0.0000
# 4 0.0000 0.0000 0.0000 19.4022 0.0000 3.7033
# 5 -5.9320 -0.2003 -1.2197 0.0000 28.9472 0.0000
# 6 0.0000 0.0000 0.0000 3.7033 0.0000 14.6939
#
#
#
# Elastic Compliance Matrix: (Units=1/GPa)
#
#
# Indices 1 2 3 4 5 6 
#
# 1 0.011078 -0.003987 -0.002203 0.000000 0.002150 0.000000
# 2 -0.003987 0.010024 -0.002458 0.000000 -0.000851 0.000000
# 3 -0.002203 -0.002458 0.018006 0.000000 0.000290 0.000000
# 4 0.000000 0.000000 0.000000 0.054145 0.000000 -0.013646
# 5 0.002150 -0.000851 0.000290 0.000000 0.034993 0.000000
# 6 0.000000 0.000000 0.000000 -0.013646 0.000000 0.071494
#
#
# Mechanical properties :
#
#
# Convention : Reuss Voigt Hill
#
# Bulk Modulus (GPa) = 45.84512 54.12862 49.98687
# Shear Modulus (GPa) = 22.29079 26.35856 24.32467
#
# Velocity S-wave (km/s) = 3.38629 3.68233 3.53741
# Velocity P-wave (km/s) = 6.23484 6.77677 6.51145
#
# Compressibility (1/GPa) = 0.02181257
#
# Stress axis : x y z
#
# Youngs Moduli (GPa) = 90.26628 99.75738 55.53673
#
# Poissons Ratio (x) = 0.39774 0.12237
# Poissons Ratio (y) = 0.35990 0.13649
# Poissons Ratio (z) = 0.19889 0.24517
#
# Static dielectric constant tensor:
#      x y z
#    x 3.936610 0.000000 -0.165930 
#    y 0.000000 3.367230 0.000000 
#    z -0.165930 0.000000 3.818780 
# 
# 
# High freq. dielectric constant tensor:
#      x y z
#    x 1.774850 0.000000 0.003520 
#    y 0.000000 1.724520 0.000000 
#    z 0.003520 0.000000 1.755070 
# 
# From -- ./inp_files/57858.got.cif
#   From: 2010.06.25/outbox.cif.g09.slc.cpg/sg13_29_cif.got.tgz:57858.got - 2010.06.28 04:50:58.
