data_PCOD8117747
_publ_section_title
;
Structure prediction by ZEFSAII (Michael W. Deem and Ramdas Pophale) SiO2 
 PCOD8117747
Probable space group: P 2/C
;
_chemical_formula_sum "Si O2"
_cell_formula_units_Z 28
_cell_length_a 5.242912
_cell_length_b 30.861410
_cell_length_c 10.106862
_cell_angle_alpha 90.000000
_cell_angle_beta 121.248137
_cell_angle_gamma 90.000000
_cell_volume 1398.088246
_symmetry_space_group_name_H-M "P 2/C"
_symmetry_group_IT_number 13
_symmetry_cell_setting 'monoclinic'
loop_
_space_group_symop_operation_xyz
x,y,z
-x,y,1/2-z
-x,-y,-z
x,-y,1/2+z
loop_
_atom_site_type_symbol
_atom_site_label
_atom_site_fract_x
_atom_site_fract_y
_atom_site_fract_z
Si Si1 0.143764 0.468013 0.643761
Si Si2 0.680874 0.995833 0.180873
Si Si3 0.144654 0.720456 0.144655
Si Si4 0.842908 0.120676 0.342907
Si Si5 0.850476 0.373512 0.850477
Si Si6 0.844776 0.777542 0.844776
Si Si7 0.187594 0.899321 0.187594
O O1 0.500000 0.475178 0.750000
O O2 0.061800 0.419903 0.561778
O O3 0.000000 0.475176 0.750000
O O4 0.000000 0.500000 0.500000
O O5 0.500000 0.019510 0.250000
O O6 0.730846 0.945966 0.230846
O O7 0.000000 0.019510 0.250000
O O8 0.500000 0.000000 0.000000
O O9 0.500000 0.726627 0.250000
O O10 0.059114 0.672633 0.059128
O O11 0.000000 0.726628 0.250000
O O12 0.011429 0.755772 0.011429
O O13 0.500000 0.106512 0.250000
O O14 0.877698 0.171532 0.377693
O O15 0.000000 0.106511 0.250000
O O16 0.004145 0.095130 0.504146
O O17 0.500000 0.373222 0.750000
O O18 0.000000 0.373232 0.750000
O O19 0.500000 0.763232 0.750000
O O20 0.000000 0.763231 0.750000
O O21 0.500000 0.873772 0.250000
O O22 0.000000 0.873772 0.250000
#
# Coordination Sequence:
#
# PCOD8117747 Si02
#       7
#     4   4   4   4   4   4   4
#     4  10  19  33  51  72  99 132 170 216 265 316
#     4  10  21  40  60  84 114 145 179 220 266 312
#     4  10  19  33  54  78 100 136 183 216 251 312
#     4  10  21  38  58  80 110 147 180 213 262 318
#     4   8  16  30  48  69  98 132 168 211 260 311
#     4  10  21  36  53  78 112 142 169 214 272 313
#     4  10  21  38  58  85 112 140 180 224 262 304
#
# _framework density 20.027349999999998
#
# number of rings (size 3 to 8) (size 9 to 14) (size 15 to 20)
#    0.000    2.286    0.000    2.571    0.000    1.143 
#    0.000   18.571    0.000    0.000    0.000    0.000 
#    0.000    0.000    0.000    0.000    0.000    0.000 
#
# Total GULP energy -346905.201086 kJ/mol
# GULP energy per Si atom -12389.471467 kJ/mol
# Density = 1.998177 g / cm^3
# Si number density = 20.027350 Si / 1000 Ang^3
#
#
#
# Elastic Constant Matrix: (Units=GPa)
#
#
# Indices 1 2 3 4 5 6 
#
# 1 213.5195 18.7690 76.7693 0.0000 -5.5372 0.0000
# 2 18.7690 51.2904 44.7123 0.0000 2.2178 0.0000
# 3 76.7693 44.7123 160.6579 0.0000 1.0217 0.0000
# 4 0.0000 0.0000 0.0000 35.8559 0.0000 2.2557
# 5 -5.5372 2.2178 1.0217 0.0000 36.5289 0.0000
# 6 0.0000 0.0000 0.0000 2.2557 0.0000 9.4689
#
#
#
# Elastic Compliance Matrix: (Units=1/GPa)
#
#
# Indices 1 2 3 4 5 6 
#
# 1 0.005691 0.000335 -0.002818 0.000000 0.000921 0.000000
# 2 0.000335 0.025830 -0.007340 0.000000 -0.001312 0.000000
# 3 -0.002818 -0.007340 0.009616 0.000000 -0.000251 0.000000
# 4 0.000000 0.000000 0.000000 0.028314 0.000000 -0.006745
# 5 0.000921 -0.001312 -0.000251 0.000000 0.027602 0.000000
# 6 0.000000 0.000000 0.000000 -0.006745 0.000000 0.107216
#
#
# Mechanical properties :
#
#
# Convention : Reuss Voigt Hill
#
# Bulk Modulus (GPa) = 46.53643 78.44101 62.48872
# Shear Modulus (GPa) = 21.63759 35.38522 28.51141
#
# Velocity S-wave (km/s) = 3.29051 4.20795 3.77719
# Velocity P-wave (km/s) = 6.14195 7.92850 7.09171
#
# Compressibility (1/GPa) = 0.02148854
#
# Stress axis : x y z
#
# Youngs Moduli (GPa) = 175.70795 38.71481 103.99740
#
# Poissons Ratio (x) = -0.01295 0.29312
# Poissons Ratio (y) = -0.05878 0.76336
# Poissons Ratio (z) = 0.49523 0.28417
#
# Static dielectric constant tensor:
#      x y z
#    x 5.771160 0.000000 -0.211150 
#    y 0.000000 3.930120 0.000000 
#    z -0.211150 0.000000 3.300010 
# 
# 
# High freq. dielectric constant tensor:
#      x y z
#    x 1.821880 0.000000 -0.005760 
#    y 0.000000 1.777720 0.000000 
#    z -0.005760 0.000000 1.754420 
# 
# From -- ./inp_files/10361.got.cif
#   From: 2010.06.25/outbox.cif.g09.slc.cpg/sg13_6_cif.got.tgz:10361.got - 2010.06.28 04:50:58.
