data_PCOD8117447
_publ_section_title
;
Structure prediction by ZEFSAII (Michael W. Deem and Ramdas Pophale) SiO2 
 PCOD8117447
Probable space group: P 2/C
;
_chemical_formula_sum "Si O2"
_cell_formula_units_Z 22
_cell_length_a 21.747508
_cell_length_b 8.286271
_cell_length_c 16.554592
_cell_angle_alpha 90.000000
_cell_angle_beta 156.878001
_cell_angle_gamma 90.000000
_cell_volume 1171.486372
_symmetry_space_group_name_H-M "P 2/C"
_symmetry_group_IT_number 13
_symmetry_cell_setting 'monoclinic'
loop_
_space_group_symop_operation_xyz
x,y,z
-x,y,1/2-z
-x,-y,-z
x,-y,1/2+z
loop_
_atom_site_type_symbol
_atom_site_label
_atom_site_fract_x
_atom_site_fract_y
_atom_site_fract_z
Si Si1 0.000000 0.579206 0.750000
Si Si2 0.580781 0.350875 0.056562
Si Si3 0.111806 0.712300 0.290916
Si Si4 0.209378 0.853724 0.573519
Si Si5 0.256969 0.230587 0.644267
Si Si6 0.172326 0.575750 0.203476
O O1 0.956852 0.465315 0.772831
O O2 0.849252 0.689149 0.552423
O O3 0.657182 0.238236 0.216538
O O4 0.711185 0.421228 0.153242
O O5 0.500000 0.500000 0.000000
O O6 0.439954 0.256057 0.842523
O O7 0.216935 0.788178 0.489823
O O8 0.207117 0.691306 0.322935
O O9 0.961429 0.824901 0.094865
O O10 0.234676 0.041453 0.613429
O O11 0.204161 0.308913 0.665489
O O12 0.000000 0.500000 0.000000
#
# Coordination Sequence:
#
# PCOD8117447 Si02
#       6
#     2   4   4   4   4   4
#     4  10  18  36  58  82 110 158 200 234 294 360
#     4  10  20  38  59  82 115 159 198 234 297 365
#     4  10  19  35  60  85 115 152 199 248 285 359
#     4  10  20  36  57  87 119 154 195 243 312 355
#     4  11  22  36  61  86 119 158 193 245 304 362
#     4  11  19  38  61  89 114 151 205 246 283 356
#
# _framework density 18.779561000000001
#
# number of rings (size 3 to 8) (size 9 to 14) (size 15 to 20)
#    0.000    1.818    3.636    4.909    0.000    0.727 
#    0.000    8.182    0.000    4.364    0.000    0.000 
#    0.000    0.000    0.000    0.000    0.000    0.000 
#
# Total GULP energy -272637.543247 kJ/mol
# GULP energy per Si atom -12392.615602 kJ/mol
# Density = 1.873682 g / cm^3
# Si number density = 18.779561 Si / 1000 Ang^3
#
#
#
# Elastic Constant Matrix: (Units=GPa)
#
#
# Indices 1 2 3 4 5 6 
#
# 1 83.9822 33.4002 35.0218 0.0000 10.1242 0.0000
# 2 33.4002 150.6356 70.1959 0.0000 5.5473 0.0000
# 3 35.0218 70.1959 155.3960 0.0000 8.1260 0.0000
# 4 0.0000 0.0000 0.0000 30.7469 0.0000 0.5722
# 5 10.1242 5.5473 8.1260 0.0000 22.2604 0.0000
# 6 0.0000 0.0000 0.0000 0.5722 0.0000 13.2320
#
#
#
# Elastic Compliance Matrix: (Units=1/GPa)
#
#
# Indices 1 2 3 4 5 6 
#
# 1 0.014176 -0.002013 -0.002013 0.000000 -0.005211 0.000000
# 2 -0.002013 0.008706 -0.003480 0.000000 0.000016 0.000000
# 3 -0.002013 -0.003480 0.008530 0.000000 -0.001331 0.000000
# 4 0.000000 0.000000 0.000000 0.032550 0.000000 -0.001408
# 5 -0.005211 0.000016 -0.001331 0.000000 0.047775 0.000000
# 6 0.000000 0.000000 0.000000 -0.001408 0.000000 0.075635
#
#
# Mechanical properties :
#
#
# Convention : Reuss Voigt Hill
#
# Bulk Modulus (GPa) = 60.97564 74.13882 67.55723
# Shear Modulus (GPa) = 24.05583 30.00758 27.03170
#
# Velocity S-wave (km/s) = 3.58293 4.00169 3.79809
# Velocity P-wave (km/s) = 7.04671 7.80484 7.43545
#
# Compressibility (1/GPa) = 0.01639999
#
# Stress axis : x y z
#
# Youngs Moduli (GPa) = 70.54419 114.86466 117.22890
#
# Poissons Ratio (x) = 0.23125 0.23596
# Poissons Ratio (y) = 0.14202 0.40793
# Poissons Ratio (z) = 0.14199 0.39970
#
# Static dielectric constant tensor:
#      x y z
#    x 3.864210 0.000000 0.348570 
#    y 0.000000 3.611150 0.000000 
#    z 0.348570 0.000000 3.877140 
# 
# 
# High freq. dielectric constant tensor:
#      x y z
#    x 1.703830 0.000000 -0.002410 
#    y 0.000000 1.735750 0.000000 
#    z -0.002410 0.000000 1.740400 
# 
# From -- ./inp_files/63442.got.cif
#   From: 2010.06.25/outbox.cif.g09.slc.cpg/sg13_32_cif.got.tgz:63442.got - 2010.06.28 04:50:58.
