data_PCOD8117592
_publ_section_title
;
Structure prediction by ZEFSAII (Michael W. Deem and Ramdas Pophale) SiO2 
 PCOD8117592
Probable space group: P 2/C
;
_chemical_formula_sum "Si O2"
_cell_formula_units_Z 26
_cell_length_a 8.894842
_cell_length_b 9.247564
_cell_length_c 14.858994
_cell_angle_alpha 90.000000
_cell_angle_beta 82.714763
_cell_angle_gamma 90.000000
_cell_volume 1212.368847
_symmetry_space_group_name_H-M "P 2/C"
_symmetry_group_IT_number 13
_symmetry_cell_setting 'monoclinic'
loop_
_space_group_symop_operation_xyz
x,y,z
-x,y,1/2-z
-x,-y,-z
x,-y,1/2+z
loop_
_atom_site_type_symbol
_atom_site_label
_atom_site_fract_x
_atom_site_fract_y
_atom_site_fract_z
Si Si1 0.154475 0.039734 0.938003
Si Si2 0.500000 0.408398 0.250000
Si Si3 0.380058 0.755900 0.510696
Si Si4 0.339135 0.241679 0.393452
Si Si5 0.141562 0.288061 0.795327
Si Si6 0.421443 0.314542 0.669769
Si Si7 0.823991 0.514840 0.039238
O O1 0.238527 0.899937 0.893066
O O2 0.267238 0.110583 0.002370
O O3 0.118581 0.143157 0.855885
O O4 0.000000 0.000000 0.000000
O O5 0.358505 0.309578 0.292667
O O6 0.553521 0.510414 0.329667
O O7 0.484268 0.782278 0.589988
O O8 0.508361 0.751948 0.424146
O O9 0.273022 0.613148 0.522947
O O10 0.248972 0.356324 0.462561
O O11 0.249484 0.268933 0.700350
O O12 0.196545 0.414382 0.859639
O O13 0.000000 0.340393 0.750000
O O14 0.500000 0.240453 0.750000
O O15 0.000000 0.500000 0.000000
#
# Coordination Sequence:
#
# PCOD8117592 Si02
#       7
#     4   2   4   4   4   4   4
#     4  11  25  46  59  91 135 165 216 265 310 381
#     4  10  20  38  60  96 128 148 196 280 308 356
#     4  11  23  41  68  93 119 178 218 250 318 388
#     4  12  23  40  66  93 129 162 209 273 322 361
#     4  11  24  43  67  91 123 178 214 250 320 391
#     4  10  18  41  67  88 127 150 225 263 297 385
#     4  11  22  39  64  98 127 163 206 268 320 376
#
# _framework density 21.445618
#
# number of rings (size 3 to 8) (size 9 to 14) (size 15 to 20)
#    0.462    0.615    6.154    2.769    4.308    1.231 
#    2.769    0.769    0.000    0.000    0.000    0.000 
#    0.000    0.000    0.000    0.000    0.000    0.000 
#
# Total GULP energy -322124.613206 kJ/mol
# GULP energy per Si atom -12389.408200 kJ/mol
# Density = 2.139681 g / cm^3
# Si number density = 21.445618 Si / 1000 Ang^3
#
#
#
# Elastic Constant Matrix: (Units=GPa)
#
#
# Indices 1 2 3 4 5 6 
#
# 1 128.6101 21.9119 23.4092 0.0000 -14.4784 0.0000
# 2 21.9119 100.3108 13.2637 0.0000 -5.8810 0.0000
# 3 23.4092 13.2637 42.7473 0.0000 -15.2947 0.0000
# 4 0.0000 0.0000 0.0000 18.5951 0.0000 -16.1792
# 5 -14.4784 -5.8810 -15.2947 0.0000 46.9420 0.0000
# 6 0.0000 0.0000 0.0000 -16.1792 0.0000 42.3490
#
#
#
# Elastic Compliance Matrix: (Units=1/GPa)
#
#
# Indices 1 2 3 4 5 6 
#
# 1 0.008872 -0.001336 -0.003990 0.000000 0.001269 0.000000
# 2 -0.001336 0.010600 -0.002524 0.000000 0.000094 0.000000
# 3 -0.003990 -0.002524 0.029214 0.000000 0.007972 0.000000
# 4 0.000000 0.000000 0.000000 0.080555 0.000000 0.030775
# 5 0.001269 0.000094 0.007972 0.000000 0.024303 0.000000
# 6 0.000000 0.000000 0.000000 0.030775 0.000000 0.035371
#
#
# Mechanical properties :
#
#
# Convention : Reuss Voigt Hill
#
# Bulk Modulus (GPa) = 30.31586 43.20421 36.76004
# Shear Modulus (GPa) = 23.19006 35.78278 29.48642
#
# Velocity S-wave (km/s) = 3.29194 4.08920 3.71204
# Velocity P-wave (km/s) = 5.34940 6.51806 5.96243
#
# Compressibility (1/GPa) = 0.03298603
#
# Stress axis : x y z
#
# Youngs Moduli (GPa) = 112.71189 94.33894 34.23071
#
# Poissons Ratio (x) = 0.12604 0.13658
# Poissons Ratio (y) = 0.15059 0.08639
# Poissons Ratio (z) = 0.44972 0.23810
#
# Static dielectric constant tensor:
#      x y z
#    x 4.024350 0.000000 -0.009030 
#    y 0.000000 3.818830 0.000000 
#    z -0.009030 0.000000 3.590190 
# 
# 
# High freq. dielectric constant tensor:
#      x y z
#    x 1.854940 0.000000 -0.017120 
#    y 0.000000 1.831370 0.000000 
#    z -0.017120 0.000000 1.825190 
# 
# From -- ./inp_files/63741.got.cif
#   From: 2010.06.25/outbox.cif.g09.slc.cpg/sg13_32_cif.got.tgz:63741.got - 2010.06.28 04:50:58.
