data_PCOD8117692
_publ_section_title
;
Structure prediction by ZEFSAII (Michael W. Deem and Ramdas Pophale) SiO2 
 PCOD8117692
Probable space group: P 2/C
;
_chemical_formula_sum "Si O2"
_cell_formula_units_Z 26
_cell_length_a 14.908777
_cell_length_b 15.039048
_cell_length_c 8.850352
_cell_angle_alpha 90.000000
_cell_angle_beta 42.723393
_cell_angle_gamma 90.000000
_cell_volume 1346.315803
_symmetry_space_group_name_H-M "P 2/C"
_symmetry_group_IT_number 13
_symmetry_cell_setting 'monoclinic'
loop_
_space_group_symop_operation_xyz
x,y,z
-x,y,1/2-z
-x,-y,-z
x,-y,1/2+z
loop_
_atom_site_type_symbol
_atom_site_label
_atom_site_fract_x
_atom_site_fract_y
_atom_site_fract_z
Si Si1 0.500000 0.973257 0.250000
Si Si2 0.825680 0.244958 0.614932
Si Si3 0.672416 0.075710 0.802697
Si Si4 0.161067 0.580359 0.232966
Si Si5 0.906895 0.052226 0.002927
Si Si6 0.153211 0.593973 0.905068
Si Si7 0.873771 0.773252 0.704851
O O1 0.426585 0.911941 0.216886
O O2 0.396303 0.034993 0.465762
O O3 0.723324 0.171045 0.799058
O O4 0.782208 0.342360 0.727244
O O5 0.828199 0.235462 0.432291
O O6 0.968568 0.226573 0.508011
O O7 0.792471 0.014922 0.591374
O O8 0.214064 0.486883 0.232832
O O9 0.003563 0.583814 0.415572
O O10 0.213776 0.589135 0.997712
O O11 0.831420 0.135063 0.176614
O O12 0.000000 0.084400 0.750000
O O13 0.000000 0.000000 0.000000
O O14 0.195279 0.690185 0.791726
#
# Coordination Sequence:
#
# PCOD8117692 Si02
#       7
#     2   4   4   4   4   4   4
#     4  10  24  40  56  72 104 152 194 246 278 318
#     4  10  19  32  51  73 108 140 181 223 272 333
#     4  11  22  39  56  77 108 145 193 232 284 334
#     4   9  17  28  46  68 103 149 181 215 255 318
#     4  12  23  34  55  82 113 145 181 232 288 344
#     4   9  17  28  43  68 108 148 182 206 254 328
#     4  10  20  30  47  78 111 145 174 217 274 337
#
# _framework density 19.311962000000001
#
# number of rings (size 3 to 8) (size 9 to 14) (size 15 to 20)
#    0.000    1.846    1.538    3.692    4.308    3.692 
#    0.000    0.000    0.000    0.000    0.000    0.000 
#    0.000   41.846    0.000    0.000    0.000    0.000 
#
# Total GULP energy -322326.420925 kJ/mol
# GULP energy per Si atom -12397.170036 kJ/mol
# Density = 1.926801 g / cm^3
# Si number density = 19.311962 Si / 1000 Ang^3
#
#
#
# Elastic Constant Matrix: (Units=GPa)
#
#
# Indices 1 2 3 4 5 6 
#
# 1 67.8920 47.0558 26.7814 0.0000 19.6047 0.0000
# 2 47.0558 161.5973 27.8436 0.0000 13.8944 0.0000
# 3 26.7814 27.8436 57.6302 0.0000 12.7203 0.0000
# 4 0.0000 0.0000 0.0000 18.1540 0.0000 6.7949
# 5 19.6047 13.8944 12.7203 0.0000 29.2996 0.0000
# 6 0.0000 0.0000 0.0000 6.7949 0.0000 25.6095
#
#
#
# Elastic Compliance Matrix: (Units=1/GPa)
#
#
# Indices 1 2 3 4 5 6 
#
# 1 0.023723 -0.004897 -0.006268 0.000000 -0.010830 0.000000
# 2 -0.004897 0.007866 -0.001576 0.000000 0.000230 0.000000
# 3 -0.006268 -0.001576 0.022048 0.000000 -0.004631 0.000000
# 4 0.000000 0.000000 0.000000 0.061158 0.000000 -0.016227
# 5 -0.010830 0.000230 -0.004631 0.000000 0.043278 0.000000
# 6 0.000000 0.000000 0.000000 -0.016227 0.000000 0.043353
#
#
# Mechanical properties :
#
#
# Convention : Reuss Voigt Hill
#
# Bulk Modulus (GPa) = 35.51615 54.49789 45.00702
# Shear Modulus (GPa) = 21.16020 26.97521 24.06771
#
# Velocity S-wave (km/s) = 3.31373 3.74145 3.53407
# Velocity P-wave (km/s) = 5.75081 6.85169 6.32524
#
# Compressibility (1/GPa) = 0.02815620
#
# Stress axis : x y z
#
# Youngs Moduli (GPa) = 42.15299 127.13289 45.35511
#
# Poissons Ratio (x) = 0.62254 0.28429
# Poissons Ratio (y) = 0.20641 0.07146
# Poissons Ratio (z) = 0.26422 0.20031
#
# Static dielectric constant tensor:
#      x y z
#    x 3.458510 0.000000 0.289300 
#    y 0.000000 3.763420 0.000000 
#    z 0.289300 0.000000 3.732070 
# 
# 
# High freq. dielectric constant tensor:
#      x y z
#    x 1.734270 0.000000 0.040530 
#    y 0.000000 1.758600 0.000000 
#    z 0.040530 0.000000 1.718270 
# 
# From -- ./inp_files/19851.got.cif
#   From: 2010.06.25/outbox.cif.g09.slc.cpg/sg13_10_cif.got.tgz:19851.got - 2010.06.28 04:50:58.
