data_PCOD8117126
_publ_section_title
;
Structure prediction by ZEFSAII (Michael W. Deem and Ramdas Pophale) SiO2 
 PCOD8117126
Probable space group: P 2/C
;
_chemical_formula_sum "Si O2"
_cell_formula_units_Z 28
_cell_length_a 18.443801
_cell_length_b 8.960823
_cell_length_c 14.881533
_cell_angle_alpha 90.000000
_cell_angle_beta 144.669742
_cell_angle_gamma 90.000000
_cell_volume 1422.297969
_symmetry_space_group_name_H-M "P 2/C"
_symmetry_group_IT_number 13
_symmetry_cell_setting 'monoclinic'
loop_
_space_group_symop_operation_xyz
x,y,z
-x,y,1/2-z
-x,-y,-z
x,-y,1/2+z
loop_
_atom_site_type_symbol
_atom_site_label
_atom_site_fract_x
_atom_site_fract_y
_atom_site_fract_z
Si Si1 0.768059 0.361240 0.317648
Si Si2 0.176184 0.388522 0.502440
Si Si3 0.963542 0.837420 0.119450
Si Si4 0.247044 0.941396 0.052199
Si Si5 0.896584 0.640791 0.769575
Si Si6 0.184770 0.972669 0.798102
Si Si7 0.626694 0.925667 0.661998
O O1 0.735414 0.491380 0.356298
O O2 0.883359 0.265445 0.473657
O O3 0.817394 0.429197 0.272648
O O4 0.643822 0.256155 0.176826
O O5 0.242607 0.229457 0.579063
O O6 0.163995 0.421919 0.383862
O O7 0.042700 0.401379 0.418209
O O8 0.000000 0.753052 0.250000
O O9 0.090694 0.887461 0.198775
O O10 0.889346 0.987550 0.070111
O O11 0.355525 0.022820 0.217692
O O12 0.278566 0.969307 0.978994
O O13 0.891585 0.818953 0.773128
O O14 0.262547 0.992252 0.786393
O O15 0.500000 0.000000 0.500000
#
# Coordination Sequence:
#
# PCOD8117126 Si02
#       7
#     4   4   4   4   4   4   4
#     4  10  21  32  51  79 110 140 174 216 261 319
#     4  10  18  32  49  77 110 140 168 206 266 332
#     4   9  17  30  50  80 112 134 169 212 271 321
#     4   9  18  33  54  77 103 141 171 215 269 321
#     4   9  18  30  50  75 112 142 167 200 263 333
#     4   9  17  33  55  78 105 139 175 217 259 332
#     4  10  22  37  53  75 102 139 188 229 259 297
#
# _framework density 19.686451000000002
#
# number of rings (size 3 to 8) (size 9 to 14) (size 15 to 20)
#    0.000    2.571    1.429    0.429    4.000    2.286 
#    0.000    0.714    0.000    0.000    0.000   12.000 
#    0.000    0.000    0.000    0.000    0.000    0.000 
#
# Total GULP energy -346974.530012 kJ/mol
# GULP energy per Si atom -12391.947500 kJ/mol
# Density = 1.964164 g / cm^3
# Si number density = 19.686451 Si / 1000 Ang^3
#
#
#
# Elastic Constant Matrix: (Units=GPa)
#
#
# Indices 1 2 3 4 5 6 
#
# 1 42.4981 18.4372 14.3873 0.0000 -17.7128 0.0000
# 2 18.4372 63.2074 16.0477 0.0000 -5.5528 0.0000
# 3 14.3873 16.0477 72.1967 0.0000 -9.6622 0.0000
# 4 0.0000 0.0000 0.0000 34.0645 0.0000 -8.9752
# 5 -17.7128 -5.5528 -9.6622 0.0000 27.1421 0.0000
# 6 0.0000 0.0000 0.0000 -8.9752 0.0000 22.7700
#
#
#
# Elastic Compliance Matrix: (Units=1/GPa)
#
#
# Indices 1 2 3 4 5 6 
#
# 1 0.036951 -0.008215 -0.002662 0.000000 0.021485 0.000000
# 2 -0.008215 0.018721 -0.002866 0.000000 -0.002551 0.000000
# 3 -0.002662 -0.002866 0.015443 0.000000 0.003174 0.000000
# 4 0.000000 0.000000 0.000000 0.032758 0.000000 0.012912
# 5 0.021485 -0.002551 0.003174 0.000000 0.051472 0.000000
# 6 0.000000 0.000000 0.000000 0.012912 0.000000 0.049007
#
#
# Mechanical properties :
#
#
# Convention : Reuss Voigt Hill
#
# Bulk Modulus (GPa) = 22.92028 30.62741 26.77384
# Shear Modulus (GPa) = 20.29386 25.39734 22.84560
#
# Velocity S-wave (km/s) = 3.21417 3.59568 3.41027
# Velocity P-wave (km/s) = 5.04406 5.72974 5.39780
#
# Compressibility (1/GPa) = 0.04362949
#
# Stress axis : x y z
#
# Youngs Moduli (GPa) = 27.06323 53.41720 64.75309
#
# Poissons Ratio (x) = 0.43881 0.17237
# Poissons Ratio (y) = 0.22232 0.18555
# Poissons Ratio (z) = 0.07204 0.15307
#
# Static dielectric constant tensor:
#      x y z
#    x 3.637530 0.000000 -0.462810 
#    y 0.000000 3.518920 0.000000 
#    z -0.462810 0.000000 3.522620 
# 
# 
# High freq. dielectric constant tensor:
#      x y z
#    x 1.751370 0.000000 -0.043340 
#    y 0.000000 1.752360 0.000000 
#    z -0.043340 0.000000 1.746660 
# 
# From -- ./inp_files/55321.got.cif
#   From: 2010.06.25/outbox.cif.g09.slc.cpg/sg13_28_cif.got.tgz:55321.got - 2010.06.28 04:50:58.
