data_PCOD8117757
_publ_section_title
;
Structure prediction by ZEFSAII (Michael W. Deem and Ramdas Pophale) SiO2 
 PCOD8117757
Probable space group: P 2/C
;
_chemical_formula_sum "Si O2"
_cell_formula_units_Z 28
_cell_length_a 22.245050
_cell_length_b 14.394638
_cell_length_c 9.244313
_cell_angle_alpha 90.000000
_cell_angle_beta 33.784388
_cell_angle_gamma 90.000000
_cell_volume 1646.029411
_symmetry_space_group_name_H-M "P 2/C"
_symmetry_group_IT_number 13
_symmetry_cell_setting 'monoclinic'
loop_
_space_group_symop_operation_xyz
x,y,z
-x,y,1/2-z
-x,-y,-z
x,-y,1/2+z
loop_
_atom_site_type_symbol
_atom_site_label
_atom_site_fract_x
_atom_site_fract_y
_atom_site_fract_z
Si Si1 0.999999 0.596665 0.419083
Si Si2 0.876447 0.910572 0.665594
Si Si3 0.789703 0.287251 0.001249
Si Si4 0.626161 0.407069 0.829971
Si Si5 0.626163 0.592929 0.665375
Si Si6 0.876447 0.089428 0.828616
Si Si7 0.789699 0.712749 0.839941
O O1 0.000000 0.576221 0.250000
O O2 0.000000 0.500000 0.500000
O O3 0.895231 0.655005 0.674239
O O4 0.104763 0.655008 0.255176
O O5 0.869967 0.931426 0.510065
O O6 0.807101 0.820315 0.845156
O O7 0.999999 0.892561 0.466516
O O8 0.827692 0.000000 0.844615
O O9 0.688386 0.320497 0.109926
O O10 0.764543 0.299752 0.220910
O O11 0.807100 0.179684 0.926436
O O12 0.663136 0.499998 0.673724
O O13 0.688381 0.320494 0.636535
O O14 0.499998 0.387864 0.060232
O O15 0.656653 0.418473 0.936691
#
# Coordination Sequence:
#
# PCOD8117757 Si02
#       7
#     4   4   4   4   4   4   4
#     4  10  20  32  45  68 102 134 161 196 243 294
#     4   9  17  31  50  73 102 134 166 203 247 296
#     4  10  19  33  52  73 102 135 166 204 250 298
#     4  10  21  36  53  74 100 131 170 213 252 294
#     4  10  21  36  53  74 100 131 170 213 252 294
#     4   9  17  31  50  73 102 134 166 203 247 296
#     4  10  19  33  52  73 102 135 166 204 250 298
#
# _framework density 17.010632000000001
#
# number of rings (size 3 to 8) (size 9 to 14) (size 15 to 20)
#    0.000    2.286    1.429    1.714    0.000    6.286 
#    0.000    0.000    0.000    0.857    0.000    0.000 
#    0.000    0.000    0.000    0.000    0.000    0.000 
#
# Total GULP energy -347280.817077 kJ/mol
# GULP energy per Si atom -12402.886324 kJ/mol
# Density = 1.697191 g / cm^3
# Si number density = 17.010632 Si / 1000 Ang^3
#
#
#
# Elastic Constant Matrix: (Units=GPa)
#
#
# Indices 1 2 3 4 5 6 
#
# 1 87.0895 68.0840 34.1744 0.0000 -3.4496 0.0000
# 2 68.0840 152.2461 60.0602 0.0000 7.2206 0.0000
# 3 34.1744 60.0602 79.7654 0.0000 10.0399 0.0000
# 4 0.0000 0.0000 0.0000 24.6795 0.0000 6.7327
# 5 -3.4496 7.2206 10.0399 0.0000 16.2317 0.0000
# 6 0.0000 0.0000 0.0000 6.7327 0.0000 32.1587
#
#
#
# Elastic Compliance Matrix: (Units=1/GPa)
#
#
# Indices 1 2 3 4 5 6 
#
# 1 0.019301 -0.007607 -0.003778 0.000000 0.009822 0.000000
# 2 -0.007607 0.012342 -0.005574 0.000000 -0.003660 0.000000
# 3 -0.003778 -0.005574 0.019673 0.000000 -0.010492 0.000000
# 4 0.000000 0.000000 0.000000 0.042974 0.000000 -0.008997
# 5 0.009822 -0.003660 -0.010492 0.000000 0.071813 0.000000
# 6 0.000000 0.000000 0.000000 -0.008997 0.000000 0.032979
#
#
# Mechanical properties :
#
#
# Convention : Reuss Voigt Hill
#
# Bulk Modulus (GPa) = 57.47412 71.52645 64.50029
# Shear Modulus (GPa) = 20.93820 25.06614 23.00217
#
# Velocity S-wave (km/s) = 3.51221 3.84286 3.68125
# Velocity P-wave (km/s) = 7.09281 7.86317 7.48791
#
# Compressibility (1/GPa) = 0.01739913
#
# Stress axis : x y z
#
# Youngs Moduli (GPa) = 51.81173 81.02177 50.83193
#
# Poissons Ratio (x) = 0.61631 0.19204
# Poissons Ratio (y) = 0.39412 0.28332
# Poissons Ratio (z) = 0.19574 0.45159
#
# Static dielectric constant tensor:
#      x y z
#    x 3.141750 0.000000 0.065950 
#    y 0.000000 3.314330 0.000000 
#    z 0.065950 0.000000 3.068440 
# 
# 
# High freq. dielectric constant tensor:
#      x y z
#    x 1.652070 0.000000 0.008630 
#    y 0.000000 1.659320 0.000000 
#    z 0.008630 0.000000 1.642480 
# 
# From -- ./inp_files/19600.got.cif
#   From: 2010.06.25/outbox.cif.g09.slc.cpg/sg13_10_cif.got.tgz:19600.got - 2010.06.28 04:50:58.
