data_PCOD8117802
_publ_section_title
;
Structure prediction by ZEFSAII (Michael W. Deem and Ramdas Pophale) SiO2 
 PCOD8117802
Probable space group: P 2/C
;
_chemical_formula_sum "Si O2"
_cell_formula_units_Z 20
_cell_length_a 4.997656
_cell_length_b 9.076467
_cell_length_c 24.322800
_cell_angle_alpha 90.000000
_cell_angle_beta 127.089490
_cell_angle_gamma 90.000000
_cell_volume 880.102782
_symmetry_space_group_name_H-M "P 2/C"
_symmetry_group_IT_number 13
_symmetry_cell_setting 'monoclinic'
loop_
_space_group_symop_operation_xyz
x,y,z
-x,y,1/2-z
-x,-y,-z
x,-y,1/2+z
loop_
_atom_site_type_symbol
_atom_site_label
_atom_site_fract_x
_atom_site_fract_y
_atom_site_fract_z
Si Si1 0.905321 0.762339 0.586602
Si Si2 0.223795 0.949510 0.135225
Si Si3 0.155538 0.227489 0.825061
Si Si4 0.203947 0.552723 0.423418
Si Si5 0.869267 0.206572 0.504687
O O1 0.002729 0.595715 0.618055
O O2 0.524911 0.797513 0.558998
O O3 0.907479 0.766576 0.520836
O O4 0.178352 0.877135 0.645639
O O5 0.585561 0.903005 0.157493
O O6 0.139912 0.850455 0.177337
O O7 0.968151 0.940366 0.050942
O O8 0.310212 0.361996 0.880270
O O9 0.000000 0.294498 0.750000
O O10 0.500000 0.500000 0.500000
O O11 0.002277 0.666740 0.436595
#
# Coordination Sequence:
#
# PCOD8117802 Si02
#       5
#     4   4   4   4   4
#     4  11  20  33  57  91 121 150 192 253 308 359
#     4  11  21  37  59  85 116 159 204 250 300 368
#     4  11  24  42  61  82 118 169 214 252 312 391
#     4   9  20  37  60  91 123 156 198 255 315 375
#     4  10  19  33  55  89 125 156 187 238 310 381
#
# _framework density 22.724619000000001
#
# number of rings (size 3 to 8) (size 9 to 14) (size 15 to 20)
#    0.000    1.600    0.000    7.200    0.000    4.800 
#    0.000    1.000    0.000    7.200    0.000    0.000 
#    0.000    0.000    0.000    0.000    0.000    0.000 
#
# Total GULP energy -247775.664566 kJ/mol
# GULP energy per Si atom -12388.783228 kJ/mol
# Density = 2.267290 g / cm^3
# Si number density = 22.724619 Si / 1000 Ang^3
#
#
#
# Elastic Constant Matrix: (Units=GPa)
#
#
# Indices 1 2 3 4 5 6 
#
# 1 73.7724 15.8310 15.1922 0.0000 -4.9524 0.0000
# 2 15.8310 126.0639 33.3227 0.0000 3.4167 0.0000
# 3 15.1922 33.3227 90.3499 0.0000 -19.8537 0.0000
# 4 0.0000 0.0000 0.0000 18.8908 0.0000 2.4451
# 5 -4.9524 3.4167 -19.8537 0.0000 26.1605 0.0000
# 6 0.0000 0.0000 0.0000 2.4451 0.0000 22.3112
#
#
#
# Elastic Compliance Matrix: (Units=1/GPa)
#
#
# Indices 1 2 3 4 5 6 
#
# 1 0.014290 -0.001452 -0.001478 0.000000 0.001773 0.000000
# 2 -0.001452 0.009366 -0.004248 0.000000 -0.004722 0.000000
# 3 -0.001478 -0.004248 0.015534 0.000000 0.012064 0.000000
# 4 0.000000 0.000000 0.000000 0.053697 0.000000 -0.005885
# 5 0.001773 -0.004722 0.012064 0.000000 0.048334 0.000000
# 6 0.000000 0.000000 0.000000 -0.005885 0.000000 0.045465
#
#
# Mechanical properties :
#
#
# Convention : Reuss Voigt Hill
#
# Bulk Modulus (GPa) = 40.26512 46.54200 43.40356
# Shear Modulus (GPa) = 23.88694 28.52853 26.20774
#
# Velocity S-wave (km/s) = 3.24566 3.54701 3.39967
# Velocity P-wave (km/s) = 5.63941 6.10740 5.87806
#
# Compressibility (1/GPa) = 0.02483539
#
# Stress axis : x y z
#
# Youngs Moduli (GPa) = 69.97830 106.77408 64.37436
#
# Poissons Ratio (x) = 0.15504 0.09512
# Poissons Ratio (y) = 0.10161 0.27344
# Poissons Ratio (z) = 0.10340 0.45353
#
# Static dielectric constant tensor:
#      x y z
#    x 3.950890 0.000000 -0.221620 
#    y 0.000000 5.322300 0.000000 
#    z -0.221620 0.000000 3.653200 
# 
# 
# High freq. dielectric constant tensor:
#      x y z
#    x 1.900210 0.000000 -0.020660 
#    y 0.000000 1.910440 0.000000 
#    z -0.020660 0.000000 1.842990 
# 
# From -- ./inp_files/90340.got.cif
#   From: 2010.06.25/outbox.cif.g09.slc.cpg/sg13_46_cif.got.tgz:90340.got - 2010.06.28 04:50:58.
