data_PCOD8117426
_publ_section_title
;
Structure prediction by ZEFSAII (Michael W. Deem and Ramdas Pophale) SiO2 
 PCOD8117426
Probable space group: P 2/C
;
_chemical_formula_sum "Si O2"
_cell_formula_units_Z 30
_cell_length_a 19.920890
_cell_length_b 11.972091
_cell_length_c 9.334820
_cell_angle_alpha 90.000000
_cell_angle_beta 134.795033
_cell_angle_gamma 90.000000
_cell_volume 1579.856987
_symmetry_space_group_name_H-M "P 2/C"
_symmetry_group_IT_number 13
_symmetry_cell_setting 'monoclinic'
loop_
_space_group_symop_operation_xyz
x,y,z
-x,y,1/2-z
-x,-y,-z
x,-y,1/2+z
loop_
_atom_site_type_symbol
_atom_site_label
_atom_site_fract_x
_atom_site_fract_y
_atom_site_fract_z
Si Si1 0.147572 0.102039 0.291436
Si Si2 0.862755 0.620577 0.417882
Si Si3 0.290094 0.933029 0.498907
Si Si4 0.756733 0.785876 0.810780
Si Si5 0.895765 0.603351 0.136977
Si Si6 0.607191 0.170018 0.864724
Si Si7 0.000000 0.800919 0.750000
Si Si8 0.286528 0.219849 0.726074
O O1 0.159490 0.153094 0.150756
O O2 0.213584 0.162360 0.507602
O O3 0.041659 0.117723 0.189244
O O4 0.179888 0.973127 0.327452
O O5 0.887747 0.586803 0.294446
O O6 0.884326 0.517801 0.551956
O O7 0.754130 0.661945 0.276143
O O8 0.925106 0.725702 0.555735
O O9 0.297001 0.862246 0.653908
O O10 0.313601 0.857519 0.399339
O O11 0.359145 0.040340 0.597913
O O12 0.671502 0.758862 0.572955
O O13 0.807417 0.678544 0.954638
O O14 0.000000 0.650837 0.250000
O O15 0.500000 0.174219 0.750000
O O16 0.618055 0.232193 0.726292
#
# Coordination Sequence:
#
# PCOD8117426 Si02
#       8
#     4   4   4   4   4   4   2   4
#     4   9  18  32  53  71 112 161 189 229 289 345
#     4  11  23  37  58  83 115 155 199 249 296 331
#     4  10  18  36  54  84 121 152 191 235 290 355
#     4  10  21  37  57  84 122 152 194 246 296 342
#     4  12  24  37  61  88 116 155 208 249 284 341
#     4  10  21  37  65  91 117 154 192 236 293 364
#     4  10  20  36  52  80 116 148 202 250 280 338
#     4   9  19  36  55  81 121 151 188 240 297 346
#
# _framework density 18.989059000000001
#
# number of rings (size 3 to 8) (size 9 to 14) (size 15 to 20)
#    0.000    2.133    2.000    4.400    5.600    2.133 
#    1.200    3.333    0.000    0.800    0.000    0.000 
#    0.000    0.000    0.000    0.000    0.000    0.000 
#
# Total GULP energy -371673.201106 kJ/mol
# GULP energy per Si atom -12389.106704 kJ/mol
# Density = 1.894584 g / cm^3
# Si number density = 18.989059 Si / 1000 Ang^3
#
#
#
# Elastic Constant Matrix: (Units=GPa)
#
#
# Indices 1 2 3 4 5 6 
#
# 1 173.3481 43.4522 57.7056 0.0000 -11.8441 0.0000
# 2 43.4522 39.4353 23.6592 0.0000 4.1461 0.0000
# 3 57.7056 23.6592 61.3225 0.0000 -15.6535 0.0000
# 4 0.0000 0.0000 0.0000 108.7162 0.0000 -100.6188
# 5 -11.8441 4.1461 -15.6535 0.0000 40.8391 0.0000
# 6 0.0000 0.0000 0.0000 -100.6188 0.0000 129.6199
#
#
#
# Elastic Compliance Matrix: (Units=1/GPa)
#
#
# Indices 1 2 3 4 5 6 
#
# 1 0.009644 -0.007153 -0.006003 0.000000 0.001222 0.000000
# 2 -0.007153 0.041680 -0.012148 0.000000 -0.010962 0.000000
# 3 -0.006003 -0.012148 0.029389 0.000000 0.010757 0.000000
# 4 0.000000 0.000000 0.000000 0.032669 0.000000 0.025360
# 5 0.001222 -0.010962 0.010757 0.000000 0.030077 0.000000
# 6 0.000000 0.000000 0.000000 0.025360 0.000000 0.027401
#
#
# Mechanical properties :
#
#
# Convention : Reuss Voigt Hill
#
# Bulk Modulus (GPa) = 33.21759 58.19333 45.70546
# Shear Modulus (GPa) = 21.59798 65.78763 43.69280
#
# Velocity S-wave (km/s) = 3.37618 5.89239 4.80202
# Velocity P-wave (km/s) = 5.72094 8.77530 7.40726
#
# Compressibility (1/GPa) = 0.03010454
#
# Stress axis : x y z
#
# Youngs Moduli (GPa) = 103.69610 23.99223 34.02599
#
# Poissons Ratio (x) = 0.17161 0.20427
# Poissons Ratio (y) = 0.74171 0.41336
# Poissons Ratio (z) = 0.62251 0.29147
#
# Static dielectric constant tensor:
#      x y z
#    x 4.212080 0.000000 -0.203130 
#    y 0.000000 3.344850 0.000000 
#    z -0.203130 0.000000 3.334300 
# 
# 
# High freq. dielectric constant tensor:
#      x y z
#    x 1.752550 0.000000 -0.030520 
#    y 0.000000 1.711380 0.000000 
#    z -0.030520 0.000000 1.722340 
# 
# From -- ./inp_files/23269.got.cif
#   From: 2010.06.25/outbox.cif.g09.slc.cpg/sg13_12_cif.got.tgz:23269.got - 2010.06.28 04:50:58.
