data_PCOD8117713
_publ_section_title
;
Structure prediction by ZEFSAII (Michael W. Deem and Ramdas Pophale) SiO2 
 PCOD8117713
Probable space group: P 2/C
;
_chemical_formula_sum "Si O2"
_cell_formula_units_Z 20
_cell_length_a 10.507297
_cell_length_b 15.443789
_cell_length_c 7.747983
_cell_angle_alpha 90.000000
_cell_angle_beta 51.776885
_cell_angle_gamma 90.000000
_cell_volume 987.731857
_symmetry_space_group_name_H-M "P 2/C"
_symmetry_group_IT_number 13
_symmetry_cell_setting 'monoclinic'
loop_
_space_group_symop_operation_xyz
x,y,z
-x,y,1/2-z
-x,-y,-z
x,-y,1/2+z
loop_
_atom_site_type_symbol
_atom_site_label
_atom_site_fract_x
_atom_site_fract_y
_atom_site_fract_z
Si Si1 0.692203 0.408203 0.898404
Si Si2 0.377029 0.952429 0.725464
Si Si3 0.692520 0.715189 0.093433
Si Si4 0.306996 0.404951 0.216206
Si Si5 0.188370 0.897557 0.580518
O O1 0.753839 0.338489 0.707734
O O2 0.761436 0.502262 0.788155
O O3 0.499557 0.410217 0.054553
O O4 0.755394 0.383791 0.037604
O O5 0.500000 0.899712 0.750000
O O6 0.262525 0.888859 0.712218
O O7 0.500000 0.000000 0.500000
O O8 0.266921 0.022085 0.916217
O O9 0.500000 0.726998 0.250000
O O10 0.753111 0.668137 0.867382
O O11 0.776745 0.807961 0.045057
O O12 0.000000 0.916392 0.750000
#
# Coordination Sequence:
#
# PCOD8117713 Si02
#       5
#     4   4   4   4   4
#     4   9  15  26  47  76 111 146 191 251 297 338
#     4   9  19  39  65  87 110 145 194 241 289 350
#     4  10  19  32  52  81 115 150 197 248 289 347
#     4   9  15  26  46  77 109 145 193 246 301 335
#     4  11  22  39  60  87 122 155 188 237 304 365
#
# _framework density 20.248411000000001
#
# number of rings (size 3 to 8) (size 9 to 14) (size 15 to 20)
#    0.000    2.400    2.000    2.400    0.000    0.000 
#   14.400    0.000    0.000    1.200    0.000    0.000 
#    0.000    0.000    0.000    0.000    0.000    0.000 
#
# Total GULP energy -247868.233249 kJ/mol
# GULP energy per Si atom -12393.411662 kJ/mol
# Density = 2.020232 g / cm^3
# Si number density = 20.248411 Si / 1000 Ang^3
#
#
#
# Elastic Constant Matrix: (Units=GPa)
#
#
# Indices 1 2 3 4 5 6 
#
# 1 88.0782 18.1246 53.6121 0.0000 15.6165 0.0000
# 2 18.1246 86.2220 34.9387 0.0000 7.1770 0.0000
# 3 53.6121 34.9387 94.9780 0.0000 22.8097 0.0000
# 4 0.0000 0.0000 0.0000 30.2111 0.0000 11.5175
# 5 15.6165 7.1770 22.8097 0.0000 39.6647 0.0000
# 6 0.0000 0.0000 0.0000 11.5175 0.0000 1.4746
#
#
#
# Elastic Compliance Matrix: (Units=1/GPa)
#
#
# Indices 1 2 3 4 5 6 
#
# 1 0.017372 0.000355 -0.009605 0.000000 -0.001380 0.000000
# 2 0.000355 0.013645 -0.005330 0.000000 0.000456 0.000000
# 3 -0.009605 -0.005330 0.019459 0.000000 -0.006444 0.000000
# 4 0.000000 0.000000 0.000000 -0.016737 0.000000 0.130727
# 5 -0.001380 0.000456 -0.006444 0.000000 0.029378 0.000000
# 6 0.000000 0.000000 0.000000 0.130727 0.000000 -0.342907
#
#
# Mechanical properties :
#
#
# Convention : Reuss Voigt Hill
#
# Bulk Modulus (GPa) = 46.91140 53.62542 50.26841
# Shear Modulus (GPa) = -20.53159 25.11027 2.28934
#
# Velocity S-wave (km/s) = -3.18777 3.52534 1.06446
# Velocity P-wave (km/s) = 3.10952 6.56597 5.13717
#
# Compressibility (1/GPa) = 0.02131678
#
# Stress axis : x y z
#
# Youngs Moduli (GPa) = 57.56542 73.28727 51.39135
#
# Poissons Ratio (x) = -0.02604 0.49361
# Poissons Ratio (y) = -0.02045 0.27389
# Poissons Ratio (z) = 0.55291 0.39059
#
# Static dielectric constant tensor:
#      x y z
#    x 4.116370 0.000000 0.634320 
#    y 0.000000 3.421750 0.000000 
#    z 0.634320 0.000000 3.445270 
# 
# 
# High freq. dielectric constant tensor:
#      x y z
#    x 1.774960 0.000000 0.030090 
#    y 0.000000 1.773320 0.000000 
#    z 0.030090 0.000000 1.783950 
# 
# From -- ./inp_files/12704.got.cif
#   From: 2010.06.25/outbox.cif.g09.slc.cpg/sg13_7_cif.got.tgz:12704.got - 2010.06.28 04:50:58.
