data_PCOD8117878
_publ_section_title
;
Structure prediction by ZEFSAII (Michael W. Deem and Ramdas Pophale) SiO2 
 PCOD8117878
Probable space group: P 2/C
;
_chemical_formula_sum "Si O2"
_cell_formula_units_Z 30
_cell_length_a 15.828938
_cell_length_b 6.465698
_cell_length_c 15.807249
_cell_angle_alpha 90.000000
_cell_angle_beta 65.158207
_cell_angle_gamma 90.000000
_cell_volume 1468.102494
_symmetry_space_group_name_H-M "P 2/C"
_symmetry_group_IT_number 13
_symmetry_cell_setting 'monoclinic'
loop_
_space_group_symop_operation_xyz
x,y,z
-x,y,1/2-z
-x,-y,-z
x,-y,1/2+z
loop_
_atom_site_type_symbol
_atom_site_label
_atom_site_fract_x
_atom_site_fract_y
_atom_site_fract_z
Si Si1 0.501216 0.640819 0.416720
Si Si2 0.860764 0.049550 0.726984
Si Si3 0.000000 0.667614 0.250000
Si Si4 0.669295 0.330572 0.621340
Si Si5 0.587601 0.674713 0.754539
Si Si6 0.123403 0.304141 0.945374
Si Si7 0.042274 0.350450 0.371501
Si Si8 0.348118 0.925732 0.202291
O O1 0.500000 0.500000 0.500000
O O2 0.397522 0.714877 0.431790
O O3 0.542910 0.514079 0.322719
O O4 0.573211 0.834600 0.394914
O O5 0.896144 0.810727 0.709689
O O6 0.880202 0.131489 0.625088
O O7 0.753463 0.089811 0.796430
O O8 0.911834 0.179976 0.778445
O O9 0.992637 0.522897 0.334608
O O10 0.656821 0.569223 0.657405
O O11 0.776790 0.303002 0.549075
O O12 0.645919 0.172031 0.706814
O O13 0.500000 0.796838 0.750000
O O14 0.639972 0.828222 0.794568
O O15 0.107708 0.532521 0.911873
O O16 0.043494 0.239160 0.045199
#
# Coordination Sequence:
#
# PCOD8117878 Si02
#       8
#     4   4   2   4   4   4   4   4
#     4  10  21  34  50  77 113 142 174 220 266 316
#     4  10  20  35  55  80 107 138 180 225 271 329
#     4  10  22  36  52  76 110 144 174 214 274 336
#     4   9  18  34  53  77 105 136 178 224 264 316
#     4   9  17  32  55  75  99 139 181 217 259 309
#     4   9  19  33  55  81 104 138 181 227 277 319
#     4  10  19  35  56  78 109 141 178 227 274 328
#     4  10  19  34  56  77 101 140 185 222 262 313
#
# _framework density 20.434539999999998
#
# number of rings (size 3 to 8) (size 9 to 14) (size 15 to 20)
#    0.000    2.400    0.000    3.600    0.000    2.667 
#    0.000    1.333    0.000    3.200    0.000    0.000 
#    0.000    0.000    0.000    0.000    0.000    0.000 
#
# Total GULP energy -371800.790026 kJ/mol
# GULP energy per Si atom -12393.359668 kJ/mol
# Density = 2.038803 g / cm^3
# Si number density = 20.434540 Si / 1000 Ang^3
#
#
#
# Elastic Constant Matrix: (Units=GPa)
#
#
# Indices 1 2 3 4 5 6 
#
# 1 152.9736 33.4766 25.4159 0.0000 -5.9505 0.0000
# 2 33.4766 77.1486 0.2135 0.0000 -6.0690 0.0000
# 3 25.4159 0.2135 33.9542 0.0000 -6.2233 0.0000
# 4 0.0000 0.0000 0.0000 17.5260 0.0000 0.4314
# 5 -5.9505 -6.0690 -6.2233 0.0000 24.3688 0.0000
# 6 0.0000 0.0000 0.0000 0.4314 0.0000 29.0721
#
#
#
# Elastic Compliance Matrix: (Units=1/GPa)
#
#
# Indices 1 2 3 4 5 6 
#
# 1 0.008369 -0.003652 -0.006330 0.000000 -0.000482 0.000000
# 2 -0.003652 0.014824 0.003309 0.000000 0.003645 0.000000
# 3 -0.006330 0.003309 0.035708 0.000000 0.008397 0.000000
# 4 0.000000 0.000000 0.000000 0.057079 0.000000 -0.000847
# 5 -0.000482 0.003645 0.008397 0.000000 0.043971 0.000000
# 6 0.000000 0.000000 0.000000 -0.000847 0.000000 0.034410
#
#
# Mechanical properties :
#
#
# Convention : Reuss Voigt Hill
#
# Bulk Modulus (GPa) = 21.95177 42.47648 32.21413
# Shear Modulus (GPa) = 22.43229 27.85808 25.14518
#
# Velocity S-wave (km/s) = 3.31685 3.69627 3.51169
# Velocity P-wave (km/s) = 5.04326 6.24886 5.67815
#
# Compressibility (1/GPa) = 0.04555440
#
# Stress axis : x y z
#
# Youngs Moduli (GPa) = 119.48508 67.45680 28.00487
#
# Poissons Ratio (x) = 0.24636 0.17727
# Poissons Ratio (y) = 0.43637 -0.09266
# Poissons Ratio (z) = 0.75636 -0.22319
#
# Static dielectric constant tensor:
#      x y z
#    x 4.223990 0.000000 -0.131890 
#    y 0.000000 3.654230 0.000000 
#    z -0.131890 0.000000 3.325000 
# 
# 
# High freq. dielectric constant tensor:
#      x y z
#    x 1.811070 0.000000 -0.007970 
#    y 0.000000 1.797620 0.000000 
#    z -0.007970 0.000000 1.758450 
# 
# From -- ./inp_files/67543.got.cif
#   From: 2010.06.25/outbox.cif.g09.slc.cpg/sg13_34_cif.got.tgz:67543.got - 2010.06.28 04:50:58.
