data_PCOD8117645
_publ_section_title
;
Structure prediction by ZEFSAII (Michael W. Deem and Ramdas Pophale) SiO2 
 PCOD8117645
Probable space group: P 2/C
;
_chemical_formula_sum "Si O2"
_cell_formula_units_Z 28
_cell_length_a 12.350023
_cell_length_b 25.998055
_cell_length_c 5.022377
_cell_angle_alpha 90.000000
_cell_angle_beta 97.090388
_cell_angle_gamma 90.000000
_cell_volume 1600.235763
_symmetry_space_group_name_H-M "P 2/C"
_symmetry_group_IT_number 13
_symmetry_cell_setting 'monoclinic'
loop_
_space_group_symop_operation_xyz
x,y,z
-x,y,1/2-z
-x,-y,-z
x,-y,1/2+z
loop_
_atom_site_type_symbol
_atom_site_label
_atom_site_fract_x
_atom_site_fract_y
_atom_site_fract_z
Si Si1 0.925456 0.615310 0.984067
Si Si2 0.196658 0.887324 0.282721
Si Si3 0.500000 0.535680 0.750000
Si Si4 0.928113 0.271734 0.479473
Si Si5 0.000000 0.963937 0.250000
Si Si6 0.869781 0.829548 0.735266
Si Si7 0.735735 0.464238 0.327115
Si Si8 0.372720 0.966907 0.210632
O O1 0.823485 0.578985 0.909718
O O2 0.000000 0.613715 0.750000
O O3 0.876658 0.672707 0.038677
O O4 0.000000 0.595689 0.250000
O O5 0.190159 0.868396 0.583722
O O6 0.312249 0.913571 0.255444
O O7 0.104297 0.929542 0.224833
O O8 0.180080 0.839611 0.072125
O O9 0.500000 0.500000 0.500000
O O10 0.383358 0.565343 0.701653
O O11 0.845159 0.227452 0.349642
O O12 0.000000 0.250114 0.750000
O O13 0.000000 0.285632 0.250000
O O14 0.000000 0.000000 0.500000
O O15 0.000000 0.838114 0.750000
O O16 0.749765 0.510113 0.543194
O O17 0.500000 0.953538 0.250000
O O18 0.339592 0.010440 0.414655
#
# Coordination Sequence:
#
# PCOD8117645 Si02
#       8
#     4   4   2   4   2   4   4   4
#     4  10  20  32  47  72 103 132 167 202 253 305
#     4  12  21  33  51  76  98 128 163 195 239 292
#     4   8  16  30  46  66  92 126 172 208 236 278
#     4   9  18  32  49  68  98 133 163 203 240 288
#     4  12  22  32  44  68 108 132 142 180 238 294
#     4  11  19  33  49  74 102 125 162 200 241 293
#     4  10  19  31  48  71 100 135 170 206 245 294
#     4  10  21  38  55  71  95 130 169 200 230 280
#
# _framework density 17.497420999999999
#
# number of rings (size 3 to 8) (size 9 to 14) (size 15 to 20)
#    0.000    1.714    1.429    5.143    0.000    1.714 
#    0.000    0.000    0.000    0.000    3.714    0.000 
#    0.000    0.000    0.000    0.000    0.000    0.000 
#
# Total GULP energy -346886.085130 kJ/mol
# GULP energy per Si atom -12388.788755 kJ/mol
# Density = 1.745760 g / cm^3
# Si number density = 17.497421 Si / 1000 Ang^3
#
#
#
# Elastic Constant Matrix: (Units=GPa)
#
#
# Indices 1 2 3 4 5 6 
#
# 1 89.8960 45.8452 20.9686 0.0000 2.3266 0.0000
# 2 45.8452 81.0878 13.8434 0.0000 6.7643 0.0000
# 3 20.9686 13.8434 95.5209 0.0000 -5.8444 0.0000
# 4 0.0000 0.0000 0.0000 27.0382 0.0000 -0.4565
# 5 2.3266 6.7643 -5.8444 0.0000 22.5560 0.0000
# 6 0.0000 0.0000 0.0000 -0.4565 0.0000 10.0636
#
#
#
# Elastic Compliance Matrix: (Units=1/GPa)
#
#
# Indices 1 2 3 4 5 6 
#
# 1 0.016100 -0.008752 -0.002243 0.000000 0.000383 0.000000
# 2 -0.008752 0.017834 -0.000950 0.000000 -0.004692 0.000000
# 3 -0.002243 -0.000950 0.011310 0.000000 0.003447 0.000000
# 4 0.000000 0.000000 0.000000 0.037013 0.000000 0.001679
# 5 0.000383 -0.004692 0.003447 0.000000 0.046595 0.000000
# 6 0.000000 0.000000 0.000000 0.001679 0.000000 0.099444
#
#
# Mechanical properties :
#
#
# Convention : Reuss Voigt Hill
#
# Bulk Modulus (GPa) = 46.82852 47.53546 47.18199
# Shear Modulus (GPa) = 19.28236 24.32139 21.80188
#
# Velocity S-wave (km/s) = 3.32326 3.73231 3.53371
# Velocity P-wave (km/s) = 6.44566 6.76754 6.60856
#
# Compressibility (1/GPa) = 0.02135451
#
# Stress axis : x y z
#
# Youngs Moduli (GPa) = 62.11011 56.07234 88.41867
#
# Poissons Ratio (x) = 0.49074 0.19828
# Poissons Ratio (y) = 0.54358 0.08404
# Poissons Ratio (z) = 0.13928 0.05330
#
# Static dielectric constant tensor:
#      x y z
#    x 3.271130 0.000000 -0.085260 
#    y 0.000000 3.291090 0.000000 
#    z -0.085260 0.000000 3.537410 
# 
# 
# High freq. dielectric constant tensor:
#      x y z
#    x 1.647160 0.000000 -0.013410 
#    y 0.000000 1.659720 0.000000 
#    z -0.013410 0.000000 1.705500 
# 
# From -- ./inp_files/4297.got.cif
#   From: 2010.06.25/outbox.cif.g09.slc.cpg/sg13_3_cif.got.tgz:4297.got - 2010.06.28 04:50:58.
