data_PCOD8117904
_publ_section_title
;
Structure prediction by ZEFSAII (Michael W. Deem and Ramdas Pophale) SiO2 
 PCOD8117904
Probable space group: P 2/C
;
_chemical_formula_sum "Si O2"
_cell_formula_units_Z 30
_cell_length_a 15.076832
_cell_length_b 15.303929
_cell_length_c 21.347956
_cell_angle_alpha 90.000000
_cell_angle_beta 160.699044
_cell_angle_gamma 90.000000
_cell_volume 1628.097482
_symmetry_space_group_name_H-M "P 2/C"
_symmetry_group_IT_number 13
_symmetry_cell_setting 'monoclinic'
loop_
_space_group_symop_operation_xyz
x,y,z
-x,y,1/2-z
-x,-y,-z
x,-y,1/2+z
loop_
_atom_site_type_symbol
_atom_site_label
_atom_site_fract_x
_atom_site_fract_y
_atom_site_fract_z
Si Si1 0.327803 0.209061 0.267058
Si Si2 0.310792 0.549868 0.953449
Si Si3 0.845333 0.979650 0.055937
Si Si4 0.625046 0.061267 0.531698
Si Si5 0.311897 0.607082 0.817412
Si Si6 0.500000 0.139494 0.250000
Si Si7 0.734778 0.349733 0.955637
Si Si8 0.196842 0.161052 0.527445
O O1 0.473149 0.151624 0.417604
O O2 0.393297 0.306203 0.334302
O O3 0.435667 0.198573 0.267964
O O4 0.009838 0.184096 0.053670
O O5 0.376961 0.605599 0.935135
O O6 0.000000 0.517165 0.750000
O O7 0.518029 0.470340 0.100422
O O8 0.373047 0.614518 0.051238
O O9 0.622189 0.988200 0.962189
O O10 0.079540 0.922407 0.243602
O O11 0.746804 0.924824 0.930325
O O12 0.926992 0.077725 0.090983
O O13 0.500000 0.000000 0.500000
O O14 0.988647 0.596112 0.597477
O O15 0.500000 0.356770 0.750000
O O16 0.806708 0.248077 0.017609
O O17 0.500000 0.137691 0.750000
#
# Coordination Sequence:
#
# PCOD8117904 Si02
#       8
#     4   4   4   4   4   2   4   4
#     4  10  21  38  57  80 116 145 190 236 273 334
#     4   9  18  37  60  82 109 145 182 225 283 339
#     4  10  20  34  53  78 108 148 188 225 277 328
#     4  10  20  34  51  78 110 143 184 236 274 319
#     4   9  19  37  59  80 110 149 185 222 279 340
#     4  10  22  38  54  76 112 156 184 222 280 332
#     4   9  19  34  56  87 116 138 178 236 279 330
#     4  10  19  34  57  82 108 143 187 232 276 331
#
# _framework density 18.426414999999999
#
# number of rings (size 3 to 8) (size 9 to 14) (size 15 to 20)
#    0.000    2.400    2.000    0.000    0.000    3.200 
#   10.800    2.667    5.867    0.000    0.000    0.000 
#    0.000    0.000    0.000    0.000    0.000    0.000 
#
# Total GULP energy -371667.700322 kJ/mol
# GULP energy per Si atom -12388.923344 kJ/mol
# Density = 1.838448 g / cm^3
# Si number density = 18.426415 Si / 1000 Ang^3
#
#
#
# Elastic Constant Matrix: (Units=GPa)
#
#
# Indices 1 2 3 4 5 6 
#
# 1 110.4143 70.3957 29.5021 0.0000 -2.6412 0.0000
# 2 70.3957 114.3590 48.9156 0.0000 -3.2003 0.0000
# 3 29.5021 48.9156 87.8391 0.0000 -6.3831 0.0000
# 4 0.0000 0.0000 0.0000 24.8538 0.0000 3.1887
# 5 -2.6412 -3.2003 -6.3831 0.0000 23.7414 0.0000
# 6 0.0000 0.0000 0.0000 3.1887 0.0000 31.3261
#
#
#
# Elastic Compliance Matrix: (Units=1/GPa)
#
#
# Indices 1 2 3 4 5 6 
#
# 1 0.014913 -0.009240 0.000170 0.000000 0.000459 0.000000
# 2 -0.009240 0.017204 -0.006511 0.000000 -0.000459 0.000000
# 3 0.000170 -0.006511 0.015187 0.000000 0.003225 0.000000
# 4 0.000000 0.000000 0.000000 0.040768 0.000000 -0.004150
# 5 0.000459 -0.000459 0.003225 0.000000 0.042977 0.000000
# 6 0.000000 0.000000 0.000000 -0.004150 0.000000 0.032345
#
#
# Mechanical properties :
#
#
# Convention : Reuss Voigt Hill
#
# Bulk Modulus (GPa) = 61.94373 67.80437 64.87405
# Shear Modulus (GPa) = 25.00791 26.90419 25.95605
#
# Velocity S-wave (km/s) = 3.68799 3.82526 3.75725
# Velocity P-wave (km/s) = 7.19894 7.50915 7.35568
#
# Compressibility (1/GPa) = 0.01614368
#
# Stress axis : x y z
#
# Youngs Moduli (GPa) = 67.05336 58.12487 65.84459
#
# Poissons Ratio (x) = 0.53708 -0.01120
# Poissons Ratio (y) = 0.61958 0.42869
# Poissons Ratio (z) = -0.01141 0.37843
#
# Static dielectric constant tensor:
#      x y z
#    x 3.544770 0.000000 0.337790 
#    y 0.000000 3.347650 0.000000 
#    z 0.337790 0.000000 3.836130 
# 
# 
# High freq. dielectric constant tensor:
#      x y z
#    x 1.716110 0.000000 0.008920 
#    y 0.000000 1.701790 0.000000 
#    z 0.008920 0.000000 1.717790 
# 
# From -- ./inp_files/30156.got.cif
#   From: 2010.06.25/outbox.cif.g09.slc.cpg/sg13_16_cif.got.tgz:30156.got - 2010.06.28 04:50:58.
