data_PCOD8117838
_publ_section_title
;
Structure prediction by ZEFSAII (Michael W. Deem and Ramdas Pophale) SiO2 
 PCOD8117838
Probable space group: P 2/C
;
_chemical_formula_sum "Si O2"
_cell_formula_units_Z 28
_cell_length_a 11.206845
_cell_length_b 8.582856
_cell_length_c 19.523777
_cell_angle_alpha 90.000000
_cell_angle_beta 132.429286
_cell_angle_gamma 90.000000
_cell_volume 1386.118827
_symmetry_space_group_name_H-M "P 2/C"
_symmetry_group_IT_number 13
_symmetry_cell_setting 'monoclinic'
loop_
_space_group_symop_operation_xyz
x,y,z
-x,y,1/2-z
-x,-y,-z
x,-y,1/2+z
loop_
_atom_site_type_symbol
_atom_site_label
_atom_site_fract_x
_atom_site_fract_y
_atom_site_fract_z
Si Si1 0.359806 0.606020 0.891981
Si Si2 0.849612 0.664415 0.149117
Si Si3 0.052201 0.674724 0.950011
Si Si4 0.709619 0.159552 0.714539
Si Si5 0.576645 0.337830 0.940133
Si Si6 0.878585 0.156261 0.264961
Si Si7 0.955958 0.327270 0.900243
O O1 0.266157 0.482570 0.904671
O O2 0.486686 0.507183 0.895149
O O3 0.238872 0.700588 0.797579
O O4 0.435125 0.710146 0.982807
O O5 0.772789 0.802359 0.162899
O O6 0.000000 0.595614 0.250000
O O7 0.900984 0.732511 0.094868
O O8 0.991652 0.802432 0.872934
O O9 0.955696 0.515033 0.899246
O O10 0.244304 0.651444 0.020096
O O11 0.013610 0.736397 0.011661
O O12 0.518483 0.202016 0.639234
O O13 0.787178 0.265324 0.804366
O O14 0.757250 0.979964 0.742562
O O15 0.000000 0.111347 0.250000
#
# Coordination Sequence:
#
# PCOD8117838 Si02
#       7
#     4   4   4   4   4   4   4
#     4  10  19  33  62  85 117 140 192 239 285 323
#     4   9  15  33  58  84 109 146 188 237 275 325
#     4  11  22  36  63  86 113 146 200 235 282 328
#     4  10  23  36  58  82 121 151 185 227 296 336
#     4  10  20  37  55  90 110 154 182 239 286 329
#     4  12  21  38  58  88 114 152 188 237 277 348
#     4  10  20  38  58  87 111 149 189 242 273 340
#
# _framework density 20.200291
#
# number of rings (size 3 to 8) (size 9 to 14) (size 15 to 20)
#    0.000    1.714    2.857    4.286    0.000    1.714 
#    0.000    0.000    0.000    3.429    0.000    0.000 
#    0.000    0.000    0.000    0.000    0.000    0.000 
#
# Total GULP energy -346946.989208 kJ/mol
# GULP energy per Si atom -12390.963900 kJ/mol
# Density = 2.015431 g / cm^3
# Si number density = 20.200291 Si / 1000 Ang^3
#
#
#
# Elastic Constant Matrix: (Units=GPa)
#
#
# Indices 1 2 3 4 5 6 
#
# 1 70.8970 32.8073 56.2551 0.0000 -8.7599 0.0000
# 2 32.8073 70.1390 43.3240 0.0000 9.7854 0.0000
# 3 56.2551 43.3240 116.0919 0.0000 -0.0708 0.0000
# 4 0.0000 0.0000 0.0000 19.7228 0.0000 6.0557
# 5 -8.7599 9.7854 -0.0708 0.0000 39.1550 0.0000
# 6 0.0000 0.0000 0.0000 6.0557 0.0000 17.9467
#
#
#
# Elastic Compliance Matrix: (Units=1/GPa)
#
#
# Indices 1 2 3 4 5 6 
#
# 1 0.026394 -0.007173 -0.010108 0.000000 0.007679 0.000000
# 2 -0.007173 0.021362 -0.004500 0.000000 -0.006952 0.000000
# 3 -0.010108 -0.004500 0.015191 0.000000 -0.001109 0.000000
# 4 0.000000 0.000000 0.000000 0.056563 0.000000 -0.019086
# 5 0.007679 -0.006952 -0.001109 0.000000 0.028993 0.000000
# 6 0.000000 0.000000 0.000000 -0.019086 0.000000 0.062161
#
#
# Mechanical properties :
#
#
# Convention : Reuss Voigt Hill
#
# Bulk Modulus (GPa) = 51.59064 57.98895 54.78980
# Shear Modulus (GPa) = 19.18000 23.68101 21.43050
#
# Velocity S-wave (km/s) = 3.08472 3.42762 3.26068
# Velocity P-wave (km/s) = 6.18727 6.66589 6.43103
#
# Compressibility (1/GPa) = 0.01938336
#
# Stress axis : x y z
#
# Youngs Moduli (GPa) = 37.88766 46.81109 65.82945
#
# Poissons Ratio (x) = 0.33580 0.66541
# Poissons Ratio (y) = 0.27178 0.29626
# Poissons Ratio (z) = 0.38297 0.21067
#
# Static dielectric constant tensor:
#      x y z
#    x 3.667760 0.000000 0.089380 
#    y 0.000000 3.454690 0.000000 
#    z 0.089380 0.000000 3.925790 
# 
# 
# High freq. dielectric constant tensor:
#      x y z
#    x 1.768210 0.000000 0.008330 
#    y 0.000000 1.756520 0.000000 
#    z 0.008330 0.000000 1.803260 
# 
# From -- ./inp_files/78093.got.cif
#   From: 2010.06.25/outbox.cif.g09.slc.cpg/sg13_40_cif.got.tgz:78093.got - 2010.06.28 04:50:58.
