data_PCOD8117014
_publ_section_title
;
Structure prediction by ZEFSAII (Michael W. Deem and Ramdas Pophale) SiO2 
 PCOD8117014
Probable space group: P 2/C
;
_chemical_formula_sum "Si O2"
_cell_formula_units_Z 28
_cell_length_a 18.841675
_cell_length_b 6.492914
_cell_length_c 24.945476
_cell_angle_alpha 90.000000
_cell_angle_beta 147.939003
_cell_angle_gamma 90.000000
_cell_volume 1619.942876
_symmetry_space_group_name_H-M "P 2/C"
_symmetry_group_IT_number 13
_symmetry_cell_setting 'monoclinic'
loop_
_space_group_symop_operation_xyz
x,y,z
-x,y,1/2-z
-x,-y,-z
x,-y,1/2+z
loop_
_atom_site_type_symbol
_atom_site_label
_atom_site_fract_x
_atom_site_fract_y
_atom_site_fract_z
Si Si1 0.874595 0.321210 0.865827
Si Si2 0.536912 0.885204 0.399404
Si Si3 0.457393 0.187719 0.009408
Si Si4 0.365792 0.433027 0.858032
Si Si5 0.164680 0.595067 0.558075
Si Si6 0.721075 0.999690 0.824703
Si Si7 0.646456 0.707023 0.367741
O O1 0.780287 0.433117 0.762014
O O2 0.868992 0.423613 0.920137
O O3 0.822589 0.090101 0.844505
O O4 0.027517 0.323109 0.942553
O O5 0.472303 0.700783 0.392533
O O6 0.427116 0.999133 0.293408
O O7 0.643926 0.782565 0.427778
O O8 0.603641 0.069736 0.477554
O O9 0.353885 0.333456 0.910438
O O10 0.584340 0.330798 0.106900
O O11 0.500000 0.000000 0.000000
O O12 0.264301 0.501212 0.577128
O O13 0.239493 0.768789 0.638999
O O14 0.721833 0.121083 0.881261
O O15 0.500000 0.656965 0.250000
#
# Coordination Sequence:
#
# PCOD8117014 Si02
#       7
#     4   4   4   4   4   4   4
#     4   9  18  30  45  69  97 123 154 191 232 281
#     4   9  17  29  45  67  95 122 149 189 237 280
#     4   9  17  29  47  71  90 113 151 193 242 282
#     4   9  17  30  47  70  94 115 150 199 242 280
#     4  10  18  29  46  67  95 130 156 182 229 282
#     4   9  17  29  45  67  96 125 153 185 225 280
#     4   9  19  30  41  66  96 122 158 188 218 277
#
# _framework density 17.284559999999999
#
# number of rings (size 3 to 8) (size 9 to 14) (size 15 to 20)
#    0.000    2.857    0.000    2.143    0.000    2.857 
#    0.000    0.000    0.000    0.000    0.000   24.000 
#    0.000    0.000    0.000    0.000    0.000    0.000 
#
# Total GULP energy -346943.138918 kJ/mol
# GULP energy per Si atom -12390.826390 kJ/mol
# Density = 1.724522 g / cm^3
# Si number density = 17.284560 Si / 1000 Ang^3
#
#
#
# Elastic Constant Matrix: (Units=GPa)
#
#
# Indices 1 2 3 4 5 6 
#
# 1 81.2643 34.9137 40.0950 0.0000 -2.1084 0.0000
# 2 34.9137 75.6743 18.1404 0.0000 -1.9920 0.0000
# 3 40.0950 18.1404 64.4104 0.0000 -5.8060 0.0000
# 4 0.0000 0.0000 0.0000 24.7137 0.0000 -9.3488
# 5 -2.1084 -1.9920 -5.8060 0.0000 23.4879 0.0000
# 6 0.0000 0.0000 0.0000 -9.3488 0.0000 27.1270
#
#
#
# Elastic Compliance Matrix: (Units=1/GPa)
#
#
# Indices 1 2 3 4 5 6 
#
# 1 0.020711 -0.006940 -0.011070 0.000000 -0.001466 0.000000
# 2 -0.006940 0.016498 -0.000262 0.000000 0.000711 0.000000
# 3 -0.011070 -0.000262 0.022909 0.000000 0.004647 0.000000
# 4 0.000000 0.000000 0.000000 0.046529 0.000000 0.016036
# 5 -0.001466 0.000711 0.004647 0.000000 0.043653 0.000000
# 6 0.000000 0.000000 0.000000 0.016036 0.000000 0.042390
#
#
# Mechanical properties :
#
#
# Convention : Reuss Voigt Hill
#
# Bulk Modulus (GPa) = 42.42035 45.29412 43.85724
# Shear Modulus (GPa) = 21.08877 23.61239 22.35058
#
# Velocity S-wave (km/s) = 3.49677 3.70008 3.59986
# Velocity P-wave (km/s) = 6.39522 6.67203 6.53509
#
# Compressibility (1/GPa) = 0.02357359
#
# Stress axis : x y z
#
# Youngs Moduli (GPa) = 48.28319 60.61292 43.65069
#
# Poissons Ratio (x) = 0.42068 0.48321
# Poissons Ratio (y) = 0.33510 0.01144
# Poissons Ratio (z) = 0.53450 0.01588
#
# Static dielectric constant tensor:
#      x y z
#    x 3.293650 0.000000 -0.120870 
#    y 0.000000 3.357150 0.000000 
#    z -0.120870 0.000000 3.267570 
# 
# 
# High freq. dielectric constant tensor:
#      x y z
#    x 1.638870 0.000000 -0.014660 
#    y 0.000000 1.677880 0.000000 
#    z -0.014660 0.000000 1.645200 
# 
# From -- ./inp_files/77468.got.cif
#   From: 2010.06.25/outbox.cif.g09.slc.cpg/sg13_39_cif.got.tgz:77468.got - 2010.06.28 04:50:58.
