data_PCOD8117364
_publ_section_title
;
Structure prediction by ZEFSAII (Michael W. Deem and Ramdas Pophale) SiO2 
 PCOD8117364
Probable space group: P 2/C
;
_chemical_formula_sum "Si O2"
_cell_formula_units_Z 26
_cell_length_a 22.914754
_cell_length_b 9.293223
_cell_length_c 9.304977
_cell_angle_alpha 90.000000
_cell_angle_beta 34.593630
_cell_angle_gamma 90.000000
_cell_volume 1125.008253
_symmetry_space_group_name_H-M "P 2/C"
_symmetry_group_IT_number 13
_symmetry_cell_setting 'monoclinic'
loop_
_space_group_symop_operation_xyz
x,y,z
-x,y,1/2-z
-x,-y,-z
x,-y,1/2+z
loop_
_atom_site_type_symbol
_atom_site_label
_atom_site_fract_x
_atom_site_fract_y
_atom_site_fract_z
Si Si1 0.119642 0.322528 0.482529
Si Si2 0.538743 0.285751 0.523032
Si Si3 0.754165 0.173163 0.021436
Si Si4 0.364350 0.576980 0.223477
Si Si5 0.763598 0.407451 0.783022
Si Si6 0.000000 0.956807 0.750000
Si Si7 0.128861 0.890675 0.742387
O O1 0.188551 0.236949 0.457201
O O2 0.138249 0.493314 0.452737
O O3 0.160493 0.264586 0.242983
O O4 0.000000 0.294742 0.750000
O O5 0.577388 0.447437 0.475959
O O6 0.443534 0.295355 0.604503
O O7 0.500000 0.216099 0.750000
O O8 0.630895 0.187052 0.276160
O O9 0.797607 0.263438 0.797590
O O10 0.778499 0.004629 0.956327
O O11 0.312181 0.507446 0.469442
O O12 0.286713 0.644157 0.264474
O O13 0.920441 0.862476 0.815876
O O14 0.051222 0.055507 0.524484
#
# Coordination Sequence:
#
# PCOD8117364 Si02
#       7
#     4   4   4   4   4   2   4
#     4  12  23  43  64  92 138 178 216 273 327 393
#     4  10  18  34  65  92 127 166 213 269 333 390
#     4  11  24  40  62 103 129 167 228 276 327 389
#     4  10  19  35  62  96 123 169 211 262 325 411
#     4  11  22  41  63 101 131 167 219 269 342 381
#     4  10  20  40  68  92 114 178 242 254 312 396
#     4  11  21  42  68  93 123 180 231 271 317 396
#
# _framework density 23.110942999999999
#
# number of rings (size 3 to 8) (size 9 to 14) (size 15 to 20)
#    0.000    1.231    6.923    0.923    0.000    1.846 
#    1.385    0.000    0.000    3.692    4.000    0.000 
#    0.000    0.000    0.000    0.000    0.000    0.000 
#
# Total GULP energy -322256.033922 kJ/mol
# GULP energy per Si atom -12394.462843 kJ/mol
# Density = 2.305834 g / cm^3
# Si number density = 23.110943 Si / 1000 Ang^3
#
#
#
# Elastic Constant Matrix: (Units=GPa)
#
#
# Indices 1 2 3 4 5 6 
#
# 1 181.9391 46.3874 29.4293 0.0000 6.9029 0.0000
# 2 46.3874 71.7175 17.6311 0.0000 -7.0412 0.0000
# 3 29.4293 17.6311 69.1198 0.0000 5.5653 0.0000
# 4 0.0000 0.0000 0.0000 12.6132 0.0000 17.9181
# 5 6.9029 -7.0412 5.5653 0.0000 33.2802 0.0000
# 6 0.0000 0.0000 0.0000 17.9181 0.0000 16.8145
#
#
#
# Elastic Compliance Matrix: (Units=1/GPa)
#
#
# Indices 1 2 3 4 5 6 
#
# 1 0.006939 -0.004272 -0.001699 0.000000 -0.002059 0.000000
# 2 -0.004272 0.018006 -0.003195 0.000000 0.005230 0.000000
# 3 -0.001699 -0.003195 0.016251 0.000000 -0.003041 0.000000
# 4 0.000000 0.000000 0.000000 -0.154296 0.000000 0.164423
# 5 -0.002059 0.005230 -0.003041 0.000000 0.032090 0.000000
# 6 0.000000 0.000000 0.000000 0.164423 0.000000 -0.115743
#
#
# Mechanical properties :
#
#
# Convention : Reuss Voigt Hill
#
# Bulk Modulus (GPa) = 43.73859 56.63019 50.18439
# Shear Modulus (GPa) = -29.27403 27.83014 -0.72194
#
# Velocity S-wave (km/s) = -3.56290 3.47392 -0.55952
# Velocity P-wave (km/s) = 1.42861 6.37555 4.61999
#
# Compressibility (1/GPa) = 0.02286310
#
# Stress axis : x y z
#
# Youngs Moduli (GPa) = 144.12264 55.53712 61.53577
#
# Poissons Ratio (x) = 0.23728 0.10453
# Poissons Ratio (y) = 0.61576 0.19661
# Poissons Ratio (z) = 0.24481 0.17744
#
# Static dielectric constant tensor:
#      x y z
#    x 4.529670 0.000000 -0.023840 
#    y 0.000000 3.963280 0.000000 
#    z -0.023840 0.000000 4.277240 
# 
# 
# High freq. dielectric constant tensor:
#      x y z
#    x 1.925500 0.000000 0.009870 
#    y 0.000000 1.876110 0.000000 
#    z 0.009870 0.000000 1.914980 
# 
# From -- ./inp_files/23313.got.cif
#   From: 2010.06.25/outbox.cif.g09.slc.cpg/sg13_12_cif.got.tgz:23313.got - 2010.06.28 04:50:58.
