data_PCOD8117173
_publ_section_title
;
Structure prediction by ZEFSAII (Michael W. Deem and Ramdas Pophale) SiO2 
 PCOD8117173
Probable space group: P 2/C
;
_chemical_formula_sum "Si O2"
_cell_formula_units_Z 24
_cell_length_a 22.186412
_cell_length_b 9.479592
_cell_length_c 11.590699
_cell_angle_alpha 90.000000
_cell_angle_beta 28.750084
_cell_angle_gamma 90.000000
_cell_volume 1172.525896
_symmetry_space_group_name_H-M "P 2/C"
_symmetry_group_IT_number 13
_symmetry_cell_setting 'monoclinic'
loop_
_space_group_symop_operation_xyz
x,y,z
-x,y,1/2-z
-x,-y,-z
x,-y,1/2+z
loop_
_atom_site_type_symbol
_atom_site_label
_atom_site_fract_x
_atom_site_fract_y
_atom_site_fract_z
Si Si1 0.000000 0.917607 0.750000
Si Si2 0.678007 0.732787 0.795770
Si Si3 0.500000 0.426671 0.750000
Si Si4 0.185945 0.756532 0.695513
Si Si5 0.732793 0.462672 0.988040
Si Si6 0.221802 0.966688 0.014596
Si Si7 0.098414 0.239381 0.883928
O O1 0.090349 0.812085 0.528418
O O2 0.088148 0.018269 0.676118
O O3 0.777253 0.737653 0.733279
O O4 0.719261 0.619094 0.630887
O O5 0.675207 0.890976 0.743016
O O6 0.547329 0.678959 0.068912
O O7 0.395005 0.529814 0.872779
O O8 0.222892 0.620689 0.558064
O O9 0.261298 0.884234 0.505083
O O10 0.037564 0.778691 0.945528
O O11 0.843737 0.395646 0.723136
O O12 0.201060 0.859842 0.153212
#
# Coordination Sequence:
#
# PCOD8117173 Si02
#       7
#     2   4   2   4   4   4   4
#     4  10  18  32  56  86 124 152 180 230 286 352
#     4  10  21  39  60  81 113 153 192 238 285 336
#     4  10  22  40  60  82 110 154 206 246 282 328
#     4  10  20  35  57  88 120 145 183 232 288 352
#     4  10  22  38  58  82 112 151 194 239 286 334
#     4  10  19  33  55  83 115 153 186 227 286 347
#     4  10  20  33  54  87 117 150 187 226 288 354
#
# _framework density 20.468630000000001
#
# number of rings (size 3 to 8) (size 9 to 14) (size 15 to 20)
#    0.000    2.000    0.000    5.000    0.000    7.333 
#    0.000    3.333    0.000   24.000    0.000    0.000 
#    0.000    0.000    0.000    0.000    0.000    0.000 
#
# Total GULP energy -297383.330978 kJ/mol
# GULP energy per Si atom -12390.972124 kJ/mol
# Density = 2.042204 g / cm^3
# Si number density = 20.468630 Si / 1000 Ang^3
#
#
#
# Elastic Constant Matrix: (Units=GPa)
#
#
# Indices 1 2 3 4 5 6 
#
# 1 73.7621 36.7109 23.0972 0.0000 9.1490 0.0000
# 2 36.7109 143.5048 45.5762 0.0000 21.6906 0.0000
# 3 23.0972 45.5762 91.2199 0.0000 25.4387 0.0000
# 4 0.0000 0.0000 0.0000 43.2289 0.0000 13.7050
# 5 9.1490 21.6906 25.4387 0.0000 28.7379 0.0000
# 6 0.0000 0.0000 0.0000 13.7050 0.0000 28.3779
#
#
#
# Elastic Compliance Matrix: (Units=1/GPa)
#
#
# Indices 1 2 3 4 5 6 
#
# 1 0.015966 -0.003281 -0.002226 0.000000 -0.000636 0.000000
# 2 -0.003281 0.009221 -0.002824 0.000000 -0.003415 0.000000
# 3 -0.002226 -0.002824 0.016126 0.000000 -0.011435 0.000000
# 4 0.000000 0.000000 0.000000 0.027315 0.000000 -0.013192
# 5 -0.000636 -0.003415 -0.011435 0.000000 0.047699 0.000000
# 6 0.000000 0.000000 0.000000 -0.013192 0.000000 0.041610
#
#
# Mechanical properties :
#
#
# Convention : Reuss Voigt Hill
#
# Bulk Modulus (GPa) = 40.56653 57.69504 49.13078
# Shear Modulus (GPa) = 27.35002 33.60912 30.47957
#
# Velocity S-wave (km/s) = 3.65936 4.05653 3.86306
# Velocity P-wave (km/s) = 6.14137 7.08441 6.62968
#
# Compressibility (1/GPa) = 0.02465086
#
# Stress axis : x y z
#
# Youngs Moduli (GPa) = 62.63285 108.44974 62.01278
#
# Poissons Ratio (x) = 0.35586 0.13803
# Poissons Ratio (y) = 0.20552 0.17511
# Poissons Ratio (z) = 0.13941 0.30623
#
# Static dielectric constant tensor:
#      x y z
#    x 3.582380 0.000000 0.196970 
#    y 0.000000 4.027950 0.000000 
#    z 0.196970 0.000000 3.760550 
# 
# 
# High freq. dielectric constant tensor:
#      x y z
#    x 1.791280 0.000000 0.019100 
#    y 0.000000 1.810220 0.000000 
#    z 0.019100 0.000000 1.788370 
# 
# From -- ./inp_files/41569.got.cif
#   From: 2010.06.25/outbox.cif.g09.slc.cpg/sg13_21_cif.got.tgz:41569.got - 2010.06.28 04:50:58.
