data_PCOD8117605
_publ_section_title
;
Structure prediction by ZEFSAII (Michael W. Deem and Ramdas Pophale) SiO2 
 PCOD8117605
Probable space group: P 2/C
;
_chemical_formula_sum "Si O2"
_cell_formula_units_Z 26
_cell_length_a 11.457845
_cell_length_b 26.085622
_cell_length_c 5.213033
_cell_angle_alpha 90.000000
_cell_angle_beta 63.191873
_cell_angle_gamma 90.000000
_cell_volume 1390.636018
_symmetry_space_group_name_H-M "P 2/C"
_symmetry_group_IT_number 13
_symmetry_cell_setting 'monoclinic'
loop_
_space_group_symop_operation_xyz
x,y,z
-x,y,1/2-z
-x,-y,-z
x,-y,1/2+z
loop_
_atom_site_type_symbol
_atom_site_label
_atom_site_fract_x
_atom_site_fract_y
_atom_site_fract_z
Si Si1 0.346140 0.312615 0.405126
Si Si2 0.655695 0.374660 0.593360
Si Si3 0.343131 0.802537 0.904436
Si Si4 0.000000 0.033472 0.250000
Si Si5 0.645002 0.854296 0.107035
Si Si6 0.282838 0.034735 0.967389
Si Si7 0.853017 0.466983 0.371175
O O1 0.500000 0.307514 0.250000
O O2 0.300982 0.340755 0.707526
O O3 0.287483 0.255334 0.456838
O O4 0.299829 0.344332 0.204109
O O5 0.500000 0.387217 0.750000
O O6 0.738774 0.426172 0.525765
O O7 0.500000 0.804555 0.750000
O O8 0.284306 0.832713 0.717291
O O9 0.284333 0.832418 0.209277
O O10 0.138589 0.062612 0.111353
O O11 0.000000 0.000000 0.500000
O O12 0.500000 0.830596 0.250000
O O13 0.625936 0.915875 0.126069
O O14 0.308415 0.000335 0.193179
O O15 0.834441 0.510144 0.606100
O O16 0.000000 0.443234 0.250000
#
# Coordination Sequence:
#
# PCOD8117605 Si02
#       7
#     4   4   4   2   4   4   4
#     4   9  17  30  49  74 100 123 158 208 249 284
#     4  10  19  31  51  79 101 126 167 210 254 287
#     4   9  17  30  46  67  95 123 154 189 228 281
#     4   8  16  30  46  62  78 104 146 186 218 258
#     4  10  19  29  44  68  94 123 152 180 230 288
#     4  10  19  31  46  65  88 115 152 191 228 273
#     4  10  21  36  52  73 104 141 175 201 238 294
#
# _framework density 18.696483000000001
#
# number of rings (size 3 to 8) (size 9 to 14) (size 15 to 20)
#    0.000    2.462    0.000    2.769    0.000    4.923 
#    0.000    0.000    0.000    0.000   12.000    0.000 
#    0.000    0.000    0.000    0.000    0.000    0.000 
#
# Total GULP energy -322157.741297 kJ/mol
# GULP energy per Si atom -12390.682358 kJ/mol
# Density = 1.865393 g / cm^3
# Si number density = 18.696483 Si / 1000 Ang^3
#
#
#
# Elastic Constant Matrix: (Units=GPa)
#
#
# Indices 1 2 3 4 5 6 
#
# 1 48.3233 36.0829 44.8711 0.0000 14.5800 0.0000
# 2 36.0829 112.7742 45.2825 0.0000 11.2038 0.0000
# 3 44.8711 45.2825 108.3796 0.0000 39.9946 0.0000
# 4 0.0000 0.0000 0.0000 22.2097 0.0000 10.4991
# 5 14.5800 11.2038 39.9946 0.0000 34.2590 0.0000
# 6 0.0000 0.0000 0.0000 10.4991 0.0000 8.5132
#
#
#
# Elastic Compliance Matrix: (Units=1/GPa)
#
#
# Indices 1 2 3 4 5 6 
#
# 1 0.037742 -0.006860 -0.013458 0.000000 0.001892 0.000000
# 2 -0.006860 0.012081 -0.003210 0.000000 0.002716 0.000000
# 3 -0.013458 -0.003210 0.023961 0.000000 -0.021196 0.000000
# 4 0.000000 0.000000 0.000000 0.107974 0.000000 -0.133161
# 5 0.001892 0.002716 -0.021196 0.000000 0.052241 0.000000
# 6 0.000000 0.000000 0.000000 -0.133161 0.000000 0.281688
#
#
# Mechanical properties :
#
#
# Convention : Reuss Voigt Hill
#
# Bulk Modulus (GPa) = 37.41183 57.99447 47.70315
# Shear Modulus (GPa) = 8.74659 22.54578 15.64618
#
# Velocity S-wave (km/s) = 2.16526 3.47635 2.89598
# Velocity P-wave (km/s) = 5.12881 6.87020 6.06235
#
# Compressibility (1/GPa) = 0.02672951
#
# Stress axis : x y z
#
# Youngs Moduli (GPa) = 26.49587 82.77352 41.73377
#
# Poissons Ratio (x) = 0.56782 0.56165
# Poissons Ratio (y) = 0.18176 0.13395
# Poissons Ratio (z) = 0.35658 0.26567
#
# Static dielectric constant tensor:
#      x y z
#    x 3.520570 0.000000 0.380860 
#    y 0.000000 3.269090 0.000000 
#    z 0.380860 0.000000 4.156880 
# 
# 
# High freq. dielectric constant tensor:
#      x y z
#    x 1.697540 0.000000 0.033210 
#    y 0.000000 1.714530 0.000000 
#    z 0.033210 0.000000 1.737910 
# 
# From -- ./inp_files/4051.got.cif
#   From: 2010.06.25/outbox.cif.g09.slc.cpg/sg13_3_cif.got.tgz:4051.got - 2010.06.28 04:50:58.
