data_PCOD8117743
_publ_section_title
;
Structure prediction by ZEFSAII (Michael W. Deem and Ramdas Pophale) SiO2 
 PCOD8117743
Probable space group: P 2/C
;
_chemical_formula_sum "Si O2"
_cell_formula_units_Z 32
_cell_length_a 28.060475
_cell_length_b 13.672562
_cell_length_c 9.949863
_cell_angle_alpha 90.000000
_cell_angle_beta 153.720963
_cell_angle_gamma 90.000000
_cell_volume 1690.105760
_symmetry_space_group_name_H-M "P 2/C"
_symmetry_group_IT_number 13
_symmetry_cell_setting 'monoclinic'
loop_
_space_group_symop_operation_xyz
x,y,z
-x,y,1/2-z
-x,-y,-z
x,-y,1/2+z
loop_
_atom_site_type_symbol
_atom_site_label
_atom_site_fract_x
_atom_site_fract_y
_atom_site_fract_z
Si Si1 0.559676 0.626238 0.268644
Si Si2 0.969035 0.376512 0.310604
Si Si3 0.925337 0.885435 0.188402
Si Si4 0.249645 0.260192 0.350583
Si Si5 0.415021 0.593232 0.651295
Si Si6 0.225102 0.263441 0.594582
Si Si7 0.913134 0.411108 0.631514
Si Si8 0.926127 0.889982 0.692105
O O1 0.500000 0.662113 0.250000
O O2 0.632404 0.719448 0.410302
O O3 0.621205 0.521479 0.449788
O O4 0.467713 0.610339 0.927288
O O5 0.912926 0.473384 0.109212
O O6 0.000000 0.317681 0.250000
O O7 0.069228 0.392477 0.663923
O O8 0.882942 0.325831 0.187818
O O9 0.000000 0.869735 0.250000
O O10 0.996670 0.850150 0.493973
O O11 0.891029 0.997755 0.121499
O O12 0.816677 0.821393 0.900478
O O13 0.258206 0.229805 0.528524
O O14 0.198525 0.366993 0.199423
O O15 0.500000 0.617523 0.750000
O O16 0.317040 0.670063 0.393366
O O17 0.187784 0.169661 0.591649
O O18 0.000000 0.362144 0.750000
O O19 0.000000 0.874916 0.750000
#
# Coordination Sequence:
#
# PCOD8117743 Si02
#       8
#     4   4   4   4   4   4   4   4
#     4  10  23  40  59  85 117 150 193 247 291 333
#     4  10  21  32  47  77 117 146 177 225 276 330
#     4  10  20  38  60  87 120 154 188 231 289 352
#     4  12  21  35  62  83 106 152 198 231 281 347
#     4  10  21  40  60  84 117 152 193 242 292 339
#     4  12  21  35  60  85 108 150 198 234 278 342
#     4  10  19  33  49  75 114 150 179 219 275 342
#     4  10  22  37  58  89 123 150 186 239 288 341
#
# _framework density 18.933727000000001
#
# number of rings (size 3 to 8) (size 9 to 14) (size 15 to 20)
#    0.000    1.500    3.750    2.250    0.000    2.000 
#    0.000    0.000    0.000    1.500    0.000    0.000 
#    0.000    0.000    0.000    0.000    0.000    0.000 
#
# Total GULP energy -396497.878254 kJ/mol
# GULP energy per Si atom -12390.558695 kJ/mol
# Density = 1.889063 g / cm^3
# Si number density = 18.933727 Si / 1000 Ang^3
#
#
#
# Elastic Constant Matrix: (Units=GPa)
#
#
# Indices 1 2 3 4 5 6 
#
# 1 126.4503 16.0082 31.9231 0.0000 -2.8343 0.0000
# 2 16.0082 82.8351 37.0797 0.0000 14.2810 0.0000
# 3 31.9231 37.0797 60.9458 0.0000 1.8533 0.0000
# 4 0.0000 0.0000 0.0000 40.6887 0.0000 6.7446
# 5 -2.8343 14.2810 1.8533 0.0000 31.4878 0.0000
# 6 0.0000 0.0000 0.0000 6.7446 0.0000 40.8029
#
#
#
# Elastic Compliance Matrix: (Units=1/GPa)
#
#
# Indices 1 2 3 4 5 6 
#
# 1 0.009157 0.000305 -0.005011 0.000000 0.000981 0.000000
# 2 0.000305 0.018268 -0.011042 0.000000 -0.007608 0.000000
# 3 -0.005011 -0.011042 0.025659 0.000000 0.003047 0.000000
# 4 0.000000 0.000000 0.000000 0.025269 0.000000 -0.004177
# 5 0.000981 -0.007608 0.003047 0.000000 0.035118 0.000000
# 6 0.000000 0.000000 0.000000 -0.004177 0.000000 0.025199
#
#
# Mechanical properties :
#
#
# Convention : Reuss Voigt Hill
#
# Bulk Modulus (GPa) = 46.32912 48.91702 47.62307
# Shear Modulus (GPa) = 28.19088 34.94391 31.56739
#
# Velocity S-wave (km/s) = 3.86284 4.30069 4.08764
# Velocity P-wave (km/s) = 6.66466 7.11008 6.89097
#
# Compressibility (1/GPa) = 0.02158470
#
# Stress axis : x y z
#
# Youngs Moduli (GPa) = 109.20790 54.74088 38.97331
#
# Poissons Ratio (x) = -0.01667 0.19531
# Poissons Ratio (y) = -0.03326 0.43036
# Poissons Ratio (z) = 0.54729 0.60447
#
# Static dielectric constant tensor:
#      x y z
#    x 3.109330 0.000000 0.870190 
#    y 0.000000 3.564760 0.000000 
#    z 0.870190 0.000000 1.554250 
# 
# 
# High freq. dielectric constant tensor:
#      x y z
#    x 1.748490 0.000000 -0.015400 
#    y 0.000000 1.727150 0.000000 
#    z -0.015400 0.000000 1.709130 
# 
# From -- ./inp_files/24254.got.cif
#   From: 2010.06.25/outbox.cif.g09.slc.cpg/sg13_13_cif.got.tgz:24254.got - 2010.06.28 04:50:58.
