data_PCOD8117507
_publ_section_title
;
Structure prediction by ZEFSAII (Michael W. Deem and Ramdas Pophale) SiO2 
 PCOD8117507
Probable space group: P 2/C
;
_chemical_formula_sum "Si O2"
_cell_formula_units_Z 32
_cell_length_a 23.020356
_cell_length_b 11.815041
_cell_length_c 12.115265
_cell_angle_alpha 90.000000
_cell_angle_beta 32.098797
_cell_angle_gamma 90.000000
_cell_volume 1750.999569
_symmetry_space_group_name_H-M "P 2/C"
_symmetry_group_IT_number 13
_symmetry_cell_setting 'monoclinic'
loop_
_space_group_symop_operation_xyz
x,y,z
-x,y,1/2-z
-x,-y,-z
x,-y,1/2+z
loop_
_atom_site_type_symbol
_atom_site_label
_atom_site_fract_x
_atom_site_fract_y
_atom_site_fract_z
Si Si1 0.288667 0.898974 0.951081
Si Si2 0.406313 0.693045 0.311796
Si Si3 0.494575 0.239235 0.072131
Si Si4 0.396116 0.556035 0.842852
Si Si5 0.291009 0.264662 0.641511
Si Si6 0.119751 0.814480 0.577831
Si Si7 0.222804 0.860968 0.636550
Si Si8 0.122835 0.927323 0.025749
O O1 0.411322 0.866290 0.714897
O O2 0.249135 0.822731 0.116873
O O3 0.204851 0.878615 0.985605
O O4 0.288623 0.028742 0.989729
O O5 0.500000 0.685830 0.250000
O O6 0.362651 0.566888 0.348621
O O7 0.307935 0.761885 0.524661
O O8 0.447853 0.760427 0.138383
O O9 0.426060 0.355900 0.197078
O O10 0.587393 0.226029 0.016468
O O11 0.500000 0.533603 0.750000
O O12 0.299350 0.610149 0.073899
O O13 0.208225 0.267662 0.877526
O O14 0.139155 0.820315 0.677010
O O15 0.000000 0.762943 0.750000
O O16 0.130138 0.937585 0.506568
O O17 0.152916 0.880105 0.858016
O O18 0.000000 0.887358 0.250000
#
# Coordination Sequence:
#
# PCOD8117507 Si02
#       8
#     4   4   4   4   4   4   4   4
#     4  10  21  34  55  82 113 147 180 218 275 325
#     4  11  21  33  51  80 114 147 177 218 272 327
#     4  10  19  35  55  80 111 145 186 219 264 324
#     4   8  18  33  55  77 104 142 187 223 259 319
#     4  10  18  37  57  83 106 143 187 227 269 320
#     4  10  21  35  59  81 104 144 189 232 267 317
#     4  11  22  36  52  84 116 142 181 223 278 329
#     4  10  22  37  55  79 111 148 184 225 268 325
#
# _framework density 18.275275000000001
#
# number of rings (size 3 to 8) (size 9 to 14) (size 15 to 20)
#    0.000    2.000    2.500    2.250    1.750    3.000 
#    0.000    0.000    0.000    1.500    0.000    0.000 
#    0.000    0.000    0.000    0.000    0.000    0.000 
#
# Total GULP energy -396792.530909 kJ/mol
# GULP energy per Si atom -12399.766591 kJ/mol
# Density = 1.823368 g / cm^3
# Si number density = 18.275275 Si / 1000 Ang^3
#
#
#
# Elastic Constant Matrix: (Units=GPa)
#
#
# Indices 1 2 3 4 5 6 
#
# 1 86.0466 28.5273 47.9754 0.0000 -0.2903 0.0000
# 2 28.5273 71.3245 41.9396 0.0000 -7.8833 0.0000
# 3 47.9754 41.9396 131.5642 0.0000 2.1346 0.0000
# 4 0.0000 0.0000 0.0000 20.1469 0.0000 3.0429
# 5 -0.2903 -7.8833 2.1346 0.0000 34.2937 0.0000
# 6 0.0000 0.0000 0.0000 3.0429 0.0000 18.6372
#
#
#
# Elastic Compliance Matrix: (Units=1/GPa)
#
#
# Indices 1 2 3 4 5 6 
#
# 1 0.015266 -0.003546 -0.004429 0.000000 -0.000410 0.000000
# 2 -0.003546 0.018740 -0.004755 0.000000 0.004574 0.000000
# 3 -0.004429 -0.004755 0.010761 0.000000 -0.001800 0.000000
# 4 0.000000 0.000000 0.000000 0.050890 0.000000 -0.008309
# 5 -0.000410 0.004574 -0.001800 0.000000 0.030320 0.000000
# 6 0.000000 0.000000 0.000000 -0.008309 0.000000 0.055013
#
#
# Mechanical properties :
#
#
# Convention : Reuss Voigt Hill
#
# Bulk Modulus (GPa) = 51.79939 58.42442 55.11191
# Shear Modulus (GPa) = 23.48662 25.98176 24.73419
#
# Velocity S-wave (km/s) = 3.58880 3.77462 3.68288
# Velocity P-wave (km/s) = 6.75116 7.14391 6.95031
#
# Compressibility (1/GPa) = 0.01930525
#
# Stress axis : x y z
#
# Youngs Moduli (GPa) = 65.50647 53.36056 92.92751
#
# Poissons Ratio (x) = 0.18924 0.41162
# Poissons Ratio (y) = 0.23232 0.44187
# Poissons Ratio (z) = 0.29016 0.25373
#
# Static dielectric constant tensor:
#      x y z
#    x 4.100750 0.000000 0.402370 
#    y 0.000000 3.401520 0.000000 
#    z 0.402370 0.000000 3.481730 
# 
# 
# High freq. dielectric constant tensor:
#      x y z
#    x 1.708610 0.000000 0.012820 
#    y 0.000000 1.688290 0.000000 
#    z 0.012820 0.000000 1.705100 
# 
# From -- ./inp_files/34186.got.cif
#   From: 2010.06.25/outbox.cif.g09.slc.cpg/sg13_18_cif.got.tgz:34186.got - 2010.06.28 04:50:58.
