data_PCOD8117907
_publ_section_title
;
Structure prediction by ZEFSAII (Michael W. Deem and Ramdas Pophale) SiO2 
 PCOD8117907
Probable space group: P 2/C
;
_chemical_formula_sum "Si O2"
_cell_formula_units_Z 24
_cell_length_a 13.894592
_cell_length_b 16.798538
_cell_length_c 9.973771
_cell_angle_alpha 90.000000
_cell_angle_beta 146.880396
_cell_angle_gamma 90.000000
_cell_volume 1271.974116
_symmetry_space_group_name_H-M "P 2/C"
_symmetry_group_IT_number 13
_symmetry_cell_setting 'monoclinic'
loop_
_space_group_symop_operation_xyz
x,y,z
-x,y,1/2-z
-x,-y,-z
x,-y,1/2+z
loop_
_atom_site_type_symbol
_atom_site_label
_atom_site_fract_x
_atom_site_fract_y
_atom_site_fract_z
Si Si1 0.696575 0.141335 0.334727
Si Si2 0.779179 0.309964 0.378943
Si Si3 0.469122 0.424163 0.055732
Si Si4 0.122303 0.015402 0.520184
Si Si5 0.283583 0.840621 0.344075
Si Si6 0.147521 0.674174 0.223119
O O1 0.776624 0.215269 0.343522
O O2 0.782754 0.136158 0.584080
O O3 0.737327 0.056554 0.316811
O O4 0.492204 0.161139 0.096796
O O5 0.597070 0.356456 0.141939
O O6 0.809674 0.317081 0.571703
O O7 0.937643 0.345211 0.470642
O O8 0.500000 0.441909 0.250000
O O9 0.500000 0.500000 0.000000
O O10 0.265942 0.396562 0.799139
O O11 0.227323 0.097224 0.664515
O O12 0.000000 0.023730 0.250000
O O13 0.000000 0.000000 0.500000
O O14 0.202103 0.755085 0.209749
#
# Coordination Sequence:
#
# PCOD8117907 Si02
#       6
#     4   4   4   4   4   4
#     4  10  19  34  57  83 109 149 196 243 277 328
#     4   9  17  31  57  86 108 143 193 231 272 328
#     4  10  20  36  59  86 114 142 180 231 282 339
#     4  12  23  36  53  82 118 151 192 238 286 332
#     4  10  19  35  57  80 114 147 197 240 280 330
#     4   9  17  32  57  84 108 146 191 230 270 336
#
# _framework density 18.868309
#
# number of rings (size 3 to 8) (size 9 to 14) (size 15 to 20)
#    0.000    2.000    3.333    1.500    2.333    0.667 
#    0.000    0.000    7.333    0.000    0.000    0.000 
#    0.000    0.000    0.000    0.000    0.000    0.000 
#
# Total GULP energy -297394.375992 kJ/mol
# GULP energy per Si atom -12391.432333 kJ/mol
# Density = 1.882536 g / cm^3
# Si number density = 18.868309 Si / 1000 Ang^3
#
#
#
# Elastic Constant Matrix: (Units=GPa)
#
#
# Indices 1 2 3 4 5 6 
#
# 1 77.2395 54.8286 37.3519 0.0000 18.4650 0.0000
# 2 54.8286 128.5302 33.2276 0.0000 13.7838 0.0000
# 3 37.3519 33.2276 67.2805 0.0000 16.0152 0.0000
# 4 0.0000 0.0000 0.0000 23.6511 0.0000 4.5806
# 5 18.4650 13.7838 16.0152 0.0000 29.2524 0.0000
# 6 0.0000 0.0000 0.0000 4.5806 0.0000 38.5205
#
#
#
# Elastic Compliance Matrix: (Units=1/GPa)
#
#
# Indices 1 2 3 4 5 6 
#
# 1 0.023608 -0.007283 -0.007795 0.000000 -0.007203 0.000000
# 2 -0.007283 0.011275 -0.001558 0.000000 0.000137 0.000000
# 3 -0.007795 -0.001558 0.021403 0.000000 -0.006064 0.000000
# 4 0.000000 0.000000 0.000000 0.043278 0.000000 -0.005146
# 5 -0.007203 0.000137 -0.006064 0.000000 0.041987 0.000000
# 6 0.000000 0.000000 0.000000 -0.005146 0.000000 0.026572
#
#
# Mechanical properties :
#
#
# Convention : Reuss Voigt Hill
#
# Bulk Modulus (GPa) = 43.45046 58.20738 50.82892
# Shear Modulus (GPa) = 23.91577 28.12761 26.02169
#
# Velocity S-wave (km/s) = 3.56407 3.86519 3.71768
# Velocity P-wave (km/s) = 6.32575 7.12993 6.73984
#
# Compressibility (1/GPa) = 0.02301472
#
# Stress axis : x y z
#
# Youngs Moduli (GPa) = 42.35820 88.69083 46.72171
#
# Poissons Ratio (x) = 0.64595 0.36420
# Poissons Ratio (y) = 0.30850 0.07278
# Poissons Ratio (z) = 0.33018 0.13815
#
# Static dielectric constant tensor:
#      x y z
#    x 3.193220 0.000000 0.604240 
#    y 0.000000 3.130870 0.000000 
#    z 0.604240 0.000000 3.226650 
# 
# 
# High freq. dielectric constant tensor:
#      x y z
#    x 1.710820 0.000000 0.039610 
#    y 0.000000 1.733850 0.000000 
#    z 0.039610 0.000000 1.719070 
# 
# From -- ./inp_files/37583.got.cif
#   From: 2010.06.25/outbox.cif.g09.slc.cpg/sg13_19_cif.got.tgz:37583.got - 2010.06.28 04:50:58.
