data_PCOD8117154
_publ_section_title
;
Structure prediction by ZEFSAII (Michael W. Deem and Ramdas Pophale) SiO2 
 PCOD8117154
Probable space group: P 2/C
;
_chemical_formula_sum "Si O2"
_cell_formula_units_Z 26
_cell_length_a 8.706515
_cell_length_b 9.113454
_cell_length_c 23.617007
_cell_angle_alpha 90.000000
_cell_angle_beta 49.313322
_cell_angle_gamma 90.000000
_cell_volume 1420.971012
_symmetry_space_group_name_H-M "P 2/C"
_symmetry_group_IT_number 13
_symmetry_cell_setting 'monoclinic'
loop_
_space_group_symop_operation_xyz
x,y,z
-x,y,1/2-z
-x,-y,-z
x,-y,1/2+z
loop_
_atom_site_type_symbol
_atom_site_label
_atom_site_fract_x
_atom_site_fract_y
_atom_site_fract_z
Si Si1 0.000000 0.283532 0.250000
Si Si2 0.800576 0.387742 0.407590
Si Si3 0.111971 0.972161 0.792437
Si Si4 0.686576 0.077696 0.854863
Si Si5 0.646740 0.701824 0.456212
Si Si6 0.034508 0.153517 0.423193
Si Si7 0.275734 0.081818 0.467819
O O1 0.872704 0.381149 0.325012
O O2 0.846275 0.181067 0.250798
O O3 0.787651 0.558717 0.426599
O O4 0.577362 0.321337 0.466206
O O5 0.954828 0.303535 0.413081
O O6 0.152992 0.949828 0.848947
O O7 0.253225 0.094117 0.726879
O O8 0.874617 0.007996 0.843384
O O9 0.635591 0.236310 0.894346
O O10 0.507117 0.962143 0.904181
O O11 0.754730 0.823194 0.468673
O O12 0.198048 0.180512 0.433401
O O13 0.847290 0.068946 0.496380
#
# Coordination Sequence:
#
# PCOD8117154 Si02
#       7
#     2   4   4   4   4   4   4
#     4   8  16  32  50  74 104 134 164 228 264 316
#     4  10  21  35  53  77 111 137 185 217 279 324
#     4   9  18  32  55  80 104 133 182 228 267 317
#     4  10  18  32  54  80 106 133 179 232 269 310
#     4  11  20  33  55  82 102 145 178 228 269 325
#     4  10  20  35  51  79 106 142 178 217 266 329
#     4  11  20  32  56  76 107 141 179 220 267 316
#
# _framework density 18.297346999999998
#
# number of rings (size 3 to 8) (size 9 to 14) (size 15 to 20)
#    0.000    2.154    3.077    3.231    0.000    2.462 
#    0.000    0.000    0.000    0.000    0.000    0.000 
#    0.000    0.000    0.000    0.000    0.000    0.000 
#
# Total GULP energy -322166.498978 kJ/mol
# GULP energy per Si atom -12391.019191 kJ/mol
# Density = 1.825570 g / cm^3
# Si number density = 18.297347 Si / 1000 Ang^3
#
#
#
# Elastic Constant Matrix: (Units=GPa)
#
#
# Indices 1 2 3 4 5 6 
#
# 1 54.5190 38.1827 38.8552 0.0000 6.9936 0.0000
# 2 38.1827 79.4393 40.2323 0.0000 -8.8590 0.0000
# 3 38.8552 40.2323 128.7387 0.0000 3.8200 0.0000
# 4 0.0000 0.0000 0.0000 19.8786 0.0000 -2.9473
# 5 6.9936 -8.8590 3.8200 0.0000 16.7462 0.0000
# 6 0.0000 0.0000 0.0000 -2.9473 0.0000 20.5258
#
#
#
# Elastic Compliance Matrix: (Units=1/GPa)
#
#
# Indices 1 2 3 4 5 6 
#
# 1 0.037940 -0.018455 -0.004957 0.000000 -0.024477 0.000000
# 2 -0.018455 0.025427 -0.003025 0.000000 0.021849 0.000000
# 3 -0.004957 -0.003025 0.010265 0.000000 -0.001871 0.000000
# 4 0.000000 0.000000 0.000000 0.051400 0.000000 0.007380
# 5 -0.024477 0.021849 -0.001871 0.000000 0.081922 0.000000
# 6 0.000000 0.000000 0.000000 0.007380 0.000000 0.049779
#
#
# Mechanical properties :
#
#
# Convention : Reuss Voigt Hill
#
# Bulk Modulus (GPa) = 48.17383 55.24858 51.71121
# Shear Modulus (GPa) = 15.79651 21.12524 18.46087
#
# Velocity S-wave (km/s) = 2.94142 3.40156 3.17982
# Velocity P-wave (km/s) = 6.15804 6.75928 6.46565
#
# Compressibility (1/GPa) = 0.02075816
#
# Stress axis : x y z
#
# Youngs Moduli (GPa) = 26.35728 39.32826 97.42291
#
# Poissons Ratio (x) = 0.72581 0.48294
# Poissons Ratio (y) = 0.48643 0.29466
# Poissons Ratio (z) = 0.13066 0.11895
#
# Static dielectric constant tensor:
#      x y z
#    x 3.171780 0.000000 0.162310 
#    y 0.000000 3.258480 0.000000 
#    z 0.162310 0.000000 3.695660 
# 
# 
# High freq. dielectric constant tensor:
#      x y z
#    x 1.679300 0.000000 0.006920 
#    y 0.000000 1.682040 0.000000 
#    z 0.006920 0.000000 1.731570 
# 
# From -- ./inp_files/84736.got.cif
#   From: 2010.06.25/outbox.cif.g09.slc.cpg/sg13_43_cif.got.tgz:84736.got - 2010.06.28 04:50:58.
