data_PCOD8117393
_publ_section_title
;
Structure prediction by ZEFSAII (Michael W. Deem and Ramdas Pophale) SiO2 
 PCOD8117393
Probable space group: P 2/C
;
_chemical_formula_sum "Si O2"
_cell_formula_units_Z 18
_cell_length_a 20.007264
_cell_length_b 7.583312
_cell_length_c 5.375936
_cell_angle_alpha 90.000000
_cell_angle_beta 97.393424
_cell_angle_gamma 90.000000
_cell_volume 808.862818
_symmetry_space_group_name_H-M "P 2/C"
_symmetry_group_IT_number 13
_symmetry_cell_setting 'monoclinic'
loop_
_space_group_symop_operation_xyz
x,y,z
-x,y,1/2-z
-x,-y,-z
x,-y,1/2+z
loop_
_atom_site_type_symbol
_atom_site_label
_atom_site_fract_x
_atom_site_fract_y
_atom_site_fract_z
Si Si1 0.000000 0.609354 0.250000
Si Si2 0.682280 0.786954 0.585779
Si Si3 0.893008 0.900712 0.184933
Si Si4 0.527773 0.300647 0.013306
Si Si5 0.736018 0.825813 0.111554
O O1 0.930826 0.717065 0.217928
O O2 0.000000 0.500000 0.500000
O O3 0.607665 0.710877 0.551801
O O4 0.719208 0.714697 0.853724
O O5 0.688636 0.999770 0.587727
O O6 0.718482 0.714154 0.351803
O O7 0.915891 0.009893 0.438154
O O8 0.813311 0.878322 0.151442
O O9 0.500000 0.205198 0.750000
O O10 0.500000 0.205202 0.250000
O O11 0.500000 0.500000 0.000000
#
# Coordination Sequence:
#
# PCOD8117393 Si02
#       5
#     2   4   4   4   4
#     4  12  28  46  68 102 160 190 220 276 354 420
#     4  10  18  35  58  87 122 148 201 274 342 366
#     4  12  21  43  75 106 133 183 246 287 332 402
#     4  10  21  37  57  77 116 166 208 253 317 412
#     4  10  19  35  61  93 121 153 209 289 327 375
#
# _framework density 22.253466
#
# number of rings (size 3 to 8) (size 9 to 14) (size 15 to 20)
#    0.000    1.333    4.444    3.333    0.000    0.000 
#    0.000   13.333   29.333    0.000    0.000    0.000 
#    0.000    0.000    0.000    0.000    0.000    0.000 
#
# Total GULP energy -223069.917134 kJ/mol
# GULP energy per Si atom -12392.773174 kJ/mol
# Density = 2.220282 g / cm^3
# Si number density = 22.253466 Si / 1000 Ang^3
#
#
#
# Elastic Constant Matrix: (Units=GPa)
#
#
# Indices 1 2 3 4 5 6 
#
# 1 103.9261 53.3829 48.5927 0.0000 9.4192 0.0000
# 2 53.3829 65.1692 34.8995 0.0000 11.8523 0.0000
# 3 48.5927 34.8995 288.6440 0.0000 4.3722 0.0000
# 4 0.0000 0.0000 0.0000 19.3660 0.0000 0.8206
# 5 9.4192 11.8523 4.3722 0.0000 13.3982 0.0000
# 6 0.0000 0.0000 0.0000 0.8206 0.0000 26.1637
#
#
#
# Elastic Compliance Matrix: (Units=1/GPa)
#
#
# Indices 1 2 3 4 5 6 
#
# 1 0.017032 -0.013316 -0.001261 0.000000 0.000217 0.000000
# 2 -0.013316 0.029892 -0.001119 0.000000 -0.016716 0.000000
# 3 -0.001261 -0.001119 0.003802 0.000000 0.000635 0.000000
# 4 0.000000 0.000000 0.000000 0.051706 0.000000 -0.001622
# 5 0.000217 -0.016716 0.000635 0.000000 0.089065 0.000000
# 6 0.000000 0.000000 0.000000 -0.001622 0.000000 0.038272
#
#
# Mechanical properties :
#
#
# Convention : Reuss Voigt Hill
#
# Bulk Modulus (GPa) = 51.72071 81.27661 66.49866
# Shear Modulus (GPa) = 18.68428 33.17652 25.93040
#
# Velocity S-wave (km/s) = 2.90075 3.86534 3.41725
# Velocity P-wave (km/s) = 5.87463 7.51821 6.74666
#
# Compressibility (1/GPa) = 0.01933461
#
# Stress axis : x y z
#
# Youngs Moduli (GPa) = 58.71360 33.45383 262.99247
#
# Poissons Ratio (x) = 0.44547 0.33152
# Poissons Ratio (y) = 0.78183 0.29436
# Poissons Ratio (z) = 0.07401 0.03744
#
# Static dielectric constant tensor:
#      x y z
#    x 3.906360 0.000000 -0.197940 
#    y 0.000000 3.256050 0.000000 
#    z -0.197940 0.000000 6.094100 
# 
# 
# High freq. dielectric constant tensor:
#      x y z
#    x 1.879260 0.000000 -0.002470 
#    y 0.000000 1.822720 0.000000 
#    z -0.002470 0.000000 1.929850 
# 
# From -- ./inp_files/5854.got.cif
#   From: 2010.06.25/outbox.cif.g09.slc.cpg/sg13_3_cif.got.tgz:5854.got - 2010.06.28 04:50:58.
