data_PCOD8117221
_publ_section_title
;
Structure prediction by ZEFSAII (Michael W. Deem and Ramdas Pophale) SiO2 
 PCOD8117221
Probable space group: P 2/C
;
_chemical_formula_sum "Si O2"
_cell_formula_units_Z 24
_cell_length_a 9.887748
_cell_length_b 6.839759
_cell_length_c 23.374413
_cell_angle_alpha 90.000000
_cell_angle_beta 130.761609
_cell_angle_gamma 90.000000
_cell_volume 1197.355073
_symmetry_space_group_name_H-M "P 2/C"
_symmetry_group_IT_number 13
_symmetry_cell_setting 'monoclinic'
loop_
_space_group_symop_operation_xyz
x,y,z
-x,y,1/2-z
-x,-y,-z
x,-y,1/2+z
loop_
_atom_site_type_symbol
_atom_site_label
_atom_site_fract_x
_atom_site_fract_y
_atom_site_fract_z
Si Si1 0.002252 0.724477 0.517154
Si Si2 0.854203 0.519201 0.663734
Si Si3 0.729375 0.975317 0.968808
Si Si4 0.200474 0.100200 0.890465
Si Si5 0.908063 0.824376 0.835181
Si Si6 0.354647 0.160426 0.336008
O O1 0.121445 0.772002 0.606596
O O2 0.000000 0.500000 0.500000
O O3 0.798749 0.808030 0.468829
O O4 0.100915 0.832929 0.492515
O O5 0.782306 0.333272 0.609672
O O6 0.684277 0.629178 0.645525
O O7 0.000000 0.448240 0.750000
O O8 0.949097 0.666872 0.647158
O O9 0.561736 0.895741 0.886613
O O10 0.677637 0.970721 0.021998
O O11 0.260518 0.008347 0.847028
O O12 0.997831 0.036565 0.849701
O O13 0.722815 0.827639 0.749689
#
# Coordination Sequence:
#
# PCOD8117221 Si02
#       6
#     4   4   4   4   4   4
#     4  10  21  39  57  73 102 146 190 228 267 320
#     4   9  17  30  51  78 105 138 175 212 268 330
#     4  10  22  35  53  80 105 139 185 225 271 324
#     4  10  18  33  54  78 110 142 173 214 268 331
#     4   9  19  34  54  77 106 141 177 220 268 322
#     4  10  20  33  51  81 111 135 172 225 277 322
#
# _framework density 20.044180000000001
#
# number of rings (size 3 to 8) (size 9 to 14) (size 15 to 20)
#    0.000    2.333    0.000    4.000    0.000    2.667 
#    0.000    0.000    0.000    6.000    0.000    0.000 
#    0.000    0.000    0.000    0.000    0.000    0.000 
#
# Total GULP energy -297464.183046 kJ/mol
# GULP energy per Si atom -12394.340960 kJ/mol
# Density = 1.999856 g / cm^3
# Si number density = 20.044180 Si / 1000 Ang^3
#
#
#
# Elastic Constant Matrix: (Units=GPa)
#
#
# Indices 1 2 3 4 5 6 
#
# 1 65.4378 35.7257 38.6569 0.0000 3.6198 0.0000
# 2 35.7257 136.6829 42.2356 0.0000 8.2326 0.0000
# 3 38.6569 42.2356 98.2072 0.0000 4.5674 0.0000
# 4 0.0000 0.0000 0.0000 21.7677 0.0000 -7.8210
# 5 3.6198 8.2326 4.5674 0.0000 29.4444 0.0000
# 6 0.0000 0.0000 0.0000 -7.8210 0.0000 20.6133
#
#
#
# Elastic Compliance Matrix: (Units=1/GPa)
#
#
# Indices 1 2 3 4 5 6 
#
# 1 0.021222 -0.003389 -0.006869 0.000000 -0.000596 0.000000
# 2 -0.003389 0.009075 -0.002488 0.000000 -0.001735 0.000000
# 3 -0.006869 -0.002488 0.013986 0.000000 -0.000629 0.000000
# 4 0.000000 0.000000 0.000000 0.053191 0.000000 0.020181
# 5 -0.000596 -0.001735 -0.000629 0.000000 0.034618 0.000000
# 6 0.000000 0.000000 0.000000 0.020181 0.000000 0.056170
#
#
# Mechanical properties :
#
#
# Convention : Reuss Voigt Hill
#
# Bulk Modulus (GPa) = 53.21438 59.28493 56.24966
# Shear Modulus (GPa) = 22.72549 26.61238 24.66894
#
# Velocity S-wave (km/s) = 3.37080 3.64770 3.51198
# Velocity P-wave (km/s) = 6.46188 6.88348 6.67601
#
# Compressibility (1/GPa) = 0.01879191
#
# Stress axis : x y z
#
# Youngs Moduli (GPa) = 47.12028 110.18848 71.50183
#
# Poissons Ratio (x) = 0.37340 0.49111
# Poissons Ratio (y) = 0.15968 0.17793
# Poissons Ratio (z) = 0.32365 0.27420
#
# Static dielectric constant tensor:
#      x y z
#    x 3.456590 0.000000 -0.168790 
#    y 0.000000 3.578610 0.000000 
#    z -0.168790 0.000000 3.612890 
# 
# 
# High freq. dielectric constant tensor:
#      x y z
#    x 1.763030 0.000000 -0.018810 
#    y 0.000000 1.779710 0.000000 
#    z -0.018810 0.000000 1.777680 
# 
# From -- ./inp_files/91855.got.cif
#   From: 2010.06.25/outbox.cif.g09.slc.cpg/sg13_46_cif.got.tgz:91855.got - 2010.06.28 04:50:58.
