data_PCOD8117490
_publ_section_title
;
Structure prediction by ZEFSAII (Michael W. Deem and Ramdas Pophale) SiO2 
 PCOD8117490
Probable space group: P 2/C
;
_chemical_formula_sum "Si O2"
_cell_formula_units_Z 22
_cell_length_a 14.604476
_cell_length_b 18.095813
_cell_length_c 8.957036
_cell_angle_alpha 90.000000
_cell_angle_beta 152.802239
_cell_angle_gamma 90.000000
_cell_volume 1081.943610
_symmetry_space_group_name_H-M "P 2/C"
_symmetry_group_IT_number 13
_symmetry_cell_setting 'monoclinic'
loop_
_space_group_symop_operation_xyz
x,y,z
-x,y,1/2-z
-x,-y,-z
x,-y,1/2+z
loop_
_atom_site_type_symbol
_atom_site_label
_atom_site_fract_x
_atom_site_fract_y
_atom_site_fract_z
Si Si1 0.500000 0.141277 0.250000
Si Si2 0.180203 0.211810 0.248863
Si Si3 0.500000 0.515172 0.250000
Si Si4 0.934616 0.074588 0.826147
Si Si5 0.378506 0.602055 0.809538
Si Si6 0.000000 0.308179 0.750000
Si Si7 0.566974 0.753152 0.118104
O O1 0.693609 0.090766 0.486934
O O2 0.583822 0.194857 0.499717
O O3 0.232864 0.239966 0.491352
O O4 0.378299 0.214644 0.434701
O O5 0.018215 0.261479 0.927978
O O6 0.076087 0.133048 0.115215
O O7 0.642748 0.569332 0.553467
O O8 0.609692 0.464452 0.289837
O O9 0.000000 0.072263 0.750000
O O10 0.000000 0.000000 0.000000
O O11 0.181117 0.640793 0.473000
O O12 0.550173 0.665695 0.052266
#
# Coordination Sequence:
#
# PCOD8117490 Si02
#       7
#     2   4   2   4   4   2   4
#     4  12  25  44  70  97 130 172 224 272 316 377
#     4  10  20  41  65  93 128 165 216 274 321 378
#     4  10  21  36  54  81 128 164 208 256 318 395
#     4  12  27  46  66  97 138 173 213 265 326 388
#     4  10  20  36  57  88 121 166 209 259 321 381
#     4  10  18  36  64  86 124 160 212 272 316 364
#     4  10  21  39  69  93 122 169 222 268 324 377
#
# _framework density 20.333777999999999
#
# number of rings (size 3 to 8) (size 9 to 14) (size 15 to 20)
#    0.000    1.455    2.727    3.818    2.545    2.909 
#    0.000    0.000    0.000    4.364    0.000    0.000 
#    0.000    0.000    0.000    0.000    0.000    0.000 
#
# Total GULP energy -272577.393701 kJ/mol
# GULP energy per Si atom -12389.881532 kJ/mol
# Density = 2.028750 g / cm^3
# Si number density = 20.333778 Si / 1000 Ang^3
#
#
#
# Elastic Constant Matrix: (Units=GPa)
#
#
# Indices 1 2 3 4 5 6 
#
# 1 89.0203 43.1012 52.2344 0.0000 -18.8956 0.0000
# 2 43.1012 134.8566 79.0979 0.0000 -6.4270 0.0000
# 3 52.2344 79.0979 144.7717 0.0000 -31.4584 0.0000
# 4 0.0000 0.0000 0.0000 62.9687 0.0000 -9.2676
# 5 -18.8956 -6.4270 -31.4584 0.0000 32.1507 0.0000
# 6 0.0000 0.0000 0.0000 -9.2676 0.0000 27.4573
#
#
#
# Elastic Compliance Matrix: (Units=1/GPa)
#
#
# Indices 1 2 3 4 5 6 
#
# 1 0.015553 -0.003174 -0.002577 0.000000 0.005985 0.000000
# 2 -0.003174 0.012133 -0.006810 0.000000 -0.006104 0.000000
# 3 -0.002577 -0.006810 0.013885 0.000000 0.010711 0.000000
# 4 0.000000 0.000000 0.000000 0.016711 0.000000 0.005640
# 5 0.005985 -0.006104 0.010711 0.000000 0.043881 0.000000
# 6 0.000000 0.000000 0.000000 0.005640 0.000000 0.038324
#
#
# Mechanical properties :
#
#
# Convention : Reuss Voigt Hill
#
# Bulk Modulus (GPa) = 60.79413 79.72395 70.25904
# Shear Modulus (GPa) = 29.22406 37.46303 33.34355
#
# Velocity S-wave (km/s) = 3.79518 4.29698 4.05385
# Velocity P-wave (km/s) = 7.01195 7.99447 7.51927
#
# Compressibility (1/GPa) = 0.01644896
#
# Stress axis : x y z
#
# Youngs Moduli (GPa) = 64.29831 82.41789 72.01838
#
# Poissons Ratio (x) = 0.26161 0.18557
# Poissons Ratio (y) = 0.20409 0.49046
# Poissons Ratio (z) = 0.16568 0.56128
#
# Static dielectric constant tensor:
#      x y z
#    x 3.580960 0.000000 -0.268210 
#    y 0.000000 4.290640 0.000000 
#    z -0.268210 0.000000 4.137880 
# 
# 
# High freq. dielectric constant tensor:
#      x y z
#    x 1.783360 0.000000 -0.021600 
#    y 0.000000 1.806120 0.000000 
#    z -0.021600 0.000000 1.805970 
# 
# From -- ./inp_files/13202.got.cif
#   From: 2010.06.25/outbox.cif.g09.slc.cpg/sg13_7_cif.got.tgz:13202.got - 2010.06.28 04:50:58.
