data_PCOD8117487
_publ_section_title
;
Structure prediction by ZEFSAII (Michael W. Deem and Ramdas Pophale) SiO2 
 PCOD8117487
Probable space group: P 2/C
;
_chemical_formula_sum "Si O2"
_cell_formula_units_Z 30
_cell_length_a 30.646634
_cell_length_b 9.522157
_cell_length_c 18.039731
_cell_angle_alpha 90.000000
_cell_angle_beta 15.811901
_cell_angle_gamma 90.000000
_cell_volume 1434.441941
_symmetry_space_group_name_H-M "P 2/C"
_symmetry_group_IT_number 13
_symmetry_cell_setting 'monoclinic'
loop_
_space_group_symop_operation_xyz
x,y,z
-x,y,1/2-z
-x,-y,-z
x,-y,1/2+z
loop_
_atom_site_type_symbol
_atom_site_label
_atom_site_fract_x
_atom_site_fract_y
_atom_site_fract_z
Si Si1 0.500000 0.764233 0.250000
Si Si2 0.139418 0.329182 0.967026
Si Si3 0.372309 0.074028 0.817013
Si Si4 0.991102 0.882138 0.937770
Si Si5 0.039309 0.179626 0.851379
Si Si6 0.183404 0.847769 0.970182
Si Si7 0.218237 0.368425 0.289770
Si Si8 0.388136 0.123101 0.626908
O O1 0.549871 0.858352 0.238038
O O2 0.360126 0.659930 0.501438
O O3 0.000000 0.378395 0.250000
O O4 0.047102 0.223303 0.064393
O O5 0.206636 0.465603 0.817354
O O6 0.295781 0.257846 0.746866
O O7 0.425888 0.151937 0.652392
O O8 0.446713 0.914651 0.687200
O O9 0.180903 0.083883 0.136898
O O10 0.924724 0.039131 0.028596
O O11 0.911465 0.817415 0.142369
O O12 0.191905 0.175929 0.545816
O O13 0.941889 0.317509 0.989277
O O14 0.000000 0.877201 0.250000
O O15 0.245537 0.711519 0.823626
O O16 0.278153 0.986562 0.794773
#
# Coordination Sequence:
#
# PCOD8117487 Si02
#       8
#     2   4   4   4   4   4   4   4
#     4  12  24  46  64  92 136 180 214 268 332 406
#     4  12  23  42  67  97 136 170 220 275 331 385
#     4  11  23  40  69  94 128 171 221 268 337 382
#     4  11  22  38  67  99 128 165 217 285 326 381
#     4  10  20  37  60  96 127 158 221 268 325 381
#     4  10  18  36  63  93 120 166 215 265 315 383
#     4  11  24  40  65  90 131 183 213 260 330 401
#     4  11  22  41  68  98 124 172 217 274 324 392
#
# _framework density 20.914055999999999
#
# number of rings (size 3 to 8) (size 9 to 14) (size 15 to 20)
#    0.000    1.067    5.333    3.200    0.000    0.533 
#    0.000    4.000    0.000    0.000    0.000    0.000 
#    0.000    0.000    0.000    0.000    0.000    0.000 
#
# Total GULP energy -371705.359042 kJ/mol
# GULP energy per Si atom -12390.178635 kJ/mol
# Density = 2.086646 g / cm^3
# Si number density = 20.914056 Si / 1000 Ang^3
#
#
#
# Elastic Constant Matrix: (Units=GPa)
#
#
# Indices 1 2 3 4 5 6 
#
# 1 101.7013 37.1387 25.6233 0.0000 7.7477 0.0000
# 2 37.1387 108.6522 21.3055 0.0000 -10.0935 0.0000
# 3 25.6233 21.3055 63.0537 0.0000 5.3352 0.0000
# 4 0.0000 0.0000 0.0000 25.5518 0.0000 2.2572
# 5 7.7477 -10.0935 5.3352 0.0000 35.7866 0.0000
# 6 0.0000 0.0000 0.0000 2.2572 0.0000 20.1118
#
#
#
# Elastic Compliance Matrix: (Units=1/GPa)
#
#
# Indices 1 2 3 4 5 6 
#
# 1 0.012353 -0.003849 -0.003445 0.000000 -0.003246 0.000000
# 2 -0.003849 0.011461 -0.002687 0.000000 0.004466 0.000000
# 3 -0.003445 -0.002687 0.018400 0.000000 -0.002755 0.000000
# 4 0.000000 0.000000 0.000000 0.039528 0.000000 -0.004436
# 5 -0.003246 0.004466 -0.002755 0.000000 0.030317 0.000000
# 6 0.000000 0.000000 0.000000 -0.004436 0.000000 0.050220
#
#
# Mechanical properties :
#
#
# Convention : Reuss Voigt Hill
#
# Bulk Modulus (GPa) = 44.93488 49.06023 46.99756
# Shear Modulus (GPa) = 26.36330 28.91269 27.63799
#
# Velocity S-wave (km/s) = 3.55428 3.72217 3.63919
# Velocity P-wave (km/s) = 6.19484 6.47933 6.33868
#
# Compressibility (1/GPa) = 0.02225443
#
# Stress axis : x y z
#
# Youngs Moduli (GPa) = 80.94950 87.25337 54.34687
#
# Poissons Ratio (x) = 0.33580 0.18722
# Poissons Ratio (y) = 0.31154 0.14600
# Poissons Ratio (z) = 0.27887 0.23441
#
# Static dielectric constant tensor:
#      x y z
#    x 4.124370 0.000000 0.260190 
#    y 0.000000 3.508130 0.000000 
#    z 0.260190 0.000000 4.140460 
# 
# 
# High freq. dielectric constant tensor:
#      x y z
#    x 1.830560 0.000000 0.013210 
#    y 0.000000 1.786940 0.000000 
#    z 0.013210 0.000000 1.826310 
# 
# From -- ./inp_files/72369.got.cif
#   From: 2010.06.25/outbox.cif.g09.slc.cpg/sg13_37_cif.got.tgz:72369.got - 2010.06.28 04:50:58.
