data_PCOD8117332
_publ_section_title
;
Structure prediction by ZEFSAII (Michael W. Deem and Ramdas Pophale) SiO2 
 PCOD8117332
Probable space group: P 2/C
;
_chemical_formula_sum "Si O2"
_cell_formula_units_Z 28
_cell_length_a 30.634515
_cell_length_b 9.490680
_cell_length_c 9.045588
_cell_angle_alpha 90.000000
_cell_angle_beta 143.764860
_cell_angle_gamma 90.000000
_cell_volume 1554.556277
_symmetry_space_group_name_H-M "P 2/C"
_symmetry_group_IT_number 13
_symmetry_cell_setting 'monoclinic'
loop_
_space_group_symop_operation_xyz
x,y,z
-x,y,1/2-z
-x,-y,-z
x,-y,1/2+z
loop_
_atom_site_type_symbol
_atom_site_label
_atom_site_fract_x
_atom_site_fract_y
_atom_site_fract_z
Si Si1 0.188172 0.122601 0.710962
Si Si2 0.800116 0.849108 0.915250
Si Si3 0.575943 0.843590 0.142008
Si Si4 0.701526 0.368402 0.983769
Si Si5 0.588942 0.877184 0.837412
Si Si6 0.716387 0.663614 0.177151
Si Si7 0.946645 0.953271 0.227625
O O1 0.207570 0.263435 0.670872
O O2 0.100061 0.089308 0.461504
O O3 0.230846 0.989805 0.751156
O O4 0.215715 0.139865 0.953859
O O5 0.763385 0.712534 0.745555
O O6 0.888579 0.836329 0.127024
O O7 0.621354 0.700440 0.295440
O O8 0.607611 0.967372 0.330381
O O9 0.587571 0.893963 0.008020
O O10 0.489342 0.818796 0.938924
O O11 0.721765 0.367653 0.865820
O O12 0.700014 0.525519 0.038520
O O13 0.650424 0.768112 0.953278
O O14 0.000000 0.886764 0.250000
O O15 0.000000 0.000000 0.500000
#
# Coordination Sequence:
#
# PCOD8117332 Si02
#       7
#     4   4   4   4   4   4   4
#     4  10  20  34  57  85 113 144 180 228 271 328
#     4  10  20  34  57  85 113 144 180 227 273 326
#     4   9  19  36  57  81 109 142 185 235 282 324
#     4  11  23  37  54  78 113 152 191 232 277 334
#     4   9  19  36  57  81 109 142 185 235 281 326
#     4  11  23  37  54  78 113 152 191 231 278 333
#     4  10  18  34  58  90 113 138 177 227 275 324
#
# _framework density 18.011571
#
# number of rings (size 3 to 8) (size 9 to 14) (size 15 to 20)
#    0.857    1.143    1.429    2.571    2.000    5.143 
#    0.000    0.000    0.000    1.714    0.000    0.000 
#    0.000    0.000    0.000    0.000    0.000    0.000 
#
# Total GULP energy -347066.303917 kJ/mol
# GULP energy per Si atom -12395.225140 kJ/mol
# Density = 1.797058 g / cm^3
# Si number density = 18.011571 Si / 1000 Ang^3
#
#
#
# Elastic Constant Matrix: (Units=GPa)
#
#
# Indices 1 2 3 4 5 6 
#
# 1 83.1763 31.9976 29.2082 0.0000 -10.1962 0.0000
# 2 31.9976 90.7933 28.4941 0.0000 -3.7859 0.0000
# 3 29.2082 28.4941 83.1411 0.0000 -7.2678 0.0000
# 4 0.0000 0.0000 0.0000 22.6912 0.0000 -9.8149
# 5 -10.1962 -3.7859 -7.2678 0.0000 28.2170 0.0000
# 6 0.0000 0.0000 0.0000 -9.8149 0.0000 25.0538
#
#
#
# Elastic Compliance Matrix: (Units=1/GPa)
#
#
# Indices 1 2 3 4 5 6 
#
# 1 0.015380 -0.004108 -0.003639 0.000000 0.004069 0.000000
# 2 -0.004108 0.013448 -0.003210 0.000000 -0.000507 0.000000
# 3 -0.003639 -0.003210 0.014582 0.000000 0.002010 0.000000
# 4 0.000000 0.000000 0.000000 0.053061 0.000000 0.020787
# 5 0.004069 -0.000507 0.002010 0.000000 0.037360 0.000000
# 6 0.000000 0.000000 0.000000 0.020787 0.000000 0.048057
#
#
# Mechanical properties :
#
#
# Convention : Reuss Voigt Hill
#
# Bulk Modulus (GPa) = 46.52302 48.50118 47.51210
# Shear Modulus (GPa) = 23.70020 26.35312 25.02666
#
# Velocity S-wave (km/s) = 3.63138 3.82923 3.73161
# Velocity P-wave (km/s) = 6.59303 6.82180 6.70839
#
# Compressibility (1/GPa) = 0.02149474
#
# Stress axis : x y z
#
# Youngs Moduli (GPa) = 65.01977 74.35953 68.57712
#
# Poissons Ratio (x) = 0.30550 0.24958
# Poissons Ratio (y) = 0.26713 0.22013
# Poissons Ratio (z) = 0.23663 0.23869
#
# Static dielectric constant tensor:
#      x y z
#    x 3.383310 0.000000 0.043540 
#    y 0.000000 3.099310 0.000000 
#    z 0.043540 0.000000 3.371240 
# 
# 
# High freq. dielectric constant tensor:
#      x y z
#    x 1.708760 0.000000 -0.005310 
#    y 0.000000 1.668310 0.000000 
#    z -0.005310 0.000000 1.704240 
# 
# From -- ./inp_files/24879.got.cif
#   From: 2010.06.25/outbox.cif.g09.slc.cpg/sg13_13_cif.got.tgz:24879.got - 2010.06.28 04:50:58.
