data_PCOD8117949
_publ_section_title
;
Structure prediction by ZEFSAII (Michael W. Deem and Ramdas Pophale) SiO2 
 PCOD8117949
Probable space group: P 2/C
;
_chemical_formula_sum "Si O2"
_cell_formula_units_Z 32
_cell_length_a 20.501018
_cell_length_b 9.002579
_cell_length_c 24.715848
_cell_angle_alpha 90.000000
_cell_angle_beta 157.862242
_cell_angle_gamma 90.000000
_cell_volume 1718.972171
_symmetry_space_group_name_H-M "P 2/C"
_symmetry_group_IT_number 13
_symmetry_cell_setting 'monoclinic'
loop_
_space_group_symop_operation_xyz
x,y,z
-x,y,1/2-z
-x,-y,-z
x,-y,1/2+z
loop_
_atom_site_type_symbol
_atom_site_label
_atom_site_fract_x
_atom_site_fract_y
_atom_site_fract_z
Si Si1 0.514101 0.737265 0.017558
Si Si2 0.708634 0.153052 0.767509
Si Si3 0.112627 0.454133 0.953159
Si Si4 0.382997 0.612945 0.573394
Si Si5 0.619895 0.824927 0.697481
Si Si6 0.951433 0.663340 0.983606
Si Si7 0.388053 0.354204 0.711098
Si Si8 0.267337 0.507685 0.871593
O O1 0.614037 0.838740 0.137229
O O2 0.649704 0.610616 0.105382
O O3 0.456537 0.834417 0.921831
O O4 0.344023 0.668221 0.915041
O O5 0.607048 0.248312 0.733825
O O6 0.698062 0.981423 0.777119
O O7 0.904299 0.212295 0.917086
O O8 0.937916 0.509610 0.791356
O O9 0.230033 0.366755 0.999461
O O10 0.076291 0.338216 0.973289
O O11 0.198151 0.606097 0.042186
O O12 0.466555 0.771148 0.620254
O O13 0.534126 0.514755 0.715030
O O14 0.309628 0.527150 0.465627
O O15 0.775338 0.705641 0.817387
O O16 0.000000 0.500000 0.000000
O O17 0.500000 0.275501 0.750000
#
# Coordination Sequence:
#
# PCOD8117949 Si02
#       8
#     4   4   4   4   4   4   4   4
#     4  10  21  35  59  85 116 151 191 245 290 347
#     4  12  22  40  59  86 122 156 192 239 301 358
#     4  11  20  34  62  87 114 146 201 252 284 338
#     4  10  20  38  58  84 114 155 202 243 287 346
#     4  11  24  38  57  88 120 156 193 242 302 357
#     4  12  22  38  61  88 118 149 196 248 293 343
#     4  10  21  38  59  85 115 153 195 241 286 349
#     4  10  19  34  59  91 111 145 202 243 292 332
#
# _framework density 18.615776
#
# number of rings (size 3 to 8) (size 9 to 14) (size 15 to 20)
#    0.000    1.250    5.000    1.875    1.750    0.000 
#    2.250    0.000    0.000    0.000    6.500    0.000 
#    0.000    0.000    0.000    0.000    0.000    0.000 
#
# Total GULP energy -396822.308831 kJ/mol
# GULP energy per Si atom -12400.697151 kJ/mol
# Density = 1.857341 g / cm^3
# Si number density = 18.615776 Si / 1000 Ang^3
#
#
#
# Elastic Constant Matrix: (Units=GPa)
#
#
# Indices 1 2 3 4 5 6 
#
# 1 117.8964 26.1240 29.8107 0.0000 9.1424 0.0000
# 2 26.1240 68.1679 21.8965 0.0000 11.4322 0.0000
# 3 29.8107 21.8965 109.4653 0.0000 7.0488 0.0000
# 4 0.0000 0.0000 0.0000 22.9987 0.0000 -1.4425
# 5 9.1424 11.4322 7.0488 0.0000 26.7864 0.0000
# 6 0.0000 0.0000 0.0000 -1.4425 0.0000 13.6381
#
#
#
# Elastic Compliance Matrix: (Units=1/GPa)
#
#
# Indices 1 2 3 4 5 6 
#
# 1 0.009733 -0.002826 -0.001983 0.000000 -0.001594 0.000000
# 2 -0.002826 0.017494 -0.002351 0.000000 -0.005883 0.000000
# 3 -0.001983 -0.002351 0.010210 0.000000 -0.001007 0.000000
# 4 0.000000 0.000000 0.000000 0.043771 0.000000 0.004629
# 5 -0.001594 -0.005883 -0.001007 0.000000 0.040652 0.000000
# 6 0.000000 0.000000 0.000000 0.004629 0.000000 0.073813
#
#
# Mechanical properties :
#
#
# Convention : Reuss Voigt Hill
#
# Bulk Modulus (GPa) = 43.25473 50.13245 46.69359
# Shear Modulus (GPa) = 22.96736 27.19788 25.08262
#
# Velocity S-wave (km/s) = 3.51630 3.82647 3.67466
# Velocity P-wave (km/s) = 6.30649 6.81990 6.56821
#
# Compressibility (1/GPa) = 0.02311886
#
# Stress axis : x y z
#
# Youngs Moduli (GPa) = 102.74171 57.16095 97.93952
#
# Poissons Ratio (x) = 0.16153 0.19419
# Poissons Ratio (y) = 0.29033 0.23026
# Poissons Ratio (z) = 0.20371 0.13439
#
# Static dielectric constant tensor:
#      x y z
#    x 3.644730 0.000000 0.042530 
#    y 0.000000 3.064360 0.000000 
#    z 0.042530 0.000000 3.489400 
# 
# 
# High freq. dielectric constant tensor:
#      x y z
#    x 1.735460 0.000000 -0.004830 
#    y 0.000000 1.686360 0.000000 
#    z -0.004830 0.000000 1.735480 
# 
# From -- ./inp_files/93599.got.cif
#   From: 2010.06.25/outbox.cif.g09.slc.cpg/sg13_47_cif.got.tgz:93599.got - 2010.06.28 04:50:58.
