data_PCOD8117559
_publ_section_title
;
Structure prediction by ZEFSAII (Michael W. Deem and Ramdas Pophale) SiO2 
 PCOD8117559
Probable space group: P 2/C
;
_chemical_formula_sum "Si O2"
_cell_formula_units_Z 24
_cell_length_a 8.465341
_cell_length_b 11.707952
_cell_length_c 12.580592
_cell_angle_alpha 90.000000
_cell_angle_beta 107.866356
_cell_angle_gamma 90.000000
_cell_volume 1186.753806
_symmetry_space_group_name_H-M "P 2/C"
_symmetry_group_IT_number 13
_symmetry_cell_setting 'monoclinic'
loop_
_space_group_symop_operation_xyz
x,y,z
-x,y,1/2-z
-x,-y,-z
x,-y,1/2+z
loop_
_atom_site_type_symbol
_atom_site_label
_atom_site_fract_x
_atom_site_fract_y
_atom_site_fract_z
Si Si1 0.653457 0.551281 0.966866
Si Si2 0.627796 0.159913 0.094387
Si Si3 0.677614 0.092605 0.595464
Si Si4 0.500000 0.199468 0.750000
Si Si5 0.500000 0.298212 0.250000
Si Si6 0.771240 0.687257 0.439204
Si Si7 0.086559 0.710647 0.374862
O O1 0.598630 0.623087 0.853166
O O2 0.769578 0.448469 0.953481
O O3 0.500000 0.500000 0.000000
O O4 0.756439 0.630868 0.068022
O O5 0.628403 0.217596 0.211168
O O6 0.727668 0.040851 0.107659
O O7 0.434819 0.131689 0.027764
O O8 0.716609 0.248746 0.034503
O O9 0.564020 0.115313 0.673600
O O10 0.848930 0.161168 0.631794
O O11 0.351618 0.280851 0.681856
O O12 0.959024 0.717909 0.446498
O O13 0.000000 0.663657 0.250000
#
# Coordination Sequence:
#
# PCOD8117559 Si02
#       7
#     4   4   4   2   2   4   4
#     4  12  25  45  69 101 136 179 231 280 343 410
#     4  10  22  40  68  94 129 178 230 283 329 406
#     4  10  20  41  64  97 131 174 230 280 336 403
#     4  10  18  38  66  94 128 174 230 260 336 412
#     4  12  22  42  72 100 134 178 240 286 332 410
#     4  11  23  40  63 100 135 176 223 277 342 410
#     4  12  25  43  66 101 141 177 223 282 349 411
#
# _framework density 20.223234000000001
#
# number of rings (size 3 to 8) (size 9 to 14) (size 15 to 20)
#    0.000    1.000    5.000    2.500    2.333    0.667 
#    0.000    2.500    0.000    0.000    0.000    0.000 
#    0.000    0.000    0.000    0.000    0.000    0.000 
#
# Total GULP energy -297666.775883 kJ/mol
# GULP energy per Si atom -12402.782328 kJ/mol
# Density = 2.017720 g / cm^3
# Si number density = 20.223234 Si / 1000 Ang^3
#
#
#
# Elastic Constant Matrix: (Units=GPa)
#
#
# Indices 1 2 3 4 5 6 
#
# 1 108.3807 46.0589 37.5042 0.0000 -3.9600 0.0000
# 2 46.0589 148.4117 57.9451 0.0000 2.0010 0.0000
# 3 37.5042 57.9451 119.6778 0.0000 -0.3626 0.0000
# 4 0.0000 0.0000 0.0000 31.2021 0.0000 -1.2699
# 5 -3.9600 2.0010 -0.3626 0.0000 27.9242 0.0000
# 6 0.0000 0.0000 0.0000 -1.2699 0.0000 27.9781
#
#
#
# Elastic Compliance Matrix: (Units=1/GPa)
#
#
# Indices 1 2 3 4 5 6 
#
# 1 0.011176 -0.002622 -0.002227 0.000000 0.001744 0.000000
# 2 -0.002622 0.008936 -0.003508 0.000000 -0.001058 0.000000
# 3 -0.002227 -0.003508 0.010752 0.000000 0.000075 0.000000
# 4 0.000000 0.000000 0.000000 0.032108 0.000000 0.001457
# 5 0.001744 -0.001058 0.000075 0.000000 0.036135 0.000000
# 6 0.000000 0.000000 0.000000 0.001457 0.000000 0.035808
#
#
# Mechanical properties :
#
#
# Convention : Reuss Voigt Hill
#
# Bulk Modulus (GPa) = 70.67692 73.27631 71.97661
# Shear Modulus (GPa) = 31.98019 33.08501 32.53260
#
# Velocity S-wave (km/s) = 3.98094 4.04913 4.01518
# Velocity P-wave (km/s) = 7.49365 7.62712 7.56068
#
# Compressibility (1/GPa) = 0.01414889
#
# Stress axis : x y z
#
# Youngs Moduli (GPa) = 89.48120 111.91111 93.00237
#
# Poissons Ratio (x) = 0.29345 0.20714
# Poissons Ratio (y) = 0.23464 0.32624
# Poissons Ratio (z) = 0.19930 0.39257
#
# Static dielectric constant tensor:
#      x y z
#    x 3.535390 0.000000 -0.078890 
#    y 0.000000 3.870790 0.000000 
#    z -0.078890 0.000000 3.775770 
# 
# 
# High freq. dielectric constant tensor:
#      x y z
#    x 1.778210 0.000000 -0.014020 
#    y 0.000000 1.804430 0.000000 
#    z -0.014020 0.000000 1.789100 
# 
# From -- ./inp_files/29583.got.cif
#   From: 2010.06.25/outbox.cif.g09.slc.cpg/sg13_15_cif.got.tgz:29583.got - 2010.06.28 04:50:58.
