data_PCOD8117443
_publ_section_title
;
Structure prediction by ZEFSAII (Michael W. Deem and Ramdas Pophale) SiO2 
 PCOD8117443
Probable space group: P 2/C
;
_chemical_formula_sum "Si O2"
_cell_formula_units_Z 26
_cell_length_a 6.775805
_cell_length_b 8.129505
_cell_length_c 26.228410
_cell_angle_alpha 90.000000
_cell_angle_beta 67.726165
_cell_angle_gamma 90.000000
_cell_volume 1336.960075
_symmetry_space_group_name_H-M "P 2/C"
_symmetry_group_IT_number 13
_symmetry_cell_setting 'monoclinic'
loop_
_space_group_symop_operation_xyz
x,y,z
-x,y,1/2-z
-x,-y,-z
x,-y,1/2+z
loop_
_atom_site_type_symbol
_atom_site_label
_atom_site_fract_x
_atom_site_fract_y
_atom_site_fract_z
Si Si1 0.500000 0.779462 0.750000
Si Si2 0.917370 0.856741 0.572732
Si Si3 0.717484 0.566826 0.650299
Si Si4 0.997014 0.355440 0.807932
Si Si5 0.483877 0.744604 0.132603
Si Si6 0.247738 0.948278 0.320765
Si Si7 0.331171 0.926669 0.478917
O O1 0.521371 0.660016 0.698815
O O2 0.700814 0.904548 0.724426
O O3 0.822261 0.682866 0.598214
O O4 0.157070 0.829858 0.529805
O O5 0.915307 0.985121 0.620340
O O6 0.775798 0.922607 0.540291
O O7 0.621218 0.415259 0.630278
O O8 0.906581 0.506723 0.669358
O O9 0.762167 0.302505 0.847432
O O10 0.000000 0.417894 0.750000
O O11 0.146764 0.196638 0.798077
O O12 0.537903 0.881614 0.170948
O O13 0.553546 0.802265 0.070240
O O14 0.500000 0.000000 0.500000
#
# Coordination Sequence:
#
# PCOD8117443 Si02
#       7
#     2   4   4   4   4   4   4
#     4  10  18  36  58  76 106 144 180 220 262 316
#     4   9  20  38  57  81 110 142 180 228 275 319
#     4  10  22  38  55  80 116 147 178 222 276 329
#     4  11  21  35  56  82 111 146 183 220 266 323
#     4  10  21  37  56  80 111 145 178 222 276 325
#     4   9  19  36  57  79 107 142 182 223 266 318
#     4  10  20  37  61  82 105 141 188 231 270 322
#
# _framework density 19.447102999999998
#
# number of rings (size 3 to 8) (size 9 to 14) (size 15 to 20)
#    0.000    2.154    0.000    2.769    0.000    5.538 
#    0.000   18.462    0.000    0.000    0.000    0.000 
#    0.000    0.000    0.000    0.000    0.000    0.000 
#
# Total GULP energy -322290.371517 kJ/mol
# GULP energy per Si atom -12395.783520 kJ/mol
# Density = 1.940284 g / cm^3
# Si number density = 19.447103 Si / 1000 Ang^3
#
#
#
# Elastic Constant Matrix: (Units=GPa)
#
#
# Indices 1 2 3 4 5 6 
#
# 1 96.1522 32.4116 66.8212 0.0000 -11.3599 0.0000
# 2 32.4116 100.4641 55.3274 0.0000 -1.9322 0.0000
# 3 66.8212 55.3274 129.7949 0.0000 -17.0710 0.0000
# 4 0.0000 0.0000 0.0000 28.3486 0.0000 -2.2395
# 5 -11.3599 -1.9322 -17.0710 0.0000 32.1981 0.0000
# 6 0.0000 0.0000 0.0000 -2.2395 0.0000 15.8672
#
#
#
# Elastic Compliance Matrix: (Units=1/GPa)
#
#
# Indices 1 2 3 4 5 6 
#
# 1 0.016319 -0.000943 -0.007793 0.000000 0.001569 0.000000
# 2 -0.000943 0.013225 -0.005473 0.000000 -0.002441 0.000000
# 3 -0.007793 -0.005473 0.014668 0.000000 0.004699 0.000000
# 4 0.000000 0.000000 0.000000 0.035673 0.000000 0.005035
# 5 0.001569 -0.002441 0.004699 0.000000 0.033956 0.000000
# 6 0.000000 0.000000 0.000000 0.005035 0.000000 0.063734
#
#
# Mechanical properties :
#
#
# Convention : Reuss Voigt Hill
#
# Bulk Modulus (GPa) = 63.31640 70.61462 66.96551
# Shear Modulus (GPa) = 23.66777 26.73950 25.20363
#
# Velocity S-wave (km/s) = 3.49238 3.71210 3.60392
# Velocity P-wave (km/s) = 6.99223 7.40020 7.19910
#
# Compressibility (1/GPa) = 0.01579370
#
# Stress axis : x y z
#
# Youngs Moduli (GPa) = 61.27696 75.61340 68.17767
#
# Poissons Ratio (x) = 0.07129 0.53133
# Poissons Ratio (y) = 0.05778 0.37314
# Poissons Ratio (z) = 0.47755 0.41384
#
# Static dielectric constant tensor:
#      x y z
#    x 3.620440 0.000000 -0.153590 
#    y 0.000000 3.634140 0.000000 
#    z -0.153590 0.000000 3.758160 
# 
# 
# High freq. dielectric constant tensor:
#      x y z
#    x 1.743720 0.000000 -0.010170 
#    y 0.000000 1.761850 0.000000 
#    z -0.010170 0.000000 1.768390 
# 
# From -- ./inp_files/90165.got.cif
#   From: 2010.06.25/outbox.cif.g09.slc.cpg/sg13_46_cif.got.tgz:90165.got - 2010.06.28 04:50:58.
