data_PCOD8117460
_publ_section_title
;
Structure prediction by ZEFSAII (Michael W. Deem and Ramdas Pophale) SiO2 
 PCOD8117460
Probable space group: P 2/C
;
_chemical_formula_sum "Si O2"
_cell_formula_units_Z 28
_cell_length_a 9.162220
_cell_length_b 11.429501
_cell_length_c 15.987960
_cell_angle_alpha 90.000000
_cell_angle_beta 123.733742
_cell_angle_gamma 90.000000
_cell_volume 1392.354225
_symmetry_space_group_name_H-M "P 2/C"
_symmetry_group_IT_number 13
_symmetry_cell_setting 'monoclinic'
loop_
_space_group_symop_operation_xyz
x,y,z
-x,y,1/2-z
-x,-y,-z
x,-y,1/2+z
loop_
_atom_site_type_symbol
_atom_site_label
_atom_site_fract_x
_atom_site_fract_y
_atom_site_fract_z
Si Si1 0.814060 0.617306 0.646745
Si Si2 0.909690 0.191197 0.903073
Si Si3 0.359823 0.780516 0.324943
Si Si4 0.009425 0.443215 0.913915
Si Si5 0.279377 0.162465 0.492062
Si Si6 0.865271 0.052304 0.639702
Si Si7 0.634446 0.475309 0.717419
O O1 0.735466 0.725454 0.571629
O O2 0.655405 0.583898 0.660084
O O3 0.000000 0.650486 0.750000
O O4 0.841251 0.504905 0.594466
O O5 0.723672 0.199216 0.793677
O O6 0.034928 0.304392 0.930279
O O7 0.024761 0.084045 0.907544
O O8 0.876508 0.170805 0.990229
O O9 0.540692 0.848104 0.398654
O O10 0.223987 0.830279 0.350714
O O11 0.410023 0.643041 0.348174
O O12 0.825044 0.460922 0.813543
O O13 0.000000 0.500000 0.000000
O O14 0.269982 0.047923 0.430519
O O15 0.000000 0.998364 0.750000
O O16 0.500000 0.503016 0.750000
#
# Coordination Sequence:
#
# PCOD8117460 Si02
#       7
#     4   4   4   4   4   4   4
#     4  10  22  37  56  84 119 156 184 229 290 346
#     4  10  20  37  61  84 111 148 195 237 280 333
#     4  10  21  38  58  82 112 147 191 245 283 329
#     4  10  18  36  59  86 114 150 190 233 280 343
#     4  12  21  36  58  86 116 149 190 233 291 339
#     4  10  22  39  58  81 113 151 195 238 281 338
#     4  10  21  38  58  83 118 148 189 238 286 333
#
# _framework density 20.109825000000001
#
# number of rings (size 3 to 8) (size 9 to 14) (size 15 to 20)
#    0.000    1.714    1.429    4.286    0.000    4.000 
#    2.571    0.000    0.000    0.857    0.000    0.000 
#    0.000    0.000    0.000    0.000    0.000    0.000 
#
# Total GULP energy -347026.710723 kJ/mol
# GULP energy per Si atom -12393.811097 kJ/mol
# Density = 2.006405 g / cm^3
# Si number density = 20.109825 Si / 1000 Ang^3
#
#
#
# Elastic Constant Matrix: (Units=GPa)
#
#
# Indices 1 2 3 4 5 6 
#
# 1 99.8068 41.0152 21.3236 0.0000 -25.2276 0.0000
# 2 41.0152 91.8284 45.0299 0.0000 -9.7467 0.0000
# 3 21.3236 45.0299 63.6871 0.0000 -15.3770 0.0000
# 4 0.0000 0.0000 0.0000 27.5315 0.0000 -4.7115
# 5 -25.2276 -9.7467 -15.3770 0.0000 33.2047 0.0000
# 6 0.0000 0.0000 0.0000 -4.7115 0.0000 18.3434
#
#
#
# Elastic Compliance Matrix: (Units=1/GPa)
#
#
# Indices 1 2 3 4 5 6 
#
# 1 0.014903 -0.006639 0.002215 0.000000 0.010400 0.000000
# 2 -0.006639 0.019639 -0.012935 0.000000 -0.005269 0.000000
# 3 0.002215 -0.012935 0.026566 0.000000 0.010189 0.000000
# 4 0.000000 0.000000 0.000000 0.037992 0.000000 0.009758
# 5 0.010400 -0.005269 0.010189 0.000000 0.041189 0.000000
# 6 0.000000 0.000000 0.000000 0.009758 0.000000 0.057022
#
#
# Mechanical properties :
#
#
# Convention : Reuss Voigt Hill
#
# Bulk Modulus (GPa) = 37.89295 52.22886 45.06091
# Shear Modulus (GPa) = 20.76197 25.67949 23.22073
#
# Velocity S-wave (km/s) = 3.21663 3.57734 3.40177
# Velocity P-wave (km/s) = 5.71660 6.56440 6.15511
#
# Compressibility (1/GPa) = 0.02639013
#
# Stress axis : x y z
#
# Youngs Moduli (GPa) = 67.10062 50.91961 37.64237
#
# Poissons Ratio (x) = 0.33805 -0.08338
# Poissons Ratio (y) = 0.44547 0.48691
# Poissons Ratio (z) = -0.14864 0.65865
#
# Static dielectric constant tensor:
#      x y z
#    x 4.877210 0.000000 -0.144790 
#    y 0.000000 3.976350 0.000000 
#    z -0.144790 0.000000 3.629020 
# 
# 
# High freq. dielectric constant tensor:
#      x y z
#    x 1.780370 0.000000 -0.010800 
#    y 0.000000 1.773620 0.000000 
#    z -0.010800 0.000000 1.787120 
# 
# From -- ./inp_files/47309.got.cif
#   From: 2010.06.25/outbox.cif.g09.slc.cpg/sg13_24_cif.got.tgz:47309.got - 2010.06.28 04:50:58.
