data_PCOD8117306
_publ_section_title
;
Structure prediction by ZEFSAII (Michael W. Deem and Ramdas Pophale) SiO2 
 PCOD8117306
Probable space group: P 2/C
;
_chemical_formula_sum "Si O2"
_cell_formula_units_Z 32
_cell_length_a 26.855199
_cell_length_b 10.877346
_cell_length_c 18.061255
_cell_angle_alpha 90.000000
_cell_angle_beta 162.781120
_cell_angle_gamma 90.000000
_cell_volume 1561.796436
_symmetry_space_group_name_H-M "P 2/C"
_symmetry_group_IT_number 13
_symmetry_cell_setting 'monoclinic'
loop_
_space_group_symop_operation_xyz
x,y,z
-x,y,1/2-z
-x,-y,-z
x,-y,1/2+z
loop_
_atom_site_type_symbol
_atom_site_label
_atom_site_fract_x
_atom_site_fract_y
_atom_site_fract_z
Si Si1 0.308823 0.363110 0.131406
Si Si2 0.678044 0.685061 0.148624
Si Si3 0.831272 0.431076 0.412749
Si Si4 0.785385 0.769390 0.149691
Si Si5 0.994652 0.814529 0.660682
Si Si6 0.160523 0.036962 0.272948
Si Si7 0.169411 0.279587 0.222878
Si Si8 0.163455 0.571702 0.856682
O O1 0.486605 0.300809 0.404818
O O2 0.192152 0.375064 0.038706
O O3 0.225465 0.281649 0.948489
O O4 0.326712 0.504240 0.124402
O O5 0.725588 0.552251 0.246866
O O6 0.672729 0.697440 0.051034
O O7 0.804367 0.788481 0.361160
O O8 0.768673 0.322790 0.268973
O O9 0.023807 0.463062 0.665855
O O10 0.972581 0.752900 0.447708
O O11 0.727839 0.913232 0.062778
O O12 0.000000 0.868523 0.750000
O O13 0.092592 0.918652 0.755558
O O14 0.103116 0.689006 0.816927
O O15 0.261543 0.151551 0.377627
O O16 0.000000 0.000000 0.000000
O O17 0.201490 0.390876 0.326295
#
# Coordination Sequence:
#
# PCOD8117306 Si02
#       8
#     4   4   4   4   4   4   4   4
#     4  12  24  33  56  90 125 155 179 239 302 358
#     4  11  22  39  58  83 124 158 187 228 301 365
#     4  11  20  35  54  86 118 147 192 241 287 339
#     4  11  20  38  58  86 113 153 200 239 285 344
#     4  10  19  36  63  89 111 154 200 251 282 336
#     4   9  18  37  59  85 106 142 202 249 278 320
#     4  10  18  34  62  80 108 151 201 251 273 328
#     4  10  18  34  56  84 116 153 198 233 284 349
#
# _framework density 20.489225999999999
#
# number of rings (size 3 to 8) (size 9 to 14) (size 15 to 20)
#    0.000    1.500    6.250    3.750    0.000    0.000 
#    4.500    0.000    0.000   10.500    0.000    0.000 
#    0.000    0.000    0.000    0.000    0.000    0.000 
#
# Total GULP energy -396426.368354 kJ/mol
# GULP energy per Si atom -12388.324011 kJ/mol
# Density = 2.044259 g / cm^3
# Si number density = 20.489226 Si / 1000 Ang^3
#
#
#
# Elastic Constant Matrix: (Units=GPa)
#
#
# Indices 1 2 3 4 5 6 
#
# 1 120.4189 50.8963 5.6141 0.0000 -35.4110 0.0000
# 2 50.8963 89.1543 8.8213 0.0000 -10.1837 0.0000
# 3 5.6141 8.8213 36.9924 0.0000 -2.2741 0.0000
# 4 0.0000 0.0000 0.0000 10.4842 0.0000 -3.3940
# 5 -35.4110 -10.1837 -2.2741 0.0000 23.8458 0.0000
# 6 0.0000 0.0000 0.0000 -3.3940 0.0000 21.0075
#
#
#
# Elastic Compliance Matrix: (Units=1/GPa)
#
#
# Indices 1 2 3 4 5 6 
#
# 1 0.018971 -0.008055 0.000565 0.000000 0.024786 0.000000
# 2 -0.008055 0.015450 -0.002808 0.000000 -0.005632 0.000000
# 3 0.000565 -0.002808 0.027757 0.000000 0.002288 0.000000
# 4 0.000000 0.000000 0.000000 0.100646 0.000000 0.016260
# 5 0.024786 -0.005632 0.002288 0.000000 0.076557 0.000000
# 6 0.000000 0.000000 0.000000 0.016260 0.000000 0.050229
#
#
# Mechanical properties :
#
#
# Convention : Reuss Voigt Hill
#
# Bulk Modulus (GPa) = 24.04840 41.91434 32.98137
# Shear Modulus (GPa) = 15.42896 23.14975 19.28935
#
# Velocity S-wave (km/s) = 2.74711 3.36497 3.07162
# Velocity P-wave (km/s) = 4.67170 5.96645 5.35832
#
# Compressibility (1/GPa) = 0.04158280
#
# Stress axis : x y z
#
# Youngs Moduli (GPa) = 52.71098 64.72688 36.02700
#
# Poissons Ratio (x) = 0.52138 -0.02037
# Poissons Ratio (y) = 0.42459 0.10116
# Poissons Ratio (z) = -0.02980 0.18174
#
# Static dielectric constant tensor:
#      x y z
#    x 3.610610 0.000000 -0.209350 
#    y 0.000000 4.199930 0.000000 
#    z -0.209350 0.000000 3.608950 
# 
# 
# High freq. dielectric constant tensor:
#      x y z
#    x 1.801060 0.000000 -0.021760 
#    y 0.000000 1.796960 0.000000 
#    z -0.021760 0.000000 1.766290 
# 
# From -- ./inp_files/71952.got.cif
#   From: 2010.06.25/outbox.cif.g09.slc.cpg/sg13_36_cif.got.tgz:71952.got - 2010.06.28 04:50:58.
