data_PCOD8117973
_publ_section_title
;
Structure prediction by ZEFSAII (Michael W. Deem and Ramdas Pophale) SiO2 
 PCOD8117973
Probable space group: P 2/C
;
_chemical_formula_sum "Si O2"
_cell_formula_units_Z 28
_cell_length_a 4.898302
_cell_length_b 18.712091
_cell_length_c 15.062664
_cell_angle_alpha 90.000000
_cell_angle_beta 94.602358
_cell_angle_gamma 90.000000
_cell_volume 1376.154059
_symmetry_space_group_name_H-M "P 2/C"
_symmetry_group_IT_number 13
_symmetry_cell_setting 'monoclinic'
loop_
_space_group_symop_operation_xyz
x,y,z
-x,y,1/2-z
-x,-y,-z
x,-y,1/2+z
loop_
_atom_site_type_symbol
_atom_site_label
_atom_site_fract_x
_atom_site_fract_y
_atom_site_fract_z
Si Si1 0.279526 0.555862 0.414077
Si Si2 0.000000 0.638731 0.250000
Si Si3 0.429494 0.208969 0.935345
Si Si4 0.500000 0.732748 0.250000
Si Si5 0.951250 0.879265 0.645494
Si Si6 0.198743 0.409651 0.475302
Si Si7 0.412289 0.926449 0.541080
Si Si8 0.962525 0.255825 0.038003
O O1 0.296241 0.468852 0.405346
O O2 0.578861 0.590571 0.438316
O O3 0.148065 0.588539 0.324011
O O4 0.098895 0.570794 0.495783
O O5 0.760987 0.685947 0.288777
O O6 0.396027 0.219188 0.829162
O O7 0.345405 0.128366 0.959193
O O8 0.744310 0.219095 0.967858
O O9 0.236468 0.264964 0.984738
O O10 0.139995 0.933969 0.593805
O O11 0.000000 0.891537 0.750000
O O12 0.638820 0.895680 0.613979
O O13 0.022814 0.796591 0.622625
O O14 0.158316 0.331412 0.430454
O O15 0.500000 0.000000 0.500000
#
# Coordination Sequence:
#
# PCOD8117973 Si02
#       8
#     4   2   4   2   4   4   4   4
#     4  10  21  33  51  75 107 138 193 225 280 345
#     4  12  22  34  52  78 110 148 174 240 292 324
#     4  10  21  35  55  84 111 144 191 228 276 344
#     4  12  22  34  54  80 116 142 190 236 274 340
#     4  10  21  38  60  92 116 148 200 238 278 347
#     4  10  19  35  53  75 101 147 186 229 275 346
#     4  10  21  40  64  83 122 157 186 232 292 342
#     4  10  19  35  58  78 110 150 184 236 288 329
#
# _framework density 20.346558999999999
#
# number of rings (size 3 to 8) (size 9 to 14) (size 15 to 20)
#    0.000    1.714    0.000    6.000    0.000    0.000 
#    3.857    0.000    0.000    0.000    0.000    0.000 
#    0.000    0.000    0.000    0.000    0.000    0.000 
#
# Total GULP energy -347159.059729 kJ/mol
# GULP energy per Si atom -12398.537847 kJ/mol
# Density = 2.030025 g / cm^3
# Si number density = 20.346559 Si / 1000 Ang^3
#
#
#
# Elastic Constant Matrix: (Units=GPa)
#
#
# Indices 1 2 3 4 5 6 
#
# 1 88.4249 19.9265 17.4298 0.0000 2.9398 0.0000
# 2 19.9265 116.5323 42.4575 0.0000 -5.8781 0.0000
# 3 17.4298 42.4575 99.2480 0.0000 -2.6449 0.0000
# 4 0.0000 0.0000 0.0000 18.6724 0.0000 0.8812
# 5 2.9398 -5.8781 -2.6449 0.0000 28.2443 0.0000
# 6 0.0000 0.0000 0.0000 0.8812 0.0000 28.6541
#
#
#
# Elastic Compliance Matrix: (Units=1/GPa)
#
#
# Indices 1 2 3 4 5 6 
#
# 1 0.012018 -0.001607 -0.001469 0.000000 -0.001723 0.000000
# 2 -0.001607 0.010464 -0.004142 0.000000 0.001957 0.000000
# 3 -0.001469 -0.004142 0.012117 0.000000 0.000426 0.000000
# 4 0.000000 0.000000 0.000000 0.053633 0.000000 -0.001649
# 5 -0.001723 0.001957 0.000426 0.000000 0.036032 0.000000
# 6 0.000000 0.000000 0.000000 -0.001649 0.000000 0.034950
#
#
# Mechanical properties :
#
#
# Convention : Reuss Voigt Hill
#
# Bulk Modulus (GPa) = 49.59541 51.53697 50.56619
# Shear Modulus (GPa) = 27.72081 30.07360 28.89720
#
# Velocity S-wave (km/s) = 3.69512 3.84874 3.77271
# Velocity P-wave (km/s) = 6.52943 6.71825 6.62451
#
# Compressibility (1/GPa) = 0.02016316
#
# Stress axis : x y z
#
# Youngs Moduli (GPa) = 83.20882 95.56690 82.52829
#
# Poissons Ratio (x) = 0.15354 0.12125
# Poissons Ratio (y) = 0.13369 0.34184
# Poissons Ratio (z) = 0.12225 0.39584
#
# Static dielectric constant tensor:
#      x y z
#    x 4.013000 0.000000 0.068410 
#    y 0.000000 3.815670 0.000000 
#    z 0.068410 0.000000 3.284750 
# 
# 
# High freq. dielectric constant tensor:
#      x y z
#    x 1.819070 0.000000 0.010170 
#    y 0.000000 1.791040 0.000000 
#    z 0.010170 0.000000 1.758390 
# 
# From -- ./inp_files/44340.got.cif
#   From: 2010.06.25/outbox.cif.g09.slc.cpg/sg13_23_cif.got.tgz:44340.got - 2010.06.28 04:50:58.
