data_PCOD8117153
_publ_section_title
;
Structure prediction by ZEFSAII (Michael W. Deem and Ramdas Pophale) SiO2 
 PCOD8117153
Probable space group: P 2/C
;
_chemical_formula_sum "Si O2"
_cell_formula_units_Z 22
_cell_length_a 8.193282
_cell_length_b 10.226403
_cell_length_c 15.110923
_cell_angle_alpha 90.000000
_cell_angle_beta 71.251436
_cell_angle_gamma 90.000000
_cell_volume 1198.928899
_symmetry_space_group_name_H-M "P 2/C"
_symmetry_group_IT_number 13
_symmetry_cell_setting 'monoclinic'
loop_
_space_group_symop_operation_xyz
x,y,z
-x,y,1/2-z
-x,-y,-z
x,-y,1/2+z
loop_
_atom_site_type_symbol
_atom_site_label
_atom_site_fract_x
_atom_site_fract_y
_atom_site_fract_z
Si Si1 0.587310 0.307137 0.457462
Si Si2 0.676228 0.435592 0.866959
Si Si3 0.500000 0.297666 0.750000
Si Si4 0.247934 0.838626 0.421411
Si Si5 0.350471 0.914425 0.985693
Si Si6 0.930133 0.777946 0.357863
O O1 0.487364 0.389887 0.548500
O O2 0.683984 0.406206 0.373052
O O3 0.733550 0.223041 0.483373
O O4 0.447666 0.214996 0.429897
O O5 0.642697 0.390229 0.771721
O O6 0.856585 0.370710 0.866919
O O7 0.589050 0.201791 0.665101
O O8 0.073772 0.786497 0.408301
O O9 0.249667 0.998191 0.429957
O O10 0.224135 0.874251 0.087793
O O11 0.500000 0.000000 0.000000
O O12 0.000000 0.823291 0.250000
#
# Coordination Sequence:
#
# PCOD8117153 Si02
#       6
#     4   4   2   4   4   4
#     4   8  17  33  53  74 102 143 181 224 270 329
#     4   9  17  32  52  76 105 136 185 225 268 330
#     4  10  18  32  54  80 104 146 186 228 278 328
#     4  10  19  32  55  81 110 146 184 228 284 335
#     4   9  19  35  55  78 109 147 188 224 275 345
#     4  11  20  32  54  86 112 142 186 237 280 326
#
# _framework density 18.349712
#
# number of rings (size 3 to 8) (size 9 to 14) (size 15 to 20)
#    0.000    2.545    1.818    1.636    0.000    0.727 
#    0.000    0.909    0.000    4.364    0.000    0.000 
#    0.000    0.000    0.000    0.000    0.000    0.000 
#
# Total GULP energy -272597.710065 kJ/mol
# GULP energy per Si atom -12390.805003 kJ/mol
# Density = 1.830795 g / cm^3
# Si number density = 18.349712 Si / 1000 Ang^3
#
#
#
# Elastic Constant Matrix: (Units=GPa)
#
#
# Indices 1 2 3 4 5 6 
#
# 1 110.9663 53.0974 27.1224 0.0000 6.8099 0.0000
# 2 53.0974 135.9697 52.9561 0.0000 5.0587 0.0000
# 3 27.1224 52.9561 62.4621 0.0000 -2.8118 0.0000
# 4 0.0000 0.0000 0.0000 23.4226 0.0000 -3.2818
# 5 6.8099 5.0587 -2.8118 0.0000 26.4508 0.0000
# 6 0.0000 0.0000 0.0000 -3.2818 0.0000 24.6928
#
#
#
# Elastic Compliance Matrix: (Units=1/GPa)
#
#
# Indices 1 2 3 4 5 6 
#
# 1 0.011359 -0.003554 -0.002031 0.000000 -0.002461 0.000000
# 2 -0.003554 0.012352 -0.009037 0.000000 -0.002408 0.000000
# 3 -0.002031 -0.009037 0.024773 0.000000 0.004885 0.000000
# 4 0.000000 0.000000 0.000000 0.043504 0.000000 0.005782
# 5 -0.002461 -0.002408 0.004885 0.000000 0.039419 0.000000
# 6 0.000000 0.000000 0.000000 0.005782 0.000000 0.041266
#
#
# Mechanical properties :
#
#
# Convention : Reuss Voigt Hill
#
# Bulk Modulus (GPa) = 51.97080 63.97222 57.97151
# Shear Modulus (GPa) = 24.00038 26.66137 25.33088
#
# Velocity S-wave (km/s) = 3.62047 3.81590 3.71947
# Velocity P-wave (km/s) = 6.77207 7.37247 7.07864
#
# Compressibility (1/GPa) = 0.01924158
#
# Stress axis : x y z
#
# Youngs Moduli (GPa) = 88.03234 80.96128 40.36635
#
# Poissons Ratio (x) = 0.28770 0.08197
# Poissons Ratio (y) = 0.31283 0.36480
# Poissons Ratio (z) = 0.17875 0.73166
#
# Static dielectric constant tensor:
#      x y z
#    x 3.458350 0.000000 0.121600 
#    y 0.000000 3.936110 0.000000 
#    z 0.121600 0.000000 3.276160 
# 
# 
# High freq. dielectric constant tensor:
#      x y z
#    x 1.711600 0.000000 0.000240 
#    y 0.000000 1.709890 0.000000 
#    z 0.000240 0.000000 1.675060 
# 
# From -- ./inp_files/46354.got.cif
#   From: 2010.06.25/outbox.cif.g09.slc.cpg/sg13_24_cif.got.tgz:46354.got - 2010.06.28 04:50:58.
