data_PCOD8117957
_publ_section_title
;
Structure prediction by ZEFSAII (Michael W. Deem and Ramdas Pophale) SiO2 
 PCOD8117957
Probable space group: P 2/C
;
_chemical_formula_sum "Si O2"
_cell_formula_units_Z 32
_cell_length_a 21.931194
_cell_length_b 7.845595
_cell_length_c 17.318840
_cell_angle_alpha 90.000000
_cell_angle_beta 33.835217
_cell_angle_gamma 90.000000
_cell_volume 1659.247167
_symmetry_space_group_name_H-M "P 2/C"
_symmetry_group_IT_number 13
_symmetry_cell_setting 'monoclinic'
loop_
_space_group_symop_operation_xyz
x,y,z
-x,y,1/2-z
-x,-y,-z
x,-y,1/2+z
loop_
_atom_site_type_symbol
_atom_site_label
_atom_site_fract_x
_atom_site_fract_y
_atom_site_fract_z
Si Si1 0.572040 0.968185 0.273233
Si Si2 0.835491 0.085096 0.848320
Si Si3 0.723422 0.165222 0.213146
Si Si4 0.674023 0.711726 0.610087
Si Si5 0.672067 0.341734 0.584027
Si Si6 0.043995 0.974642 0.038548
Si Si7 0.333789 0.131435 0.057727
Si Si8 0.109212 0.786152 0.595982
O O1 0.591021 0.787522 0.212276
O O2 0.448735 0.967938 0.433190
O O3 0.658073 0.993880 0.253364
O O4 0.592237 0.123259 0.189665
O O5 0.954105 0.122077 0.686581
O O6 0.760040 0.008127 0.859609
O O7 0.846199 0.954596 0.907961
O O8 0.780380 0.252687 0.943856
O O9 0.701126 0.312332 0.173130
O O10 0.680809 0.214502 0.342536
O O11 0.852726 0.145565 0.077824
O O12 0.621805 0.532452 0.638718
O O13 0.680090 0.287640 0.486579
O O14 0.791315 0.348057 0.501447
O O15 0.078285 0.156431 0.041268
O O16 0.000000 0.000000 0.000000
O O17 0.000000 0.709163 0.750000
#
# Coordination Sequence:
#
# PCOD8117957 Si02
#       8
#     4   4   4   4   4   4   4   4
#     4  10  21  41  62  86 121 163 199 244 304 365
#     4  10  19  34  60  86 118 156 200 248 296 358
#     4  10  20  39  61  89 123 160 198 253 305 363
#     4  10  22  40  61  89 122 164 202 239 307 375
#     4  11  21  40  60  88 124 159 205 250 304 358
#     4  11  18  32  63  91 114 157 210 246 304 359
#     4  11  20  38  63  90 122 155 203 258 298 353
#     4   9  17  34  55  82 114 155 194 245 298 354
#
# _framework density 19.285854
#
# number of rings (size 3 to 8) (size 9 to 14) (size 15 to 20)
#    0.750    1.000    6.250    0.750    0.000    0.000 
#    6.750    3.125    0.000    1.500    0.000    0.000 
#    0.000    0.000    0.000    0.000    0.000    0.000 
#
# Total GULP energy -396522.723360 kJ/mol
# GULP energy per Si atom -12391.335105 kJ/mol
# Density = 1.924196 g / cm^3
# Si number density = 19.285854 Si / 1000 Ang^3
#
#
#
# Elastic Constant Matrix: (Units=GPa)
#
#
# Indices 1 2 3 4 5 6 
#
# 1 96.2404 13.2382 36.5272 0.0000 13.3901 0.0000
# 2 13.2382 95.4057 33.7490 0.0000 3.2637 0.0000
# 3 36.5272 33.7490 116.6695 0.0000 -1.7634 0.0000
# 4 0.0000 0.0000 0.0000 0.6553 0.0000 9.0850
# 5 13.3901 3.2637 -1.7634 0.0000 42.0655 0.0000
# 6 0.0000 0.0000 0.0000 9.0850 0.0000 10.7501
#
#
#
# Elastic Compliance Matrix: (Units=1/GPa)
#
#
# Indices 1 2 3 4 5 6 
#
# 1 0.012476 -0.000208 -0.003908 0.000000 -0.004119 0.000000
# 2 -0.000208 0.011726 -0.003342 0.000000 -0.000984 0.000000
# 3 -0.003908 -0.003342 0.010791 0.000000 0.001956 0.000000
# 4 0.000000 0.000000 0.000000 -0.142402 0.000000 0.120344
# 5 -0.004119 -0.000984 0.001956 0.000000 0.025242 0.000000
# 6 0.000000 0.000000 0.000000 0.120344 0.000000 -0.008681
#
#
# Mechanical properties :
#
#
# Convention : Reuss Voigt Hill
#
# Bulk Modulus (GPa) = 49.80704 52.81604 51.31154
# Shear Modulus (GPa) = -72.21222 25.68093 -23.26564
#
# Velocity S-wave (km/s) = -6.12572 3.65306 -3.47703
# Velocity P-wave (km/s) = 4.91434 6.72596 3.24713
#
# Compressibility (1/GPa) = 0.02007748
#
# Stress axis : x y z
#
# Youngs Moduli (GPa) = 80.15675 85.27919 92.66963
#
# Poissons Ratio (x) = 0.01771 0.36216
# Poissons Ratio (y) = 0.01665 0.30969
# Poissons Ratio (z) = 0.31326 0.28499
#
# Static dielectric constant tensor:
#      x y z
#    x 3.793300 0.000000 -0.148980 
#    y 0.000000 2.998960 0.000000 
#    z -0.148980 0.000000 3.662900 
# 
# 
# High freq. dielectric constant tensor:
#      x y z
#    x 1.759870 0.000000 -0.010590 
#    y 0.000000 1.691200 0.000000 
#    z -0.010590 0.000000 1.761690 
# 
# From -- ./inp_files/71130.got.cif
#   From: 2010.06.25/outbox.cif.g09.slc.cpg/sg13_36_cif.got.tgz:71130.got - 2010.06.28 04:50:58.
