data_PCOD8117773
_publ_section_title
;
Structure prediction by ZEFSAII (Michael W. Deem and Ramdas Pophale) SiO2 
 PCOD8117773
Probable space group: P 2/C
;
_chemical_formula_sum "Si O2"
_cell_formula_units_Z 22
_cell_length_a 28.191437
_cell_length_b 8.108474
_cell_length_c 5.135373
_cell_angle_alpha 90.000000
_cell_angle_beta 79.444504
_cell_angle_gamma 90.000000
_cell_volume 1154.027835
_symmetry_space_group_name_H-M "P 2/C"
_symmetry_group_IT_number 13
_symmetry_cell_setting 'monoclinic'
loop_
_space_group_symop_operation_xyz
x,y,z
-x,y,1/2-z
-x,-y,-z
x,-y,1/2+z
loop_
_atom_site_type_symbol
_atom_site_label
_atom_site_fract_x
_atom_site_fract_y
_atom_site_fract_z
Si Si1 0.000000 0.888027 0.750000
Si Si2 0.104011 0.113657 0.150314
Si Si3 0.367698 0.114164 0.866248
Si Si4 0.179385 0.602368 0.519340
Si Si5 0.556129 0.605330 0.184433
Si Si6 0.709438 0.606874 0.078883
O O1 0.051374 0.790439 0.699292
O O2 0.000000 0.000000 0.500000
O O3 0.109455 0.003388 0.398740
O O4 0.146396 0.243476 0.112544
O O5 0.415490 0.225010 0.815556
O O6 0.320110 0.225741 0.916235
O O7 0.367637 0.999867 0.616474
O O8 0.167963 0.461215 0.741797
O O9 0.234695 0.658719 0.489678
O O10 0.500000 0.651185 0.250000
O O11 0.570543 0.480849 0.400064
O O12 0.695822 0.516758 0.360172
#
# Coordination Sequence:
#
# PCOD8117773 Si02
#       6
#     2   4   4   4   4   4
#     4   8  16  30  48  72 100 134 172 206 252 312
#     4  10  19  33  54  76 102 137 175 214 256 312
#     4  12  24  36  56  86 114 137 173 228 272 302
#     4  10  21  36  54  78 106 136 173 219 267 309
#     4  10  21  39  61  81 107 148 187 212 252 322
#     4  10  21  39  58  74 104 147 180 209 257 325
#
# _framework density 19.063665
#
# number of rings (size 3 to 8) (size 9 to 14) (size 15 to 20)
#    0.000    1.818    0.000    4.364    0.000    2.182 
#    0.000    0.909    0.000    0.000    0.000    0.000 
#    0.000    0.000    0.000    0.000    0.000    0.000 
#
# Total GULP energy -272773.658449 kJ/mol
# GULP energy per Si atom -12398.802657 kJ/mol
# Density = 1.902027 g / cm^3
# Si number density = 19.063665 Si / 1000 Ang^3
#
#
#
# Elastic Constant Matrix: (Units=GPa)
#
#
# Indices 1 2 3 4 5 6 
#
# 1 122.3143 77.1092 40.1768 0.0000 -3.3975 0.0000
# 2 77.1092 105.2794 32.6871 0.0000 -0.9108 0.0000
# 3 40.1768 32.6871 109.8308 0.0000 16.3245 0.0000
# 4 0.0000 0.0000 0.0000 31.6438 0.0000 -8.0651
# 5 -3.3975 -0.9108 16.3245 0.0000 25.8699 0.0000
# 6 0.0000 0.0000 0.0000 -8.0651 0.0000 60.3506
#
#
#
# Elastic Compliance Matrix: (Units=1/GPa)
#
#
# Indices 1 2 3 4 5 6 
#
# 1 0.016151 -0.010783 -0.003264 0.000000 0.003801 0.000000
# 2 -0.010783 0.017823 -0.001371 0.000000 0.000077 0.000000
# 3 -0.003264 -0.001371 0.011893 0.000000 -0.007982 0.000000
# 4 0.000000 0.000000 0.000000 0.032716 0.000000 0.004372
# 5 0.003801 0.000077 -0.007982 0.000000 0.044194 0.000000
# 6 0.000000 0.000000 0.000000 0.004372 0.000000 0.017154
#
#
# Mechanical properties :
#
#
# Convention : Reuss Voigt Hill
#
# Bulk Modulus (GPa) = 66.53034 70.81896 68.67465
# Shear Modulus (GPa) = 28.44487 36.06963 32.25725
#
# Velocity S-wave (km/s) = 3.86696 4.35450 4.11795
# Velocity P-wave (km/s) = 7.41031 7.90643 7.66238
#
# Compressibility (1/GPa) = 0.01503074
#
# Stress axis : x y z
#
# Youngs Moduli (GPa) = 61.91401 56.10757 84.08083
#
# Poissons Ratio (x) = 0.60503 0.27444
# Poissons Ratio (y) = 0.66764 0.11528
# Poissons Ratio (z) = 0.20209 0.07693
#
# Static dielectric constant tensor:
#      x y z
#    x 3.954180 0.000000 -0.022940 
#    y 0.000000 3.191030 0.000000 
#    z -0.022940 0.000000 3.848070 
# 
# 
# High freq. dielectric constant tensor:
#      x y z
#    x 1.762750 0.000000 0.001310 
#    y 0.000000 1.714180 0.000000 
#    z 0.001310 0.000000 1.770600 
# 
# From -- ./inp_files/7935.got.cif
#   From: 2010.06.25/outbox.cif.g09.slc.cpg/sg13_4_cif.got.tgz:7935.got - 2010.06.28 04:50:58.
