data_PCOD8117267
_publ_section_title
;
Structure prediction by ZEFSAII (Michael W. Deem and Ramdas Pophale) SiO2 
 PCOD8117267
Probable space group: P 2/C
;
_chemical_formula_sum "Si O2"
_cell_formula_units_Z 26
_cell_length_a 9.176790
_cell_length_b 11.079998
_cell_length_c 14.225200
_cell_angle_alpha 90.000000
_cell_angle_beta 107.928720
_cell_angle_gamma 90.000000
_cell_volume 1376.164538
_symmetry_space_group_name_H-M "P 2/C"
_symmetry_group_IT_number 13
_symmetry_cell_setting 'monoclinic'
loop_
_space_group_symop_operation_xyz
x,y,z
-x,y,1/2-z
-x,-y,-z
x,-y,1/2+z
loop_
_atom_site_type_symbol
_atom_site_label
_atom_site_fract_x
_atom_site_fract_y
_atom_site_fract_z
Si Si1 0.823703 0.759268 0.249055
Si Si2 0.500000 0.536465 0.750000
Si Si3 0.065689 0.011306 0.664336
Si Si4 0.937516 0.820580 0.986007
Si Si5 0.778813 0.666050 0.436812
Si Si6 0.715736 0.399412 0.443193
Si Si7 0.559438 0.355550 0.596792
O O1 0.797176 0.895815 0.283382
O O2 0.795966 0.665778 0.327640
O O3 0.698151 0.737889 0.143762
O O4 0.000000 0.746447 0.250000
O O5 0.364699 0.615786 0.675518
O O6 0.566939 0.458149 0.677709
O O7 0.000000 0.962830 0.750000
O O8 0.944196 0.090997 0.578018
O O9 0.120642 0.896766 0.615270
O O10 0.823293 0.712826 0.984747
O O11 0.101708 0.759661 0.993109
O O12 0.808058 0.526080 0.470588
O O13 0.607456 0.707781 0.432478
O O14 0.585244 0.406375 0.497365
#
# Coordination Sequence:
#
# PCOD8117267 Si02
#       7
#     4   2   4   4   4   4   4
#     4  10  18  33  61  83 105 147 197 229 266 324
#     4  10  20  36  54  82 124 142 180 222 286 330
#     4   9  19  38  58  80 111 148 192 235 278 316
#     4  10  21  37  61  83 113 146 192 235 275 331
#     4  10  19  35  55  86 116 142 183 229 278 336
#     4  11  21  36  58  83 118 152 177 228 282 344
#     4  11  19  36  59  83 115 153 179 226 277 331
#
# _framework density 18.893090999999998
#
# number of rings (size 3 to 8) (size 9 to 14) (size 15 to 20)
#    0.000    1.846    3.077    5.077    0.000    0.000 
#    5.538    0.769   10.154   12.000    0.000    0.000 
#    0.000    0.000    0.000    0.000    0.000    0.000 
#
# Total GULP energy -322090.246522 kJ/mol
# GULP energy per Si atom -12388.086405 kJ/mol
# Density = 1.885009 g / cm^3
# Si number density = 18.893091 Si / 1000 Ang^3
#
#
#
# Elastic Constant Matrix: (Units=GPa)
#
#
# Indices 1 2 3 4 5 6 
#
# 1 100.2592 36.0026 28.7055 0.0000 -7.4337 0.0000
# 2 36.0026 81.3559 29.3600 0.0000 -4.9838 0.0000
# 3 28.7055 29.3600 95.9289 0.0000 -14.8137 0.0000
# 4 0.0000 0.0000 0.0000 28.5743 0.0000 2.8629
# 5 -7.4337 -4.9838 -14.8137 0.0000 30.0725 0.0000
# 6 0.0000 0.0000 0.0000 2.8629 0.0000 2.0520
#
#
#
# Elastic Compliance Matrix: (Units=1/GPa)
#
#
# Indices 1 2 3 4 5 6 
#
# 1 0.012324 -0.004627 -0.002078 0.000000 0.001256 0.000000
# 2 -0.004627 0.015556 -0.003415 0.000000 -0.000248 0.000000
# 3 -0.002078 -0.003415 0.012906 0.000000 0.005278 0.000000
# 4 0.000000 0.000000 0.000000 0.040684 0.000000 -0.056761
# 5 0.001256 -0.000248 0.005278 0.000000 0.036122 0.000000
# 6 0.000000 0.000000 0.000000 -0.056761 0.000000 0.566517
#
#
# Mechanical properties :
#
#
# Convention : Reuss Voigt Hill
#
# Bulk Modulus (GPa) = 48.66764 51.74223 50.20494
# Shear Modulus (GPa) = 7.03039 24.37149 15.70094
#
# Velocity S-wave (km/s) = 1.93112 3.59551 2.88591
# Velocity P-wave (km/s) = 5.54867 6.68455 6.14292
#
# Compressibility (1/GPa) = 0.02054753
#
# Stress axis : x y z
#
# Youngs Moduli (GPa) = 81.14505 64.28213 77.48134
#
# Poissons Ratio (x) = 0.29742 0.16098
# Poissons Ratio (y) = 0.37545 0.26459
# Poissons Ratio (z) = 0.16859 0.21952
#
# Static dielectric constant tensor:
#      x y z
#    x 3.408260 0.000000 0.037540 
#    y 0.000000 3.430280 0.000000 
#    z 0.037540 0.000000 3.802850 
# 
# 
# High freq. dielectric constant tensor:
#      x y z
#    x 1.717330 0.000000 -0.007080 
#    y 0.000000 1.716440 0.000000 
#    z -0.007080 0.000000 1.745890 
# 
# From -- ./inp_files/46628.got.cif
#   From: 2010.06.25/outbox.cif.g09.slc.cpg/sg13_24_cif.got.tgz:46628.got - 2010.06.28 04:50:58.
