data_PCOD8117394
_publ_section_title
;
Structure prediction by ZEFSAII (Michael W. Deem and Ramdas Pophale) SiO2 
 PCOD8117394
Probable space group: P 2/C
;
_chemical_formula_sum "Si O2"
_cell_formula_units_Z 32
_cell_length_a 19.896932
_cell_length_b 11.056183
_cell_length_c 20.415317
_cell_angle_alpha 90.000000
_cell_angle_beta 158.326267
_cell_angle_gamma 90.000000
_cell_volume 1658.636371
_symmetry_space_group_name_H-M "P 2/C"
_symmetry_group_IT_number 13
_symmetry_cell_setting 'monoclinic'
loop_
_space_group_symop_operation_xyz
x,y,z
-x,y,1/2-z
-x,-y,-z
x,-y,1/2+z
loop_
_atom_site_type_symbol
_atom_site_label
_atom_site_fract_x
_atom_site_fract_y
_atom_site_fract_z
Si Si1 0.518672 0.728491 0.466360
Si Si2 0.009118 0.804952 0.331893
Si Si3 0.372418 0.233724 0.977970
Si Si4 0.642698 0.645813 0.822547
Si Si5 0.103052 0.911920 0.544760
Si Si6 0.237717 0.551971 0.156559
Si Si7 0.125491 0.666831 0.644282
Si Si8 0.489836 0.009738 0.913381
O O1 0.405470 0.743786 0.431094
O O2 0.424129 0.621859 0.340835
O O3 0.729943 0.699537 0.668945
O O4 0.520833 0.850219 0.423556
O O5 0.194676 0.730118 0.505847
O O6 0.009488 0.909200 0.388193
O O7 0.000000 0.859022 0.250000
O O8 0.828664 0.721435 0.182072
O O9 0.536809 0.298671 0.164436
O O10 0.369523 0.087879 0.989786
O O11 0.500000 0.624347 0.750000
O O12 0.729786 0.517064 0.882210
O O13 0.107964 0.774823 0.576049
O O14 0.299653 0.966169 0.712746
O O15 0.000000 0.000000 0.500000
O O16 0.194723 0.455404 0.173820
O O17 0.070047 0.645578 0.998646
O O18 0.500000 0.000000 0.000000
#
# Coordination Sequence:
#
# PCOD8117394 Si02
#       8
#     4   4   4   4   4   4   4   4
#     4  11  21  36  60  96 121 164 197 254 322 377
#     4  12  24  38  62  94 126 163 212 258 321 383
#     4  11  21  37  62  90 129 156 204 255 320 381
#     4  12  24  44  61  85 125 165 211 262 313 381
#     4  12  21  38  63  97 132 164 203 267 322 383
#     4  11  23  37  57  88 122 161 207 257 305 370
#     4  11  21  36  58  90 132 153 199 260 317 368
#     4  10  18  35  58  90 131 159 196 251 320 378
#
# _framework density 19.292957000000001
#
# number of rings (size 3 to 8) (size 9 to 14) (size 15 to 20)
#    0.000    0.750    7.500    3.375    1.750    0.000 
#    0.000    0.000    0.000    3.750    0.000    0.000 
#    0.000    0.000    0.000    0.000    0.000    0.000 
#
# Total GULP energy -396658.148090 kJ/mol
# GULP energy per Si atom -12395.567128 kJ/mol
# Density = 1.924905 g / cm^3
# Si number density = 19.292957 Si / 1000 Ang^3
#
#
#
# Elastic Constant Matrix: (Units=GPa)
#
#
# Indices 1 2 3 4 5 6 
#
# 1 74.7702 20.2729 37.7776 0.0000 -2.0181 0.0000
# 2 20.2729 90.5452 32.8914 0.0000 -8.3869 0.0000
# 3 37.7776 32.8914 126.1201 0.0000 3.4708 0.0000
# 4 0.0000 0.0000 0.0000 31.0796 0.0000 7.7383
# 5 -2.0181 -8.3869 3.4708 0.0000 28.3223 0.0000
# 6 0.0000 0.0000 0.0000 7.7383 0.0000 21.7926
#
#
#
# Elastic Compliance Matrix: (Units=1/GPa)
#
#
# Indices 1 2 3 4 5 6 
#
# 1 0.016129 -0.001924 -0.004360 0.000000 0.001114 0.000000
# 2 -0.001924 0.012902 -0.002900 0.000000 0.004039 0.000000
# 3 -0.004360 -0.002900 0.010057 0.000000 -0.002402 0.000000
# 4 0.000000 0.000000 0.000000 0.035296 0.000000 -0.012533
# 5 0.001114 0.004039 -0.002402 0.000000 0.036878 0.000000
# 6 0.000000 0.000000 0.000000 -0.012533 0.000000 0.050337
#
#
# Mechanical properties :
#
#
# Convention : Reuss Voigt Hill
#
# Bulk Modulus (GPa) = 48.26060 52.59102 50.42581
# Shear Modulus (GPa) = 26.75589 29.60514 28.18052
#
# Velocity S-wave (km/s) = 3.72805 3.92153 3.82601
# Velocity P-wave (km/s) = 6.60303 6.91541 6.76102
#
# Compressibility (1/GPa) = 0.02072084
#
# Stress axis : x y z
#
# Youngs Moduli (GPa) = 62.00001 77.50437 99.43067
#
# Poissons Ratio (x) = 0.14914 0.43352
# Poissons Ratio (y) = 0.11930 0.28832
# Poissons Ratio (z) = 0.27032 0.22474
#
# Static dielectric constant tensor:
#      x y z
#    x 3.431640 0.000000 0.372820 
#    y 0.000000 3.724300 0.000000 
#    z 0.372820 0.000000 4.590220 
# 
# 
# High freq. dielectric constant tensor:
#      x y z
#    x 1.709860 0.000000 0.013100 
#    y 0.000000 1.741790 0.000000 
#    z 0.013100 0.000000 1.776990 
# 
# From -- ./inp_files/81828.got.cif
#   From: 2010.06.25/outbox.cif.g09.slc.cpg/sg13_41_cif.got.tgz:81828.got - 2010.06.28 04:50:58.
