data_PCOD8117358
_publ_section_title
;
Structure prediction by ZEFSAII (Michael W. Deem and Ramdas Pophale) SiO2 
 PCOD8117358
Probable space group: P 2/C
;
_chemical_formula_sum "Si O2"
_cell_formula_units_Z 20
_cell_length_a 12.520963
_cell_length_b 10.649121
_cell_length_c 15.847595
_cell_angle_alpha 90.000000
_cell_angle_beta 153.256523
_cell_angle_gamma 90.000000
_cell_volume 950.876816
_symmetry_space_group_name_H-M "P 2/C"
_symmetry_group_IT_number 13
_symmetry_cell_setting 'monoclinic'
loop_
_space_group_symop_operation_xyz
x,y,z
-x,y,1/2-z
-x,-y,-z
x,-y,1/2+z
loop_
_atom_site_type_symbol
_atom_site_label
_atom_site_fract_x
_atom_site_fract_y
_atom_site_fract_z
Si Si1 0.971779 0.547642 0.096522
Si Si2 0.132565 0.712291 0.755585
Si Si3 0.390304 0.863281 0.420571
Si Si4 0.500000 0.404614 0.750000
Si Si5 0.000000 0.239725 0.750000
Si Si6 0.166482 0.736298 0.114090
O O1 0.973060 0.673932 0.150551
O O2 0.152169 0.438930 0.255392
O O3 0.033937 0.606128 0.048973
O O4 0.713613 0.491814 0.927714
O O5 0.000000 0.744622 0.750000
O O6 0.978906 0.779342 0.571787
O O7 0.399843 0.762297 0.938654
O O8 0.207883 0.845966 0.212106
O O9 0.234459 0.845145 0.396225
O O10 0.500000 0.000000 0.500000
O O11 0.569720 0.312045 0.722877
#
# Coordination Sequence:
#
# PCOD8117358 Si02
#       6
#     4   4   4   2   2   4
#     4  10  21  36  62  99 132 159 206 268 330 396
#     4  11  22  40  70  97 127 172 208 267 336 382
#     4  11  26  44  66  88 137 176 222 269 306 386
#     4  10  18  34  62  92 132 160 200 262 336 386
#     4  10  24  40  62 100 124 166 222 262 328 388
#     4  10  23  39  61 100 126 167 218 260 322 395
#
# _framework density 21.03322
#
# number of rings (size 3 to 8) (size 9 to 14) (size 15 to 20)
#    0.000    1.600    1.000    4.800    7.000    2.400 
#    0.000    0.000    8.800    0.000    0.000    0.000 
#    0.000    0.000    0.000    0.000    0.000    0.000 
#
# Total GULP energy -247774.221341 kJ/mol
# GULP energy per Si atom -12388.711067 kJ/mol
# Density = 2.098535 g / cm^3
# Si number density = 21.033220 Si / 1000 Ang^3
#
#
#
# Elastic Constant Matrix: (Units=GPa)
#
#
# Indices 1 2 3 4 5 6 
#
# 1 107.4926 28.7116 44.9053 0.0000 18.1310 0.0000
# 2 28.7116 102.1700 32.5409 0.0000 1.0347 0.0000
# 3 44.9053 32.5409 84.3042 0.0000 -4.0683 0.0000
# 4 0.0000 0.0000 0.0000 33.9929 0.0000 8.1078
# 5 18.1310 1.0347 -4.0683 0.0000 41.5178 0.0000
# 6 0.0000 0.0000 0.0000 8.1078 0.0000 15.5549
#
#
#
# Elastic Compliance Matrix: (Units=1/GPa)
#
#
# Indices 1 2 3 4 5 6 
#
# 1 0.013800 -0.001558 -0.007072 0.000000 -0.006681 0.000000
# 2 -0.001558 0.011356 -0.003551 0.000000 0.000049 0.000000
# 3 -0.007072 -0.003551 0.017234 0.000000 0.004866 0.000000
# 4 0.000000 0.000000 0.000000 0.033594 0.000000 -0.017511
# 5 -0.006681 0.000049 0.004866 0.000000 0.027479 0.000000
# 6 0.000000 0.000000 0.000000 -0.017511 0.000000 0.073416
#
#
# Mechanical properties :
#
#
# Convention : Reuss Voigt Hill
#
# Bulk Modulus (GPa) = 55.46767 56.25359 55.86063
# Shear Modulus (GPa) = 24.12532 30.73371 27.42951
#
# Velocity S-wave (km/s) = 3.39043 3.82671 3.61516
# Velocity P-wave (km/s) = 6.46184 6.80648 6.63640
#
# Compressibility (1/GPa) = 0.01802852
#
# Stress axis : x y z
#
# Youngs Moduli (GPa) = 72.46238 88.05955 58.02449
#
# Poissons Ratio (x) = 0.13721 0.41034
# Poissons Ratio (y) = 0.11291 0.20604
# Poissons Ratio (z) = 0.51244 0.31270
#
# Static dielectric constant tensor:
#      x y z
#    x 4.347950 0.000000 0.027540 
#    y 0.000000 3.621330 0.000000 
#    z 0.027540 0.000000 3.883560 
# 
# 
# High freq. dielectric constant tensor:
#      x y z
#    x 1.850760 0.000000 0.002000 
#    y 0.000000 1.800160 0.000000 
#    z 0.002000 0.000000 1.815960 
# 
# From -- ./inp_files/50993.got.cif
#   From: 2010.06.25/outbox.cif.g09.slc.cpg/sg13_26_cif.got.tgz:50993.got - 2010.06.28 04:50:58.
