data_PCOD8117063
_publ_section_title
;
Structure prediction by ZEFSAII (Michael W. Deem and Ramdas Pophale) SiO2 
 PCOD8117063
Probable space group: P 2/C
;
_chemical_formula_sum "Si O2"
_cell_formula_units_Z 32
_cell_length_a 9.706098
_cell_length_b 14.554592
_cell_length_c 20.655128
_cell_angle_alpha 90.000000
_cell_angle_beta 140.106515
_cell_angle_gamma 90.000000
_cell_volume 1871.440786
_symmetry_space_group_name_H-M "P 2/C"
_symmetry_group_IT_number 13
_symmetry_cell_setting 'monoclinic'
loop_
_space_group_symop_operation_xyz
x,y,z
-x,y,1/2-z
-x,-y,-z
x,-y,1/2+z
loop_
_atom_site_type_symbol
_atom_site_label
_atom_site_fract_x
_atom_site_fract_y
_atom_site_fract_z
Si Si1 0.745505 0.006272 0.834438
Si Si2 0.351972 0.386591 0.254530
Si Si3 0.851973 0.113410 0.254530
Si Si4 0.962096 0.734974 0.585984
Si Si5 0.537903 0.765026 0.914015
Si Si6 0.245505 0.506272 0.334439
Si Si7 0.572924 0.354846 0.008438
Si Si8 0.927076 0.854846 0.991563
O O1 0.500000 0.037890 0.750000
O O2 0.805936 0.971836 0.784802
O O3 0.779289 0.924523 0.897684
O O4 0.890474 0.093706 0.902484
O O5 0.500000 0.423997 0.250000
O O6 0.128790 0.349185 0.145404
O O7 0.478474 0.304666 0.335307
O O8 0.305935 0.471836 0.284802
O O9 0.978474 0.195335 0.335308
O O10 0.628789 0.150815 0.145405
O O11 0.000000 0.076005 0.250000
O O12 0.958945 0.783572 0.515421
O O13 0.723461 0.697756 0.512097
O O14 0.541050 0.716429 0.984577
O O15 0.776539 0.802242 0.987903
O O16 0.279290 0.424523 0.397684
O O17 0.390473 0.593706 0.402485
O O18 0.000000 0.537890 0.250000
#
# Coordination Sequence:
#
# PCOD8117063 Si02
#       8
#     4   4   4   4   4   4   4   4
#     4  10  20  35  53  78 113 142 170 213 274 316
#     4  10  18  30  54  82 105 134 176 224 260 301
#     4  10  18  30  54  82 105 134 176 224 260 301
#     4  10  18  31  53  81 107 132 181 219 258 305
#     4  10  18  31  53  81 107 132 181 219 258 305
#     4  10  20  35  53  78 113 142 170 213 274 316
#     4  10  20  34  54  81 108 140 175 219 263 314
#     4  10  20  34  54  81 108 140 175 219 263 314
#
# _framework density 17.099125999999998
#
# number of rings (size 3 to 8) (size 9 to 14) (size 15 to 20)
#    0.000    2.000    5.000    0.000    0.000    0.000 
#    0.000    5.000    0.000    0.000    0.000    0.000 
#    0.000    0.000    0.000    0.000    0.000    0.000 
#
# Total GULP energy -396933.302439 kJ/mol
# GULP energy per Si atom -12404.165701 kJ/mol
# Density = 1.706021 g / cm^3
# Si number density = 17.099126 Si / 1000 Ang^3
#
#
#
# Elastic Constant Matrix: (Units=GPa)
#
#
# Indices 1 2 3 4 5 6 
#
# 1 156.9551 68.0258 65.6326 0.0000 16.4859 0.0000
# 2 68.0258 83.0811 57.9158 0.0000 5.2779 0.0000
# 3 65.6326 57.9158 86.5634 0.0000 13.4772 0.0000
# 4 0.0000 0.0000 0.0000 27.3845 0.0000 -6.2333
# 5 16.4859 5.2779 13.4772 0.0000 25.1151 0.0000
# 6 0.0000 0.0000 0.0000 -6.2333 0.0000 26.9207
#
#
#
# Elastic Compliance Matrix: (Units=1/GPa)
#
#
# Indices 1 2 3 4 5 6 
#
# 1 0.010984 -0.006313 -0.003479 0.000000 -0.004017 0.000000
# 2 -0.006313 0.026499 -0.013880 0.000000 0.006024 0.000000
# 3 -0.003479 -0.013880 0.024733 0.000000 -0.008072 0.000000
# 4 0.000000 0.000000 0.000000 0.038549 0.000000 0.008926
# 5 -0.004017 0.006024 -0.008072 0.000000 0.045519 0.000000
# 6 0.000000 0.000000 0.000000 0.008926 0.000000 0.039213
#
#
# Mechanical properties :
#
#
# Convention : Reuss Voigt Hill
#
# Bulk Modulus (GPa) = 67.24359 78.86090 73.05225
# Shear Modulus (GPa) = 21.02611 24.88576 22.95594
#
# Velocity S-wave (km/s) = 3.51045 3.81909 3.66802
# Velocity P-wave (km/s) = 7.47276 8.10353 7.79453
#
# Compressibility (1/GPa) = 0.01487131
#
# Stress axis : x y z
#
# Youngs Moduli (GPa) = 91.04030 37.73701 40.43111
#
# Poissons Ratio (x) = 0.23825 0.14065
# Poissons Ratio (y) = 0.57478 0.56120
# Poissons Ratio (z) = 0.31671 0.52381
#
# Static dielectric constant tensor:
#      x y z
#    x 3.197310 0.000000 0.025960 
#    y 0.000000 2.987580 0.000000 
#    z 0.025960 0.000000 2.972690 
# 
# 
# High freq. dielectric constant tensor:
#      x y z
#    x 1.672790 0.000000 0.009950 
#    y 0.000000 1.636830 0.000000 
#    z 0.009950 0.000000 1.638750 
# 
# From -- ./inp_files/19639.got.cif
#   From: 2010.06.25/outbox.cif.g09.slc.cpg/sg13_10_cif.got.tgz:19639.got - 2010.06.28 04:50:58.
