data_PCOD8117542
_publ_section_title
;
Structure prediction by ZEFSAII (Michael W. Deem and Ramdas Pophale) SiO2 
 PCOD8117542
Probable space group: P 2/C
;
_chemical_formula_sum "Si O2"
_cell_formula_units_Z 22
_cell_length_a 7.402746
_cell_length_b 11.486680
_cell_length_c 12.720443
_cell_angle_alpha 90.000000
_cell_angle_beta 108.922636
_cell_angle_gamma 90.000000
_cell_volume 1023.201449
_symmetry_space_group_name_H-M "P 2/C"
_symmetry_group_IT_number 13
_symmetry_cell_setting 'monoclinic'
loop_
_space_group_symop_operation_xyz
x,y,z
-x,y,1/2-z
-x,-y,-z
x,-y,1/2+z
loop_
_atom_site_type_symbol
_atom_site_label
_atom_site_fract_x
_atom_site_fract_y
_atom_site_fract_z
Si Si1 0.736389 0.652427 0.271664
Si Si2 0.609109 0.607038 0.468471
Si Si3 0.217168 0.096792 0.799364
Si Si4 0.638790 0.780570 0.972243
Si Si5 0.500000 0.917550 0.750000
Si Si6 0.143077 0.424631 0.921909
O O1 0.581526 0.626971 0.335998
O O2 0.762203 0.790742 0.271439
O O3 0.702824 0.601654 0.147175
O O4 0.930826 0.590304 0.343375
O O5 0.500000 0.500000 0.500000
O O6 0.562809 0.726889 0.521222
O O7 0.828337 0.557187 0.528107
O O8 0.000000 0.053370 0.750000
O O9 0.346958 0.994082 0.781782
O O10 0.277418 0.124537 0.930532
O O11 0.608510 0.837440 0.854013
O O12 0.793048 0.676028 0.983978
#
# Coordination Sequence:
#
# PCOD8117542 Si02
#       6
#     4   4   4   4   2   4
#     4  10  18  38  62  88 123 160 220 265 294 385
#     4  10  21  33  59  91 127 166 199 252 325 378
#     4  11  22  44  69  89 118 171 228 259 314 378
#     4  10  22  42  57  94 127 159 213 255 319 386
#     4  12  26  40  64  94 134 164 202 286 322 364
#     4   9  19  37  62  90 120 165 210 253 316 378
#
# _framework density 21.501142000000002
#
# number of rings (size 3 to 8) (size 9 to 14) (size 15 to 20)
#    0.000    1.818    3.636    2.182    0.000    9.455 
#    3.273    0.000    0.000    0.000    0.000    0.000 
#    0.000    0.000    0.000    0.000    0.000    0.000 
#
# Total GULP energy -272670.214101 kJ/mol
# GULP energy per Si atom -12394.100641 kJ/mol
# Density = 2.145220 g / cm^3
# Si number density = 21.501142 Si / 1000 Ang^3
#
#
#
# Elastic Constant Matrix: (Units=GPa)
#
#
# Indices 1 2 3 4 5 6 
#
# 1 52.1741 17.1965 26.7677 0.0000 0.8292 0.0000
# 2 17.1965 60.3107 37.6125 0.0000 9.3491 0.0000
# 3 26.7677 37.6125 113.5695 0.0000 5.3923 0.0000
# 4 0.0000 0.0000 0.0000 32.5501 0.0000 4.8527
# 5 0.8292 9.3491 5.3923 0.0000 32.7350 0.0000
# 6 0.0000 0.0000 0.0000 4.8527 0.0000 15.2584
#
#
#
# Elastic Compliance Matrix: (Units=1/GPa)
#
#
# Indices 1 2 3 4 5 6 
#
# 1 0.022565 -0.004129 -0.004011 0.000000 0.001268 0.000000
# 2 -0.004129 0.022451 -0.006211 0.000000 -0.005284 0.000000
# 3 -0.004011 -0.006211 0.011811 0.000000 -0.000070 0.000000
# 4 0.000000 0.000000 0.000000 0.032251 0.000000 -0.010257
# 5 0.001268 -0.005284 -0.000070 0.000000 0.032037 0.000000
# 6 0.000000 0.000000 0.000000 -0.010257 0.000000 0.068800
#
#
# Mechanical properties :
#
#
# Convention : Reuss Voigt Hill
#
# Bulk Modulus (GPa) = 35.55685 43.24529 39.40107
# Shear Modulus (GPa) = 21.93048 25.74053 23.83550
#
# Velocity S-wave (km/s) = 3.19716 3.46377 3.33313
# Velocity P-wave (km/s) = 5.49565 6.01279 5.76003
#
# Compressibility (1/GPa) = 0.02812398
#
# Stress axis : x y z
#
# Youngs Moduli (GPa) = 44.31570 44.54154 84.66655
#
# Poissons Ratio (x) = 0.18392 0.33962
# Poissons Ratio (y) = 0.18298 0.52589
# Poissons Ratio (z) = 0.17776 0.27666
#
# Static dielectric constant tensor:
#      x y z
#    x 4.651670 0.000000 0.202500 
#    y 0.000000 3.948170 0.000000 
#    z 0.202500 0.000000 4.329130 
# 
# 
# High freq. dielectric constant tensor:
#      x y z
#    x 1.872150 0.000000 0.010900 
#    y 0.000000 1.821140 0.000000 
#    z 0.010900 0.000000 1.859430 
# 
# From -- ./inp_files/29104.got.cif
#   From: 2010.06.25/outbox.cif.g09.slc.cpg/sg13_15_cif.got.tgz:29104.got - 2010.06.28 04:50:58.
