data_PCOD8117359
_publ_section_title
;
Structure prediction by ZEFSAII (Michael W. Deem and Ramdas Pophale) SiO2 
 PCOD8117359
Probable space group: P 2/C
;
_chemical_formula_sum "Si O2"
_cell_formula_units_Z 26
_cell_length_a 12.097582
_cell_length_b 7.966649
_cell_length_c 14.193305
_cell_angle_alpha 90.000000
_cell_angle_beta 67.400097
_cell_angle_gamma 90.000000
_cell_volume 1262.870159
_symmetry_space_group_name_H-M "P 2/C"
_symmetry_group_IT_number 13
_symmetry_cell_setting 'monoclinic'
loop_
_space_group_symop_operation_xyz
x,y,z
-x,y,1/2-z
-x,-y,-z
x,-y,1/2+z
loop_
_atom_site_type_symbol
_atom_site_label
_atom_site_fract_x
_atom_site_fract_y
_atom_site_fract_z
Si Si1 0.783499 0.247375 0.866197
Si Si2 0.500000 0.223582 0.250000
Si Si3 0.436578 0.034459 0.618423
Si Si4 0.000000 0.947860 0.250000
Si Si5 0.234366 0.358651 0.823657
Si Si6 0.884430 0.999304 0.602976
Si Si7 0.500000 0.276330 0.750000
Si Si8 0.738389 0.320443 0.087395
O O1 0.696916 0.098782 0.857694
O O2 0.912939 0.166610 0.843051
O O3 0.796800 0.381086 0.776686
O O4 0.736724 0.338221 0.974815
O O5 0.601358 0.334238 0.166502
O O6 0.569249 0.123773 0.310054
O O7 0.513939 0.170640 0.649350
O O8 0.500000 0.000000 0.500000
O O9 0.076226 0.050427 0.302664
O O10 0.377392 0.378242 0.787008
O O11 0.185018 0.522073 0.896163
O O12 0.180022 0.182588 0.879787
O O13 0.792087 0.859513 0.598047
O O14 0.000000 0.000000 0.500000
#
# Coordination Sequence:
#
# PCOD8117359 Si02
#       8
#     4   2   4   2   4   4   2   4
#     4  10  21  40  63  89 129 166 204 264 316 365
#     4  11  21  36  64  99 127 168 215 259 306 395
#     4  10  18  34  62  93 125 166 208 252 315 370
#     4  10  20  42  64  88 124 160 206 264 308 366
#     4  10  24  43  61  94 132 163 209 263 313 375
#     4  11  23  43  68  92 123 167 212 261 319 371
#     4   9  19  38  58  85 133 166 193 261 314 361
#     4  12  23  43  66  95 128 165 214 258 315 380
#
# _framework density 20.588021999999999
#
# number of rings (size 3 to 8) (size 9 to 14) (size 15 to 20)
#    0.000    1.538    3.077    4.154    0.000    0.615 
#    5.538    3.077    0.000    0.000    0.000    0.000 
#    0.000    0.000    0.000    0.000    0.000    0.000 
#
# Total GULP energy -322175.065113 kJ/mol
# GULP energy per Si atom -12391.348658 kJ/mol
# Density = 2.054116 g / cm^3
# Si number density = 20.588022 Si / 1000 Ang^3
#
#
#
# Elastic Constant Matrix: (Units=GPa)
#
#
# Indices 1 2 3 4 5 6 
#
# 1 79.3707 24.1407 35.7027 0.0000 4.1982 0.0000
# 2 24.1407 115.0272 49.9933 0.0000 14.9126 0.0000
# 3 35.7027 49.9933 151.0868 0.0000 12.9983 0.0000
# 4 0.0000 0.0000 0.0000 17.7179 0.0000 10.1570
# 5 4.1982 14.9126 12.9983 0.0000 40.5473 0.0000
# 6 0.0000 0.0000 0.0000 10.1570 0.0000 14.1535
#
#
#
# Elastic Compliance Matrix: (Units=1/GPa)
#
#
# Indices 1 2 3 4 5 6 
#
# 1 0.014411 -0.001812 -0.002812 0.000000 0.000076 0.000000
# 2 -0.001812 0.010685 -0.002864 0.000000 -0.002824 0.000000
# 3 -0.002812 -0.002864 0.008346 0.000000 -0.001331 0.000000
# 4 0.000000 0.000000 0.000000 0.095888 0.000000 -0.068812
# 5 0.000076 -0.002824 -0.001331 0.000000 0.026120 0.000000
# 6 0.000000 0.000000 0.000000 -0.068812 0.000000 0.120035
#
#
# Mechanical properties :
#
#
# Convention : Reuss Voigt Hill
#
# Bulk Modulus (GPa) = 54.15903 62.79535 58.47719
# Shear Modulus (GPa) = 16.85675 30.19361 23.52518
#
# Velocity S-wave (km/s) = 2.86451 3.83373 3.38400
# Velocity P-wave (km/s) = 6.10768 7.08264 6.61315
#
# Compressibility (1/GPa) = 0.01846414
#
# Stress axis : x y z
#
# Youngs Moduli (GPa) = 69.38994 93.58983 119.82363
#
# Poissons Ratio (x) = 0.16958 0.33700
# Poissons Ratio (y) = 0.12573 0.34323
# Poissons Ratio (z) = 0.19515 0.26808
#
# Static dielectric constant tensor:
#      x y z
#    x 4.161890 0.000000 -0.176640 
#    y 0.000000 3.486080 0.000000 
#    z -0.176640 0.000000 4.047450 
# 
# 
# High freq. dielectric constant tensor:
#      x y z
#    x 1.812950 0.000000 0.001840 
#    y 0.000000 1.774590 0.000000 
#    z 0.001840 0.000000 1.821650 
# 
# From -- ./inp_files/49626.got.cif
#   From: 2010.06.25/outbox.cif.g09.slc.cpg/sg13_25_cif.got.tgz:49626.got - 2010.06.28 04:50:58.
