data_PCOD8117588
_publ_section_title
;
Structure prediction by ZEFSAII (Michael W. Deem and Ramdas Pophale) SiO2 
 PCOD8117588
Probable space group: P 2/C
;
_chemical_formula_sum "Si O2"
_cell_formula_units_Z 30
_cell_length_a 14.343622
_cell_length_b 9.226964
_cell_length_c 18.484031
_cell_angle_alpha 90.000000
_cell_angle_beta 35.617557
_cell_angle_gamma 90.000000
_cell_volume 1424.672057
_symmetry_space_group_name_H-M "P 2/C"
_symmetry_group_IT_number 13
_symmetry_cell_setting 'monoclinic'
loop_
_space_group_symop_operation_xyz
x,y,z
-x,y,1/2-z
-x,-y,-z
x,-y,1/2+z
loop_
_atom_site_type_symbol
_atom_site_label
_atom_site_fract_x
_atom_site_fract_y
_atom_site_fract_z
Si Si1 0.550814 0.554831 0.296088
Si Si2 0.086729 0.848818 0.850567
Si Si3 0.957475 0.854870 0.163203
Si Si4 0.000000 0.251124 0.250000
Si Si5 0.090150 0.352151 0.930317
Si Si6 0.663567 0.257105 0.477234
Si Si7 0.433869 0.727963 0.620035
Si Si8 0.741100 0.915999 0.433930
O O1 0.500000 0.494433 0.250000
O O2 0.723213 0.624161 0.181863
O O3 0.433865 0.685824 0.393020
O O4 0.537617 0.427253 0.362324
O O5 0.264213 0.789854 0.754085
O O6 0.039006 0.848048 0.795339
O O7 0.077156 0.019307 0.874682
O O8 0.959310 0.759891 0.976533
O O9 0.951963 0.703957 0.123491
O O10 0.815962 0.860058 0.311500
O O11 0.136044 0.872172 0.081032
O O12 0.836897 0.342650 0.366426
O O13 0.000000 0.500000 0.000000
O O14 0.564314 0.290936 0.467573
O O15 0.704395 0.086959 0.457609
O O16 0.574087 0.836321 0.554789
#
# Coordination Sequence:
#
# PCOD8117588 Si02
#       8
#     4   4   4   2   4   4   4   4
#     4  12  28  46  65  99 144 188 233 277 340 424
#     4  11  21  44  68  98 128 179 223 285 339 406
#     4  11  23  44  71 101 133 175 230 285 345 419
#     4  10  18  40  72  96 130 168 226 282 336 394
#     4  12  27  46  66  92 140 190 227 275 343 415
#     4  11  21  43  73 102 136 175 232 287 348 413
#     4  11  24  40  70  97 140 178 223 291 351 404
#     4  11  22  43  71 107 132 168 230 299 347 400
#
# _framework density 21.057479000000001
#
# number of rings (size 3 to 8) (size 9 to 14) (size 15 to 20)
#    0.000    0.800    5.333    2.800    3.733    0.000 
#    0.000    0.667    0.000    0.000    0.000    0.000 
#    0.000    0.000    0.000    0.000    0.000    0.000 
#
# Total GULP energy -371974.483537 kJ/mol
# GULP energy per Si atom -12399.149451 kJ/mol
# Density = 2.100955 g / cm^3
# Si number density = 21.057479 Si / 1000 Ang^3
#
#
#
# Elastic Constant Matrix: (Units=GPa)
#
#
# Indices 1 2 3 4 5 6 
#
# 1 108.0782 54.8974 48.9690 0.0000 -12.4265 0.0000
# 2 54.8974 108.5557 56.7980 0.0000 3.2770 0.0000
# 3 48.9690 56.7980 145.8623 0.0000 -19.8030 0.0000
# 4 0.0000 0.0000 0.0000 40.5258 0.0000 6.8668
# 5 -12.4265 3.2770 -19.8030 0.0000 31.6118 0.0000
# 6 0.0000 0.0000 0.0000 6.8668 0.0000 23.2009
#
#
#
# Elastic Compliance Matrix: (Units=1/GPa)
#
#
# Indices 1 2 3 4 5 6 
#
# 1 0.013716 -0.006340 -0.001437 0.000000 0.005149 0.000000
# 2 -0.006340 0.015086 -0.004696 0.000000 -0.006998 0.000000
# 3 -0.001437 -0.004696 0.010007 0.000000 0.006191 0.000000
# 4 0.000000 0.000000 0.000000 0.025978 0.000000 -0.007689
# 5 0.005149 -0.006998 0.006191 0.000000 0.038261 0.000000
# 6 0.000000 0.000000 0.000000 -0.007689 0.000000 0.045377
#
#
# Mechanical properties :
#
#
# Convention : Reuss Voigt Hill
#
# Bulk Modulus (GPa) = 72.13138 75.98056 74.05597
# Shear Modulus (GPa) = 28.09081 32.52315 30.30698
#
# Velocity S-wave (km/s) = 3.65637 3.93427 3.79786
# Velocity P-wave (km/s) = 7.22179 7.53649 7.38082
#
# Compressibility (1/GPa) = 0.01386359
#
# Stress axis : x y z
#
# Youngs Moduli (GPa) = 72.90834 66.28525 99.92580
#
# Poissons Ratio (x) = 0.42023 0.14360
# Poissons Ratio (y) = 0.46222 0.46927
# Poissons Ratio (z) = 0.10477 0.31129
#
# Static dielectric constant tensor:
#      x y z
#    x 3.842740 0.000000 -0.135470 
#    y 0.000000 3.717240 0.000000 
#    z -0.135470 0.000000 4.068150 
# 
# 
# High freq. dielectric constant tensor:
#      x y z
#    x 1.827340 0.000000 -0.010010 
#    y 0.000000 1.814740 0.000000 
#    z -0.010010 0.000000 1.842720 
# 
# From -- ./inp_files/79972.got.cif
#   From: 2010.06.25/outbox.cif.g09.slc.cpg/sg13_40_cif.got.tgz:79972.got - 2010.06.28 04:50:58.
