data_PCOD8117181
_publ_section_title
;
Structure prediction by ZEFSAII (Michael W. Deem and Ramdas Pophale) SiO2 
 PCOD8117181
Probable space group: P 2/C
;
_chemical_formula_sum "Si O2"
_cell_formula_units_Z 32
_cell_length_a 14.659553
_cell_length_b 20.109858
_cell_length_c 9.220038
_cell_angle_alpha 90.000000
_cell_angle_beta 40.045750
_cell_angle_gamma 90.000000
_cell_volume 1748.811014
_symmetry_space_group_name_H-M "P 2/C"
_symmetry_group_IT_number 13
_symmetry_cell_setting 'monoclinic'
loop_
_space_group_symop_operation_xyz
x,y,z
-x,y,1/2-z
-x,-y,-z
x,-y,1/2+z
loop_
_atom_site_type_symbol
_atom_site_label
_atom_site_fract_x
_atom_site_fract_y
_atom_site_fract_z
Si Si1 0.630934 0.811822 0.698973
Si Si2 0.720276 0.016463 0.769845
Si Si3 0.540911 0.568209 0.366892
Si Si4 0.847163 0.080378 0.879054
Si Si5 0.134715 0.559622 0.499596
Si Si6 0.386167 0.336257 0.265979
Si Si7 0.514022 0.904223 0.077933
Si Si8 0.869864 0.578095 0.331561
O O1 0.500000 0.813278 0.750000
O O2 0.761942 0.850548 0.466942
O O3 0.672709 0.737284 0.698262
O O4 0.596875 0.850912 0.885016
O O5 0.842526 0.043711 0.728594
O O6 0.639500 0.080224 0.802804
O O7 0.785992 0.972541 0.564864
O O8 0.603088 0.972263 0.995862
O O9 0.500000 0.557956 0.250000
O O10 0.500000 0.500000 0.500000
O O11 0.707197 0.590289 0.172998
O O12 0.448036 0.628010 0.547745
O O13 0.000000 0.100863 0.750000
O O14 0.097087 0.559192 0.375000
O O15 0.150712 0.486368 0.543768
O O16 0.000000 0.594524 0.750000
O O17 0.500000 0.327093 0.250000
O O18 0.267981 0.378324 0.490654
O O19 0.500000 0.869403 0.250000
O O20 0.000000 0.617500 0.250000
#
# Coordination Sequence:
#
# PCOD8117181 Si02
#       8
#     4   4   4   4   4   4   4   4
#     4  10  22  38  59  79 110 154 199 234 278 346
#     4  10  19  31  53  90 110 143 185 231 286 336
#     4  12  23  37  63  90 120 150 190 255 305 349
#     4  11  21  35  56  86 119 149 185 238 291 345
#     4  11  22  36  56  89 119 146 185 233 303 352
#     4  11  23  41  58  86 114 155 205 245 294 348
#     4  10  18  32  58  81 112 142 189 237 277 334
#     4  11  22  36  60  84 116 150 186 236 291 358
#
# _framework density 18.298147
#
# number of rings (size 3 to 8) (size 9 to 14) (size 15 to 20)
#    0.000    1.250    5.000    3.000    1.750    1.000 
#    0.000    0.000    0.000    0.000    0.000    0.000 
#    0.000    0.000    0.000    0.000    0.000    0.000 
#
# Total GULP energy -396566.808832 kJ/mol
# GULP energy per Si atom -12392.712776 kJ/mol
# Density = 1.825650 g / cm^3
# Si number density = 18.298147 Si / 1000 Ang^3
#
#
#
# Elastic Constant Matrix: (Units=GPa)
#
#
# Indices 1 2 3 4 5 6 
#
# 1 108.1701 23.4089 34.2413 0.0000 11.8434 0.0000
# 2 23.4089 84.8677 32.0572 0.0000 10.3760 0.0000
# 3 34.2413 32.0572 88.4488 0.0000 6.4688 0.0000
# 4 0.0000 0.0000 0.0000 -14.2556 0.0000 14.8116
# 5 11.8434 10.3760 6.4688 0.0000 39.5822 0.0000
# 6 0.0000 0.0000 0.0000 14.8116 0.0000 9.8341
#
#
#
# Elastic Compliance Matrix: (Units=1/GPa)
#
#
# Indices 1 2 3 4 5 6 
#
# 1 0.010925 -0.001386 -0.003557 0.000000 -0.002324 0.000000
# 2 -0.001386 0.014142 -0.004401 0.000000 -0.002573 0.000000
# 3 -0.003557 -0.004401 0.014287 0.000000 -0.000117 0.000000
# 4 0.000000 0.000000 0.000000 -0.027349 0.000000 0.041192
# 5 -0.002324 -0.002573 -0.000117 0.000000 0.026653 0.000000
# 6 0.000000 0.000000 0.000000 0.041192 0.000000 0.039646
#
#
# Mechanical properties :
#
#
# Convention : Reuss Voigt Hill
#
# Bulk Modulus (GPa) = 48.38801 51.21126 49.79964
# Shear Modulus (GPa) = 48.13233 19.81741 33.97487
#
# Velocity S-wave (km/s) = 5.13435 3.29451 4.31366
# Velocity P-wave (km/s) = 7.85178 6.52071 7.21699
#
# Compressibility (1/GPa) = 0.02066627
#
# Stress axis : x y z
#
# Youngs Moduli (GPa) = 91.53236 70.70994 69.99484
#
# Poissons Ratio (x) = 0.09797 0.24899
# Poissons Ratio (y) = 0.12683 0.30805
# Poissons Ratio (z) = 0.32561 0.31120
#
# Static dielectric constant tensor:
#      x y z
#    x 3.829680 0.000000 -1.756410 
#    y 0.000000 3.312060 0.000000 
#    z -1.756410 0.000000 15.132470 
# 
# 
# High freq. dielectric constant tensor:
#      x y z
#    x 1.721590 0.000000 0.003190 
#    y 0.000000 1.679250 0.000000 
#    z 0.003190 0.000000 1.713960 
# 
# From -- ./inp_files/20180.got.cif
#   From: 2010.06.25/outbox.cif.g09.slc.cpg/sg13_11_cif.got.tgz:20180.got - 2010.06.28 04:50:58.
