data_PCOD8117438
_publ_section_title
;
Structure prediction by ZEFSAII (Michael W. Deem and Ramdas Pophale) SiO2 
 PCOD8117438
Probable space group: P 2/C
;
_chemical_formula_sum "Si O2"
_cell_formula_units_Z 26
_cell_length_a 11.658794
_cell_length_b 9.863437
_cell_length_c 14.997766
_cell_angle_alpha 90.000000
_cell_angle_beta 51.961904
_cell_angle_gamma 90.000000
_cell_volume 1358.359925
_symmetry_space_group_name_H-M "P 2/C"
_symmetry_group_IT_number 13
_symmetry_cell_setting 'monoclinic'
loop_
_space_group_symop_operation_xyz
x,y,z
-x,y,1/2-z
-x,-y,-z
x,-y,1/2+z
loop_
_atom_site_type_symbol
_atom_site_label
_atom_site_fract_x
_atom_site_fract_y
_atom_site_fract_z
Si Si1 0.873802 0.865878 0.739655
Si Si2 0.500000 0.408460 0.250000
Si Si3 0.314601 0.612605 0.100476
Si Si4 0.000873 0.284756 0.015459
Si Si5 0.889218 0.175076 0.722933
Si Si6 0.212638 0.507400 0.964482
Si Si7 0.611763 0.327924 0.371743
O O1 0.932868 0.822917 0.615222
O O2 0.731067 0.783985 0.840517
O O3 0.000000 0.839776 0.750000
O O4 0.829099 0.022551 0.754370
O O5 0.622554 0.506815 0.149764
O O6 0.561676 0.304885 0.294259
O O7 0.242735 0.723483 0.197849
O O8 0.321793 0.478483 0.156685
O O9 0.218030 0.572985 0.060371
O O10 0.472767 0.676240 0.003435
O O11 0.876525 0.394839 0.057602
O O12 0.041183 0.206271 0.906118
O O13 0.138671 0.358935 0.996883
O O14 0.000000 0.198865 0.750000
#
# Coordination Sequence:
#
# PCOD8117438 Si02
#       7
#     4   2   4   4   4   4   4
#     4  11  24  40  60  86 122 164 200 247 296 358
#     4  10  18  36  56  88 118 150 194 248 296 356
#     4  10  21  38  60  91 117 155 198 253 298 356
#     4  11  21  38  57  93 118 157 196 246 298 351
#     4  11  23  38  59  87 126 161 199 243 297 359
#     4  10  20  33  62  89 117 148 199 250 294 348
#     4  10  21  37  61  87 118 156 200 249 300 346
#
# _framework density 19.140729
#
# number of rings (size 3 to 8) (size 9 to 14) (size 15 to 20)
#    0.000    1.538    3.077    2.308    2.154    1.231 
#    0.000    0.000    0.000    7.385    0.000    0.000 
#    0.000    0.000    0.000    0.000    0.000    0.000 
#
# Total GULP energy -322411.005072 kJ/mol
# GULP energy per Si atom -12400.423272 kJ/mol
# Density = 1.909716 g / cm^3
# Si number density = 19.140729 Si / 1000 Ang^3
#
#
#
# Elastic Constant Matrix: (Units=GPa)
#
#
# Indices 1 2 3 4 5 6 
#
# 1 80.0836 36.1962 28.2628 0.0000 -1.7222 0.0000
# 2 36.1962 99.4419 43.3797 0.0000 -9.4196 0.0000
# 3 28.2628 43.3797 95.4259 0.0000 1.9942 0.0000
# 4 0.0000 0.0000 0.0000 20.2146 0.0000 1.0817
# 5 -1.7222 -9.4196 1.9942 0.0000 30.2596 0.0000
# 6 0.0000 0.0000 0.0000 1.0817 0.0000 16.4489
#
#
#
# Elastic Compliance Matrix: (Units=1/GPa)
#
#
# Indices 1 2 3 4 5 6 
#
# 1 0.015418 -0.004565 -0.002484 0.000000 -0.000380 0.000000
# 2 -0.004565 0.014476 -0.005325 0.000000 0.004597 0.000000
# 3 -0.002484 -0.005325 0.013692 0.000000 -0.002701 0.000000
# 4 0.000000 0.000000 0.000000 0.049644 0.000000 -0.003265
# 5 -0.000380 0.004597 -0.002701 0.000000 0.034635 0.000000
# 6 0.000000 0.000000 0.000000 -0.003265 0.000000 0.061009
#
#
# Mechanical properties :
#
#
# Convention : Reuss Voigt Hill
#
# Bulk Modulus (GPa) = 53.07786 54.51431 53.79609
# Shear Modulus (GPa) = 22.73757 24.52547 23.63152
#
# Velocity S-wave (km/s) = 3.45035 3.58344 3.51753
# Velocity P-wave (km/s) = 6.60786 6.75752 6.68311
#
# Compressibility (1/GPa) = 0.01884025
#
# Stress axis : x y z
#
# Youngs Moduli (GPa) = 64.85733 69.07992 73.03572
#
# Poissons Ratio (x) = 0.31534 0.18139
# Poissons Ratio (y) = 0.29606 0.38890
# Poissons Ratio (z) = 0.16107 0.36783
#
# Static dielectric constant tensor:
#      x y z
#    x 3.718880 0.000000 0.015410 
#    y 0.000000 3.343220 0.000000 
#    z 0.015410 0.000000 3.483820 
# 
# 
# High freq. dielectric constant tensor:
#      x y z
#    x 1.754230 0.000000 0.003730 
#    y 0.000000 1.723720 0.000000 
#    z 0.003730 0.000000 1.755430 
# 
# From -- ./inp_files/49886.got.cif
#   From: 2010.06.25/outbox.cif.g09.slc.cpg/sg13_25_cif.got.tgz:49886.got - 2010.06.28 04:50:58.
