data_PCOD8117344
_publ_section_title
;
Structure prediction by ZEFSAII (Michael W. Deem and Ramdas Pophale) SiO2 
 PCOD8117344
Probable space group: P 2/C
;
_chemical_formula_sum "Si O2"
_cell_formula_units_Z 24
_cell_length_a 29.555654
_cell_length_b 8.523481
_cell_length_c 14.902796
_cell_angle_alpha 90.000000
_cell_angle_beta 18.862795
_cell_angle_gamma 90.000000
_cell_volume 1213.766300
_symmetry_space_group_name_H-M "P 2/C"
_symmetry_group_IT_number 13
_symmetry_cell_setting 'monoclinic'
loop_
_space_group_symop_operation_xyz
x,y,z
-x,y,1/2-z
-x,-y,-z
x,-y,1/2+z
loop_
_atom_site_type_symbol
_atom_site_label
_atom_site_fract_x
_atom_site_fract_y
_atom_site_fract_z
Si Si1 0.152244 0.883704 0.501337
Si Si2 0.746134 0.226822 0.180872
Si Si3 0.365014 0.799551 0.959067
Si Si4 0.071076 0.643087 0.786721
Si Si5 0.500000 0.106224 0.750000
Si Si6 0.000000 0.430906 0.750000
Si Si7 0.792509 0.356118 0.900998
O O1 0.236505 0.786143 0.268854
O O2 0.154762 0.788658 0.589512
O O3 0.000000 0.912415 0.750000
O O4 0.219979 0.046592 0.397660
O O5 0.596229 0.225686 0.512167
O O6 0.736410 0.300470 0.101456
O O7 0.862963 0.320610 0.018631
O O8 0.327286 0.699873 0.942185
O O9 0.500000 0.714971 0.750000
O O10 0.404174 0.985780 0.868338
O O11 0.008946 0.537215 0.821958
O O12 0.179768 0.544209 0.644462
O O13 0.944315 0.711888 0.085679
#
# Coordination Sequence:
#
# PCOD8117344 Si02
#       7
#     4   4   4   4   2   2   4
#     4  11  18  36  60  84 112 156 186 232 290 344
#     4  10  21  34  62  85 113 146 201 233 285 334
#     4   9  19  36  59  78 113 158 188 228 293 337
#     4  10  20  34  59  85 125 145 185 241 291 326
#     4   8  20  38  54  80 116 160 180 240 292 334
#     4  10  18  34  60  84 108 160 188 230 282 356
#     4  10  20  36  57  88 114 152 191 241 281 335
#
# _framework density 19.773164999999999
#
# number of rings (size 3 to 8) (size 9 to 14) (size 15 to 20)
#    0.500    1.667    3.333    0.000    0.000    1.333 
#    0.000    2.500   16.500    0.000    0.000    0.000 
#    0.000    0.000    0.000    0.000    0.000    0.000 
#
# Total GULP energy -297378.844259 kJ/mol
# GULP energy per Si atom -12390.785177 kJ/mol
# Density = 1.972816 g / cm^3
# Si number density = 19.773165 Si / 1000 Ang^3
#
#
#
# Elastic Constant Matrix: (Units=GPa)
#
#
# Indices 1 2 3 4 5 6 
#
# 1 66.5464 14.4519 42.9121 0.0000 -5.7958 0.0000
# 2 14.4519 52.0029 30.0454 0.0000 5.6606 0.0000
# 3 42.9121 30.0454 143.9469 0.0000 12.4670 0.0000
# 4 0.0000 0.0000 0.0000 23.0213 0.0000 2.9966
# 5 -5.7958 5.6606 12.4670 0.0000 25.0187 0.0000
# 6 0.0000 0.0000 0.0000 2.9966 0.0000 21.8002
#
#
#
# Elastic Compliance Matrix: (Units=1/GPa)
#
#
# Indices 1 2 3 4 5 6 
#
# 1 0.020416 -0.003022 -0.006192 0.000000 0.008499 0.000000
# 2 -0.003022 0.022502 -0.003443 0.000000 -0.004075 0.000000
# 3 -0.006192 -0.003443 0.010000 0.000000 -0.005638 0.000000
# 4 0.000000 0.000000 0.000000 0.044229 0.000000 -0.006080
# 5 0.008499 -0.004075 -0.005638 0.000000 0.045671 0.000000
# 6 0.000000 0.000000 0.000000 -0.006080 0.000000 0.046707
#
#
# Mechanical properties :
#
#
# Convention : Reuss Voigt Hill
#
# Bulk Modulus (GPa) = 36.22442 48.59057 42.40749
# Shear Modulus (GPa) = 22.31750 25.64048 23.97899
#
# Velocity S-wave (km/s) = 3.36322 3.60492 3.48617
# Velocity P-wave (km/s) = 5.78286 6.47724 6.13987
#
# Compressibility (1/GPa) = 0.02760569
#
# Stress axis : x y z
#
# Youngs Moduli (GPa) = 48.98092 44.43989 100.00221
#
# Poissons Ratio (x) = 0.13428 0.61918
# Poissons Ratio (y) = 0.14800 0.34432
# Poissons Ratio (z) = 0.30327 0.15301
#
# Static dielectric constant tensor:
#      x y z
#    x 3.475880 0.000000 0.162540 
#    y 0.000000 3.591830 0.000000 
#    z 0.162540 0.000000 3.817470 
# 
# 
# High freq. dielectric constant tensor:
#      x y z
#    x 1.749670 0.000000 0.012450 
#    y 0.000000 1.760330 0.000000 
#    z 0.012450 0.000000 1.777370 
# 
# From -- ./inp_files/59886.got.cif
#   From: 2010.06.25/outbox.cif.g09.slc.cpg/sg13_30_cif.got.tgz:59886.got - 2010.06.28 04:50:58.
