data_PCOD8117538
_publ_section_title
;
Structure prediction by ZEFSAII (Michael W. Deem and Ramdas Pophale) SiO2 
 PCOD8117538
Probable space group: P 2/C
;
_chemical_formula_sum "Si O2"
_cell_formula_units_Z 20
_cell_length_a 18.223219
_cell_length_b 8.688707
_cell_length_c 17.981189
_cell_angle_alpha 90.000000
_cell_angle_beta 21.683997
_cell_angle_gamma 90.000000
_cell_volume 1051.957241
_symmetry_space_group_name_H-M "P 2/C"
_symmetry_group_IT_number 13
_symmetry_cell_setting 'monoclinic'
loop_
_space_group_symop_operation_xyz
x,y,z
-x,y,1/2-z
-x,-y,-z
x,-y,1/2+z
loop_
_atom_site_type_symbol
_atom_site_label
_atom_site_fract_x
_atom_site_fract_y
_atom_site_fract_z
Si Si1 0.583249 0.546134 0.595918
Si Si2 0.217111 0.060196 0.802661
Si Si3 0.500000 0.013768 0.750000
Si Si4 0.280412 0.730630 0.375730
Si Si5 0.455522 0.150275 0.439966
Si Si6 0.000000 0.564751 0.750000
O O1 0.500000 0.620791 0.750000
O O2 0.471630 0.382568 0.689059
O O3 0.532201 0.663559 0.577081
O O4 0.821757 0.530859 0.379621
O O5 0.226715 0.214574 0.843395
O O6 0.281323 0.102721 0.659237
O O7 0.341063 0.918978 0.720187
O O8 0.000000 0.000000 0.000000
O O9 0.672635 0.119726 0.620119
O O10 0.595803 0.912912 0.593802
O O11 0.090899 0.658052 0.594985
#
# Coordination Sequence:
#
# PCOD8117538 Si02
#       6
#     4   4   2   4   4   2
#     4  10  20  39  59  90 116 150 199 244 292 341
#     4  10  24  40  58  89 122 158 197 234 298 354
#     4  10  18  38  62  84 110 160 188 246 302 326
#     4  10  21  37  60  85 117 154 197 243 292 345
#     4  10  22  40  61  84 124 152 192 251 288 345
#     4  10  20  34  62  86 118 148 200 240 292 350
#
# _framework density 19.012181000000002
#
# number of rings (size 3 to 8) (size 9 to 14) (size 15 to 20)
#    0.000    2.000    4.000    0.000    2.800    5.600 
#    0.000    2.000    0.000    0.000    0.000    0.000 
#    0.000    0.000    0.000    0.000    0.000    0.000 
#
# Total GULP energy -247897.485459 kJ/mol
# GULP energy per Si atom -12394.874273 kJ/mol
# Density = 1.896891 g / cm^3
# Si number density = 19.012181 Si / 1000 Ang^3
#
#
#
# Elastic Constant Matrix: (Units=GPa)
#
#
# Indices 1 2 3 4 5 6 
#
# 1 116.3611 56.4373 62.0319 0.0000 20.2701 0.0000
# 2 56.4373 99.3376 52.3175 0.0000 2.7504 0.0000
# 3 62.0319 52.3175 145.9665 0.0000 -0.1194 0.0000
# 4 0.0000 0.0000 0.0000 9.6674 0.0000 10.1993
# 5 20.2701 2.7504 -0.1194 0.0000 27.0497 0.0000
# 6 0.0000 0.0000 0.0000 10.1993 0.0000 31.5949
#
#
#
# Elastic Compliance Matrix: (Units=1/GPa)
#
#
# Indices 1 2 3 4 5 6 
#
# 1 0.016156 -0.006460 -0.004560 0.000000 -0.011470 0.000000
# 2 -0.006460 0.015036 -0.002642 0.000000 0.003300 0.000000
# 3 -0.004560 -0.002642 0.009739 0.000000 0.003729 0.000000
# 4 0.000000 0.000000 0.000000 0.156866 0.000000 -0.050639
# 5 -0.011470 0.003300 0.003729 0.000000 0.045245 0.000000
# 6 0.000000 0.000000 0.000000 -0.050639 0.000000 0.047998
#
#
# Mechanical properties :
#
#
# Convention : Reuss Voigt Hill
#
# Bulk Modulus (GPa) = 73.48210 78.13763 75.80986
# Shear Modulus (GPa) = 15.48477 26.38764 20.93621
#
# Velocity S-wave (km/s) = 2.85698 3.72954 3.32203
# Velocity P-wave (km/s) = 7.04394 7.72877 7.39429
#
# Compressibility (1/GPa) = 0.01360876
#
# Stress axis : x y z
#
# Youngs Moduli (GPa) = 61.89655 66.50500 102.68439
#
# Poissons Ratio (x) = 0.42960 0.46824
# Poissons Ratio (y) = 0.39983 0.27124
# Poissons Ratio (z) = 0.28225 0.17567
#
# Static dielectric constant tensor:
#      x y z
#    x 2.625550 0.000000 -0.127780 
#    y 0.000000 3.560150 0.000000 
#    z -0.127780 0.000000 3.276660 
# 
# 
# High freq. dielectric constant tensor:
#      x y z
#    x 1.737800 0.000000 0.010530 
#    y 0.000000 1.739690 0.000000 
#    z 0.010530 0.000000 1.737140 
# 
# From -- ./inp_files/60611.got.cif
#   From: 2010.06.25/outbox.cif.g09.slc.cpg/sg13_31_cif.got.tgz:60611.got - 2010.06.28 04:50:58.
