data_PCOD8117230
_publ_section_title
;
Structure prediction by ZEFSAII (Michael W. Deem and Ramdas Pophale) SiO2 
 PCOD8117230
Probable space group: P 2/C
;
_chemical_formula_sum "Si O2"
_cell_formula_units_Z 24
_cell_length_a 19.457085
_cell_length_b 10.518150
_cell_length_c 14.255697
_cell_angle_alpha 90.000000
_cell_angle_beta 157.937491
_cell_angle_gamma 90.000000
_cell_volume 1095.851967
_symmetry_space_group_name_H-M "P 2/C"
_symmetry_group_IT_number 13
_symmetry_cell_setting 'monoclinic'
loop_
_space_group_symop_operation_xyz
x,y,z
-x,y,1/2-z
-x,-y,-z
x,-y,1/2+z
loop_
_atom_site_type_symbol
_atom_site_label
_atom_site_fract_x
_atom_site_fract_y
_atom_site_fract_z
Si Si1 0.436021 0.007168 0.271143
Si Si2 0.346594 0.824388 0.824895
Si Si3 0.264295 0.457502 0.803933
Si Si4 0.160971 0.210948 0.383082
Si Si5 0.042569 0.707110 0.540373
Si Si6 0.398129 0.397060 0.781048
O O1 0.500000 0.054590 0.250000
O O2 0.599360 0.933429 0.531457
O O3 0.374689 0.128472 0.254443
O O4 0.260593 0.918419 0.036363
O O5 0.130956 0.784867 0.565088
O O6 0.469387 0.701153 0.997112
O O7 0.147900 0.576298 0.691635
O O8 0.251423 0.442634 0.673802
O O9 0.174616 0.330522 0.740218
O O10 0.478423 0.484155 0.100350
O O11 0.081013 0.203016 0.178184
O O12 0.301043 0.330275 0.570226
O O13 0.000000 0.236061 0.250000
#
# Coordination Sequence:
#
# PCOD8117230 Si02
#       6
#     4   4   4   4   4   4
#     4  10  19  35  56  81 112 150 201 248 298 345
#     4   9  19  33  56  82 111 150 194 247 296 349
#     4   9  18  31  54  82 113 152 184 235 297 355
#     4  11  20  33  55  86 112 147 200 255 282 337
#     4  10  18  33  55  85 115 149 193 243 290 347
#     4   9  18  33  54  82 117 147 195 237 290 359
#
# _framework density 21.900767999999999
#
# number of rings (size 3 to 8) (size 9 to 14) (size 15 to 20)
#    0.000    2.333    3.333    0.000    0.000    0.000 
#    0.000    2.500   11.000    0.000    0.000    0.000 
#    0.000    0.000    0.000    0.000    0.000    0.000 
#
# Total GULP energy -297336.717592 kJ/mol
# GULP energy per Si atom -12389.029900 kJ/mol
# Density = 2.185092 g / cm^3
# Si number density = 21.900768 Si / 1000 Ang^3
#
#
#
# Elastic Constant Matrix: (Units=GPa)
#
#
# Indices 1 2 3 4 5 6 
#
# 1 128.4352 42.5586 45.5303 0.0000 14.5305 0.0000
# 2 42.5586 64.5875 38.3075 0.0000 7.3243 0.0000
# 3 45.5303 38.3075 63.0203 0.0000 20.2908 0.0000
# 4 0.0000 0.0000 0.0000 31.6597 0.0000 17.9686
# 5 14.5305 7.3243 20.2908 0.0000 35.0961 0.0000
# 6 0.0000 0.0000 0.0000 17.9686 0.0000 51.6064
#
#
#
# Elastic Compliance Matrix: (Units=1/GPa)
#
#
# Indices 1 2 3 4 5 6 
#
# 1 0.011102 -0.004081 -0.005326 0.000000 -0.000666 0.000000
# 2 -0.004081 0.026238 -0.014477 0.000000 0.004584 0.000000
# 3 -0.005326 -0.014477 0.032970 0.000000 -0.013835 0.000000
# 4 0.000000 0.000000 0.000000 0.039365 0.000000 -0.013706
# 5 -0.000666 0.004584 -0.013835 0.000000 0.035811 0.000000
# 6 0.000000 0.000000 0.000000 -0.013706 0.000000 0.024150
#
#
# Mechanical properties :
#
#
# Convention : Reuss Voigt Hill
#
# Bulk Modulus (GPa) = 44.35886 56.53733 50.44810
# Shear Modulus (GPa) = 22.23046 32.31556 27.27301
#
# Velocity S-wave (km/s) = 3.18945 3.84545 3.53271
# Velocity P-wave (km/s) = 5.81910 6.75188 6.30277
#
# Compressibility (1/GPa) = 0.02254341
#
# Stress axis : x y z
#
# Youngs Moduli (GPa) = 90.07761 38.11199 30.33074
#
# Poissons Ratio (x) = 0.15554 0.16153
# Poissons Ratio (y) = 0.36761 0.43909
# Poissons Ratio (z) = 0.47971 0.55173
#
# Static dielectric constant tensor:
#      x y z
#    x 4.157940 0.000000 0.363200 
#    y 0.000000 3.889160 0.000000 
#    z 0.363200 0.000000 3.936120 
# 
# 
# High freq. dielectric constant tensor:
#      x y z
#    x 1.868890 0.000000 0.031260 
#    y 0.000000 1.844270 0.000000 
#    z 0.031260 0.000000 1.823580 
# 
# From -- ./inp_files/57727.got.cif
#   From: 2010.06.25/outbox.cif.g09.slc.cpg/sg13_29_cif.got.tgz:57727.got - 2010.06.28 04:50:58.
