data_PCOD8117919
_publ_section_title
;
Structure prediction by ZEFSAII (Michael W. Deem and Ramdas Pophale) SiO2 
 PCOD8117919
Probable space group: P 2/C
;
_chemical_formula_sum "Si O2"
_cell_formula_units_Z 32
_cell_length_a 20.596925
_cell_length_b 8.220718
_cell_length_c 27.642127
_cell_angle_alpha 90.000000
_cell_angle_beta 19.497305
_cell_angle_gamma 90.000000
_cell_volume 1562.144349
_symmetry_space_group_name_H-M "P 2/C"
_symmetry_group_IT_number 13
_symmetry_cell_setting 'monoclinic'
loop_
_space_group_symop_operation_xyz
x,y,z
-x,y,1/2-z
-x,-y,-z
x,-y,1/2+z
loop_
_atom_site_type_symbol
_atom_site_label
_atom_site_fract_x
_atom_site_fract_y
_atom_site_fract_z
Si Si1 0.688890 0.615925 0.869086
Si Si2 0.774273 0.815900 0.721129
Si Si3 0.401651 0.271943 0.365529
Si Si4 0.675634 0.487611 0.229724
Si Si5 0.329397 0.671772 0.509479
Si Si6 0.523667 0.969562 0.331942
Si Si7 0.878982 0.538628 0.934580
Si Si8 0.197979 0.243378 0.924641
O O1 0.664636 0.765768 0.848185
O O2 0.736069 0.683880 0.889173
O O3 0.892276 0.526941 0.712684
O O4 0.500000 0.500000 0.000000
O O5 0.783735 0.659726 0.679350
O O6 0.000264 0.860625 0.569661
O O7 0.675910 0.973181 0.766209
O O8 0.500000 0.190451 0.250000
O O9 0.538527 0.422830 0.283423
O O10 0.190131 0.352564 0.506761
O O11 0.396804 0.127492 0.407511
O O12 0.534151 0.575797 0.367383
O O13 0.822018 0.618074 0.103102
O O14 0.363161 0.853268 0.467186
O O15 0.168365 0.586141 0.588066
O O16 0.632713 0.883043 0.209914
O O17 0.765861 0.667614 0.049053
#
# Coordination Sequence:
#
# PCOD8117919 Si02
#       8
#     4   4   4   4   4   4   4   4
#     4  11  22  41  67  86 114 163 217 263 294 344
#     4  10  20  36  56  88 120 157 208 245 301 360
#     4  10  19  35  57  90 123 150 193 251 303 364
#     4   9  17  32  56  84 116 153 200 245 301 356
#     4  10  21  38  61  84 121 164 206 251 302 357
#     4  10  23  35  59  89 128 164 189 245 317 372
#     4  10  22  38  65  94 116 157 213 253 301 362
#     4  10  19  34  57  90 126 159 190 245 311 379
#
# _framework density 20.484663000000001
#
# number of rings (size 3 to 8) (size 9 to 14) (size 15 to 20)
#    0.000    2.000    2.500    1.125    1.750    0.500 
#    0.000    1.250    5.500    0.000    0.000    0.000 
#    0.000    0.000    0.000    0.000    0.000    0.000 
#
# Total GULP energy -396565.941168 kJ/mol
# GULP energy per Si atom -12392.685662 kJ/mol
# Density = 2.043804 g / cm^3
# Si number density = 20.484663 Si / 1000 Ang^3
#
#
#
# Elastic Constant Matrix: (Units=GPa)
#
#
# Indices 1 2 3 4 5 6 
#
# 1 78.6999 14.8759 24.6328 0.0000 14.4894 0.0000
# 2 14.8759 81.9684 27.2908 0.0000 -4.3931 0.0000
# 3 24.6328 27.2908 81.4323 0.0000 2.1210 0.0000
# 4 0.0000 0.0000 0.0000 18.6188 0.0000 -1.5907
# 5 14.4894 -4.3931 2.1210 0.0000 31.2301 0.0000
# 6 0.0000 0.0000 0.0000 -1.5907 0.0000 27.1877
#
#
#
# Elastic Compliance Matrix: (Units=1/GPa)
#
#
# Indices 1 2 3 4 5 6 
#
# 1 0.015625 -0.001929 -0.003891 0.000000 -0.007256 0.000000
# 2 -0.001929 0.014130 -0.004234 0.000000 0.003170 0.000000
# 3 -0.003891 -0.004234 0.014871 0.000000 0.000200 0.000000
# 4 0.000000 0.000000 0.000000 0.053979 0.000000 0.003158
# 5 -0.007256 0.003170 0.000200 0.000000 0.035819 0.000000
# 6 0.000000 0.000000 0.000000 0.003158 0.000000 0.036966
#
#
# Mechanical properties :
#
#
# Convention : Reuss Voigt Hill
#
# Bulk Modulus (GPa) = 40.78840 41.74439 41.26639
# Shear Modulus (GPa) = 25.04120 27.09408 26.06764
#
# Velocity S-wave (km/s) = 3.50013 3.64077 3.57114
# Velocity P-wave (km/s) = 6.02407 6.17222 6.09859
#
# Compressibility (1/GPa) = 0.02451677
#
# Stress axis : x y z
#
# Youngs Moduli (GPa) = 64.00017 70.77326 67.24496
#
# Poissons Ratio (x) = 0.13653 0.26165
# Poissons Ratio (y) = 0.12346 0.28474
# Poissons Ratio (z) = 0.24902 0.29968
#
# Static dielectric constant tensor:
#      x y z
#    x 3.744250 0.000000 0.089580 
#    y 0.000000 3.490600 0.000000 
#    z 0.089580 0.000000 3.611290 
# 
# 
# High freq. dielectric constant tensor:
#      x y z
#    x 1.805620 0.000000 0.003910 
#    y 0.000000 1.782080 0.000000 
#    z 0.003910 0.000000 1.788740 
# 
# From -- ./inp_files/93561.got.cif
#   From: 2010.06.25/outbox.cif.g09.slc.cpg/sg13_47_cif.got.tgz:93561.got - 2010.06.28 04:50:58.
