data_PCOD8117457
_publ_section_title
;
Structure prediction by ZEFSAII (Michael W. Deem and Ramdas Pophale) SiO2 
 PCOD8117457
Probable space group: P 2/C
;
_chemical_formula_sum "Si O2"
_cell_formula_units_Z 28
_cell_length_a 7.376362
_cell_length_b 17.474758
_cell_length_c 9.951476
_cell_angle_alpha 90.000000
_cell_angle_beta 107.906744
_cell_angle_gamma 90.000000
_cell_volume 1220.608127
_symmetry_space_group_name_H-M "P 2/C"
_symmetry_group_IT_number 13
_symmetry_cell_setting 'monoclinic'
loop_
_space_group_symop_operation_xyz
x,y,z
-x,y,1/2-z
-x,-y,-z
x,-y,1/2+z
loop_
_atom_site_type_symbol
_atom_site_label
_atom_site_fract_x
_atom_site_fract_y
_atom_site_fract_z
Si Si1 0.323269 0.276479 0.592066
Si Si2 0.946993 0.841166 0.527999
Si Si3 0.716784 0.108594 0.234427
Si Si4 0.388424 0.828179 0.494460
Si Si5 0.711458 0.928774 0.256289
Si Si6 0.792618 0.692614 0.147013
Si Si7 0.515481 0.571916 0.098564
O O1 0.103832 0.248437 0.514278
O O2 0.435301 0.206721 0.549164
O O3 0.350238 0.281091 0.761417
O O4 0.358460 0.360692 0.534689
O O5 0.848181 0.870367 0.640277
O O6 0.875041 0.893469 0.388137
O O7 0.179976 0.850974 0.608295
O O8 0.733076 0.018974 0.257514
O O9 0.492969 0.134266 0.150586
O O10 0.268965 0.893151 0.388058
O O11 0.241087 0.754996 0.478594
O O12 0.500000 0.905397 0.250000
O O13 0.720517 0.607066 0.099670
O O14 0.000000 0.688440 0.250000
O O15 0.500000 0.544729 0.250000
O O16 0.500000 0.500000 0.000000
#
# Coordination Sequence:
#
# PCOD8117457 Si02
#       7
#     4   4   4   4   4   4   4
#     4   9  17  36  64  83 108 166 205 237 296 380
#     4  10  20  37  55  73 111 151 208 249 301 372
#     4  10  22  33  50  78 109 144 195 268 307 345
#     4  10  18  36  59  76 107 157 210 243 303 369
#     4  12  19  33  53  74 107 152 208 251 309 360
#     4  10  19  35  62  93 116 152 205 255 287 368
#     4   9  19  37  70  96 128 163 201 244 310 377
#
# _framework density 22.939384
#
# number of rings (size 3 to 8) (size 9 to 14) (size 15 to 20)
#    0.000    2.000    4.286    2.143    0.000    0.000 
#    5.143    2.857   25.143    0.000    0.000    0.000 
#    0.000    0.000    0.000    0.000    0.000    0.000 
#
# Total GULP energy -346914.452806 kJ/mol
# GULP energy per Si atom -12389.801886 kJ/mol
# Density = 2.288717 g / cm^3
# Si number density = 22.939384 Si / 1000 Ang^3
#
#
#
# Elastic Constant Matrix: (Units=GPa)
#
#
# Indices 1 2 3 4 5 6 
#
# 1 78.5957 40.2221 51.5026 0.0000 33.9860 0.0000
# 2 40.2221 193.5719 100.1411 0.0000 9.8740 0.0000
# 3 51.5026 100.1411 183.2571 0.0000 15.2801 0.0000
# 4 0.0000 0.0000 0.0000 43.1832 0.0000 -0.6236
# 5 33.9860 9.8740 15.2801 0.0000 44.0421 0.0000
# 6 0.0000 0.0000 0.0000 -0.6236 0.0000 8.0806
#
#
#
# Elastic Compliance Matrix: (Units=1/GPa)
#
#
# Indices 1 2 3 4 5 6 
#
# 1 0.023456 -0.001862 -0.004222 0.000000 -0.016218 0.000000
# 2 -0.001862 0.007353 -0.003580 0.000000 0.001031 0.000000
# 3 -0.004222 -0.003580 0.008507 0.000000 0.001109 0.000000
# 4 0.000000 0.000000 0.000000 0.023183 0.000000 0.001789
# 5 -0.016218 0.001031 0.001109 0.000000 0.034605 0.000000
# 6 0.000000 0.000000 0.000000 0.001789 0.000000 0.123891
#
#
# Mechanical properties :
#
#
# Convention : Reuss Voigt Hill
#
# Bulk Modulus (GPa) = 50.03432 93.23957 71.63695
# Shear Modulus (GPa) = 20.24403 36.63179 28.43791
#
# Velocity S-wave (km/s) = 2.97391 4.00045 3.52475
# Velocity P-wave (km/s) = 5.80096 7.87861 6.91822
#
# Compressibility (1/GPa) = 0.01998628
#
# Stress axis : x y z
#
# Youngs Moduli (GPa) = 42.63298 136.00395 117.54388
#
# Poissons Ratio (x) = 0.25329 0.49628
# Poissons Ratio (y) = 0.07940 0.42086
# Poissons Ratio (z) = 0.18000 0.48696
#
# Static dielectric constant tensor:
#      x y z
#    x 5.009480 0.000000 0.308710 
#    y 0.000000 4.028000 0.000000 
#    z 0.308710 0.000000 4.780140 
# 
# 
# High freq. dielectric constant tensor:
#      x y z
#    x 1.954460 0.000000 0.000660 
#    y 0.000000 1.881600 0.000000 
#    z 0.000660 0.000000 1.917660 
# 
# From -- ./inp_files/30494.got.cif
#   From: 2010.06.25/outbox.cif.g09.slc.cpg/sg13_16_cif.got.tgz:30494.got - 2010.06.28 04:50:58.
