data_PCOD8117084
_publ_section_title
;
Structure prediction by ZEFSAII (Michael W. Deem and Ramdas Pophale) SiO2 
 PCOD8117084
Probable space group: P 2/C
;
_chemical_formula_sum "Si O2"
_cell_formula_units_Z 30
_cell_length_a 26.704102
_cell_length_b 12.262438
_cell_length_c 24.680331
_cell_angle_alpha 90.000000
_cell_angle_beta 10.852723
_cell_angle_gamma 90.000000
_cell_volume 1521.674616
_symmetry_space_group_name_H-M "P 2/C"
_symmetry_group_IT_number 13
_symmetry_cell_setting 'monoclinic'
loop_
_space_group_symop_operation_xyz
x,y,z
-x,y,1/2-z
-x,-y,-z
x,-y,1/2+z
loop_
_atom_site_type_symbol
_atom_site_label
_atom_site_fract_x
_atom_site_fract_y
_atom_site_fract_z
Si Si1 0.071835 0.705502 0.789677
Si Si2 0.970731 0.616806 0.004651
Si Si3 0.575900 0.742629 0.913983
Si Si4 0.799696 0.128013 0.082585
Si Si5 0.275645 0.103680 0.806243
Si Si6 0.380753 0.905988 0.932127
Si Si7 0.501863 0.140822 0.814341
Si Si8 0.000000 0.755339 0.750000
O O1 0.372763 0.739389 0.458693
O O2 0.948096 0.685015 0.860544
O O3 0.025814 0.605966 0.880386
O O4 0.965937 0.811386 0.935064
O O5 0.672397 0.660973 0.331458
O O6 0.000000 0.500000 0.000000
O O7 0.199527 0.693138 0.785870
O O8 0.709162 0.769248 0.714897
O O9 0.477264 0.856327 0.045493
O O10 0.589841 0.119092 0.257277
O O11 0.813079 0.021484 0.108292
O O12 0.096628 0.150576 0.745260
O O13 0.399289 0.102565 0.733421
O O14 0.500000 0.855913 0.750000
O O15 0.331046 0.036369 0.976065
O O16 0.743810 0.165052 0.514396
#
# Coordination Sequence:
#
# PCOD8117084 Si02
#       8
#     4   4   4   4   4   4   4   2
#     4  10  18  34  52  83 119 153 189 233 292 355
#     4  11  24  42  64  87 113 151 193 256 306 353
#     4  11  22  40  61  86 117 149 197 236 292 350
#     4  11  22  35  56  85 117 160 195 230 281 346
#     4   9  19  32  51  83 123 155 184 225 281 346
#     4  11  22  34  51  81 119 159 202 236 276 336
#     4  10  18  31  49  79 117 161 189 229 284 347
#     4  10  20  28  52  82 116 158 192 230 288 358
#
# _framework density 19.715121
#
# number of rings (size 3 to 8) (size 9 to 14) (size 15 to 20)
#    0.000    1.600    2.667    3.200    3.733    0.000 
#    0.000    4.000    0.000    0.000    6.933    0.000 
#    0.000    0.000    0.000    0.000    0.000    0.000 
#
# Total GULP energy -371660.072147 kJ/mol
# GULP energy per Si atom -12388.669072 kJ/mol
# Density = 1.967025 g / cm^3
# Si number density = 19.715121 Si / 1000 Ang^3
#
#
#
# Elastic Constant Matrix: (Units=GPa)
#
#
# Indices 1 2 3 4 5 6 
#
# 1 110.7152 44.2171 55.3281 0.0000 20.8945 0.0000
# 2 44.2171 43.9692 29.5692 0.0000 10.8682 0.0000
# 3 55.3281 29.5692 142.9853 0.0000 8.7167 0.0000
# 4 0.0000 0.0000 0.0000 -7.2823 0.0000 48.0429
# 5 20.8945 10.8682 8.7167 0.0000 37.7606 0.0000
# 6 0.0000 0.0000 0.0000 48.0429 0.0000 -51.1585
#
#
#
# Elastic Compliance Matrix: (Units=1/GPa)
#
#
# Indices 1 2 3 4 5 6 
#
# 1 0.017165 -0.013727 -0.003514 0.000000 -0.004736 0.000000
# 2 -0.013727 0.039032 -0.002574 0.000000 -0.003044 0.000000
# 3 -0.003514 -0.002574 0.008847 0.000000 0.000643 0.000000
# 4 0.000000 0.000000 0.000000 0.026431 0.000000 0.024821
# 5 -0.004736 -0.003044 0.000643 0.000000 0.029831 0.000000
# 6 0.000000 0.000000 0.000000 0.024821 0.000000 0.003762
#
#
# Mechanical properties :
#
#
# Convention : Reuss Voigt Hill
#
# Bulk Modulus (GPa) = 39.35338 61.76650 50.55994
# Shear Modulus (GPa) = 28.87358 7.10097 17.98728
#
# Velocity S-wave (km/s) = 3.83108 1.89990 3.02381
# Velocity P-wave (km/s) = 6.29078 6.01750 6.15566
#
# Compressibility (1/GPa) = 0.02541077
#
# Stress axis : x y z
#
# Youngs Moduli (GPa) = 58.25969 25.62031 113.03611
#
# Poissons Ratio (x) = 0.35170 0.39724
# Poissons Ratio (y) = 0.79975 0.29099
# Poissons Ratio (z) = 0.20474 0.06595
#
# Static dielectric constant tensor:
#      x y z
#    x 3.728680 0.000000 0.047250 
#    y 0.000000 3.178660 0.000000 
#    z 0.047250 0.000000 3.766440 
# 
# 
# High freq. dielectric constant tensor:
#      x y z
#    x 1.788350 0.000000 0.002440 
#    y 0.000000 1.698280 0.000000 
#    z 0.002440 0.000000 1.785570 
# 
# From -- ./inp_files/94435.got.cif
#   From: 2010.06.25/outbox.cif.g09.slc.cpg/sg13_48_cif.got.tgz:94435.got - 2010.06.28 04:50:58.
