data_PCOD8117087
_publ_section_title
;
Structure prediction by ZEFSAII (Michael W. Deem and Ramdas Pophale) SiO2 
 PCOD8117087
Probable space group: P 2/C
;
_chemical_formula_sum "Si O2"
_cell_formula_units_Z 20
_cell_length_a 10.838452
_cell_length_b 17.983195
_cell_length_c 5.024506
_cell_angle_alpha 90.000000
_cell_angle_beta 97.854309
_cell_angle_gamma 90.000000
_cell_volume 970.139142
_symmetry_space_group_name_H-M "P 2/C"
_symmetry_group_IT_number 13
_symmetry_cell_setting 'monoclinic'
loop_
_space_group_symop_operation_xyz
x,y,z
-x,y,1/2-z
-x,-y,-z
x,-y,1/2+z
loop_
_atom_site_type_symbol
_atom_site_label
_atom_site_fract_x
_atom_site_fract_y
_atom_site_fract_z
Si Si1 0.000000 0.670470 0.250000
Si Si2 0.255382 0.289240 0.610043
Si Si3 0.000000 0.424652 0.250000
Si Si4 0.647902 0.957074 0.810876
Si Si5 0.736882 0.459252 0.011587
Si Si6 0.355909 0.788885 0.638161
O O1 0.886279 0.719737 0.329261
O O2 0.053787 0.624192 0.518685
O O3 0.293399 0.375406 0.581098
O O4 0.269535 0.250571 0.330082
O O5 0.344819 0.250499 0.849502
O O6 0.112895 0.471965 0.412401
O O7 0.500000 0.960080 0.750000
O O8 0.691235 0.873743 0.890737
O O9 0.701683 0.986500 0.547950
O O10 0.679285 0.515702 0.776303
O O11 0.500000 0.783667 0.750000
#
# Coordination Sequence:
#
# PCOD8117087 Si02
#       6
#     2   4   2   4   4   4
#     4  10  20  35  54  80 112 143 178 226 278 329
#     4  11  22  37  55  81 112 145 186 226 272 328
#     4  10  18  31  50  78 106 133 174 232 300 339
#     4   9  17  31  53  83 112 133 164 216 276 327
#     4  11  20  32  51  75 106 141 182 233 281 322
#     4  11  22  37  59  84 112 146 179 219 271 325
#
# _framework density 20.615597000000001
#
# number of rings (size 3 to 8) (size 9 to 14) (size 15 to 20)
#    0.000    1.600    0.000    8.400    0.000    4.000 
#    0.000    0.000    0.000   12.000    0.000   14.000 
#    0.000    0.000    0.000    0.000    0.000    0.000 
#
# Total GULP energy -247925.785347 kJ/mol
# GULP energy per Si atom -12396.289267 kJ/mol
# Density = 2.056868 g / cm^3
# Si number density = 20.615597 Si / 1000 Ang^3
#
#
#
# Elastic Constant Matrix: (Units=GPa)
#
#
# Indices 1 2 3 4 5 6 
#
# 1 29.8290 13.4386 -0.7742 0.0000 -6.2551 0.0000
# 2 13.4386 141.6082 61.5081 0.0000 11.6051 0.0000
# 3 -0.7742 61.5081 139.8061 0.0000 -2.1090 0.0000
# 4 0.0000 0.0000 0.0000 18.4143 0.0000 -13.6118
# 5 -6.2551 11.6051 -2.1090 0.0000 28.3725 0.0000
# 6 0.0000 0.0000 0.0000 -13.6118 0.0000 11.0279
#
#
#
# Elastic Compliance Matrix: (Units=1/GPa)
#
#
# Indices 1 2 3 4 5 6 
#
# 1 0.038571 -0.005856 0.002958 0.000000 0.011119 0.000000
# 2 -0.005856 0.010063 -0.004546 0.000000 -0.005745 0.000000
# 3 0.002958 -0.004546 0.009218 0.000000 0.003197 0.000000
# 4 0.000000 0.000000 0.000000 0.619875 0.000000 0.765114
# 5 0.011119 -0.005745 0.003197 0.000000 0.040284 0.000000
# 6 0.000000 0.000000 0.000000 0.765114 0.000000 1.035061
#
#
# Mechanical properties :
#
#
# Convention : Reuss Voigt Hill
#
# Bulk Modulus (GPa) = 23.27634 51.06538 37.17086
# Shear Modulus (GPa) = 2.80539 27.36767 15.08653
#
# Velocity S-wave (km/s) = 1.16780 3.64747 2.70812
# Velocity P-wave (km/s) = 3.62402 6.52401 5.27713
#
# Compressibility (1/GPa) = 0.04296207
#
# Stress axis : x y z
#
# Youngs Moduli (GPa) = 25.92605 99.37325 108.48858
#
# Poissons Ratio (x) = 0.58197 -0.32089
# Poissons Ratio (y) = 0.15183 0.49323
# Poissons Ratio (z) = -0.07669 0.45179
#
# Static dielectric constant tensor:
#      x y z
#    x 3.240130 0.000000 -0.037330 
#    y 0.000000 3.763080 0.000000 
#    z -0.037330 0.000000 4.268550 
# 
# 
# High freq. dielectric constant tensor:
#      x y z
#    x 1.747530 0.000000 -0.006050 
#    y 0.000000 1.798800 0.000000 
#    z -0.006050 0.000000 1.842850 
# 
# From -- ./inp_files/3319.got.cif
#   From: 2010.06.25/outbox.cif.g09.slc.cpg/sg13_2_cif.got.tgz:3319.got - 2010.06.28 04:50:58.
