data_PCOD8117242
_publ_section_title
;
Structure prediction by ZEFSAII (Michael W. Deem and Ramdas Pophale) SiO2 
 PCOD8117242
Probable space group: P 2/C
;
_chemical_formula_sum "Si O2"
_cell_formula_units_Z 30
_cell_length_a 14.072067
_cell_length_b 8.646041
_cell_length_c 24.840876
_cell_angle_alpha 90.000000
_cell_angle_beta 29.939071
_cell_angle_gamma 90.000000
_cell_volume 1508.381486
_symmetry_space_group_name_H-M "P 2/C"
_symmetry_group_IT_number 13
_symmetry_cell_setting 'monoclinic'
loop_
_space_group_symop_operation_xyz
x,y,z
-x,y,1/2-z
-x,-y,-z
x,-y,1/2+z
loop_
_atom_site_type_symbol
_atom_site_label
_atom_site_fract_x
_atom_site_fract_y
_atom_site_fract_z
Si Si1 0.626210 0.292355 0.796965
Si Si2 0.614190 0.306691 0.401431
Si Si3 0.500000 0.193519 0.750000
Si Si4 0.864209 0.181210 0.121956
Si Si5 0.913087 0.454224 0.174130
Si Si6 0.552298 0.944293 0.851507
Si Si7 0.210707 0.968379 0.947095
Si Si8 0.674961 0.441068 0.480433
O O1 0.581866 0.301908 0.755883
O O2 0.830128 0.374571 0.703948
O O3 0.627071 0.119072 0.819963
O O4 0.455804 0.384549 0.907422
O O5 0.779210 0.375356 0.283627
O O6 0.573858 0.133381 0.399693
O O7 0.685964 0.310283 0.427985
O O8 0.415642 0.400856 0.497706
O O9 0.326255 0.090506 0.855115
O O10 0.927321 0.350792 0.112462
O O11 0.668538 0.141469 0.247783
O O12 0.834943 0.176502 0.070969
O O13 0.018681 0.050316 0.062177
O O14 0.118700 0.478314 0.098381
O O15 0.332653 0.924978 0.940073
#
# Coordination Sequence:
#
# PCOD8117242 Si02
#       8
#     4   4   2   4   4   4   4   4
#     4  10  21  36  57  83 118 152 190 238 294 345
#     4   9  21  37  61  82 106 152 194 233 291 349
#     4  10  18  38  52  78 118 160 176 242 292 336
#     4  10  19  33  54  81 109 154 199 221 289 348
#     4  10  20  36  56  85 115 151 183 242 290 351
#     4  10  19  37  57  83 114 144 195 238 282 339
#     4  10  18  33  57  77 114 159 190 238 282 339
#     4  10  20  40  58  81 114 148 191 238 296 343
#
# _framework density 19.888869
#
# number of rings (size 3 to 8) (size 9 to 14) (size 15 to 20)
#    0.000    2.133    2.667    2.000    0.000    1.600 
#    7.200    1.333    0.000    9.600    0.000    0.000 
#    0.000    0.000    0.000    0.000    0.000    0.000 
#
# Total GULP energy -371868.504937 kJ/mol
# GULP energy per Si atom -12395.616831 kJ/mol
# Density = 1.984360 g / cm^3
# Si number density = 19.888869 Si / 1000 Ang^3
#
#
#
# Elastic Constant Matrix: (Units=GPa)
#
#
# Indices 1 2 3 4 5 6 
#
# 1 133.7604 62.3669 44.1411 0.0000 -15.3306 0.0000
# 2 62.3669 81.7304 18.8850 0.0000 -14.8506 0.0000
# 3 44.1411 18.8850 57.6367 0.0000 -8.8953 0.0000
# 4 0.0000 0.0000 0.0000 18.7657 0.0000 6.3821
# 5 -15.3306 -14.8506 -8.8953 0.0000 25.9481 0.0000
# 6 0.0000 0.0000 0.0000 6.3821 0.0000 30.1248
#
#
#
# Elastic Compliance Matrix: (Units=1/GPa)
#
#
# Indices 1 2 3 4 5 6 
#
# 1 0.014381 -0.009024 -0.007964 0.000000 0.000602 0.000000
# 2 -0.009024 0.020001 0.001374 0.000000 0.006586 0.000000
# 3 -0.007964 0.001374 0.023645 0.000000 0.004187 0.000000
# 4 0.000000 0.000000 0.000000 0.057426 0.000000 -0.012166
# 5 0.000602 0.006586 0.004187 0.000000 0.044099 0.000000
# 6 0.000000 0.000000 0.000000 -0.012166 0.000000 0.035773
#
#
# Mechanical properties :
#
#
# Convention : Reuss Voigt Hill
#
# Bulk Modulus (GPa) = 37.31464 58.21263 47.76363
# Shear Modulus (GPa) = 21.23284 24.81668 23.02476
#
# Velocity S-wave (km/s) = 3.27092 3.53621 3.40615
# Velocity P-wave (km/s) = 5.75044 6.78274 6.28781
#
# Compressibility (1/GPa) = 0.02679913
#
# Stress axis : x y z
#
# Youngs Moduli (GPa) = 69.53800 49.99831 42.29216
#
# Poissons Ratio (x) = 0.45119 0.33680
# Poissons Ratio (y) = 0.62752 -0.05812
# Poissons Ratio (z) = 0.55378 -0.06871
#
# Static dielectric constant tensor:
#      x y z
#    x 3.794520 0.000000 -0.011300 
#    y 0.000000 3.637490 0.000000 
#    z -0.011300 0.000000 3.671200 
# 
# 
# High freq. dielectric constant tensor:
#      x y z
#    x 1.777220 0.000000 -0.008190 
#    y 0.000000 1.753460 0.000000 
#    z -0.008190 0.000000 1.778360 
# 
# From -- ./inp_files/87283.got.cif
#   From: 2010.06.25/outbox.cif.g09.slc.cpg/sg13_44_cif.got.tgz:87283.got - 2010.06.28 04:50:58.
