data_PCOD8117209
_publ_section_title
;
Structure prediction by ZEFSAII (Michael W. Deem and Ramdas Pophale) SiO2 
 PCOD8117209
Probable space group: P 2/C
;
_chemical_formula_sum "Si O2"
_cell_formula_units_Z 24
_cell_length_a 19.609868
_cell_length_b 7.988283
_cell_length_c 18.769346
_cell_angle_alpha 90.000000
_cell_angle_beta 156.770046
_cell_angle_gamma 90.000000
_cell_volume 1159.681683
_symmetry_space_group_name_H-M "P 2/C"
_symmetry_group_IT_number 13
_symmetry_cell_setting 'monoclinic'
loop_
_space_group_symop_operation_xyz
x,y,z
-x,y,1/2-z
-x,-y,-z
x,-y,1/2+z
loop_
_atom_site_type_symbol
_atom_site_label
_atom_site_fract_x
_atom_site_fract_y
_atom_site_fract_z
Si Si1 0.332651 0.701261 0.620822
Si Si2 0.482920 0.950251 0.599009
Si Si3 0.949023 0.647389 0.050597
Si Si4 0.128529 0.095586 0.816852
Si Si5 0.223052 0.552533 0.750065
Si Si6 0.440583 0.744608 0.416718
O O1 0.500000 0.602187 0.750000
O O2 0.404191 0.868693 0.729785
O O3 0.209461 0.748413 0.437259
O O4 0.218164 0.587784 0.563820
O O5 0.291278 0.010507 0.442836
O O6 0.456411 0.813411 0.511983
O O7 0.587080 0.108909 0.667648
O O8 0.016675 0.826606 0.144435
O O9 0.098318 0.505646 0.195115
O O10 0.884398 0.670738 0.907132
O O11 0.000000 0.998695 0.750000
O O12 0.282449 0.385244 0.763652
O O13 0.384043 0.649422 0.937350
#
# Coordination Sequence:
#
# PCOD8117209 Si02
#       6
#     4   4   4   4   4   4
#     4   9  18  32  57  77 102 139 188 227 254 324
#     4  10  18  35  53  84 102 138 189 220 275 319
#     4  10  18  33  52  81 110 137 183 216 279 314
#     4   9  18  33  56  78 104 140 184 231 255 322
#     4  10  20  34  54  80 118 145 169 229 272 333
#     4  10  20  33  55  77 117 143 173 227 272 327
#
# _framework density 20.695333000000002
#
# number of rings (size 3 to 8) (size 9 to 14) (size 15 to 20)
#    0.000    2.333    3.333    0.000    0.000    0.000 
#    0.000    8.333    0.000   26.000    0.000    0.000 
#    0.000    0.000    0.000    0.000    0.000    0.000 
#
# Total GULP energy -297333.411599 kJ/mol
# GULP energy per Si atom -12388.892150 kJ/mol
# Density = 2.064823 g / cm^3
# Si number density = 20.695333 Si / 1000 Ang^3
#
#
#
# Elastic Constant Matrix: (Units=GPa)
#
#
# Indices 1 2 3 4 5 6 
#
# 1 110.2923 27.7245 34.9113 0.0000 34.2571 0.0000
# 2 27.7245 48.9918 19.6360 0.0000 0.2261 0.0000
# 3 34.9113 19.6360 81.6663 0.0000 19.3696 0.0000
# 4 0.0000 0.0000 0.0000 15.6170 0.0000 5.8383
# 5 34.2571 0.2261 19.3696 0.0000 48.9271 0.0000
# 6 0.0000 0.0000 0.0000 5.8383 0.0000 24.0752
#
#
#
# Elastic Compliance Matrix: (Units=1/GPa)
#
#
# Indices 1 2 3 4 5 6 
#
# 1 0.014456 -0.007232 -0.002260 0.000000 -0.009193 0.000000
# 2 -0.007232 0.026435 -0.004896 0.000000 0.006880 0.000000
# 3 -0.002260 -0.004896 0.015459 0.000000 -0.004515 0.000000
# 4 0.000000 0.000000 0.000000 0.070417 0.000000 -0.017076
# 5 -0.009193 0.006880 -0.004515 0.000000 0.028631 0.000000
# 6 0.000000 0.000000 0.000000 -0.017076 0.000000 0.045678
#
#
# Mechanical properties :
#
#
# Convention : Reuss Voigt Hill
#
# Bulk Modulus (GPa) = 36.26777 45.05488 40.66132
# Shear Modulus (GPa) = 20.91673 28.30243 24.60958
#
# Velocity S-wave (km/s) = 3.18260 3.70209 3.45213
# Velocity P-wave (km/s) = 5.57386 6.33180 5.96488
#
# Compressibility (1/GPa) = 0.02757269
#
# Stress axis : x y z
#
# Youngs Moduli (GPa) = 69.17703 37.82873 64.68607
#
# Poissons Ratio (x) = 0.27358 0.14621
# Poissons Ratio (y) = 0.50030 0.31671
# Poissons Ratio (z) = 0.15636 0.18522
#
# Static dielectric constant tensor:
#      x y z
#    x 4.221000 0.000000 0.440390 
#    y 0.000000 3.148790 0.000000 
#    z 0.440390 0.000000 3.892250 
# 
# 
# High freq. dielectric constant tensor:
#      x y z
#    x 1.825140 0.000000 0.022610 
#    y 0.000000 1.733550 0.000000 
#    z 0.022610 0.000000 1.822350 
# 
# From -- ./inp_files/69509.got.cif
#   From: 2010.06.25/outbox.cif.g09.slc.cpg/sg13_35_cif.got.tgz:69509.got - 2010.06.28 04:50:58.
