data_PCOD8117988
_publ_section_title
;
Structure prediction by ZEFSAII (Michael W. Deem and Ramdas Pophale) SiO2 
 PCOD8117988
Probable space group: P 2/C
;
_chemical_formula_sum "Si O2"
_cell_formula_units_Z 32
_cell_length_a 17.482892
_cell_length_b 19.876817
_cell_length_c 16.705072
_cell_angle_alpha 90.000000
_cell_angle_beta 17.155015
_cell_angle_gamma 90.000000
_cell_volume 1712.255423
_symmetry_space_group_name_H-M "P 2/C"
_symmetry_group_IT_number 13
_symmetry_cell_setting 'monoclinic'
loop_
_space_group_symop_operation_xyz
x,y,z
-x,y,1/2-z
-x,-y,-z
x,-y,1/2+z
loop_
_atom_site_type_symbol
_atom_site_label
_atom_site_fract_x
_atom_site_fract_y
_atom_site_fract_z
Si Si1 0.750000 0.526456 0.553385
Si Si2 0.250002 0.264863 0.814478
Si Si3 0.749999 0.327928 0.055468
Si Si4 0.249999 0.912039 0.764835
Si Si5 0.249999 0.380297 0.944254
Si Si6 0.250001 0.049968 0.833217
Si Si7 0.250001 0.157394 0.949305
Si Si8 0.750002 0.241556 0.211094
O O1 0.500000 0.526555 0.750000
O O2 0.749984 0.598013 0.600529
O O3 0.750015 0.454533 0.599455
O O4 0.000000 0.526570 0.250000
O O5 0.250005 0.328907 0.871703
O O6 0.250000 0.197580 0.866718
O O7 0.500732 0.266925 0.508135
O O8 0.999267 0.266926 0.009602
O O9 0.500000 0.318637 0.250000
O O10 0.750005 0.271815 0.122962
O O11 0.000000 0.318640 0.750000
O O12 0.498979 0.921207 0.461100
O O13 0.249996 0.838543 0.803275
O O14 0.250001 0.968613 0.835121
O O15 0.001022 0.921207 0.959056
O O16 0.500000 0.369065 0.750000
O O17 0.000000 0.369062 0.250000
O O18 0.250000 0.078400 0.924405
O O19 0.500000 0.177152 0.750000
O O20 0.000000 0.177151 0.250000
#
# Coordination Sequence:
#
# PCOD8117988 Si02
#       8
#     4   4   4   4   4   4   4   4
#     4   8  16  32  56  77 105 145 188 224 272 338
#     4  12  23  36  53  85 116 152 190 222 275 338
#     4  10  21  39  60  85 107 140 186 236 291 339
#     4  10  19  37  58  77 104 142 184 228 268 331
#     4  10  19  35  55  80 113 155 193 228 265 318
#     4  10  20  36  57  78 102 143 194 220 264 329
#     4  12  22  35  54  81 117 148 181 233 272 317
#     4  12  22  38  59  83 114 147 182 235 281 342
#
# _framework density 18.688801000000002
#
# number of rings (size 3 to 8) (size 9 to 14) (size 15 to 20)
#    0.000    1.500    2.500    3.750    0.000    0.000 
#    0.000    2.500    0.000    0.000    0.000    0.000 
#    0.000    0.000    0.000    0.000    0.000    0.000 
#
# Total GULP energy -396617.681542 kJ/mol
# GULP energy per Si atom -12394.302548 kJ/mol
# Density = 1.864626 g / cm^3
# Si number density = 18.688801 Si / 1000 Ang^3
#
#
#
# Elastic Constant Matrix: (Units=GPa)
#
#
# Indices 1 2 3 4 5 6 
#
# 1 91.7272 60.1177 51.7367 0.0000 -4.3056 0.0000
# 2 60.1177 165.2751 41.1186 0.0000 5.3545 0.0000
# 3 51.7367 41.1186 160.4696 0.0000 -15.0705 0.0000
# 4 0.0000 0.0000 0.0000 27.9228 0.0000 0.9864
# 5 -4.3056 5.3545 -15.0705 0.0000 30.6681 0.0000
# 6 0.0000 0.0000 0.0000 0.9864 0.0000 31.4215
#
#
#
# Elastic Compliance Matrix: (Units=1/GPa)
#
#
# Indices 1 2 3 4 5 6 
#
# 1 0.016480 -0.005067 -0.003894 0.000000 0.001285 0.000000
# 2 -0.005067 0.008144 -0.000685 0.000000 -0.002470 0.000000
# 3 -0.003894 -0.000685 0.007991 0.000000 0.003500 0.000000
# 4 0.000000 0.000000 0.000000 0.035853 0.000000 -0.001126
# 5 0.001285 -0.002470 0.003500 0.000000 0.034939 0.000000
# 6 0.000000 0.000000 0.000000 -0.001126 0.000000 0.031861
#
#
# Mechanical properties :
#
#
# Convention : Reuss Voigt Hill
#
# Bulk Modulus (GPa) = 75.06140 80.37976 77.72058
# Shear Modulus (GPa) = 31.44640 35.63576 33.54108
#
# Velocity S-wave (km/s) = 4.10644 4.37143 4.24100
# Velocity P-wave (km/s) = 7.92053 8.28143 8.10299
#
# Compressibility (1/GPa) = 0.01332243
#
# Stress axis : x y z
#
# Youngs Moduli (GPa) = 60.68125 122.78778 125.13382
#
# Poissons Ratio (x) = 0.62218 0.48728
# Poissons Ratio (y) = 0.30748 0.08573
# Poissons Ratio (z) = 0.23630 0.08413
#
# Static dielectric constant tensor:
#      x y z
#    x 3.120150 0.000000 -0.156510 
#    y 0.000000 4.063940 0.000000 
#    z -0.156510 0.000000 3.675450 
# 
# 
# High freq. dielectric constant tensor:
#      x y z
#    x 1.689330 0.000000 -0.018050 
#    y 0.000000 1.746340 0.000000 
#    z -0.018050 0.000000 1.753350 
# 
# From -- ./inp_files/53991.got.cif
#   From: 2010.06.25/outbox.cif.g09.slc.cpg/sg13_27_cif.got.tgz:53991.got - 2010.06.28 04:50:58.
