data_PCOD8117231
_publ_section_title
;
Structure prediction by ZEFSAII (Michael W. Deem and Ramdas Pophale) SiO2 
 PCOD8117231
Probable space group: P 2/C
;
_chemical_formula_sum "Si O2"
_cell_formula_units_Z 32
_cell_length_a 19.736091
_cell_length_b 9.142429
_cell_length_c 23.001386
_cell_angle_alpha 90.000000
_cell_angle_beta 158.458339
_cell_angle_gamma 90.000000
_cell_volume 1523.887782
_symmetry_space_group_name_H-M "P 2/C"
_symmetry_group_IT_number 13
_symmetry_cell_setting 'monoclinic'
loop_
_space_group_symop_operation_xyz
x,y,z
-x,y,1/2-z
-x,-y,-z
x,-y,1/2+z
loop_
_atom_site_type_symbol
_atom_site_label
_atom_site_fract_x
_atom_site_fract_y
_atom_site_fract_z
Si Si1 0.887008 0.635918 0.836895
Si Si2 0.857160 0.960668 0.834649
Si Si3 0.315829 0.640265 0.634312
Si Si4 0.192241 0.043138 0.040835
Si Si5 0.919920 0.415073 0.123863
Si Si6 0.202745 0.110897 0.436038
Si Si7 0.423360 0.122757 0.821946
Si Si8 0.272504 0.432376 0.701865
O O1 0.799825 0.791608 0.783974
O O2 0.756046 0.508439 0.757994
O O3 0.913100 0.618550 0.788240
O O4 0.082590 0.628418 0.024923
O O5 0.664801 0.047725 0.690773
O O6 0.972567 0.006397 0.869589
O O7 0.000000 0.000000 0.000000
O O8 0.500000 0.691135 0.750000
O O9 0.196386 0.549451 0.493108
O O10 0.361168 0.547215 0.727786
O O11 0.212396 0.786486 0.572455
O O12 0.315118 0.939451 0.179869
O O13 0.252871 0.011716 0.023446
O O14 0.791902 0.271102 0.029205
O O15 0.000000 0.462126 0.250000
O O16 0.357484 0.093858 0.509315
O O17 0.000000 0.082098 0.250000
O O18 0.408863 0.296960 0.817423
#
# Coordination Sequence:
#
# PCOD8117231 Si02
#       8
#     4   4   4   4   4   4   4   4
#     4  10  18  33  57  92 123 160 192 259 309 368
#     4  10  18  33  55  93 123 152 188 252 307 359
#     4  11  22  35  58  92 125 157 200 258 306 362
#     4  11  21  37  60  91 125 157 198 248 310 364
#     4  10  22  40  62  82 118 166 214 247 305 365
#     4  11  23  41  61  83 118 165 212 247 292 364
#     4  11  21  35  63  93 120 157 197 250 307 368
#     4  10  19  31  57  94 126 147 204 247 312 366
#
# _framework density 20.998920999999999
#
# number of rings (size 3 to 8) (size 9 to 14) (size 15 to 20)
#    0.000    1.500    3.750    4.125    3.500    0.500 
#    0.000    0.625    0.000    6.750    0.000    0.000 
#    0.000    0.000    0.000    0.000    0.000    0.000 
#
# Total GULP energy -396731.003534 kJ/mol
# GULP energy per Si atom -12397.843860 kJ/mol
# Density = 2.095113 g / cm^3
# Si number density = 20.998921 Si / 1000 Ang^3
#
#
#
# Elastic Constant Matrix: (Units=GPa)
#
#
# Indices 1 2 3 4 5 6 
#
# 1 100.4754 34.3929 36.7338 0.0000 18.8722 0.0000
# 2 34.3929 127.7458 28.5888 0.0000 8.5369 0.0000
# 3 36.7338 28.5888 78.3526 0.0000 28.9068 0.0000
# 4 0.0000 0.0000 0.0000 14.5582 0.0000 11.5107
# 5 18.8722 8.5369 28.9068 0.0000 35.0216 0.0000
# 6 0.0000 0.0000 0.0000 11.5107 0.0000 38.2652
#
#
#
# Elastic Compliance Matrix: (Units=1/GPa)
#
#
# Indices 1 2 3 4 5 6 
#
# 1 0.012792 -0.002340 -0.004042 0.000000 -0.002987 0.000000
# 2 -0.002340 0.008964 -0.002635 0.000000 0.001251 0.000000
# 3 -0.004042 -0.002635 0.020962 0.000000 -0.014482 0.000000
# 4 0.000000 0.000000 0.000000 0.090126 0.000000 -0.027111
# 5 -0.002987 0.001251 -0.014482 0.000000 0.041812 0.000000
# 6 0.000000 0.000000 0.000000 -0.027111 0.000000 0.034289
#
#
# Mechanical properties :
#
#
# Convention : Reuss Voigt Hill
#
# Bulk Modulus (GPa) = 40.51069 56.22274 48.36671
# Shear Modulus (GPa) = 21.25792 31.35955 26.30874
#
# Velocity S-wave (km/s) = 3.18517 3.86863 3.54342
# Velocity P-wave (km/s) = 5.73243 6.84012 6.31063
#
# Compressibility (1/GPa) = 0.02468485
#
# Stress axis : x y z
#
# Youngs Moduli (GPa) = 78.17199 111.55492 47.70565
#
# Poissons Ratio (x) = 0.26103 0.19280
# Poissons Ratio (y) = 0.18292 0.12572
# Poissons Ratio (z) = 0.31593 0.29398
#
# Static dielectric constant tensor:
#      x y z
#    x 4.180080 0.000000 0.505830 
#    y 0.000000 3.842230 0.000000 
#    z 0.505830 0.000000 3.452450 
# 
# 
# High freq. dielectric constant tensor:
#      x y z
#    x 1.829700 0.000000 0.031030 
#    y 0.000000 1.830190 0.000000 
#    z 0.031030 0.000000 1.780280 
# 
# From -- ./inp_files/93605.got.cif
#   From: 2010.06.25/outbox.cif.g09.slc.cpg/sg13_47_cif.got.tgz:93605.got - 2010.06.28 04:50:58.
