data_PCOD8117671
_publ_section_title
;
Structure prediction by ZEFSAII (Michael W. Deem and Ramdas Pophale) SiO2 
 PCOD8117671
Probable space group: P 2/C
;
_chemical_formula_sum "Si O2"
_cell_formula_units_Z 32
_cell_length_a 25.366620
_cell_length_b 9.203939
_cell_length_c 20.191971
_cell_angle_alpha 90.000000
_cell_angle_beta 158.604356
_cell_angle_gamma 90.000000
_cell_volume 1719.796335
_symmetry_space_group_name_H-M "P 2/C"
_symmetry_group_IT_number 13
_symmetry_cell_setting 'monoclinic'
loop_
_space_group_symop_operation_xyz
x,y,z
-x,y,1/2-z
-x,-y,-z
x,-y,1/2+z
loop_
_atom_site_type_symbol
_atom_site_label
_atom_site_fract_x
_atom_site_fract_y
_atom_site_fract_z
Si Si1 0.155084 0.933442 0.466885
Si Si2 0.670183 0.903229 0.951857
Si Si3 0.149212 0.382469 0.997265
Si Si4 0.836498 0.411699 0.871173
Si Si5 0.819396 0.406584 0.228635
Si Si6 0.816055 0.403725 0.608081
Si Si7 0.858166 0.089510 0.913970
Si Si8 0.193260 0.083258 0.271142
O O1 0.266022 0.981282 0.539131
O O2 0.207303 0.782392 0.561782
O O3 0.000000 0.913457 0.250000
O O4 0.159466 0.052193 0.529391
O O5 0.500000 0.910411 0.750000
O O6 0.720705 0.736655 0.011915
O O7 0.721754 0.983895 0.078006
O O8 0.187877 0.457670 0.972416
O O9 0.980871 0.365420 0.818037
O O10 0.220567 0.483758 0.136568
O O11 0.769721 0.479043 0.726412
O O12 0.782372 0.246592 0.816233
O O13 0.008422 0.400040 0.069833
O O14 0.761295 0.464432 0.090056
O O15 0.749389 0.249037 0.160086
O O16 0.780956 0.978312 0.772887
O O17 0.026390 0.085409 0.094847
#
# Coordination Sequence:
#
# PCOD8117671 Si02
#       8
#     4   4   4   4   4   4   4   4
#     4  11  18  34  54  80 106 140 177 219 268 312
#     4  11  22  36  54  78 109 144 179 217 264 319
#     4   9  15  28  48  72 102 130 164 212 264 309
#     4   9  17  27  44  79 107 131 166 216 270 309
#     4   9  17  28  47  72 106 137 169 214 262 314
#     4   9  16  30  48  71  97 134 169 211 257 307
#     4  10  19  31  54  81 110 138 176 224 266 314
#     4  10  19  33  52  80 109 143 177 218 268 314
#
# _framework density 18.606853999999998
#
# number of rings (size 3 to 8) (size 9 to 14) (size 15 to 20)
#    0.000    2.250    3.750    1.500    0.000    5.000 
#    2.250    1.250    0.000    0.000    0.000    8.750 
#    0.000    0.000    0.000    0.000    0.000    0.000 
#
# Total GULP energy -396610.759106 kJ/mol
# GULP energy per Si atom -12394.086222 kJ/mol
# Density = 1.856450 g / cm^3
# Si number density = 18.606854 Si / 1000 Ang^3
#
#
#
# Elastic Constant Matrix: (Units=GPa)
#
#
# Indices 1 2 3 4 5 6 
#
# 1 111.9305 54.0563 34.7510 0.0000 -22.2416 0.0000
# 2 54.0563 112.0425 24.9544 0.0000 -15.4944 0.0000
# 3 34.7510 24.9544 35.2261 0.0000 -2.7948 0.0000
# 4 0.0000 0.0000 0.0000 10.5728 0.0000 -12.5805
# 5 -22.2416 -15.4944 -2.7948 0.0000 20.9670 0.0000
# 6 0.0000 0.0000 0.0000 -12.5805 0.0000 37.4659
#
#
#
# Elastic Compliance Matrix: (Units=1/GPa)
#
#
# Indices 1 2 3 4 5 6 
#
# 1 0.017835 -0.003490 -0.013973 0.000000 0.014477 0.000000
# 2 -0.003490 0.012371 -0.004941 0.000000 0.004781 0.000000
# 3 -0.013973 -0.004941 0.044679 0.000000 -0.012518 0.000000
# 4 0.000000 0.000000 0.000000 0.157519 0.000000 0.052892
# 5 0.014477 0.004781 -0.012518 0.000000 0.064915 0.000000
# 6 0.000000 0.000000 0.000000 0.052892 0.000000 0.044451
#
#
# Mechanical properties :
#
#
# Convention : Reuss Voigt Hill
#
# Bulk Modulus (GPa) = 33.24860 54.08028 43.66444
# Shear Modulus (GPa) = 12.60703 23.49698 18.05200
#
# Velocity S-wave (km/s) = 2.60580 3.55746 3.11815
# Velocity P-wave (km/s) = 5.19243 6.78247 6.04000
#
# Compressibility (1/GPa) = 0.03007646
#
# Stress axis : x y z
#
# Youngs Moduli (GPa) = 56.07059 80.83588 22.38168
#
# Poissons Ratio (x) = 0.28215 0.31274
# Poissons Ratio (y) = 0.19571 0.11058
# Poissons Ratio (z) = 0.78347 0.39940
#
# Static dielectric constant tensor:
#      x y z
#    x 3.650110 0.000000 -0.301260 
#    y 0.000000 3.630480 0.000000 
#    z -0.301260 0.000000 2.913360 
# 
# 
# High freq. dielectric constant tensor:
#      x y z
#    x 1.730400 0.000000 -0.030980 
#    y 0.000000 1.726040 0.000000 
#    z -0.030980 0.000000 1.656710 
# 
# From -- ./inp_files/82541.got.cif
#   From: 2010.06.25/outbox.cif.g09.slc.cpg/sg13_42_cif.got.tgz:82541.got - 2010.06.28 04:50:58.
