data_PCOD8117549
_publ_section_title
;
Structure prediction by ZEFSAII (Michael W. Deem and Ramdas Pophale) SiO2 
 PCOD8117549
Probable space group: P 2/C
;
_chemical_formula_sum "Si O2"
_cell_formula_units_Z 22
_cell_length_a 16.988179
_cell_length_b 13.894307
_cell_length_c 9.780460
_cell_angle_alpha 90.000000
_cell_angle_beta 28.596710
_cell_angle_gamma 90.000000
_cell_volume 1104.977153
_symmetry_space_group_name_H-M "P 2/C"
_symmetry_group_IT_number 13
_symmetry_cell_setting 'monoclinic'
loop_
_space_group_symop_operation_xyz
x,y,z
-x,y,1/2-z
-x,-y,-z
x,-y,1/2+z
loop_
_atom_site_type_symbol
_atom_site_label
_atom_site_fract_x
_atom_site_fract_y
_atom_site_fract_z
Si Si1 0.355706 0.938141 0.782040
Si Si2 0.856647 0.288397 0.278287
Si Si3 0.778569 0.659435 0.187140
Si Si4 0.890025 0.542221 0.548849
Si Si5 0.305341 0.902688 0.564337
Si Si6 0.500000 0.222137 0.250000
O O1 0.248870 0.914953 0.809570
O O2 0.429450 0.841818 0.734781
O O3 0.500000 0.000000 0.500000
O O4 0.263911 0.000547 0.039734
O O5 0.750586 0.311795 0.573360
O O6 0.804139 0.359881 0.233810
O O7 0.814894 0.179708 0.304755
O O8 0.048806 0.301459 0.017907
O O9 0.761069 0.543038 0.214047
O O10 0.641050 0.707091 0.487331
O O11 0.000000 0.500000 0.500000
O O12 0.000000 0.567377 0.250000
O O13 0.500000 0.876789 0.250000
#
# Coordination Sequence:
#
# PCOD8117549 Si02
#       6
#     4   4   4   4   4   2
#     4  10  19  37  61  83 122 163 198 247 314 367
#     4  10  21  39  66  87 128 161 211 252 312 369
#     4  10  21  39  62  93 120 170 203 258 308 368
#     4  10  18  38  63  87 122 166 197 245 317 368
#     4  10  20  36  62  88 117 163 201 249 309 368
#     4  12  22  38  68  88 124 166 214 248 312 374
#
# _framework density 19.909915000000002
#
# number of rings (size 3 to 8) (size 9 to 14) (size 15 to 20)
#    0.000    1.818    6.364    2.182    0.000    2.909 
#    1.636    1.818    4.000    0.000    0.000    0.000 
#    0.000    0.000    0.000    0.000    0.000    0.000 
#
# Total GULP energy -272618.670298 kJ/mol
# GULP energy per Si atom -12391.757741 kJ/mol
# Density = 1.986460 g / cm^3
# Si number density = 19.909915 Si / 1000 Ang^3
#
#
#
# Elastic Constant Matrix: (Units=GPa)
#
#
# Indices 1 2 3 4 5 6 
#
# 1 85.8234 35.3851 30.3518 0.0000 35.9114 0.0000
# 2 35.3851 102.9853 33.9626 0.0000 4.0445 0.0000
# 3 30.3518 33.9626 85.0881 0.0000 17.3675 0.0000
# 4 0.0000 0.0000 0.0000 345.2250 0.0000 -62.6993
# 5 35.9114 4.0445 17.3675 0.0000 30.7839 0.0000
# 6 0.0000 0.0000 0.0000 -62.6993 0.0000 49.0929
#
#
#
# Elastic Compliance Matrix: (Units=1/GPa)
#
#
# Indices 1 2 3 4 5 6 
#
# 1 0.028781 -0.008532 -0.000267 0.000000 -0.032303 0.000000
# 2 -0.008532 0.013750 -0.004642 0.000000 0.010766 0.000000
# 3 -0.000267 -0.004642 0.015271 0.000000 -0.007694 0.000000
# 4 0.000000 0.000000 0.000000 0.003771 0.000000 0.004817
# 5 -0.032303 0.010766 -0.007694 0.000000 0.073093 0.000000
# 6 0.000000 0.000000 0.000000 0.004817 0.000000 0.026521
#
#
# Mechanical properties :
#
#
# Convention : Reuss Voigt Hill
#
# Bulk Modulus (GPa) = 32.34324 52.58842 42.46583
# Shear Modulus (GPa) = 25.20451 96.63352 60.91901
#
# Velocity S-wave (km/s) = 3.56185 6.97429 5.53749
# Velocity P-wave (km/s) = 5.76157 9.55640 7.89052
#
# Compressibility (1/GPa) = 0.03091836
#
# Stress axis : x y z
#
# Youngs Moduli (GPa) = 34.74558 72.72856 65.48274
#
# Poissons Ratio (x) = 0.62052 0.01752
# Poissons Ratio (y) = 0.29645 0.30398
# Poissons Ratio (z) = 0.00929 0.33761
#
# Static dielectric constant tensor:
#      x y z
#    x 4.168520 0.000000 0.756690 
#    y 0.000000 4.102090 0.000000 
#    z 0.756690 0.000000 3.628300 
# 
# 
# High freq. dielectric constant tensor:
#      x y z
#    x 1.770510 0.000000 0.041190 
#    y 0.000000 1.788240 0.000000 
#    z 0.041190 0.000000 1.754430 
# 
# From -- ./inp_files/21921.got.cif
#   From: 2010.06.25/outbox.cif.g09.slc.cpg/sg13_11_cif.got.tgz:21921.got - 2010.06.28 04:50:58.
