data_PCOD8117504
_publ_section_title
;
Structure prediction by ZEFSAII (Michael W. Deem and Ramdas Pophale) SiO2 
 PCOD8117504
Probable space group: P 2/C
;
_chemical_formula_sum "Si O2"
_cell_formula_units_Z 28
_cell_length_a 15.877438
_cell_length_b 13.781658
_cell_length_c 9.269927
_cell_angle_alpha 90.000000
_cell_angle_beta 130.323667
_cell_angle_gamma 90.000000
_cell_volume 1546.470787
_symmetry_space_group_name_H-M "P 2/C"
_symmetry_group_IT_number 13
_symmetry_cell_setting 'monoclinic'
loop_
_space_group_symop_operation_xyz
x,y,z
-x,y,1/2-z
-x,-y,-z
x,-y,1/2+z
loop_
_atom_site_type_symbol
_atom_site_label
_atom_site_fract_x
_atom_site_fract_y
_atom_site_fract_z
Si Si1 0.414095 0.093270 0.538999
Si Si2 0.861714 0.586391 0.243243
Si Si3 0.887117 0.391782 0.438722
Si Si4 0.429393 0.119951 0.044838
Si Si5 0.518501 0.596953 0.432770
Si Si6 0.275740 0.725159 0.902533
Si Si7 0.691689 0.286311 0.730527
O O1 0.500000 0.138434 0.750000
O O2 0.473388 0.092626 0.454031
O O3 0.308469 0.163334 0.414209
O O4 0.377383 0.983446 0.541004
O O5 0.850450 0.478214 0.291678
O O6 0.769160 0.653307 0.210766
O O7 0.982244 0.626916 0.416355
O O8 0.843178 0.584794 0.050531
O O9 0.835549 0.294682 0.311517
O O10 0.500000 0.172929 0.250000
O O11 0.328105 0.181178 0.864989
O O12 0.500000 0.564880 0.250000
O O13 0.500000 0.500000 0.500000
O O14 0.637309 0.648901 0.571237
O O15 0.431490 0.673266 0.396697
O O16 0.255112 0.713372 0.051275
#
# Coordination Sequence:
#
# PCOD8117504 Si02
#       7
#     4   4   4   4   4   4   4
#     4  10  18  37  54  78 114 146 181 218 267 321
#     4  10  22  39  57  80 107 139 187 227 268 322
#     4  10  22  39  58  79 106 143 182 229 272 317
#     4  10  21  32  55  82 111 146 181 222 263 324
#     4  10  21  33  46  71 107 140 168 209 261 316
#     4  11  20  35  55  76 109 146 177 221 270 319
#     4  11  21  35  53  80 110 142 181 222 266 324
#
# _framework density 18.105740999999998
#
# number of rings (size 3 to 8) (size 9 to 14) (size 15 to 20)
#    0.000    1.714    2.857    2.143    2.000    5.714 
#    0.000    0.000    0.000    0.857    0.000    0.000 
#    0.000    0.000    0.000    0.000    0.000    0.000 
#
# Total GULP energy -347066.971650 kJ/mol
# GULP energy per Si atom -12395.248988 kJ/mol
# Density = 1.806453 g / cm^3
# Si number density = 18.105741 Si / 1000 Ang^3
#
#
#
# Elastic Constant Matrix: (Units=GPa)
#
#
# Indices 1 2 3 4 5 6 
#
# 1 74.6620 16.1404 32.4732 0.0000 -9.4373 0.0000
# 2 16.1404 79.6139 43.9515 0.0000 -0.5384 0.0000
# 3 32.4732 43.9515 110.4233 0.0000 -10.5139 0.0000
# 4 0.0000 0.0000 0.0000 35.9230 0.0000 1.7924
# 5 -9.4373 -0.5384 -10.5139 0.0000 23.3485 0.0000
# 6 0.0000 0.0000 0.0000 1.7924 0.0000 19.8687
#
#
#
# Elastic Compliance Matrix: (Units=1/GPa)
#
#
# Indices 1 2 3 4 5 6 
#
# 1 0.015869 -0.001096 -0.003784 0.000000 0.004685 0.000000
# 2 -0.001096 0.016329 -0.006460 0.000000 -0.002976 0.000000
# 3 -0.003784 -0.006460 0.013144 0.000000 0.004240 0.000000
# 4 0.000000 0.000000 0.000000 0.027963 0.000000 -0.002523
# 5 0.004685 -0.002976 0.004240 0.000000 0.046564 0.000000
# 6 0.000000 0.000000 0.000000 -0.002523 0.000000 0.050558
#
#
# Mechanical properties :
#
#
# Convention : Reuss Voigt Hill
#
# Bulk Modulus (GPa) = 44.13038 49.98104 47.05571
# Shear Modulus (GPa) = 24.91751 27.30366 26.11058
#
# Velocity S-wave (km/s) = 3.71377 3.88752 3.80164
# Velocity P-wave (km/s) = 6.54340 6.91487 6.73170
#
# Compressibility (1/GPa) = 0.02266013
#
# Stress axis : x y z
#
# Youngs Moduli (GPa) = 63.01696 61.23972 76.07976
#
# Poissons Ratio (x) = 0.06714 0.28791
# Poissons Ratio (y) = 0.06909 0.49151
# Poissons Ratio (z) = 0.23847 0.39563
#
# Static dielectric constant tensor:
#      x y z
#    x 3.303100 0.000000 -0.224560 
#    y 0.000000 4.495990 0.000000 
#    z -0.224560 0.000000 3.389140 
# 
# 
# High freq. dielectric constant tensor:
#      x y z
#    x 1.692660 0.000000 -0.025400 
#    y 0.000000 1.695530 0.000000 
#    z -0.025400 0.000000 1.700880 
# 
# From -- ./inp_files/19689.got.cif
#   From: 2010.06.25/outbox.cif.g09.slc.cpg/sg13_10_cif.got.tgz:19689.got - 2010.06.28 04:50:58.
