data_PCOD8117090
_publ_section_title
;
Structure prediction by ZEFSAII (Michael W. Deem and Ramdas Pophale) SiO2 
 PCOD8117090
Probable space group: P 2/C
;
_chemical_formula_sum "Si O2"
_cell_formula_units_Z 32
_cell_length_a 17.721356
_cell_length_b 11.240716
_cell_length_c 26.514614
_cell_angle_alpha 90.000000
_cell_angle_beta 161.700827
_cell_angle_gamma 90.000000
_cell_volume 1658.351139
_symmetry_space_group_name_H-M "P 2/C"
_symmetry_group_IT_number 13
_symmetry_cell_setting 'monoclinic'
loop_
_space_group_symop_operation_xyz
x,y,z
-x,y,1/2-z
-x,-y,-z
x,-y,1/2+z
loop_
_atom_site_type_symbol
_atom_site_label
_atom_site_fract_x
_atom_site_fract_y
_atom_site_fract_z
Si Si1 0.499323 0.415271 0.192292
Si Si2 0.259175 0.351808 0.689180
Si Si3 0.333328 0.856799 0.844416
Si Si4 0.966941 0.518765 0.364212
Si Si5 0.878444 0.711714 0.871719
Si Si6 0.764146 0.638749 0.661777
Si Si7 0.249714 0.975603 0.893518
Si Si8 0.283315 0.728563 0.970698
O O1 0.500000 0.369268 0.250000
O O2 0.680173 0.527815 0.302787
O O3 0.615366 0.316641 0.229142
O O4 0.225185 0.446989 0.003820
O O5 0.135565 0.378147 0.664995
O O6 0.077392 0.269185 0.541815
O O7 0.507954 0.282401 0.855535
O O8 0.153840 0.830581 0.683032
O O9 0.406782 0.727800 0.914755
O O10 0.231355 0.946488 0.822203
O O11 0.568277 0.922597 0.973639
O O12 0.981025 0.395311 0.403159
O O13 0.787467 0.491813 0.202505
O O14 0.679565 0.628573 0.550156
O O15 0.023891 0.707454 0.830460
O O16 0.303367 0.856880 0.958666
O O17 0.000000 0.033400 0.750000
#
# Coordination Sequence:
#
# PCOD8117090 Si02
#       8
#     4   4   4   4   4   4   4   4
#     4  11  17  31  51  74 109 152 187 209 254 318
#     4  11  20  29  50  81 109 145 186 219 257 321
#     4   9  19  35  58  81 103 129 170 233 274 318
#     4  10  18  31  51  74 108 148 187 217 258 311
#     4  10  20  32  49  82 109 139 184 226 261 317
#     4   9  17  33  52  74 106 136 181 227 264 308
#     4  10  18  37  63  80  98 134 180 223 281 335
#     4  10  18  31  52  79 102 138 182 225 268 315
#
# _framework density 19.296275000000001
#
# number of rings (size 3 to 8) (size 9 to 14) (size 15 to 20)
#    0.000    2.000    6.250    0.750    0.000    0.500 
#    0.000    4.375    0.000    0.000    0.000    0.000 
#    0.000    0.000    0.000    0.000    0.000    0.000 
#
# Total GULP energy -396505.371129 kJ/mol
# GULP energy per Si atom -12390.792848 kJ/mol
# Density = 1.925236 g / cm^3
# Si number density = 19.296275 Si / 1000 Ang^3
#
#
#
# Elastic Constant Matrix: (Units=GPa)
#
#
# Indices 1 2 3 4 5 6 
#
# 1 67.3944 18.4320 21.9659 0.0000 -3.3780 0.0000
# 2 18.4320 41.1833 25.2427 0.0000 -5.4316 0.0000
# 3 21.9659 25.2427 76.6514 0.0000 -7.2740 0.0000
# 4 0.0000 0.0000 0.0000 25.6641 0.0000 -3.6796
# 5 -3.3780 -5.4316 -7.2740 0.0000 33.1360 0.0000
# 6 0.0000 0.0000 0.0000 -3.6796 0.0000 20.9518
#
#
#
# Elastic Compliance Matrix: (Units=1/GPa)
#
#
# Indices 1 2 3 4 5 6 
#
# 1 0.017457 -0.005934 -0.003035 0.000000 0.000141 0.000000
# 2 -0.005934 0.032705 -0.008802 0.000000 0.002824 0.000000
# 3 -0.003035 -0.008802 0.017002 0.000000 0.001980 0.000000
# 4 0.000000 0.000000 0.000000 0.039971 0.000000 0.007020
# 5 0.000141 0.002824 0.001980 0.000000 0.031091 0.000000
# 6 0.000000 0.000000 0.000000 0.007020 0.000000 0.048962
#
#
# Mechanical properties :
#
#
# Convention : Reuss Voigt Hill
#
# Bulk Modulus (GPa) = 31.62331 35.16781 33.39556
# Shear Modulus (GPa) = 21.43426 23.92294 22.67860
#
# Velocity S-wave (km/s) = 3.33648 3.52486 3.43196
# Velocity P-wave (km/s) = 5.59166 5.90177 5.74881
#
# Compressibility (1/GPa) = 0.03162224
#
# Stress axis : x y z
#
# Youngs Moduli (GPa) = 57.28251 30.57631 58.81541
#
# Poissons Ratio (x) = 0.18145 0.17851
# Poissons Ratio (y) = 0.33993 0.51768
# Poissons Ratio (z) = 0.17386 0.26913
#
# Static dielectric constant tensor:
#      x y z
#    x 3.845730 0.000000 0.018230 
#    y 0.000000 3.109840 0.000000 
#    z 0.018230 0.000000 3.551520 
# 
# 
# High freq. dielectric constant tensor:
#      x y z
#    x 1.765000 0.000000 0.004890 
#    y 0.000000 1.692120 0.000000 
#    z 0.004890 0.000000 1.744250 
# 
# From -- ./inp_files/93346.got.cif
#   From: 2010.06.25/outbox.cif.g09.slc.cpg/sg13_47_cif.got.tgz:93346.got - 2010.06.28 04:50:58.
