data_PCOD8117025
_publ_section_title
;
Structure prediction by ZEFSAII (Michael W. Deem and Ramdas Pophale) SiO2 
 PCOD8117025
Probable space group: P 2/C
;
_chemical_formula_sum "Si O2"
_cell_formula_units_Z 30
_cell_length_a 14.979079
_cell_length_b 11.147990
_cell_length_c 9.918497
_cell_angle_alpha 90.000000
_cell_angle_beta 89.245459
_cell_angle_gamma 90.000000
_cell_volume 1656.112699
_symmetry_space_group_name_H-M "P 2/C"
_symmetry_group_IT_number 13
_symmetry_cell_setting 'monoclinic'
loop_
_space_group_symop_operation_xyz
x,y,z
-x,y,1/2-z
-x,-y,-z
x,-y,1/2+z
loop_
_atom_site_type_symbol
_atom_site_label
_atom_site_fract_x
_atom_site_fract_y
_atom_site_fract_z
Si Si1 0.579829 0.925672 0.558211
Si Si2 0.819252 0.634372 0.992123
Si Si3 0.316097 0.392937 0.225220
Si Si4 0.996477 0.613545 0.596232
Si Si5 0.500000 0.729121 0.750000
Si Si6 0.272113 0.669991 0.241295
Si Si7 0.192018 0.355135 0.472171
Si Si8 0.394903 0.882494 0.234368
O O1 0.537165 0.807696 0.625861
O O2 0.637046 0.897871 0.421946
O O3 0.500000 0.000000 0.500000
O O4 0.633489 0.002982 0.671079
O O5 0.737114 0.668675 0.896782
O O6 0.913402 0.690058 0.937610
O O7 0.824941 0.491598 0.987802
O O8 0.803684 0.677937 0.143682
O O9 0.418722 0.355325 0.205255
O O10 0.313589 0.537293 0.226336
O O11 0.270130 0.340022 0.360552
O O12 0.000000 0.568357 0.750000
O O13 0.000000 0.500000 0.500000
O O14 0.905638 0.691952 0.575676
O O15 0.225109 0.713791 0.104498
O O16 0.348878 0.761320 0.286155
O O17 0.500000 0.864182 0.250000
#
# Coordination Sequence:
#
# PCOD8117025 Si02
#       8
#     4   4   4   4   2   4   4   4
#     4  10  20  38  54  76  93 137 186 242 268 299
#     4   9  19  31  49  73 107 142 183 217 254 315
#     4  10  21  34  49  77 114 150 179 212 260 329
#     4  10  18  29  52  72 100 148 186 220 265 302
#     4  12  22  34  58  74 110 146 184 222 270 312
#     4  10  21  35  49  79 114 144 175 219 264 331
#     4   9  18  34  47  71 111 141 181 218 257 314
#     4  10  21  36  58  73 105 140 182 230 272 307
#
# _framework density 18.114709000000001
#
# number of rings (size 3 to 8) (size 9 to 14) (size 15 to 20)
#    0.000    2.133    3.333    0.800   10.267    0.000 
#    0.000    2.667    0.000    0.000    0.000    0.000 
#    0.000   19.200    0.000    0.000    0.000    0.000 
#
# Total GULP energy -371683.023658 kJ/mol
# GULP energy per Si atom -12389.434122 kJ/mol
# Density = 1.807348 g / cm^3
# Si number density = 18.114709 Si / 1000 Ang^3
#
#
#
# Elastic Constant Matrix: (Units=GPa)
#
#
# Indices 1 2 3 4 5 6 
#
# 1 119.3306 35.1509 44.0981 0.0000 9.0724 0.0000
# 2 35.1509 48.9881 32.1214 0.0000 -5.1833 0.0000
# 3 44.0981 32.1214 137.7975 0.0000 2.2509 0.0000
# 4 0.0000 0.0000 0.0000 16.4256 0.0000 -1.3477
# 5 9.0724 -5.1833 2.2509 0.0000 20.1847 0.0000
# 6 0.0000 0.0000 0.0000 -1.3477 0.0000 6.3802
#
#
#
# Elastic Compliance Matrix: (Units=1/GPa)
#
#
# Indices 1 2 3 4 5 6 
#
# 1 0.012026 -0.008213 -0.001815 0.000000 -0.007312 0.000000
# 2 -0.008213 0.030682 -0.004721 0.000000 0.012097 0.000000
# 3 -0.001815 -0.004721 0.008961 0.000000 -0.001396 0.000000
# 4 0.000000 0.000000 0.000000 0.061954 0.000000 0.013086
# 5 -0.007312 0.012097 -0.001396 0.000000 0.056091 0.000000
# 6 0.000000 0.000000 0.000000 0.013086 0.000000 0.159500
#
#
# Mechanical properties :
#
#
# Convention : Reuss Voigt Hill
#
# Bulk Modulus (GPa) = 45.10376 58.76189 51.93283
# Shear Modulus (GPa) = 13.65739 21.58114 17.61926
#
# Velocity S-wave (km/s) = 2.74877 3.45535 3.12212
# Velocity P-wave (km/s) = 5.91839 6.95906 6.45972
#
# Compressibility (1/GPa) = 0.02217110
#
# Stress axis : x y z
#
# Youngs Moduli (GPa) = 83.15467 32.59250 111.59285
#
# Poissons Ratio (x) = 0.26768 0.20250
# Poissons Ratio (y) = 0.68293 0.52688
# Poissons Ratio (z) = 0.15089 0.15388
#
# Static dielectric constant tensor:
#      x y z
#    x 3.483280 0.000000 -0.066740 
#    y 0.000000 2.998920 0.000000 
#    z -0.066740 0.000000 3.815260 
# 
# 
# High freq. dielectric constant tensor:
#      x y z
#    x 1.695710 0.000000 -0.000900 
#    y 0.000000 1.641650 0.000000 
#    z -0.000900 0.000000 1.727510 
# 
# From -- ./inp_files/18809.got.cif
#   From: 2010.06.25/outbox.cif.g09.slc.cpg/sg13_10_cif.got.tgz:18809.got - 2010.06.28 04:50:58.
