data_PCOD8117340
_publ_section_title
;
Structure prediction by ZEFSAII (Michael W. Deem and Ramdas Pophale) SiO2 
 PCOD8117340
Probable space group: P 2/C
;
_chemical_formula_sum "Si O2"
_cell_formula_units_Z 24
_cell_length_a 13.148774
_cell_length_b 12.102434
_cell_length_c 9.867594
_cell_angle_alpha 90.000000
_cell_angle_beta 134.695592
_cell_angle_gamma 90.000000
_cell_volume 1116.219011
_symmetry_space_group_name_H-M "P 2/C"
_symmetry_group_IT_number 13
_symmetry_cell_setting 'monoclinic'
loop_
_space_group_symop_operation_xyz
x,y,z
-x,y,1/2-z
-x,-y,-z
x,-y,1/2+z
loop_
_atom_site_type_symbol
_atom_site_label
_atom_site_fract_x
_atom_site_fract_y
_atom_site_fract_z
Si Si1 0.244485 0.879952 0.729109
Si Si2 0.757243 0.917226 0.078464
Si Si3 0.258035 0.603559 0.262719
Si Si4 0.143986 0.551472 0.434124
Si Si5 0.986442 0.757687 0.411449
Si Si6 0.483748 0.251195 0.081843
O O1 0.249550 0.940908 0.588316
O O2 0.368990 0.787404 0.849430
O O3 0.091295 0.821902 0.610500
O O4 0.253438 0.965752 0.858581
O O5 0.901279 0.846760 0.239225
O O6 0.619066 0.853286 0.001055
O O7 0.248333 0.558191 0.405529
O O8 0.128537 0.688341 0.110041
O O9 0.413854 0.661544 0.408924
O O10 0.239037 0.504436 0.139533
O O11 0.000000 0.485326 0.250000
O O12 0.091645 0.675153 0.424998
O O13 0.500000 0.301570 0.250000
#
# Coordination Sequence:
#
# PCOD8117340 Si02
#       6
#     4   4   4   4   4   4
#     4  11  20  35  56  80 110 146 186 230 276 331
#     4  10  20  34  55  80 108 144 187 229 274 331
#     4  10  20  36  59  83 109 147 191 232 278 335
#     4  10  18  34  59  85 111 146 187 234 282 334
#     4  10  19  34  56  81 110 148 187 221 275 346
#     4   9  19  37  58  77 106 153 193 222 272 345
#
# _framework density 21.501156999999999
#
# number of rings (size 3 to 8) (size 9 to 14) (size 15 to 20)
#    0.000    2.000    0.000    8.500    0.000    0.000 
#    0.000   11.667    0.000    4.000    0.000    0.000 
#    0.000    0.000    0.000    0.000    0.000    0.000 
#
# Total GULP energy -297375.050230 kJ/mol
# GULP energy per Si atom -12390.627093 kJ/mol
# Density = 2.145222 g / cm^3
# Si number density = 21.501157 Si / 1000 Ang^3
#
#
#
# Elastic Constant Matrix: (Units=GPa)
#
#
# Indices 1 2 3 4 5 6 
#
# 1 52.1555 19.7668 32.4467 0.0000 16.2395 0.0000
# 2 19.7668 56.5974 45.2505 0.0000 4.9422 0.0000
# 3 32.4467 45.2505 110.2771 0.0000 24.2417 0.0000
# 4 0.0000 0.0000 0.0000 49.3483 0.0000 0.5898
# 5 16.2395 4.9422 24.2417 0.0000 21.5990 0.0000
# 6 0.0000 0.0000 0.0000 0.5898 0.0000 7.0438
#
#
#
# Elastic Compliance Matrix: (Units=1/GPa)
#
#
# Indices 1 2 3 4 5 6 
#
# 1 0.028438 -0.007212 -0.001421 0.000000 -0.018136 0.000000
# 2 -0.007212 0.029234 -0.012738 0.000000 0.013030 0.000000
# 3 -0.001421 -0.012738 0.018370 0.000000 -0.016634 0.000000
# 4 0.000000 0.000000 0.000000 0.020284 0.000000 -0.001699
# 5 -0.018136 0.013030 -0.016634 0.000000 0.075622 0.000000
# 6 0.000000 0.000000 0.000000 -0.001699 0.000000 0.142112
#
#
# Mechanical properties :
#
#
# Convention : Reuss Voigt Hill
#
# Bulk Modulus (GPa) = 30.03086 45.99534 38.01310
# Shear Modulus (GPa) = 13.59058 23.70261 18.64659
#
# Velocity S-wave (km/s) = 2.51686 3.32382 2.94808
# Velocity P-wave (km/s) = 4.73746 6.01406 5.41352
#
# Compressibility (1/GPa) = 0.03329907
#
# Stress axis : x y z
#
# Youngs Moduli (GPa) = 35.16440 34.20683 54.43769
#
# Poissons Ratio (x) = 0.24670 0.07736
# Poissons Ratio (y) = 0.25361 0.69343
# Poissons Ratio (z) = 0.04997 0.43573
#
# Static dielectric constant tensor:
#      x y z
#    x 3.570830 0.000000 0.360810 
#    y 0.000000 3.706710 0.000000 
#    z 0.360810 0.000000 4.201900 
# 
# 
# High freq. dielectric constant tensor:
#      x y z
#    x 1.819980 0.000000 0.025460 
#    y 0.000000 1.825830 0.000000 
#    z 0.025460 0.000000 1.853400 
# 
# From -- ./inp_files/38976.got.cif
#   From: 2010.06.25/outbox.cif.g09.slc.cpg/sg13_20_cif.got.tgz:38976.got - 2010.06.28 04:50:58.
