data_PCOD8117062
_publ_section_title
;
Structure prediction by ZEFSAII (Michael W. Deem and Ramdas Pophale) SiO2 
 PCOD8117062
Probable space group: P 2/C
;
_chemical_formula_sum "Si O2"
_cell_formula_units_Z 22
_cell_length_a 11.970283
_cell_length_b 11.137201
_cell_length_c 9.058916
_cell_angle_alpha 90.000000
_cell_angle_beta 68.333414
_cell_angle_gamma 90.000000
_cell_volume 1122.367539
_symmetry_space_group_name_H-M "P 2/C"
_symmetry_group_IT_number 13
_symmetry_cell_setting 'monoclinic'
loop_
_space_group_symop_operation_xyz
x,y,z
-x,y,1/2-z
-x,-y,-z
x,-y,1/2+z
loop_
_atom_site_type_symbol
_atom_site_label
_atom_site_fract_x
_atom_site_fract_y
_atom_site_fract_z
Si Si1 0.158048 0.432909 0.041443
Si Si2 0.974356 0.679212 0.418011
Si Si3 0.568801 0.595912 0.066292
Si Si4 0.375112 0.145927 0.057241
Si Si5 0.500000 0.997038 0.250000
Si Si6 0.880254 0.219223 0.239810
O O1 0.299966 0.449891 0.948959
O O2 0.099494 0.356808 0.936093
O O3 0.101715 0.562412 0.086761
O O4 0.132858 0.358543 0.203333
O O5 0.895691 0.771163 0.555204
O O6 0.000000 0.745650 0.250000
O O7 0.500000 0.622136 0.250000
O O8 0.500000 0.500000 0.000000
O O9 0.577467 0.717970 0.967426
O O10 0.231987 0.140540 0.152901
O O11 0.432553 0.079723 0.166990
O O12 0.404743 0.084377 0.885854
O O13 0.000000 0.159371 0.250000
#
# Coordination Sequence:
#
# PCOD8117062 Si02
#       6
#     4   4   4   4   2   4
#     4   9  19  33  49  75 119 165 198 232 283 360
#     4  10  18  30  54  79 112 162 206 233 283 359
#     4  11  25  37  56  91 132 162 191 245 306 363
#     4  10  22  44  64  89 117 157 208 252 296 359
#     4  10  22  44  70  84 110 164 212 248 294 352
#     4   9  19  36  55  82 119 149 189 255 305 345
#
# _framework density 19.601421999999999
#
# number of rings (size 3 to 8) (size 9 to 14) (size 15 to 20)
#    0.000    2.182    0.909    2.727    8.909    0.000 
#    0.000    2.727    0.000    0.000    0.000    0.000 
#    0.000    0.000    0.000    0.000    0.000    0.000 
#
# Total GULP energy -272770.685201 kJ/mol
# GULP energy per Si atom -12398.667509 kJ/mol
# Density = 1.955681 g / cm^3
# Si number density = 19.601422 Si / 1000 Ang^3
#
#
#
# Elastic Constant Matrix: (Units=GPa)
#
#
# Indices 1 2 3 4 5 6 
#
# 1 132.8786 43.0287 64.2891 0.0000 -25.9059 0.0000
# 2 43.0287 71.2001 37.5008 0.0000 -2.9044 0.0000
# 3 64.2891 37.5008 169.7216 0.0000 -5.4496 0.0000
# 4 0.0000 0.0000 0.0000 19.6404 0.0000 -1.1660
# 5 -25.9059 -2.9044 -5.4496 0.0000 31.7191 0.0000
# 6 0.0000 0.0000 0.0000 -1.1660 0.0000 20.7773
#
#
#
# Elastic Compliance Matrix: (Units=1/GPa)
#
#
# Indices 1 2 3 4 5 6 
#
# 1 0.012749 -0.005589 -0.003295 0.000000 0.009335 0.000000
# 2 -0.005589 0.018368 -0.002045 0.000000 -0.003234 0.000000
# 3 -0.003295 -0.002045 0.007541 0.000000 -0.001583 0.000000
# 4 0.000000 0.000000 0.000000 0.051086 0.000000 0.002867
# 5 0.009335 -0.003234 -0.001583 0.000000 0.038583 0.000000
# 6 0.000000 0.000000 0.000000 0.002867 0.000000 0.048290
#
#
# Mechanical properties :
#
#
# Convention : Reuss Voigt Hill
#
# Bulk Modulus (GPa) = 59.52164 73.71526 66.61845
# Shear Modulus (GPa) = 24.50076 29.69280 27.09678
#
# Velocity S-wave (km/s) = 3.53930 3.89630 3.72208
# Velocity P-wave (km/s) = 6.86542 7.61120 7.24791
#
# Compressibility (1/GPa) = 0.01680061
#
# Stress axis : x y z
#
# Youngs Moduli (GPa) = 78.43466 54.44323 132.60599
#
# Poissons Ratio (x) = 0.30427 0.43691
# Poissons Ratio (y) = 0.43836 0.27122
# Poissons Ratio (z) = 0.25842 0.11135
#
# Static dielectric constant tensor:
#      x y z
#    x 3.771820 0.000000 -0.137150 
#    y 0.000000 3.254220 0.000000 
#    z -0.137150 0.000000 3.849420 
# 
# 
# High freq. dielectric constant tensor:
#      x y z
#    x 1.765930 0.000000 -0.007440 
#    y 0.000000 1.727660 0.000000 
#    z -0.007440 0.000000 1.781990 
# 
# From -- ./inp_files/15802.got.cif
#   From: 2010.06.25/outbox.cif.g09.slc.cpg/sg13_8_cif.got.tgz:15802.got - 2010.06.28 04:50:58.
