data_PCOD8117160
_publ_section_title
;
Structure prediction by ZEFSAII (Michael W. Deem and Ramdas Pophale) SiO2 
 PCOD8117160
Probable space group: P 2/C
;
_chemical_formula_sum "Si O2"
_cell_formula_units_Z 26
_cell_length_a 23.406133
_cell_length_b 9.325193
_cell_length_c 18.029144
_cell_angle_alpha 90.000000
_cell_angle_beta 20.471610
_cell_angle_gamma 90.000000
_cell_volume 1376.296188
_symmetry_space_group_name_H-M "P 2/C"
_symmetry_group_IT_number 13
_symmetry_cell_setting 'monoclinic'
loop_
_space_group_symop_operation_xyz
x,y,z
-x,y,1/2-z
-x,-y,-z
x,-y,1/2+z
loop_
_atom_site_type_symbol
_atom_site_label
_atom_site_fract_x
_atom_site_fract_y
_atom_site_fract_z
Si Si1 0.280458 0.126402 0.728704
Si Si2 0.791747 0.646861 0.296923
Si Si3 0.144811 0.712778 0.519037
Si Si4 0.500000 0.558925 0.750000
Si Si5 0.627615 0.805665 0.875566
Si Si6 0.536884 0.713475 0.284604
Si Si7 0.852745 0.446123 0.085877
O O1 0.230274 0.193473 0.710323
O O2 0.459219 0.185504 0.534853
O O3 0.278505 0.955732 0.731918
O O4 0.139006 0.179156 0.956724
O O5 0.654792 0.644727 0.528841
O O6 0.774557 0.528381 0.252144
O O7 0.968034 0.618979 0.118314
O O8 0.297567 0.766232 0.380862
O O9 0.145521 0.550796 0.487223
O O10 0.000000 0.739828 0.750000
O O11 0.442792 0.457736 0.751403
O O12 0.739360 0.687192 0.699839
O O13 0.608606 0.752986 0.983212
O O14 0.500000 0.789351 0.250000
#
# Coordination Sequence:
#
# PCOD8117160 Si02
#       7
#     4   4   4   2   4   4   4
#     4   9  22  36  58  78 110 154 183 222 273 333
#     4  10  20  35  54  84 111 141 183 227 279 323
#     4  10  20  35  55  82 110 141 184 228 276 327
#     4  10  18  32  54  84 108 140 176 236 272 326
#     4  10  19  38  56  80 108 148 191 220 270 335
#     4   9  19  31  56  80 106 141 179 229 275 316
#     4  10  20  34  58  81 109 141 183 232 270 330
#
# _framework density 18.891282
#
# number of rings (size 3 to 8) (size 9 to 14) (size 15 to 20)
#    0.462    1.846    1.538    0.923    2.154    3.692 
#    1.385    0.769    3.385    0.000    0.000    0.000 
#    0.000    0.000    0.000    0.000    0.000    0.000 
#
# Total GULP energy -322117.672066 kJ/mol
# GULP energy per Si atom -12389.141233 kJ/mol
# Density = 1.884828 g / cm^3
# Si number density = 18.891282 Si / 1000 Ang^3
#
#
#
# Elastic Constant Matrix: (Units=GPa)
#
#
# Indices 1 2 3 4 5 6 
#
# 1 68.4669 20.5075 27.1564 0.0000 8.9439 0.0000
# 2 20.5075 92.8328 47.2945 0.0000 10.5181 0.0000
# 3 27.1564 47.2945 122.9553 0.0000 22.8026 0.0000
# 4 0.0000 0.0000 0.0000 36.7553 0.0000 17.5469
# 5 8.9439 10.5181 22.8026 0.0000 23.5430 0.0000
# 6 0.0000 0.0000 0.0000 17.5469 0.0000 55.4844
#
#
#
# Elastic Compliance Matrix: (Units=1/GPa)
#
#
# Indices 1 2 3 4 5 6 
#
# 1 0.016553 -0.002158 -0.002241 0.000000 -0.003154 0.000000
# 2 -0.002158 0.013707 -0.004647 0.000000 -0.000803 0.000000
# 3 -0.002241 -0.004647 0.012034 0.000000 -0.008728 0.000000
# 4 0.000000 0.000000 0.000000 0.032045 0.000000 -0.010134
# 5 -0.003154 -0.000803 -0.008728 0.000000 0.052486 0.000000
# 6 0.000000 0.000000 0.000000 -0.010134 0.000000 0.021228
#
#
# Mechanical properties :
#
#
# Convention : Reuss Voigt Hill
#
# Bulk Modulus (GPa) = 41.31747 52.68578 47.00163
# Shear Modulus (GPa) = 28.70065 35.77628 32.23847
#
# Velocity S-wave (km/s) = 3.90199 4.35650 4.13549
# Velocity P-wave (km/s) = 6.49764 7.29760 6.90921
#
# Compressibility (1/GPa) = 0.02420284
#
# Stress axis : x y z
#
# Youngs Moduli (GPa) = 60.41297 72.95484 83.09702
#
# Poissons Ratio (x) = 0.15740 0.18623
# Poissons Ratio (y) = 0.13034 0.38614
# Poissons Ratio (z) = 0.13539 0.33901
#
# Static dielectric constant tensor:
#      x y z
#    x 3.398280 0.000000 0.110360 
#    y 0.000000 3.275980 0.000000 
#    z 0.110360 0.000000 3.767220 
# 
# 
# High freq. dielectric constant tensor:
#      x y z
#    x 1.727840 0.000000 0.002890 
#    y 0.000000 1.712210 0.000000 
#    z 0.002890 0.000000 1.733360 
# 
# From -- ./inp_files/71266.got.cif
#   From: 2010.06.25/outbox.cif.g09.slc.cpg/sg13_36_cif.got.tgz:71266.got - 2010.06.28 04:50:58.
