data_PCOD8117363
_publ_section_title
;
Structure prediction by ZEFSAII (Michael W. Deem and Ramdas Pophale) SiO2 
 PCOD8117363
Probable space group: P 2/C
;
_chemical_formula_sum "Si O2"
_cell_formula_units_Z 28
_cell_length_a 11.717811
_cell_length_b 14.553426
_cell_length_c 8.900699
_cell_angle_alpha 90.000000
_cell_angle_beta 114.605885
_cell_angle_gamma 90.000000
_cell_volume 1380.041335
_symmetry_space_group_name_H-M "P 2/C"
_symmetry_group_IT_number 13
_symmetry_cell_setting 'monoclinic'
loop_
_space_group_symop_operation_xyz
x,y,z
-x,y,1/2-z
-x,-y,-z
x,-y,1/2+z
loop_
_atom_site_type_symbol
_atom_site_label
_atom_site_fract_x
_atom_site_fract_y
_atom_site_fract_z
Si Si1 0.904438 0.970397 0.826280
Si Si2 0.167871 0.831397 0.223949
Si Si3 0.112129 0.796961 0.525146
Si Si4 0.449651 0.396575 0.497333
Si Si5 0.777298 0.387330 0.322883
Si Si6 0.679202 0.327261 0.773707
Si Si7 0.144303 0.445774 0.815460
O O1 0.828565 0.881585 0.845298
O O2 0.000000 0.940767 0.750000
O O3 0.812315 0.057904 0.745807
O O4 0.000000 0.000000 0.000000
O O5 0.173277 0.789216 0.394286
O O6 0.278621 0.780593 0.188849
O O7 0.036808 0.810403 0.070765
O O8 0.144588 0.706159 0.634846
O O9 0.500000 0.500000 0.500000
O O10 0.368117 0.370435 0.305403
O O11 0.570612 0.331909 0.586424
O O12 0.364053 0.378131 0.598416
O O13 0.781352 0.435637 0.487435
O O14 0.841712 0.449823 0.230978
O O15 0.801474 0.380162 0.783001
O O16 0.000000 0.417189 0.750000
#
# Coordination Sequence:
#
# PCOD8117363 Si02
#       7
#     4   4   4   4   4   4   4
#     4  10  18  34  64  97 133 174 210 260 331 412
#     4  10  19  40  64  95 133 171 211 267 344 397
#     4  10  21  38  63  99 138 170 213 271 332 410
#     4  11  26  46  66  90 125 173 241 281 315 382
#     4  12  25  41  64  94 132 173 226 273 324 396
#     4  11  24  43  70  89 125 178 222 275 336 384
#     4  12  25  41  62  95 134 173 205 270 347 399
#
# _framework density 20.289248000000001
#
# number of rings (size 3 to 8) (size 9 to 14) (size 15 to 20)
#    0.000    1.143    5.714    2.143    2.000    4.571 
#    0.000    0.000    0.000    0.857    0.000    0.000 
#    0.000    0.000    0.000    0.000    0.000    0.000 
#
# Total GULP energy -346927.114539 kJ/mol
# GULP energy per Si atom -12390.254091 kJ/mol
# Density = 2.024307 g / cm^3
# Si number density = 20.289248 Si / 1000 Ang^3
#
#
#
# Elastic Constant Matrix: (Units=GPa)
#
#
# Indices 1 2 3 4 5 6 
#
# 1 87.0969 50.2146 23.8086 0.0000 -6.1755 0.0000
# 2 50.2146 157.6911 46.7887 0.0000 -4.2882 0.0000
# 3 23.8086 46.7887 104.2633 0.0000 1.6721 0.0000
# 4 0.0000 0.0000 0.0000 33.0006 0.0000 -7.3760
# 5 -6.1755 -4.2882 1.6721 0.0000 28.8218 0.0000
# 6 0.0000 0.0000 0.0000 -7.3760 0.0000 26.0865
#
#
#
# Elastic Compliance Matrix: (Units=1/GPa)
#
#
# Indices 1 2 3 4 5 6 
#
# 1 0.014426 -0.004077 -0.001506 0.000000 0.002572 0.000000
# 2 -0.004077 0.008515 -0.002899 0.000000 0.000562 0.000000
# 3 -0.001506 -0.002899 0.011259 0.000000 -0.001407 0.000000
# 4 0.000000 0.000000 0.000000 0.032347 0.000000 0.009146
# 5 0.002572 0.000562 -0.001407 0.000000 0.035412 0.000000
# 6 0.000000 0.000000 0.000000 0.009146 0.000000 0.040920
#
#
# Mechanical properties :
#
#
# Convention : Reuss Voigt Hill
#
# Bulk Modulus (GPa) = 58.01958 65.63060 61.82509
# Shear Modulus (GPa) = 30.19533 32.79773 31.49653
#
# Velocity S-wave (km/s) = 3.86196 4.02494 3.94429
# Velocity P-wave (km/s) = 6.96740 7.34969 7.16109
#
# Compressibility (1/GPa) = 0.01723556
#
# Stress axis : x y z
#
# Youngs Moduli (GPa) = 69.31929 117.43542 88.82092
#
# Poissons Ratio (x) = 0.47879 0.13375
# Poissons Ratio (y) = 0.28262 0.25752
# Poissons Ratio (z) = 0.10438 0.34048
#
# Static dielectric constant tensor:
#      x y z
#    x 3.531760 0.000000 0.368470 
#    y 0.000000 4.008750 0.000000 
#    z 0.368470 0.000000 1.141980 
# 
# 
# High freq. dielectric constant tensor:
#      x y z
#    x 1.763220 0.000000 -0.010830 
#    y 0.000000 1.795400 0.000000 
#    z -0.010830 0.000000 1.797830 
# 
# From -- ./inp_files/16539.got.cif
#   From: 2010.06.25/outbox.cif.g09.slc.cpg/sg13_9_cif.got.tgz:16539.got - 2010.06.28 04:50:58.
