data_PCOD8117861
_publ_section_title
;
Structure prediction by ZEFSAII (Michael W. Deem and Ramdas Pophale) SiO2 
 PCOD8117861
Probable space group: P 2/C
;
_chemical_formula_sum "Si O2"
_cell_formula_units_Z 26
_cell_length_a 11.614045
_cell_length_b 20.549538
_cell_length_c 9.427436
_cell_angle_alpha 90.000000
_cell_angle_beta 143.748326
_cell_angle_gamma 90.000000
_cell_volume 1330.489433
_symmetry_space_group_name_H-M "P 2/C"
_symmetry_group_IT_number 13
_symmetry_cell_setting 'monoclinic'
loop_
_space_group_symop_operation_xyz
x,y,z
-x,y,1/2-z
-x,-y,-z
x,-y,1/2+z
loop_
_atom_site_type_symbol
_atom_site_label
_atom_site_fract_x
_atom_site_fract_y
_atom_site_fract_z
Si Si1 0.752233 0.439142 0.256811
Si Si2 0.500000 0.414191 0.750000
Si Si3 0.500000 0.762940 0.750000
Si Si4 0.821522 0.584749 0.376141
Si Si5 0.770159 0.955362 0.017996
Si Si6 0.500000 0.073330 0.750000
Si Si7 0.506682 0.119503 0.060824
Si Si8 0.772883 0.353669 0.536588
O O1 0.799535 0.507198 0.378469
O O2 0.677708 0.391290 0.308055
O O3 0.945926 0.404234 0.381181
O O4 0.589353 0.452445 0.974487
O O5 0.309880 0.378268 0.631624
O O6 0.526796 0.806965 0.636436
O O7 0.311888 0.718573 0.540020
O O8 0.730534 0.606007 0.136502
O O9 0.687398 0.913833 0.067721
O O10 0.000000 0.955293 0.250000
O O11 0.693639 0.922710 0.796343
O O12 0.692992 0.029047 0.948686
O O13 0.493570 0.120663 0.878797
O O14 0.000000 0.345354 0.750000
#
# Coordination Sequence:
#
# PCOD8117861 Si02
#       8
#     4   2   2   4   4   2   4   4
#     4  10  21  36  54  80 110 135 166 218 279 333
#     4  12  20  29  51  78 105 131 158 198 262 334
#     4  10  21  39  54  74 105 149 198 226 254 310
#     4  10  21  36  54  80 110 135 166 218 279 333
#     4   9  17  33  58  86 116 150 184 220 268 325
#     4  10  19  34  53  84 118 144 180 228 280 322
#     4   9  21  35  53  81 117 151 184 227 270 313
#     4  10  21  39  61  78 100 141 187 223 266 336
#
# _framework density 19.541679999999999
#
# number of rings (size 3 to 8) (size 9 to 14) (size 15 to 20)
#    0.000    2.462    0.000    4.615    0.000    8.615 
#    0.000    3.077    0.000    0.000    0.000    0.000 
#    0.000    0.000    0.000    0.000    0.000    0.000 
#
# Total GULP energy -322110.216766 kJ/mol
# GULP energy per Si atom -12388.854491 kJ/mol
# Density = 1.949720 g / cm^3
# Si number density = 19.541680 Si / 1000 Ang^3
#
#
#
# Elastic Constant Matrix: (Units=GPa)
#
#
# Indices 1 2 3 4 5 6 
#
# 1 101.9630 22.7161 50.3086 0.0000 -8.8916 0.0000
# 2 22.7161 90.8878 26.5330 0.0000 -10.6837 0.0000
# 3 50.3086 26.5330 113.7895 0.0000 -3.7198 0.0000
# 4 0.0000 0.0000 0.0000 14.9772 0.0000 0.7505
# 5 -8.8916 -10.6837 -3.7198 0.0000 43.1609 0.0000
# 6 0.0000 0.0000 0.0000 0.7505 0.0000 11.6490
#
#
#
# Elastic Compliance Matrix: (Units=1/GPa)
#
#
# Indices 1 2 3 4 5 6 
#
# 1 0.012913 -0.001461 -0.005308 0.000000 0.001841 0.000000
# 2 -0.001461 0.012292 -0.002137 0.000000 0.002558 0.000000
# 3 -0.005308 -0.002137 0.011613 0.000000 -0.000622 0.000000
# 4 0.000000 0.000000 0.000000 0.066984 0.000000 -0.004316
# 5 0.001841 0.002558 -0.000622 0.000000 0.024128 0.000000
# 6 0.000000 0.000000 0.000000 -0.004316 0.000000 0.086122
#
#
# Mechanical properties :
#
#
# Convention : Reuss Voigt Hill
#
# Bulk Modulus (GPa) = 52.61555 56.19509 54.40532
# Shear Modulus (GPa) = 20.99086 27.76293 24.37689
#
# Velocity S-wave (km/s) = 3.28099 3.77331 3.53573
# Velocity P-wave (km/s) = 6.42934 6.91396 6.67605
#
# Compressibility (1/GPa) = 0.01900579
#
# Stress axis : x y z
#
# Youngs Moduli (GPa) = 77.44409 81.35258 86.11190
#
# Poissons Ratio (x) = 0.11888 0.45708
# Poissons Ratio (y) = 0.11317 0.18398
# Poissons Ratio (z) = 0.41107 0.17381
#
# Static dielectric constant tensor:
#      x y z
#    x 3.849500 0.000000 0.068130 
#    y 0.000000 3.153240 0.000000 
#    z 0.068130 0.000000 3.606660 
# 
# 
# High freq. dielectric constant tensor:
#      x y z
#    x 1.774550 0.000000 0.005160 
#    y 0.000000 1.709800 0.000000 
#    z 0.005160 0.000000 1.768880 
# 
# From -- ./inp_files/17331.got.cif
#   From: 2010.06.25/outbox.cif.g09.slc.cpg/sg13_9_cif.got.tgz:17331.got - 2010.06.28 04:50:58.
