data_PCOD8117774
_publ_section_title
;
Structure prediction by ZEFSAII (Michael W. Deem and Ramdas Pophale) SiO2 
 PCOD8117774
Probable space group: P 2/C
;
_chemical_formula_sum "Si O2"
_cell_formula_units_Z 32
_cell_length_a 15.769758
_cell_length_b 12.117744
_cell_length_c 18.139107
_cell_angle_alpha 90.000000
_cell_angle_beta 29.480890
_cell_angle_gamma 90.000000
_cell_volume 1705.867931
_symmetry_space_group_name_H-M "P 2/C"
_symmetry_group_IT_number 13
_symmetry_cell_setting 'monoclinic'
loop_
_space_group_symop_operation_xyz
x,y,z
-x,y,1/2-z
-x,-y,-z
x,-y,1/2+z
loop_
_atom_site_type_symbol
_atom_site_label
_atom_site_fract_x
_atom_site_fract_y
_atom_site_fract_z
Si Si1 0.838372 0.485861 0.417628
Si Si2 0.161628 0.985861 0.582372
Si Si3 0.221726 0.250000 0.991155
Si Si4 0.414278 0.750000 0.204668
Si Si5 0.485262 0.480517 0.596808
Si Si6 0.675089 0.625074 0.663021
Si Si7 0.675089 0.125074 0.163021
Si Si8 0.485262 0.019483 0.596808
O O1 0.881264 0.359521 0.407568
O O2 0.671120 0.491251 0.493227
O O3 0.815967 0.558562 0.508514
O O4 0.000000 0.533656 0.250000
O O5 0.118736 0.859521 0.592432
O O6 0.328880 0.991251 0.506773
O O7 0.000000 0.033656 0.750000
O O8 0.184033 0.058562 0.491486
O O9 0.410441 0.250000 0.882518
O O10 0.248184 0.250000 0.883310
O O11 0.405626 0.641223 0.161992
O O12 0.405626 0.858777 0.161992
O O13 0.500000 0.500000 0.500000
O O14 0.355230 0.566164 0.735161
O O15 0.500000 0.624321 0.750000
O O16 0.739638 0.750000 0.628085
O O17 0.500000 0.124321 0.250000
O O18 0.644771 0.066164 0.264839
O O19 0.500000 0.000000 0.500000
#
# Coordination Sequence:
#
# PCOD8117774 Si02
#       8
#     4   4   4   4   4   4   4   4
#     4  10  19  33  54  77 101 130 166 207 249 294
#     4  10  19  33  54  77 101 130 166 207 249 294
#     4   9  15  30  54  78  98 124 169 207 240 296
#     4   9  16  30  54  76  96 130 168 205 245 288
#     4  10  20  33  53  77 101 130 167 208 247 294
#     4   9  18  33  52  72  98 136 174 202 236 294
#     4   9  18  33  52  72  98 136 174 202 236 294
#     4  10  20  33  53  77 101 130 167 208 247 294
#
# _framework density 18.758780000000002
#
# number of rings (size 3 to 8) (size 9 to 14) (size 15 to 20)
#    0.000    2.500    2.500    0.375    1.750    0.500 
#    0.000    1.250    0.000    0.000    0.000    0.000 
#    0.000    0.000    0.000    0.000    0.000    0.000 
#
# Total GULP energy -396698.504180 kJ/mol
# GULP energy per Si atom -12396.828256 kJ/mol
# Density = 1.871608 g / cm^3
# Si number density = 18.758780 Si / 1000 Ang^3
#
#
#
# Elastic Constant Matrix: (Units=GPa)
#
#
# Indices 1 2 3 4 5 6 
#
# 1 70.6728 46.7726 36.9015 0.0000 43.2981 0.0000
# 2 46.7726 169.9652 61.8172 0.0000 34.1871 0.0000
# 3 36.9015 61.8172 127.7672 0.0000 42.8609 0.0000
# 4 0.0000 0.0000 0.0000 23.7587 0.0000 9.3927
# 5 43.2981 34.1871 42.8609 0.0000 39.3947 0.0000
# 6 0.0000 0.0000 0.0000 9.3927 0.0000 14.0751
#
#
#
# Elastic Compliance Matrix: (Units=1/GPa)
#
#
# Indices 1 2 3 4 5 6 
#
# 1 0.048397 -0.004480 0.007448 0.000000 -0.057407 0.000000
# 2 -0.004480 0.007943 -0.002974 0.000000 0.001266 0.000000
# 3 0.007448 -0.002974 0.014165 0.000000 -0.021015 0.000000
# 4 0.000000 0.000000 0.000000 0.057173 0.000000 -0.038153
# 5 -0.057407 0.001266 -0.021015 0.000000 0.110244 0.000000
# 6 0.000000 0.000000 0.000000 -0.038153 0.000000 0.096508
#
#
# Mechanical properties :
#
#
# Convention : Reuss Voigt Hill
#
# Bulk Modulus (GPa) = 14.18615 73.26532 43.72574
# Shear Modulus (GPa) = 13.96879 30.30663 22.13771
#
# Velocity S-wave (km/s) = 2.73179 4.02381 3.43902
# Velocity P-wave (km/s) = 4.18678 7.79291 6.25534
#
# Compressibility (1/GPa) = 0.07049129
#
# Stress axis : x y z
#
# Youngs Moduli (GPa) = 20.66256 125.89064 70.59895
#
# Poissons Ratio (x) = 0.56399 -0.52579
# Poissons Ratio (y) = 0.09257 0.20997
# Poissons Ratio (z) = -0.15388 0.37442
#
# Static dielectric constant tensor:
#      x y z
#    x 2.991690 0.000000 0.323990 
#    y 0.000000 3.818680 0.000000 
#    z 0.323990 0.000000 3.347080 
# 
# 
# High freq. dielectric constant tensor:
#      x y z
#    x 1.684870 0.000000 0.036260 
#    y 0.000000 1.741900 0.000000 
#    z 0.036260 0.000000 1.723340 
# 
# From -- ./inp_files/64281.got.cif
#   From: 2010.06.25/outbox.cif.g09.slc.cpg/sg13_33_cif.got.tgz:64281.got - 2010.06.28 04:50:58.
