data_PCOD8117235
_publ_section_title
;
Structure prediction by ZEFSAII (Michael W. Deem and Ramdas Pophale) SiO2 
 PCOD8117235
Probable space group: P 2/C
;
_chemical_formula_sum "Si O2"
_cell_formula_units_Z 20
_cell_length_a 8.899710
_cell_length_b 10.745749
_cell_length_c 20.058249
_cell_angle_alpha 90.000000
_cell_angle_beta 141.937436
_cell_angle_gamma 90.000000
_cell_volume 1182.643488
_symmetry_space_group_name_H-M "P 2/C"
_symmetry_group_IT_number 13
_symmetry_cell_setting 'monoclinic'
loop_
_space_group_symop_operation_xyz
x,y,z
-x,y,1/2-z
-x,-y,-z
x,-y,1/2+z
loop_
_atom_site_type_symbol
_atom_site_label
_atom_site_fract_x
_atom_site_fract_y
_atom_site_fract_z
Si Si1 0.500000 0.096076 0.250000
Si Si2 0.574235 0.641801 0.022107
Si Si3 0.220053 0.162526 0.371480
Si Si4 0.343113 0.815614 0.560262
Si Si5 0.053705 0.948451 0.151899
Si Si6 0.000000 0.237482 0.750000
O O1 0.613529 0.188124 0.345280
O O2 0.302153 0.004796 0.212185
O O3 0.785630 0.673519 0.148585
O O4 0.500000 0.500000 0.000000
O O5 0.334089 0.724996 0.955413
O O6 0.659240 0.678298 0.975769
O O7 0.432043 0.108770 0.396203
O O8 0.000000 0.216614 0.250000
O O9 0.129551 0.053746 0.386790
O O10 0.085371 0.882091 0.457619
O O11 0.106951 0.850029 0.229142
#
# Coordination Sequence:
#
# PCOD8117235 Si02
#       6
#     2   4   4   4   4   2
#     4  12  20  32  52  78 120 146 172 216 284 352
#     4   9  21  35  58  84 103 144 191 233 269 313
#     4  10  18  33  56  80 108 137 186 230 277 318
#     4   9  21  32  51  80 106 144 178 226 272 327
#     4  11  19  33  51  85 110 143 176 229 285 329
#     4  10  20  36  58  80 116 134 188 238 276 324
#
# _framework density 16.911268
#
# number of rings (size 3 to 8) (size 9 to 14) (size 15 to 20)
#    1.200    0.800    3.000    1.200    4.200    0.000 
#    0.000    0.000    0.000    2.400    0.000    0.000 
#    0.000    0.000    0.000    0.000    0.000    0.000 
#
# Total GULP energy -247773.566293 kJ/mol
# GULP energy per Si atom -12388.678315 kJ/mol
# Density = 1.687278 g / cm^3
# Si number density = 16.911268 Si / 1000 Ang^3
#
#
#
# Elastic Constant Matrix: (Units=GPa)
#
#
# Indices 1 2 3 4 5 6 
#
# 1 54.3652 27.1787 33.4843 0.0000 -10.5863 0.0000
# 2 27.1787 117.1523 63.2919 0.0000 -8.8125 0.0000
# 3 33.4843 63.2919 151.8315 0.0000 -12.8747 0.0000
# 4 0.0000 0.0000 0.0000 21.8995 0.0000 5.8703
# 5 -10.5863 -8.8125 -12.8747 0.0000 28.3869 0.0000
# 6 0.0000 0.0000 0.0000 5.8703 0.0000 13.2003
#
#
#
# Elastic Compliance Matrix: (Units=1/GPa)
#
#
# Indices 1 2 3 4 5 6 
#
# 1 0.023190 -0.003143 -0.003280 0.000000 0.006185 0.000000
# 2 -0.003143 0.011496 -0.004052 0.000000 0.000559 0.000000
# 3 -0.003280 -0.004052 0.009140 0.000000 0.001664 0.000000
# 4 0.000000 0.000000 0.000000 0.051843 0.000000 -0.023055
# 5 0.006185 0.000559 0.001664 0.000000 0.038463 0.000000
# 6 0.000000 0.000000 0.000000 -0.023055 0.000000 0.086009
#
#
# Mechanical properties :
#
#
# Convention : Reuss Voigt Hill
#
# Bulk Modulus (GPa) = 43.71181 63.47320 53.59251
# Shear Modulus (GPa) = 20.10343 25.99026 23.04685
#
# Velocity S-wave (km/s) = 3.45158 3.92453 3.69563
# Velocity P-wave (km/s) = 6.46439 7.62565 7.06891
#
# Compressibility (1/GPa) = 0.02287711
#
# Stress axis : x y z
#
# Youngs Moduli (GPa) = 43.12277 86.98674 109.41391
#
# Poissons Ratio (x) = 0.27338 0.35883
# Poissons Ratio (y) = 0.13553 0.44331
# Poissons Ratio (z) = 0.14142 0.35244
#
# Static dielectric constant tensor:
#      x y z
#    x 3.001950 0.000000 0.030370 
#    y 0.000000 2.829180 0.000000 
#    z 0.030370 0.000000 3.466040 
# 
# 
# High freq. dielectric constant tensor:
#      x y z
#    x 1.627490 0.000000 0.008530 
#    y 0.000000 1.618640 0.000000 
#    z 0.008530 0.000000 1.678640 
# 
# From -- ./inp_files/64376.got.cif
#   From: 2010.06.25/outbox.cif.g09.slc.cpg/sg13_33_cif.got.tgz:64376.got - 2010.06.28 04:50:58.
