data_PCOD8117349
_publ_section_title
;
Structure prediction by ZEFSAII (Michael W. Deem and Ramdas Pophale) SiO2 
 PCOD8117349
Probable space group: P 2/C
;
_chemical_formula_sum "Si O2"
_cell_formula_units_Z 30
_cell_length_a 13.574153
_cell_length_b 6.462746
_cell_length_c 18.385868
_cell_angle_alpha 90.000000
_cell_angle_beta 69.806103
_cell_angle_gamma 90.000000
_cell_volume 1513.777449
_symmetry_space_group_name_H-M "P 2/C"
_symmetry_group_IT_number 13
_symmetry_cell_setting 'monoclinic'
loop_
_space_group_symop_operation_xyz
x,y,z
-x,y,1/2-z
-x,-y,-z
x,-y,1/2+z
loop_
_atom_site_type_symbol
_atom_site_label
_atom_site_fract_x
_atom_site_fract_y
_atom_site_fract_z
Si Si1 0.144280 0.613714 0.691666
Si Si2 0.121020 0.651239 0.054394
Si Si3 0.239701 0.376462 0.913724
Si Si4 0.000000 0.975212 0.750000
Si Si5 0.360521 0.655173 0.585861
Si Si6 0.279119 0.997093 0.504507
Si Si7 0.405276 0.622896 0.937471
Si Si8 0.089946 0.685098 0.330190
O O1 0.136928 0.486661 0.620538
O O2 0.270513 0.628647 0.670217
O O3 0.086809 0.507265 0.774852
O O4 0.090320 0.834545 0.690635
O O5 0.995114 0.676064 0.082708
O O6 0.162829 0.545833 0.970492
O O7 0.178707 0.869313 0.055734
O O8 0.356701 0.480041 0.884975
O O9 0.203054 0.323055 0.841042
O O10 0.235512 0.163174 0.957437
O O11 0.935268 0.107758 0.707818
O O12 0.469985 0.637197 0.600480
O O13 0.360943 0.476674 0.523975
O O14 0.339112 0.878942 0.554601
O O15 0.363960 0.143664 0.443842
#
# Coordination Sequence:
#
# PCOD8117349 Si02
#       8
#     4   4   4   2   4   4   4   4
#     4  12  22  40  60  87 120 151 196 243 292 352
#     4  11  20  40  60  86 120 150 197 243 289 344
#     4  10  23  38  59  87 121 154 193 240 299 347
#     4  12  24  38  60  82 124 158 202 238 294 360
#     4  10  19  34  61  91 111 154 192 244 292 338
#     4  10  18  34  60  88 120 142 196 248 287 344
#     4   9  19  36  60  86 120 145 194 245 294 338
#     4  12  25  39  57  86 121 161 191 239 292 358
#
# _framework density 19.817974
#
# number of rings (size 3 to 8) (size 9 to 14) (size 15 to 20)
#    0.000    1.333    6.667    1.600    0.000    2.667 
#    0.000    0.667    0.000    0.000    0.000    0.000 
#    0.000    0.000    0.000    0.000    0.000    0.000 
#
# Total GULP energy -371754.844539 kJ/mol
# GULP energy per Si atom -12391.828151 kJ/mol
# Density = 1.977287 g / cm^3
# Si number density = 19.817974 Si / 1000 Ang^3
#
#
#
# Elastic Constant Matrix: (Units=GPa)
#
#
# Indices 1 2 3 4 5 6 
#
# 1 139.6120 50.0813 35.9034 0.0000 5.8942 0.0000
# 2 50.0813 122.4337 28.2109 0.0000 5.1192 0.0000
# 3 35.9034 28.2109 43.1109 0.0000 4.6763 0.0000
# 4 0.0000 0.0000 0.0000 15.5332 0.0000 -6.3170
# 5 5.8942 5.1192 4.6763 0.0000 35.8148 0.0000
# 6 0.0000 0.0000 0.0000 -6.3170 0.0000 27.2178
#
#
#
# Elastic Compliance Matrix: (Units=1/GPa)
#
#
# Indices 1 2 3 4 5 6 
#
# 1 0.009723 -0.002478 -0.006432 0.000000 -0.000406 0.000000
# 2 -0.002478 0.010261 -0.004601 0.000000 -0.000458 0.000000
# 3 -0.006432 -0.004601 0.031828 0.000000 -0.002440 0.000000
# 4 0.000000 0.000000 0.000000 0.071088 0.000000 0.016499
# 5 -0.000406 -0.000458 -0.002440 0.000000 0.028372 0.000000
# 6 0.000000 0.000000 0.000000 0.016499 0.000000 0.040570
#
#
# Mechanical properties :
#
#
# Convention : Reuss Voigt Hill
#
# Bulk Modulus (GPa) = 40.33896 59.28309 49.81102
# Shear Modulus (GPa) = 22.01427 28.44390 25.22909
#
# Velocity S-wave (km/s) = 3.33652 3.79259 3.57184
# Velocity P-wave (km/s) = 5.93650 7.01121 6.49612
#
# Compressibility (1/GPa) = 0.02478993
#
# Stress axis : x y z
#
# Youngs Moduli (GPa) = 102.85106 97.45978 31.41924
#
# Poissons Ratio (x) = 0.24152 0.20208
# Poissons Ratio (y) = 0.25488 0.14455
# Poissons Ratio (z) = 0.66149 0.44840
#
# Static dielectric constant tensor:
#      x y z
#    x 4.167840 0.000000 -0.415380 
#    y 0.000000 3.781910 0.000000 
#    z -0.415380 0.000000 3.435170 
# 
# 
# High freq. dielectric constant tensor:
#      x y z
#    x 1.783330 0.000000 -0.010870 
#    y 0.000000 1.785250 0.000000 
#    z -0.010870 0.000000 1.728070 
# 
# From -- ./inp_files/67549.got.cif
#   From: 2010.06.25/outbox.cif.g09.slc.cpg/sg13_34_cif.got.tgz:67549.got - 2010.06.28 04:50:58.
