data_PCOD8117042
_publ_section_title
;
Structure prediction by ZEFSAII (Michael W. Deem and Ramdas Pophale) SiO2 
 PCOD8117042
Probable space group: P 2/C
;
_chemical_formula_sum "Si O2"
_cell_formula_units_Z 28
_cell_length_a 5.037725
_cell_length_b 18.160341
_cell_length_c 18.467925
_cell_angle_alpha 90.000000
_cell_angle_beta 120.349959
_cell_angle_gamma 90.000000
_cell_volume 1458.024622
_symmetry_space_group_name_H-M "P 2/C"
_symmetry_group_IT_number 13
_symmetry_cell_setting 'monoclinic'
loop_
_space_group_symop_operation_xyz
x,y,z
-x,y,1/2-z
-x,-y,-z
x,-y,1/2+z
loop_
_atom_site_type_symbol
_atom_site_label
_atom_site_fract_x
_atom_site_fract_y
_atom_site_fract_z
Si Si1 0.140993 0.385298 0.690991
Si Si2 0.139533 0.703590 0.691034
Si Si3 0.793244 0.933223 0.445133
Si Si4 0.145176 0.544344 0.693098
Si Si5 0.744657 0.256927 0.573834
Si Si6 0.116937 0.102210 0.846129
Si Si7 0.928567 0.221938 0.022723
O O1 0.500000 0.364450 0.750000
O O2 0.095030 0.465971 0.644738
O O3 0.000000 0.386275 0.750000
O O4 0.954853 0.326866 0.618968
O O5 0.500000 0.706810 0.750000
O O6 0.021521 0.622474 0.644328
O O7 0.000000 0.721745 0.750000
O O8 0.040843 0.764459 0.619591
O O9 0.426807 0.945985 0.401596
O O10 0.864684 0.864516 0.506887
O O11 0.863227 0.919687 0.370247
O O12 0.000000 0.000000 0.500000
O O13 0.500000 0.558364 0.750000
O O14 0.000000 0.531287 0.750000
O O15 0.830847 0.189678 0.638614
O O16 0.380611 0.270293 0.534412
O O17 0.804929 0.241035 0.497600
O O18 0.000000 0.084840 0.750000
#
# Coordination Sequence:
#
# PCOD8117042 Si02
#       7
#     4   4   4   4   4   4   4
#     4  10  18  30  49  74 104 139 177 212 251 305
#     4  10  19  35  56  74  97 134 180 224 259 305
#     4  10  21  38  57  77 110 143 167 208 268 315
#     4   8  16  29  47  70  97 133 174 214 258 302
#     4  10  20  33  51  77 109 136 164 210 261 308
#     4  10  20  35  57  82 106 139 178 208 245 309
#     4  10  21  36  53  76 103 134 170 210 266 320
#
# _framework density 19.204066000000001
#
# number of rings (size 3 to 8) (size 9 to 14) (size 15 to 20)
#    0.000    2.286    0.000    3.000    0.000    2.286 
#    0.000    3.571    0.000    0.000    0.000    0.000 
#    0.000    0.000    0.000    0.000    0.000    0.000 
#
# Total GULP energy -346880.099817 kJ/mol
# GULP energy per Si atom -12388.574993 kJ/mol
# Density = 1.916036 g / cm^3
# Si number density = 19.204066 Si / 1000 Ang^3
#
#
#
# Elastic Constant Matrix: (Units=GPa)
#
#
# Indices 1 2 3 4 5 6 
#
# 1 109.5862 22.8513 21.2183 0.0000 2.5136 0.0000
# 2 22.8513 90.0079 53.2849 0.0000 7.1789 0.0000
# 3 21.2183 53.2849 87.4345 0.0000 0.0386 0.0000
# 4 0.0000 0.0000 0.0000 19.2171 0.0000 3.0446
# 5 2.5136 7.1789 0.0386 0.0000 19.7869 0.0000
# 6 0.0000 0.0000 0.0000 3.0446 0.0000 25.4452
#
#
#
# Elastic Compliance Matrix: (Units=1/GPa)
#
#
# Indices 1 2 3 4 5 6 
#
# 1 0.009743 -0.001598 -0.001390 0.000000 -0.000655 0.000000
# 2 -0.001598 0.018462 -0.010860 0.000000 -0.006474 0.000000
# 3 -0.001390 -0.010860 0.018391 0.000000 0.004081 0.000000
# 4 0.000000 0.000000 0.000000 0.053043 0.000000 -0.006347
# 5 -0.000655 -0.006474 0.004081 0.000000 0.052963 0.000000
# 6 0.000000 0.000000 0.000000 -0.006347 0.000000 0.040060
#
#
# Mechanical properties :
#
#
# Convention : Reuss Voigt Hill
#
# Bulk Modulus (GPa) = 52.91479 53.52640 53.22059
# Shear Modulus (GPa) = 22.05981 25.53478 23.79730
#
# Velocity S-wave (km/s) = 3.39293 3.65040 3.52402
# Velocity P-wave (km/s) = 6.55462 6.76019 6.65820
#
# Compressibility (1/GPa) = 0.01889831
#
# Stress axis : x y z
#
# Youngs Moduli (GPa) = 102.64114 54.16659 54.37399
#
# Poissons Ratio (x) = 0.08658 0.07558
# Poissons Ratio (y) = 0.16406 0.59051
# Poissons Ratio (z) = 0.14266 0.58826
#
# Static dielectric constant tensor:
#      x y z
#    x 3.824780 0.000000 -0.032330 
#    y 0.000000 3.822530 0.000000 
#    z -0.032330 0.000000 3.048990 
# 
# 
# High freq. dielectric constant tensor:
#      x y z
#    x 1.776600 0.000000 -0.005150 
#    y 0.000000 1.743360 0.000000 
#    z -0.005150 0.000000 1.708200 
# 
# From -- ./inp_files/61679.got.cif
#   From: 2010.06.25/outbox.cif.g09.slc.cpg/sg13_31_cif.got.tgz:61679.got - 2010.06.28 04:50:58.
