data_PCOD8117372
_publ_section_title
;
Structure prediction by ZEFSAII (Michael W. Deem and Ramdas Pophale) SiO2 
 PCOD8117372
Probable space group: P 2/C
;
_chemical_formula_sum "Si O2"
_cell_formula_units_Z 24
_cell_length_a 11.952328
_cell_length_b 10.957242
_cell_length_c 20.657512
_cell_angle_alpha 90.000000
_cell_angle_beta 24.623902
_cell_angle_gamma 90.000000
_cell_volume 1127.232866
_symmetry_space_group_name_H-M "P 2/C"
_symmetry_group_IT_number 13
_symmetry_cell_setting 'monoclinic'
loop_
_space_group_symop_operation_xyz
x,y,z
-x,y,1/2-z
-x,-y,-z
x,-y,1/2+z
loop_
_atom_site_type_symbol
_atom_site_label
_atom_site_fract_x
_atom_site_fract_y
_atom_site_fract_z
Si Si1 0.307540 0.639235 0.001926
Si Si2 0.183729 0.051715 0.212363
Si Si3 0.764874 0.632506 0.925067
Si Si4 0.664559 0.191888 0.906567
Si Si5 0.192459 0.607744 0.920826
Si Si6 0.122639 0.743462 0.835427
O O1 0.165876 0.732101 0.127665
O O2 0.139873 0.642040 0.023302
O O3 0.613978 0.680452 0.833192
O O4 0.320836 0.507538 0.028059
O O5 0.484339 0.097261 0.042318
O O6 0.092618 0.115131 0.328307
O O7 0.000000 0.101354 0.250000
O O8 0.159740 0.903033 0.229753
O O9 0.501897 0.712420 0.048318
O O10 0.000000 0.657525 0.750000
O O11 0.867825 0.669283 0.942138
O O12 0.500000 0.564289 0.750000
O O13 0.132197 0.727742 0.908287
O O14 0.000000 0.500000 0.000000
#
# Coordination Sequence:
#
# PCOD8117372 Si02
#       6
#     4   4   4   4   4   4
#     4  10  21  34  53  87 120 150 189 240 297 366
#     4  10  18  35  53  77 108 147 194 236 285 338
#     4  12  19  33  55  82 123 150 186 239 313 354
#     4  10  20  32  52  82 109 148 192 236 285 345
#     4  10  20  36  59  88 120 163 196 237 293 366
#     4  10  19  36  57  81 113 159 191 237 296 357
#
# _framework density 21.291074999999999
#
# number of rings (size 3 to 8) (size 9 to 14) (size 15 to 20)
#    0.000    1.667    6.667    0.500    0.000    0.667 
#    0.000    0.000    0.000    1.000    8.667    0.000 
#    0.000    0.000    0.000    0.000    0.000    0.000 
#
# Total GULP energy -297407.739579 kJ/mol
# GULP energy per Si atom -12391.989149 kJ/mol
# Density = 2.124262 g / cm^3
# Si number density = 21.291075 Si / 1000 Ang^3
#
#
#
# Elastic Constant Matrix: (Units=GPa)
#
#
# Indices 1 2 3 4 5 6 
#
# 1 163.7374 86.5442 36.6867 0.0000 -14.3401 0.0000
# 2 86.5442 184.2794 26.8591 0.0000 2.7776 0.0000
# 3 36.6867 26.8591 34.5599 0.0000 -3.9023 0.0000
# 4 0.0000 0.0000 0.0000 26.7047 0.0000 -2.5096
# 5 -14.3401 2.7776 -3.9023 0.0000 18.7598 0.0000
# 6 0.0000 0.0000 0.0000 -2.5096 0.0000 28.0694
#
#
#
# Elastic Compliance Matrix: (Units=1/GPa)
#
#
# Indices 1 2 3 4 5 6 
#
# 1 0.010429 -0.003955 -0.007200 0.000000 0.007060 0.000000
# 2 -0.003955 0.007689 -0.002302 0.000000 -0.004640 0.000000
# 3 -0.007200 -0.002302 0.038693 0.000000 0.002886 0.000000
# 4 0.000000 0.000000 0.000000 0.037764 0.000000 0.003376
# 5 0.007060 -0.004640 0.002886 0.000000 0.059990 0.000000
# 6 0.000000 0.000000 0.000000 0.003376 0.000000 0.035928
#
#
# Mechanical properties :
#
#
# Convention : Reuss Voigt Hill
#
# Bulk Modulus (GPa) = 33.44682 75.86187 54.65435
# Shear Modulus (GPa) = 21.99031 30.20589 26.09810
#
# Velocity S-wave (km/s) = 3.21727 3.77066 3.50491
# Velocity P-wave (km/s) = 5.43549 7.39361 6.48883
#
# Compressibility (1/GPa) = 0.02989821
#
# Stress axis : x y z
#
# Youngs Moduli (GPa) = 95.88334 130.05025 25.84435
#
# Poissons Ratio (x) = 0.51434 0.18609
# Poissons Ratio (y) = 0.37921 0.05948
# Poissons Ratio (z) = 0.69039 0.29932
#
# Static dielectric constant tensor:
#      x y z
#    x 4.212540 0.000000 -0.035380 
#    y 0.000000 4.179680 0.000000 
#    z -0.035380 0.000000 3.761840 
# 
# 
# High freq. dielectric constant tensor:
#      x y z
#    x 1.831090 0.000000 -0.028270 
#    y 0.000000 1.839840 0.000000 
#    z -0.028270 0.000000 1.813060 
# 
# From -- ./inp_files/86270.got.cif
#   From: 2010.06.25/outbox.cif.g09.slc.cpg/sg13_44_cif.got.tgz:86270.got - 2010.06.28 04:50:58.
