data_PCOD8117822
_publ_section_title
;
Structure prediction by ZEFSAII (Michael W. Deem and Ramdas Pophale) SiO2 
 PCOD8117822
Probable space group: P 2/C
;
_chemical_formula_sum "Si O2"
_cell_formula_units_Z 32
_cell_length_a 9.678116
_cell_length_b 14.194673
_cell_length_c 27.041371
_cell_angle_alpha 90.000000
_cell_angle_beta 153.120843
_cell_angle_gamma 90.000000
_cell_volume 1679.535883
_symmetry_space_group_name_H-M "P 2/C"
_symmetry_group_IT_number 13
_symmetry_cell_setting 'monoclinic'
loop_
_space_group_symop_operation_xyz
x,y,z
-x,y,1/2-z
-x,-y,-z
x,-y,1/2+z
loop_
_atom_site_type_symbol
_atom_site_label
_atom_site_fract_x
_atom_site_fract_y
_atom_site_fract_z
Si Si1 0.251290 0.416294 0.371910
Si Si2 0.775145 0.737406 0.041024
Si Si3 0.802781 0.410686 0.871704
Si Si4 0.126537 0.161609 0.736391
Si Si5 0.546264 0.984200 0.320331
Si Si6 0.129802 0.141908 0.019981
Si Si7 0.279428 0.713125 0.063183
Si Si8 0.238600 0.560794 0.976851
O O1 0.477491 0.327592 0.450844
O O2 0.427375 0.512554 0.415026
O O3 0.098163 0.434368 0.376583
O O4 0.000000 0.394317 0.250000
O O5 0.067685 0.675334 0.119674
O O6 0.854228 0.791304 0.117336
O O7 0.713826 0.812710 0.978144
O O8 0.500000 0.449118 0.750000
O O9 0.730862 0.375206 0.903314
O O10 0.027709 0.499097 0.945476
O O11 0.249034 0.067639 0.748071
O O12 0.403356 0.233619 0.830011
O O13 0.000000 0.133979 0.750000
O O14 0.500000 0.019562 0.250000
O O15 0.832630 0.915070 0.408896
O O16 0.613287 0.076051 0.374294
O O17 0.015064 0.220260 0.022552
O O18 0.261547 0.667881 0.003146
#
# Coordination Sequence:
#
# PCOD8117822 Si02
#       8
#     4   4   4   4   4   4   4   4
#     4  10  23  39  55  78 121 168 194 234 297 342
#     4  10  19  38  59  84 117 153 194 237 286 351
#     4  10  19  33  57  87 111 152 192 240 290 331
#     4  11  21  34  63  92 115 146 195 245 295 352
#     4  10  19  38  63  87 118 148 185 243 302 357
#     4   9  20  36  62  88 109 151 195 237 295 358
#     4  10  20  35  58  85 120 145 195 249 285 341
#     4  10  22  37  56  82 117 156 203 241 282 346
#
# _framework density 19.052883999999999
#
# number of rings (size 3 to 8) (size 9 to 14) (size 15 to 20)
#    0.000    2.000    2.500    1.125    1.750    1.500 
#    2.250    1.250    0.000    0.000    0.000    0.000 
#    0.000    0.000    0.000    0.000    0.000    0.000 
#
# Total GULP energy -396788.607651 kJ/mol
# GULP energy per Si atom -12399.643989 kJ/mol
# Density = 1.900952 g / cm^3
# Si number density = 19.052884 Si / 1000 Ang^3
#
#
#
# Elastic Constant Matrix: (Units=GPa)
#
#
# Indices 1 2 3 4 5 6 
#
# 1 91.3909 30.6716 30.1842 0.0000 -8.8157 0.0000
# 2 30.6716 85.8172 29.7438 0.0000 -10.0518 0.0000
# 3 30.1842 29.7438 82.6150 0.0000 -13.1321 0.0000
# 4 0.0000 0.0000 0.0000 25.0311 0.0000 -3.7170
# 5 -8.8157 -10.0518 -13.1321 0.0000 19.0836 0.0000
# 6 0.0000 0.0000 0.0000 -3.7170 0.0000 24.5383
#
#
#
# Elastic Compliance Matrix: (Units=1/GPa)
#
#
# Indices 1 2 3 4 5 6 
#
# 1 0.013382 -0.003379 -0.003338 0.000000 0.002105 0.000000
# 2 -0.003379 0.014470 -0.003381 0.000000 0.003734 0.000000
# 3 -0.003338 -0.003381 0.015734 0.000000 0.007504 0.000000
# 4 0.000000 0.000000 0.000000 0.040870 0.000000 0.006191
# 5 0.002105 0.003734 0.007504 0.000000 0.060504 0.000000
# 6 0.000000 0.000000 0.000000 0.006191 0.000000 0.041690
#
#
# Mechanical properties :
#
#
# Convention : Reuss Voigt Hill
#
# Bulk Modulus (GPa) = 42.75632 49.00247 45.87939
# Shear Modulus (GPa) = 23.29456 25.01218 24.15337
#
# Velocity S-wave (km/s) = 3.50040 3.62716 3.56434
# Velocity P-wave (km/s) = 6.23110 6.58154 6.40872
#
# Compressibility (1/GPa) = 0.02338836
#
# Stress axis : x y z
#
# Youngs Moduli (GPa) = 74.72969 69.10979 63.55614
#
# Poissons Ratio (x) = 0.23354 0.21214
# Poissons Ratio (y) = 0.25253 0.21491
# Poissons Ratio (z) = 0.24944 0.23369
#
# Static dielectric constant tensor:
#      x y z
#    x 3.511110 0.000000 -0.064640 
#    y 0.000000 3.469460 0.000000 
#    z -0.064640 0.000000 3.217170 
# 
# 
# High freq. dielectric constant tensor:
#      x y z
#    x 1.744870 0.000000 -0.010790 
#    y 0.000000 1.736350 0.000000 
#    z -0.010790 0.000000 1.721890 
# 
# From -- ./inp_files/39460.got.cif
#   From: 2010.06.25/outbox.cif.g09.slc.cpg/sg13_20_cif.got.tgz:39460.got - 2010.06.28 04:50:58.
