data_PCOD8117642
_publ_section_title
;
Structure prediction by ZEFSAII (Michael W. Deem and Ramdas Pophale) SiO2 
 PCOD8117642
Probable space group: P 2/C
;
_chemical_formula_sum "Si O2"
_cell_formula_units_Z 24
_cell_length_a 13.626334
_cell_length_b 5.012477
_cell_length_c 28.905065
_cell_angle_alpha 90.000000
_cell_angle_beta 141.135570
_cell_angle_gamma 90.000000
_cell_volume 1238.811184
_symmetry_space_group_name_H-M "P 2/C"
_symmetry_group_IT_number 13
_symmetry_cell_setting 'monoclinic'
loop_
_space_group_symop_operation_xyz
x,y,z
-x,y,1/2-z
-x,-y,-z
x,-y,1/2+z
loop_
_atom_site_type_symbol
_atom_site_label
_atom_site_fract_x
_atom_site_fract_y
_atom_site_fract_z
Si Si1 0.135382 0.348581 0.022275
Si Si2 0.463988 0.345933 0.183314
Si Si3 0.198899 0.141966 0.491299
Si Si4 0.699502 0.738874 0.565322
Si Si5 0.635217 0.257485 0.596613
Si Si6 0.528613 0.865210 0.151462
O O1 0.279016 0.284259 0.109297
O O2 0.184563 0.553421 0.000959
O O3 0.085476 0.071639 0.976901
O O4 0.000000 0.500000 0.000000
O O5 0.500000 0.326101 0.250000
O O6 0.501928 0.639687 0.179632
O O7 0.573841 0.132619 0.196352
O O8 0.173084 0.159190 0.426022
O O9 0.373853 0.044034 0.566653
O O10 0.748035 0.479181 0.613892
O O11 0.543362 0.660613 0.479772
O O12 0.674783 0.968673 0.592792
O O13 0.655590 0.235593 0.660049
#
# Coordination Sequence:
#
# PCOD8117642 Si02
#       6
#     4   4   4   4   4   4
#     4  10  19  31  46  64  89 120 152 187 225 266
#     4  10  19  31  46  64  89 120 152 187 225 266
#     4   9  17  28  42  62  89 119 148 181 224 267
#     4   9  15  23  37  58  85 115 143 172 213 266
#     4   9  15  23  37  58  85 115 143 172 213 266
#     4   9  17  28  42  62  89 119 148 181 224 267
#
# _framework density 19.373414
#
# number of rings (size 3 to 8) (size 9 to 14) (size 15 to 20)
#    0.000    2.667    0.000    3.000    0.000    8.000 
#    0.000    0.000    0.000    0.000    0.000    0.000 
#    0.000   20.000    0.000    0.000    0.000    0.000 
#
# Total GULP energy -297316.070003 kJ/mol
# GULP energy per Si atom -12388.169583 kJ/mol
# Density = 1.932932 g / cm^3
# Si number density = 19.373414 Si / 1000 Ang^3
#
#
#
# Elastic Constant Matrix: (Units=GPa)
#
#
# Indices 1 2 3 4 5 6 
#
# 1 91.6014 30.6190 43.9077 0.0000 -37.9685 0.0000
# 2 30.6190 114.4139 27.0248 0.0000 -18.5951 0.0000
# 3 43.9077 27.0248 46.4223 0.0000 -26.3132 0.0000
# 4 0.0000 0.0000 0.0000 14.7561 0.0000 -10.7175
# 5 -37.9685 -18.5951 -26.3132 0.0000 29.6851 0.0000
# 6 0.0000 0.0000 0.0000 -10.7175 0.0000 39.2647
#
#
#
# Elastic Compliance Matrix: (Units=1/GPa)
#
#
# Indices 1 2 3 4 5 6 
#
# 1 0.026014 -0.000573 -0.011285 0.000000 0.022912 0.000000
# 2 -0.000573 0.010221 -0.004411 0.000000 0.001761 0.000000
# 3 -0.011285 -0.004411 0.050316 0.000000 0.027403 0.000000
# 4 0.000000 0.000000 0.000000 0.084526 0.000000 0.023072
# 5 0.022912 0.001761 0.027403 0.000000 0.088385 0.000000
# 6 0.000000 0.000000 0.000000 0.023072 0.000000 0.031766
#
#
# Mechanical properties :
#
#
# Convention : Reuss Voigt Hill
#
# Bulk Modulus (GPa) = 18.51362 50.61564 34.56463
# Shear Modulus (GPa) = 14.62972 26.80025 20.71499
#
# Velocity S-wave (km/s) = 2.75097 3.72338 3.27348
# Velocity P-wave (km/s) = 4.43479 6.68340 5.67165
#
# Compressibility (1/GPa) = 0.05401429
#
# Stress axis : x y z
#
# Youngs Moduli (GPa) = 38.44018 97.83360 19.87454
#
# Poissons Ratio (x) = 0.05602 0.22429
# Poissons Ratio (y) = 0.02201 0.08766
# Poissons Ratio (z) = 0.43380 0.43154
#
# Static dielectric constant tensor:
#      x y z
#    x 3.568940 0.000000 -0.418310 
#    y 0.000000 3.836700 0.000000 
#    z -0.418310 0.000000 3.003530 
# 
# 
# High freq. dielectric constant tensor:
#      x y z
#    x 1.744680 0.000000 -0.056910 
#    y 0.000000 1.779420 0.000000 
#    z -0.056910 0.000000 1.676540 
# 
# From -- ./inp_files/85534.got.cif
#   From: 2010.06.25/outbox.cif.g09.slc.cpg/sg13_43_cif.got.tgz:85534.got - 2010.06.28 04:50:58.
