data_PCOD8117798
_publ_section_title
;
Structure prediction by ZEFSAII (Michael W. Deem and Ramdas Pophale) SiO2 
 PCOD8117798
Probable space group: P 2/C
;
_chemical_formula_sum "Si O2"
_cell_formula_units_Z 32
_cell_length_a 14.810115
_cell_length_b 14.221252
_cell_length_c 12.238244
_cell_angle_alpha 90.000000
_cell_angle_beta 139.244541
_cell_angle_gamma 90.000000
_cell_volume 1682.738988
_symmetry_space_group_name_H-M "P 2/C"
_symmetry_group_IT_number 13
_symmetry_cell_setting 'monoclinic'
loop_
_space_group_symop_operation_xyz
x,y,z
-x,y,1/2-z
-x,-y,-z
x,-y,1/2+z
loop_
_atom_site_type_symbol
_atom_site_label
_atom_site_fract_x
_atom_site_fract_y
_atom_site_fract_z
Si Si1 0.159841 0.610994 0.708430
Si Si2 0.803765 0.763236 0.285245
Si Si3 0.657661 0.381735 0.930862
Si Si4 0.152102 0.150986 0.884975
Si Si5 0.344079 0.178171 0.640005
Si Si6 0.119641 0.184624 0.094820
Si Si7 0.140492 0.936836 0.824389
Si Si8 0.136297 0.573002 0.051885
O O1 0.182032 0.712864 0.675886
O O2 0.134316 0.531703 0.595702
O O3 0.010936 0.607387 0.634935
O O4 0.297181 0.587550 0.905694
O O5 0.757790 0.784211 0.116594
O O6 0.688235 0.808604 0.260306
O O7 0.813635 0.651065 0.313549
O O8 0.952759 0.813324 0.438068
O O9 0.500000 0.398813 0.750000
O O10 0.703006 0.273317 0.963389
O O11 0.752131 0.442178 0.939136
O O12 0.000000 0.197004 0.750000
O O13 0.144241 0.048925 0.821085
O O14 0.197440 0.150756 0.053909
O O15 0.500000 0.156951 0.750000
O O16 0.261436 0.091084 0.517321
O O17 0.162507 0.108646 0.225554
O O18 0.000000 0.899054 0.750000
#
# Coordination Sequence:
#
# PCOD8117798 Si02
#       8
#     4   4   4   4   4   4   4   4
#     4  10  19  34  55  82 111 140 183 230 275 331
#     4   9  18  35  54  77 116 143 177 227 278 327
#     4  10  20  34  53  79 107 142 189 228 273 325
#     4   9  21  32  52  83 112 142 179 226 280 336
#     4  10  20  34  54  80 106 142 182 230 277 316
#     4  10  19  33  55  84 111 140 182 229 282 321
#     4  11  20  32  58  82 104 139 184 233 270 328
#     4   9  20  33  55  82 108 146 181 226 280 326
#
# _framework density 19.016615999999999
#
# number of rings (size 3 to 8) (size 9 to 14) (size 15 to 20)
#    0.000    2.250    2.500    0.375    1.750    3.000 
#    0.000    4.375    0.000    0.000    0.000    0.000 
#    0.000    0.000    0.000    0.000    0.000    0.000 
#
# Total GULP energy -396430.100528 kJ/mol
# GULP energy per Si atom -12388.440642 kJ/mol
# Density = 1.897333 g / cm^3
# Si number density = 19.016616 Si / 1000 Ang^3
#
#
#
# Elastic Constant Matrix: (Units=GPa)
#
#
# Indices 1 2 3 4 5 6 
#
# 1 105.3187 33.1296 45.9828 0.0000 -10.9386 0.0000
# 2 33.1296 74.2019 28.9231 0.0000 -12.2405 0.0000
# 3 45.9828 28.9231 85.4076 0.0000 -8.9653 0.0000
# 4 0.0000 0.0000 0.0000 11.9319 0.0000 -5.3861
# 5 -10.9386 -12.2405 -8.9653 0.0000 31.3419 0.0000
# 6 0.0000 0.0000 0.0000 -5.3861 0.0000 11.2969
#
#
#
# Elastic Compliance Matrix: (Units=1/GPa)
#
#
# Indices 1 2 3 4 5 6 
#
# 1 0.013275 -0.003384 -0.005829 0.000000 0.001644 0.000000
# 2 -0.003384 0.017091 -0.003494 0.000000 0.004494 0.000000
# 3 -0.005829 -0.003494 0.016158 0.000000 0.001223 0.000000
# 4 0.000000 0.000000 0.000000 0.106793 0.000000 0.050917
# 5 0.001644 0.004494 0.001223 0.000000 0.034585 0.000000
# 6 0.000000 0.000000 0.000000 0.050917 0.000000 0.112795
#
#
# Mechanical properties :
#
#
# Convention : Reuss Voigt Hill
#
# Bulk Modulus (GPa) = 47.36875 53.44435 50.40655
# Shear Modulus (GPa) = 15.00832 21.37366 18.19099
#
# Velocity S-wave (km/s) = 2.81236 3.35617 3.09622
# Velocity P-wave (km/s) = 5.95894 6.57142 6.27266
#
# Compressibility (1/GPa) = 0.02111096
#
# Stress axis : x y z
#
# Youngs Moduli (GPa) = 75.32942 58.51044 61.88748
#
# Poissons Ratio (x) = 0.19799 0.36072
# Poissons Ratio (y) = 0.25490 0.21625
# Poissons Ratio (z) = 0.43907 0.20445
#
# Static dielectric constant tensor:
#      x y z
#    x 3.666020 0.000000 -0.121620 
#    y 0.000000 3.353340 0.000000 
#    z -0.121620 0.000000 3.276930 
# 
# 
# High freq. dielectric constant tensor:
#      x y z
#    x 1.732800 0.000000 -0.015640 
#    y 0.000000 1.735030 0.000000 
#    z -0.015640 0.000000 1.710050 
# 
# From -- ./inp_files/37540.got.cif
#   From: 2010.06.25/outbox.cif.g09.slc.cpg/sg13_19_cif.got.tgz:37540.got - 2010.06.28 04:50:58.
