data_PCOD8117620
_publ_section_title
;
Structure prediction by ZEFSAII (Michael W. Deem and Ramdas Pophale) SiO2 
 PCOD8117620
Probable space group: P 2/C
;
_chemical_formula_sum "Si O2"
_cell_formula_units_Z 24
_cell_length_a 5.053604
_cell_length_b 13.696077
_cell_length_c 21.750586
_cell_angle_alpha 90.000000
_cell_angle_beta 124.080775
_cell_angle_gamma 90.000000
_cell_volume 1246.892368
_symmetry_space_group_name_H-M "P 2/C"
_symmetry_group_IT_number 13
_symmetry_cell_setting 'monoclinic'
loop_
_space_group_symop_operation_xyz
x,y,z
-x,y,1/2-z
-x,-y,-z
x,-y,1/2+z
loop_
_atom_site_type_symbol
_atom_site_label
_atom_site_fract_x
_atom_site_fract_y
_atom_site_fract_z
Si Si1 0.972188 0.437453 0.083111
Si Si2 0.534539 0.436415 0.914840
Si Si3 0.122402 0.275966 0.199725
Si Si4 0.247521 0.130458 0.661802
Si Si5 0.869524 0.061194 0.298886
Si Si6 0.249466 0.762038 0.337817
O O1 0.764893 0.520117 0.088551
O O2 0.318571 0.484709 0.113715
O O3 0.995372 0.344195 0.129353
O O4 0.808182 0.402975 0.998326
O O5 0.407793 0.343644 0.861407
O O6 0.500000 0.279196 0.250000
O O7 0.974618 0.167200 0.166594
O O8 0.000000 0.313061 0.250000
O O9 0.500000 0.135023 0.750000
O O10 0.460359 0.158484 0.630451
O O11 0.958183 0.208693 0.629475
O O12 0.082517 0.022181 0.642189
O O13 0.500000 0.085639 0.250000
O O14 0.000000 0.021018 0.250000
O O15 0.000000 0.764198 0.250000
#
# Coordination Sequence:
#
# PCOD8117620 Si02
#       6
#     4   4   4   4   4   4
#     4  10  21  37  53  71  99 135 170 203 250 305
#     4  10  21  36  53  71  98 138 171 200 248 306
#     4  10  20  33  53  79 101 126 165 212 252 286
#     4   9  16  28  46  70 100 127 155 196 244 293
#     4   9  16  28  47  71  99 129 159 196 246 298
#     4  10  19  30  48  74  99 126 163 204 242 281
#
# _framework density 19.247851000000001
#
# number of rings (size 3 to 8) (size 9 to 14) (size 15 to 20)
#    0.000    2.333    0.000    4.500    0.000    2.000 
#    0.000    0.000    0.000    2.000    0.000    0.000 
#    0.000    8.000    0.000    0.000    0.000    0.000 
#
# Total GULP energy -297347.640168 kJ/mol
# GULP energy per Si atom -12389.485007 kJ/mol
# Density = 1.920404 g / cm^3
# Si number density = 19.247851 Si / 1000 Ang^3
#
#
#
# Elastic Constant Matrix: (Units=GPa)
#
#
# Indices 1 2 3 4 5 6 
#
# 1 118.8370 31.7706 27.6337 0.0000 -7.1164 0.0000
# 2 31.7706 114.4999 35.6360 0.0000 -4.4006 0.0000
# 3 27.6337 35.6360 27.2897 0.0000 -0.2474 0.0000
# 4 0.0000 0.0000 0.0000 3.3827 0.0000 -0.7076
# 5 -7.1164 -4.4006 -0.2474 0.0000 15.5209 0.0000
# 6 0.0000 0.0000 0.0000 -0.7076 0.0000 32.7863
#
#
#
# Elastic Compliance Matrix: (Units=1/GPa)
#
#
# Indices 1 2 3 4 5 6 
#
# 1 0.011460 0.001048 -0.012925 0.000000 0.005346 0.000000
# 2 0.001048 0.015045 -0.020668 0.000000 0.004417 0.000000
# 3 -0.012925 -0.020668 0.076625 0.000000 -0.010565 0.000000
# 4 0.000000 0.000000 0.000000 0.296962 0.000000 0.006409
# 5 0.005346 0.004417 -0.010565 0.000000 0.067964 0.000000
# 6 0.000000 0.000000 0.000000 0.006409 0.000000 0.030639
#
#
# Mechanical properties :
#
#
# Convention : Reuss Voigt Hill
#
# Bulk Modulus (GPa) = 26.28746 50.07858 38.18302
# Shear Modulus (GPa) = 8.67355 21.37707 15.02531
#
# Velocity S-wave (km/s) = 2.12509 3.33621 2.79699
# Velocity P-wave (km/s) = 4.43941 6.39646 5.50559
#
# Compressibility (1/GPa) = 0.03804096
#
# Stress axis : x y z
#
# Youngs Moduli (GPa) = 87.25766 66.46717 13.05054
#
# Poissons Ratio (x) = -0.06968 0.16868
# Poissons Ratio (y) = -0.09147 0.26973
# Poissons Ratio (z) = 1.12782 1.37373
#
# Static dielectric constant tensor:
#      x y z
#    x 3.919770 0.000000 0.064190 
#    y 0.000000 3.759350 0.000000 
#    z 0.064190 0.000000 2.962570 
# 
# 
# High freq. dielectric constant tensor:
#      x y z
#    x 1.780480 0.000000 0.005760 
#    y 0.000000 1.758850 0.000000 
#    z 0.005760 0.000000 1.675890 
# 
# From -- ./inp_files/83604.got.cif
#   From: 2010.06.25/outbox.cif.g09.slc.cpg/sg13_42_cif.got.tgz:83604.got - 2010.06.28 04:50:58.
