data_PCOD8117665
_publ_section_title
;
Structure prediction by ZEFSAII (Michael W. Deem and Ramdas Pophale) SiO2 
 PCOD8117665
Probable space group: P 2/C
;
_chemical_formula_sum "Si O2"
_cell_formula_units_Z 32
_cell_length_a 11.074562
_cell_length_b 16.220629
_cell_length_c 10.077802
_cell_angle_alpha 90.000000
_cell_angle_beta 82.524726
_cell_angle_gamma 90.000000
_cell_volume 1794.953783
_symmetry_space_group_name_H-M "P 2/C"
_symmetry_group_IT_number 13
_symmetry_cell_setting 'monoclinic'
loop_
_space_group_symop_operation_xyz
x,y,z
-x,y,1/2-z
-x,-y,-z
x,-y,1/2+z
loop_
_atom_site_type_symbol
_atom_site_label
_atom_site_fract_x
_atom_site_fract_y
_atom_site_fract_z
Si Si1 0.637171 0.302164 0.523984
Si Si2 0.737156 0.132076 0.633173
Si Si3 0.356469 0.616583 0.752047
Si Si4 0.741823 0.853342 0.432902
Si Si5 0.583255 0.024139 0.106736
Si Si6 0.000308 0.924925 0.400722
Si Si7 0.643234 0.433371 0.741645
Si Si8 0.648339 0.681735 0.471300
O O1 0.685319 0.213015 0.565602
O O2 0.683477 0.331566 0.372368
O O3 0.685762 0.372596 0.617588
O O4 0.491767 0.294763 0.537585
O O5 0.700668 0.120009 0.792023
O O6 0.882624 0.133187 0.591444
O O7 0.682927 0.047854 0.585173
O O8 0.500000 0.607624 0.750000
O O9 0.297972 0.524655 0.766366
O O10 0.311001 0.665877 0.884796
O O11 0.653565 0.890967 0.559677
O O12 0.881008 0.872019 0.447036
O O13 0.734321 0.756039 0.421968
O O14 0.500000 0.035527 0.250000
O O15 0.500000 0.000000 0.000000
O O16 0.000000 0.959023 0.250000
O O17 0.000000 0.000000 0.500000
O O18 0.500000 0.442880 0.750000
O O19 0.682560 0.396437 0.877204
#
# Coordination Sequence:
#
# PCOD8117665 Si02
#       8
#     4   4   4   4   4   4   4   4
#     4  10  19  31  53  79 113 146 177 224 276 328
#     4  11  22  39  58  80 110 145 190 227 274 328
#     4   9  18  31  46  80 114 143 182 218 262 334
#     4  11  22  39  58  80 110 145 187 230 276 321
#     4  12  24  35  56  81 112 146 176 218 278 342
#     4  10  22  42  62  79 100 143 194 240 269 318
#     4   9  16  29  52  74 108 152 180 210 270 333
#     4  10  19  31  51  79 114 143 176 226 275 324
#
# _framework density 17.827756000000001
#
# number of rings (size 3 to 8) (size 9 to 14) (size 15 to 20)
#    0.000    1.750    3.750    1.500    0.000    5.500 
#    2.250    0.000    0.000    0.000    0.000    5.250 
#    0.000    0.000    0.000    0.000    0.000    0.000 
#
# Total GULP energy -396497.751618 kJ/mol
# GULP energy per Si atom -12390.554738 kJ/mol
# Density = 1.778718 g / cm^3
# Si number density = 17.827756 Si / 1000 Ang^3
#
#
#
# Elastic Constant Matrix: (Units=GPa)
#
#
# Indices 1 2 3 4 5 6 
#
# 1 64.3555 31.7891 39.2928 0.0000 -0.7465 0.0000
# 2 31.7891 79.6651 18.4442 0.0000 6.7328 0.0000
# 3 39.2928 18.4442 104.3521 0.0000 5.5147 0.0000
# 4 0.0000 0.0000 0.0000 14.1192 0.0000 -7.4742
# 5 -0.7465 6.7328 5.5147 0.0000 19.2592 0.0000
# 6 0.0000 0.0000 0.0000 -7.4742 0.0000 3.8673
#
#
#
# Elastic Compliance Matrix: (Units=1/GPa)
#
#
# Indices 1 2 3 4 5 6 
#
# 1 0.024819 -0.008544 -0.008167 0.000000 0.006287 0.000000
# 2 -0.008544 0.016336 0.000659 0.000000 -0.006231 0.000000
# 3 -0.008167 0.000659 0.012764 0.000000 -0.004202 0.000000
# 4 0.000000 0.000000 0.000000 -3.071395 0.000000 -5.935879
# 5 0.006287 -0.006231 -0.004202 0.000000 0.055548 0.000000
# 6 0.000000 0.000000 0.000000 -5.935879 0.000000-11.213300
#
#
# Mechanical properties :
#
#
# Convention : Reuss Voigt Hill
#
# Bulk Modulus (GPa) = 45.84240 47.49165 46.66703
# Shear Modulus (GPa) = -0.35371 18.03893 8.84261
#
# Velocity S-wave (km/s) = -0.44591 3.18440 2.22953
# Velocity P-wave (km/s) = 5.05022 6.34173 5.73247
#
# Compressibility (1/GPa) = 0.02181387
#
# Stress axis : x y z
#
# Youngs Moduli (GPa) = 40.29236 61.21497 78.34639
#
# Poissons Ratio (x) = 0.52302 0.63988
# Poissons Ratio (y) = 0.34426 -0.05163
# Poissons Ratio (z) = 0.32908 -0.04034
#
# Static dielectric constant tensor:
#      x y z
#    x 3.064870 0.000000 0.165940 
#    y 0.000000 3.353820 0.000000 
#    z 0.165940 0.000000 3.355180 
# 
# 
# High freq. dielectric constant tensor:
#      x y z
#    x 1.645570 0.000000 0.008970 
#    y 0.000000 1.697000 0.000000 
#    z 0.008970 0.000000 1.705510 
# 
# From -- ./inp_files/16795.got.cif
#   From: 2010.06.25/outbox.cif.g09.slc.cpg/sg13_9_cif.got.tgz:16795.got - 2010.06.28 04:50:58.
