data_PCOD8117558
_publ_section_title
;
Structure prediction by ZEFSAII (Michael W. Deem and Ramdas Pophale) SiO2 
 PCOD8117558
Probable space group: P 2/C
;
_chemical_formula_sum "Si O2"
_cell_formula_units_Z 24
_cell_length_a 16.649699
_cell_length_b 8.762342
_cell_length_c 13.824534
_cell_angle_alpha 90.000000
_cell_angle_beta 148.718936
_cell_angle_gamma 90.000000
_cell_volume 1047.230926
_symmetry_space_group_name_H-M "P 2/C"
_symmetry_group_IT_number 13
_symmetry_cell_setting 'monoclinic'
loop_
_space_group_symop_operation_xyz
x,y,z
-x,y,1/2-z
-x,-y,-z
x,-y,1/2+z
loop_
_atom_site_type_symbol
_atom_site_label
_atom_site_fract_x
_atom_site_fract_y
_atom_site_fract_z
Si Si1 0.793682 0.718867 0.106960
Si Si2 0.000000 0.719010 0.750000
Si Si3 0.632385 0.568374 0.199484
Si Si4 0.270839 0.942606 0.988183
Si Si5 0.500000 0.444096 0.250000
Si Si6 0.921068 0.436893 0.550368
Si Si7 0.548631 0.100633 0.641072
O O1 0.854071 0.675486 0.062996
O O2 0.913137 0.639862 0.308806
O O3 0.792243 0.899566 0.121451
O O4 0.617664 0.657902 0.936652
O O5 0.942637 0.611178 0.605482
O O6 0.865217 0.823053 0.651547
O O7 0.599693 0.548183 0.280621
O O8 0.788658 0.469226 0.333151
O O9 0.635379 0.750341 0.186831
O O10 0.500000 0.500000 0.000000
O O11 0.334654 0.980142 0.162344
O O12 0.395250 0.864040 0.045241
O O13 0.500000 0.000000 0.500000
#
# Coordination Sequence:
#
# PCOD8117558 Si02
#       7
#     4   2   4   4   2   4   4
#     4   9  19  34  65  95 123 163 216 261 325 385
#     4  10  18  38  66  94 122 174 218 256 338 398
#     4  11  24  41  68  89 127 173 217 278 321 387
#     4  11  22  41  72  89 134 182 205 274 340 391
#     4  10  20  38  68  94 122 162 226 256 326 390
#     4   9  20  38  62  96 129 161 224 273 316 399
#     4  11  26  42  63 100 132 168 232 266 330 399
#
# _framework density 22.917583
#
# number of rings (size 3 to 8) (size 9 to 14) (size 15 to 20)
#    0.000    2.000    1.667    3.000   11.667    0.000 
#    0.000    1.667    0.000    0.000    0.000    0.000 
#    0.000    0.000    0.000    0.000    0.000    0.000 
#
# Total GULP energy -297316.200837 kJ/mol
# GULP energy per Si atom -12388.175035 kJ/mol
# Density = 2.286542 g / cm^3
# Si number density = 22.917583 Si / 1000 Ang^3
#
#
#
# Elastic Constant Matrix: (Units=GPa)
#
#
# Indices 1 2 3 4 5 6 
#
# 1 23.3066 -7.6177 0.3199 0.0000 -3.0263 0.0000
# 2 -7.6177 116.5967 36.4287 0.0000 13.5181 0.0000
# 3 0.3199 36.4287 156.9227 0.0000 21.1808 0.0000
# 4 0.0000 0.0000 0.0000 41.1136 0.0000 8.6978
# 5 -3.0263 13.5181 21.1808 0.0000 36.7371 0.0000
# 6 0.0000 0.0000 0.0000 8.6978 0.0000 19.4015
#
#
#
# Elastic Compliance Matrix: (Units=1/GPa)
#
#
# Indices 1 2 3 4 5 6 
#
# 1 0.044293 0.002890 -0.001204 0.000000 0.003279 0.000000
# 2 0.002890 0.009626 -0.001946 0.000000 -0.002182 0.000000
# 3 -0.001204 -0.001946 0.007313 0.000000 -0.003599 0.000000
# 4 0.000000 0.000000 0.000000 0.026871 0.000000 -0.012047
# 5 0.003279 -0.002182 -0.003599 0.000000 0.030369 0.000000
# 6 0.000000 0.000000 0.000000 -0.012047 0.000000 0.056943
#
#
# Mechanical properties :
#
#
# Convention : Reuss Voigt Hill
#
# Bulk Modulus (GPa) = 16.47125 39.45420 27.96272
# Shear Modulus (GPa) = 25.48774 37.29677 31.39225
#
# Velocity S-wave (km/s) = 3.33851 4.03852 3.70508
# Velocity P-wave (km/s) = 4.69719 6.24494 5.52552
#
# Compressibility (1/GPa) = 0.06071184
#
# Stress axis : x y z
#
# Youngs Moduli (GPa) = 22.57687 103.88123 136.75053
#
# Poissons Ratio (x) = -0.30019 0.16462
# Poissons Ratio (y) = -0.06524 0.26612
# Poissons Ratio (z) = 0.02718 0.20216
#
# Static dielectric constant tensor:
#      x y z
#    x 4.114510 0.000000 0.513100 
#    y 0.000000 4.121260 0.000000 
#    z 0.513100 0.000000 4.910680 
# 
# 
# High freq. dielectric constant tensor:
#      x y z
#    x 1.874270 0.000000 0.019970 
#    y 0.000000 1.902510 0.000000 
#    z 0.019970 0.000000 1.923930 
# 
# From -- ./inp_files/55394.got.cif
#   From: 2010.06.25/outbox.cif.g09.slc.cpg/sg13_28_cif.got.tgz:55394.got - 2010.06.28 04:50:58.
