data_PCOD8117814
_publ_section_title
;
Structure prediction by ZEFSAII (Michael W. Deem and Ramdas Pophale) SiO2 
 PCOD8117814
Probable space group: P 2/C
;
_chemical_formula_sum "Si O2"
_cell_formula_units_Z 32
_cell_length_a 18.546771
_cell_length_b 13.669144
_cell_length_c 12.102440
_cell_angle_alpha 90.000000
_cell_angle_beta 32.130042
_cell_angle_gamma 90.000000
_cell_volume 1631.795580
_symmetry_space_group_name_H-M "P 2/C"
_symmetry_group_IT_number 13
_symmetry_cell_setting 'monoclinic'
loop_
_space_group_symop_operation_xyz
x,y,z
-x,y,1/2-z
-x,-y,-z
x,-y,1/2+z
loop_
_atom_site_type_symbol
_atom_site_label
_atom_site_fract_x
_atom_site_fract_y
_atom_site_fract_z
Si Si1 0.230625 0.744518 0.709753
Si Si2 0.648281 0.917292 0.080123
Si Si3 0.605873 0.489568 0.711394
Si Si4 0.324408 0.202315 0.742825
Si Si5 0.851776 0.355465 0.395358
Si Si6 0.551052 0.349702 0.435354
Si Si7 0.936357 0.107333 0.952640
Si Si8 0.183986 0.062376 0.771772
O O1 0.330030 0.822127 0.523414
O O2 0.132495 0.698523 0.743580
O O3 0.324030 0.661581 0.642760
O O4 0.148223 0.793939 0.916787
O O5 0.500000 0.959514 0.250000
O O6 0.662094 0.886897 0.189094
O O7 0.750971 0.004096 0.915763
O O8 0.500000 0.473773 0.750000
O O9 0.759498 0.451852 0.489312
O O10 0.606412 0.603722 0.748342
O O11 0.558369 0.423991 0.874691
O O12 0.471448 0.247593 0.521813
O O13 0.272964 0.153618 0.696507
O O14 0.218921 0.282863 0.925088
O O15 0.000000 0.385385 0.250000
O O16 0.000000 0.109526 0.750000
O O17 0.045522 0.107981 0.908450
O O18 0.843573 0.010872 0.089227
#
# Coordination Sequence:
#
# PCOD8117814 Si02
#       8
#     4   4   4   4   4   4   4   4
#     4  10  19  36  61  83 115 154 195 237 282 351
#     4  10  19  33  56  85 113 153 194 239 290 333
#     4  10  20  38  64  87 120 148 186 240 302 362
#     4  10  20  35  58  85 121 147 200 244 282 343
#     4  10  20  35  64  93 114 148 197 241 288 349
#     4  10  20  37  62  88 110 156 192 235 298 356
#     4  10  21  38  55  77 119 162 198 232 297 340
#     4  10  21  36  55  83 116 157 198 245 285 341
#
# _framework density 19.610299000000001
#
# number of rings (size 3 to 8) (size 9 to 14) (size 15 to 20)
#    0.000    2.000    2.500    1.500    0.000    3.000 
#    4.500    1.250    0.000    0.000    0.000    0.000 
#    0.000    0.000    0.000    0.000    0.000    0.000 
#
# Total GULP energy -396670.224408 kJ/mol
# GULP energy per Si atom -12395.944513 kJ/mol
# Density = 1.956567 g / cm^3
# Si number density = 19.610299 Si / 1000 Ang^3
#
#
#
# Elastic Constant Matrix: (Units=GPa)
#
#
# Indices 1 2 3 4 5 6 
#
# 1 86.0952 44.6070 32.4959 0.0000 -17.7672 0.0000
# 2 44.6070 73.4915 35.3453 0.0000 1.2483 0.0000
# 3 32.4959 35.3453 75.9310 0.0000 -7.2041 0.0000
# 4 0.0000 0.0000 0.0000 16.0108 0.0000 -1.0102
# 5 -17.7672 1.2483 -7.2041 0.0000 35.3321 0.0000
# 6 0.0000 0.0000 0.0000 -1.0102 0.0000 27.8826
#
#
#
# Elastic Compliance Matrix: (Units=1/GPa)
#
#
# Indices 1 2 3 4 5 6 
#
# 1 0.020637 -0.011495 -0.002506 0.000000 0.010272 0.000000
# 2 -0.011495 0.024125 -0.007077 0.000000 -0.008076 0.000000
# 3 -0.002506 -0.007077 0.017785 0.000000 0.002616 0.000000
# 4 0.000000 0.000000 0.000000 0.062601 0.000000 0.002268
# 5 0.010272 -0.008076 0.002616 0.000000 0.034287 0.000000
# 6 0.000000 0.000000 0.000000 0.002268 0.000000 0.035947
#
#
# Mechanical properties :
#
#
# Convention : Reuss Voigt Hill
#
# Bulk Modulus (GPa) = 49.04278 51.15714 50.09996
# Shear Modulus (GPa) = 20.46383 24.04972 22.25677
#
# Velocity S-wave (km/s) = 3.23387 3.50577 3.37256
# Velocity P-wave (km/s) = 6.24555 6.52156 6.38505
#
# Compressibility (1/GPa) = 0.02039036
#
# Stress axis : x y z
#
# Youngs Moduli (GPa) = 48.45767 41.45146 56.22779
#
# Poissons Ratio (x) = 0.47648 0.14093
# Poissons Ratio (y) = 0.55701 0.39790
# Poissons Ratio (z) = 0.12145 0.29334
#
# Static dielectric constant tensor:
#      x y z
#    x 3.357750 0.000000 -0.059960 
#    y 0.000000 3.557090 0.000000 
#    z -0.059960 0.000000 3.510830 
# 
# 
# High freq. dielectric constant tensor:
#      x y z
#    x 1.761410 0.000000 -0.009210 
#    y 0.000000 1.748150 0.000000 
#    z -0.009210 0.000000 1.749760 
# 
# From -- ./inp_files/39459.got.cif
#   From: 2010.06.25/outbox.cif.g09.slc.cpg/sg13_20_cif.got.tgz:39459.got - 2010.06.28 04:50:58.
