data_PCOD8117555
_publ_section_title
;
Structure prediction by ZEFSAII (Michael W. Deem and Ramdas Pophale) SiO2 
 PCOD8117555
Probable space group: P 2/C
;
_chemical_formula_sum "Si O2"
_cell_formula_units_Z 24
_cell_length_a 8.252479
_cell_length_b 15.112172
_cell_length_c 9.776188
_cell_angle_alpha 90.000000
_cell_angle_beta 107.727668
_cell_angle_gamma 90.000000
_cell_volume 1161.321537
_symmetry_space_group_name_H-M "P 2/C"
_symmetry_group_IT_number 13
_symmetry_cell_setting 'monoclinic'
loop_
_space_group_symop_operation_xyz
x,y,z
-x,y,1/2-z
-x,-y,-z
x,-y,1/2+z
loop_
_atom_site_type_symbol
_atom_site_label
_atom_site_fract_x
_atom_site_fract_y
_atom_site_fract_z
Si Si1 0.655408 0.829007 0.685001
Si Si2 0.157827 0.342868 0.196206
Si Si3 0.575788 0.794739 0.122662
Si Si4 0.382154 0.499852 0.339286
Si Si5 0.619812 0.018196 0.655325
Si Si6 0.842193 0.349881 0.620646
O O1 0.500000 0.827510 0.750000
O O2 0.798858 0.760429 0.769245
O O3 0.588301 0.806346 0.516884
O O4 0.736698 0.930099 0.706863
O O5 0.320358 0.401782 0.280647
O O6 0.000000 0.369571 0.250000
O O7 0.107746 0.361009 0.025587
O O8 0.500000 0.768541 0.250000
O O9 0.686040 0.716571 0.089761
O O10 0.699681 0.883361 0.154368
O O11 0.500000 0.540048 0.250000
O O12 0.500000 0.500000 0.500000
O O13 0.215182 0.557840 0.326098
O O14 0.500000 0.036121 0.750000
O O15 0.500000 0.000000 0.500000
O O16 0.000000 0.314243 0.750000
#
# Coordination Sequence:
#
# PCOD8117555 Si02
#       6
#     4   4   4   4   4   4
#     4  10  18  38  65  87 121 163 209 254 298 355
#     4  12  27  43  62  92 127 164 202 244 308 371
#     4  10  20  37  62  94 123 157 209 256 300 356
#     4  12  25  45  71  94 117 154 208 256 301 361
#     4   8  16  30  58  91 117 153 202 258 301 341
#     4  12  27  43  62  91 129 164 196 251 310 362
#
# _framework density 20.666111000000001
#
# number of rings (size 3 to 8) (size 9 to 14) (size 15 to 20)
#    0.000    1.333    3.333    2.500    4.667    1.333 
#    0.000    0.833    0.000    2.000    0.000    0.000 
#    0.000    0.000    0.000    0.000    0.000    0.000 
#
# Total GULP energy -297403.592537 kJ/mol
# GULP energy per Si atom -12391.816356 kJ/mol
# Density = 2.061907 g / cm^3
# Si number density = 20.666111 Si / 1000 Ang^3
#
#
#
# Elastic Constant Matrix: (Units=GPa)
#
#
# Indices 1 2 3 4 5 6 
#
# 1 60.4867 12.2599 32.5471 0.0000 -13.0290 0.0000
# 2 12.2599 105.6203 11.7562 0.0000 -1.3871 0.0000
# 3 32.5471 11.7562 146.4297 0.0000 -19.5607 0.0000
# 4 0.0000 0.0000 0.0000 24.7907 0.0000 2.1202
# 5 -13.0290 -1.3871 -19.5607 0.0000 36.8705 0.0000
# 6 0.0000 0.0000 0.0000 2.1202 0.0000 9.8527
#
#
#
# Elastic Compliance Matrix: (Units=1/GPa)
#
#
# Indices 1 2 3 4 5 6 
#
# 1 0.019938 -0.001846 -0.003607 0.000000 0.005062 0.000000
# 2 -0.001846 0.009724 -0.000440 0.000000 -0.000520 0.000000
# 3 -0.003607 -0.000440 0.008065 0.000000 0.002988 0.000000
# 4 0.000000 0.000000 0.000000 0.041094 0.000000 -0.008843
# 5 0.005062 -0.000520 0.002988 0.000000 0.030476 0.000000
# 6 0.000000 0.000000 0.000000 -0.008843 0.000000 0.103397
#
#
# Mechanical properties :
#
#
# Convention : Reuss Voigt Hill
#
# Bulk Modulus (GPa) = 38.54857 47.29589 42.92223
# Shear Modulus (GPa) = 21.44731 31.36768 26.40749
#
# Velocity S-wave (km/s) = 3.22499 3.90016 3.57853
# Velocity P-wave (km/s) = 5.70622 6.57397 6.15540
#
# Compressibility (1/GPa) = 0.02594130
#
# Stress axis : x y z
#
# Youngs Moduli (GPa) = 50.15488 102.83498 123.98633
#
# Poissons Ratio (x) = 0.18987 0.44724
# Poissons Ratio (y) = 0.09260 0.05453
# Poissons Ratio (z) = 0.18092 0.04523
#
# Static dielectric constant tensor:
#      x y z
#    x 4.463630 0.000000 -0.583190 
#    y 0.000000 3.006530 0.000000 
#    z -0.583190 0.000000 4.047570 
# 
# 
# High freq. dielectric constant tensor:
#      x y z
#    x 1.756400 0.000000 -0.020550 
#    y 0.000000 1.833780 0.000000 
#    z -0.020550 0.000000 1.831130 
# 
# From -- ./inp_files/12566.got.cif
#   From: 2010.06.25/outbox.cif.g09.slc.cpg/sg13_7_cif.got.tgz:12566.got - 2010.06.28 04:50:58.
