data_PCOD8117474
_publ_section_title
;
Structure prediction by ZEFSAII (Michael W. Deem and Ramdas Pophale) SiO2 
 PCOD8117474
Probable space group: P 2/C
;
_chemical_formula_sum "Si O2"
_cell_formula_units_Z 30
_cell_length_a 15.108302
_cell_length_b 15.332827
_cell_length_c 13.390650
_cell_angle_alpha 90.000000
_cell_angle_beta 152.234712
_cell_angle_gamma 90.000000
_cell_volume 1445.061230
_symmetry_space_group_name_H-M "P 2/C"
_symmetry_group_IT_number 13
_symmetry_cell_setting 'monoclinic'
loop_
_space_group_symop_operation_xyz
x,y,z
-x,y,1/2-z
-x,-y,-z
x,-y,1/2+z
loop_
_atom_site_type_symbol
_atom_site_label
_atom_site_fract_x
_atom_site_fract_y
_atom_site_fract_z
Si Si1 0.371160 0.993477 0.715296
Si Si2 0.000000 0.963860 0.750000
Si Si3 0.705679 0.530233 0.954812
Si Si4 0.992961 0.571462 0.407047
Si Si5 0.536670 0.864818 0.031306
Si Si6 0.803128 0.816500 0.672450
Si Si7 0.216462 0.339982 0.489322
Si Si8 0.850787 0.732987 0.376120
O O1 0.500000 0.022457 0.750000
O O2 0.147159 0.977312 0.462463
O O3 0.368532 0.067557 0.797346
O O4 0.467782 0.907244 0.858579
O O5 0.848258 0.906367 0.660688
O O6 0.500000 0.575999 0.750000
O O7 0.668674 0.426401 0.921972
O O8 0.806849 0.556671 0.156848
O O9 0.817231 0.563081 0.968689
O O10 0.972539 0.669783 0.426701
O O11 0.000000 0.500000 0.500000
O O12 0.694342 0.791379 0.161896
O O13 0.351579 0.824327 0.896706
O O14 0.723922 0.743644 0.516714
O O15 0.003210 0.793972 0.920448
O O16 0.257134 0.322088 0.646385
O O17 0.000000 0.364823 0.250000
#
# Coordination Sequence:
#
# PCOD8117474 Si02
#       8
#     4   2   4   4   4   4   4   4
#     4  11  24  43  65  96 134 175 219 274 329 416
#     4  12  20  38  68  94 130 176 210 272 338 388
#     4  11  24  40  63  98 132 180 228 276 333 407
#     4  11  22  43  65  92 138 177 223 278 338 405
#     4  11  25  40  65 100 132 170 224 278 337 397
#     4  11  21  36  64 100 130 164 221 276 336 389
#     4  10  18  36  61  93 131 167 215 282 333 381
#     4  11  22  39  63  95 132 172 216 283 341 387
#
# _framework density 20.760366999999999
#
# number of rings (size 3 to 8) (size 9 to 14) (size 15 to 20)
#    0.000    1.067    7.333    0.800    1.867    3.200 
#    0.000    3.333    0.000    0.000    0.000    0.000 
#    0.000    0.000    0.000    0.000    0.000    0.000 
#
# Total GULP energy -371922.499479 kJ/mol
# GULP energy per Si atom -12397.416649 kJ/mol
# Density = 2.071311 g / cm^3
# Si number density = 20.760367 Si / 1000 Ang^3
#
#
#
# Elastic Constant Matrix: (Units=GPa)
#
#
# Indices 1 2 3 4 5 6 
#
# 1 84.5051 24.3032 48.5498 0.0000 0.6710 0.0000
# 2 24.3032 72.6256 28.6013 0.0000 -5.4419 0.0000
# 3 48.5498 28.6013 110.6881 0.0000 0.7924 0.0000
# 4 0.0000 0.0000 0.0000 13.7988 0.0000 -10.1588
# 5 0.6710 -5.4419 0.7924 0.0000 31.1262 0.0000
# 6 0.0000 0.0000 0.0000 -10.1588 0.0000 19.7717
#
#
#
# Elastic Compliance Matrix: (Units=1/GPa)
#
#
# Indices 1 2 3 4 5 6 
#
# 1 0.016385 -0.003015 -0.006402 0.000000 -0.000717 0.000000
# 2 -0.003015 0.016129 -0.002866 0.000000 0.002958 0.000000
# 3 -0.006402 -0.002866 0.012588 0.000000 -0.000684 0.000000
# 4 0.000000 0.000000 0.000000 0.116562 0.000000 0.059890
# 5 -0.000717 0.002958 -0.000684 0.000000 0.032677 0.000000
# 6 0.000000 0.000000 0.000000 0.059890 0.000000 0.081349
#
#
# Mechanical properties :
#
#
# Convention : Reuss Voigt Hill
#
# Bulk Modulus (GPa) = 48.70022 52.30305 50.50164
# Shear Modulus (GPa) = 16.28124 24.03032 20.15578
#
# Velocity S-wave (km/s) = 2.80348 3.40591 3.11927
# Velocity P-wave (km/s) = 5.82997 6.38086 6.11162
#
# Compressibility (1/GPa) = 0.02053379
#
# Stress axis : x y z
#
# Youngs Moduli (GPa) = 61.03222 62.00137 79.44017
#
# Poissons Ratio (x) = 0.18695 0.50861
# Poissons Ratio (y) = 0.18403 0.22769
# Poissons Ratio (z) = 0.39075 0.17771
#
# Static dielectric constant tensor:
#      x y z
#    x 3.705470 0.000000 -0.100410 
#    y 0.000000 3.704910 0.000000 
#    z -0.100410 0.000000 3.865850 
# 
# 
# High freq. dielectric constant tensor:
#      x y z
#    x 1.803780 0.000000 0.005720 
#    y 0.000000 1.795130 0.000000 
#    z 0.005720 0.000000 1.822800 
# 
# From -- ./inp_files/37667.got.cif
#   From: 2010.06.25/outbox.cif.g09.slc.cpg/sg13_19_cif.got.tgz:37667.got - 2010.06.28 04:50:58.
