data_PCOD8117130
_publ_section_title
;
Structure prediction by ZEFSAII (Michael W. Deem and Ramdas Pophale) SiO2 
 PCOD8117130
Probable space group: P 2/C
;
_chemical_formula_sum "Si O2"
_cell_formula_units_Z 28
_cell_length_a 9.498761
_cell_length_b 6.488554
_cell_length_c 28.692944
_cell_angle_alpha 90.000000
_cell_angle_beta 55.228434
_cell_angle_gamma 90.000000
_cell_volume 1452.652676
_symmetry_space_group_name_H-M "P 2/C"
_symmetry_group_IT_number 13
_symmetry_cell_setting 'monoclinic'
loop_
_space_group_symop_operation_xyz
x,y,z
-x,y,1/2-z
-x,-y,-z
x,-y,1/2+z
loop_
_atom_site_type_symbol
_atom_site_label
_atom_site_fract_x
_atom_site_fract_y
_atom_site_fract_z
Si Si1 0.603975 0.296617 0.642440
Si Si2 0.845375 0.288053 0.679361
Si Si3 0.632715 0.622132 0.761810
Si Si4 0.603128 0.813064 0.958658
Si Si5 0.700340 0.032053 0.790386
Si Si6 0.547890 0.426657 0.554890
Si Si7 0.786616 0.147492 0.872025
O O1 0.773165 0.256956 0.640713
O O2 0.469589 0.448540 0.691672
O O3 0.497239 0.084321 0.659037
O O4 0.654529 0.386737 0.582132
O O5 0.795776 0.517648 0.705520
O O6 0.762217 0.122515 0.729690
O O7 0.048110 0.258875 0.637893
O O8 0.500000 0.725318 0.750000
O O9 0.707456 0.786104 0.783839
O O10 0.488725 0.670946 0.945243
O O11 0.758258 0.922474 0.901512
O O12 0.660988 0.662075 0.990237
O O13 0.500000 0.000000 0.000000
O O14 0.819157 0.105937 0.810859
O O15 0.368256 0.304808 0.590776
#
# Coordination Sequence:
#
# PCOD8117130 Si02
#       7
#     4   4   4   4   4   4   4
#     4   9  18  32  51  73 100 133 171 210 249 302
#     4  10  20  32  46  74 108 133 164 208 254 304
#     4   9  17  30  49  70  97 137 175 207 246 298
#     4   9  18  34  56  76  95 124 170 217 254 301
#     4  10  18  32  51  72 101 139 177 206 240 297
#     4   9  18  34  55  74  94 127 169 211 256 306
#     4  10  20  32  49  75 103 131 165 210 260 303
#
# _framework density 19.275082999999999
#
# number of rings (size 3 to 8) (size 9 to 14) (size 15 to 20)
#    0.000    2.571    0.000    3.429    0.000    1.143 
#    0.000    5.000    0.000    7.714    0.000    0.000 
#    0.000    0.000    0.000    0.000    0.000    0.000 
#
# Total GULP energy -347024.782488 kJ/mol
# GULP energy per Si atom -12393.742232 kJ/mol
# Density = 1.923121 g / cm^3
# Si number density = 19.275083 Si / 1000 Ang^3
#
#
#
# Elastic Constant Matrix: (Units=GPa)
#
#
# Indices 1 2 3 4 5 6 
#
# 1 115.5324 37.0680 44.0518 0.0000 22.5579 0.0000
# 2 37.0680 94.7736 27.7899 0.0000 0.7739 0.0000
# 3 44.0518 27.7899 81.0485 0.0000 27.9782 0.0000
# 4 0.0000 0.0000 0.0000 22.5371 0.0000 6.3260
# 5 22.5579 0.7739 27.9782 0.0000 25.4108 0.0000
# 6 0.0000 0.0000 0.0000 6.3260 0.0000 18.7570
#
#
#
# Elastic Compliance Matrix: (Units=1/GPa)
#
#
# Indices 1 2 3 4 5 6 
#
# 1 0.012549 -0.004075 -0.002614 0.000000 -0.008137 0.000000
# 2 -0.004075 0.013775 -0.005827 0.000000 0.009614 0.000000
# 3 -0.002614 -0.005827 0.024027 0.000000 -0.023956 0.000000
# 4 0.000000 0.000000 0.000000 0.049011 0.000000 -0.016530
# 5 -0.008137 0.009614 -0.023956 0.000000 0.072661 0.000000
# 6 0.000000 0.000000 0.000000 -0.016530 0.000000 0.058888
#
#
# Mechanical properties :
#
#
# Convention : Reuss Voigt Hill
#
# Bulk Modulus (GPa) = 39.49725 56.57487 48.03606
# Shear Modulus (GPa) = 18.91192 25.50398 22.20795
#
# Velocity S-wave (km/s) = 3.13574 3.64147 3.39803
# Velocity P-wave (km/s) = 5.80055 6.86261 6.35381
#
# Compressibility (1/GPa) = 0.02531822
#
# Stress axis : x y z
#
# Youngs Moduli (GPa) = 79.68983 72.59279 41.61987
#
# Poissons Ratio (x) = 0.29582 0.10880
# Poissons Ratio (y) = 0.32474 0.24253
# Poissons Ratio (z) = 0.20833 0.42301
#
# Static dielectric constant tensor:
#      x y z
#    x 3.322240 0.000000 0.355190 
#    y 0.000000 3.646890 0.000000 
#    z 0.355190 0.000000 3.729090 
# 
# 
# High freq. dielectric constant tensor:
#      x y z
#    x 1.714480 0.000000 0.027960 
#    y 0.000000 1.755810 0.000000 
#    z 0.027960 0.000000 1.744630 
# 
# From -- ./inp_files/95463.got.cif
#   From: 2010.06.25/outbox.cif.g09.slc.cpg/sg13_48_cif.got.tgz:95463.got - 2010.06.28 04:50:58.
