data_PCOD8117722
_publ_section_title
;
Structure prediction by ZEFSAII (Michael W. Deem and Ramdas Pophale) SiO2 
 PCOD8117722
Probable space group: P 2/C
;
_chemical_formula_sum "Si O2"
_cell_formula_units_Z 24
_cell_length_a 9.432246
_cell_length_b 11.336873
_cell_length_c 23.954453
_cell_angle_alpha 90.000000
_cell_angle_beta 31.019855
_cell_angle_gamma 90.000000
_cell_volume 1320.031721
_symmetry_space_group_name_H-M "P 2/C"
_symmetry_group_IT_number 13
_symmetry_cell_setting 'monoclinic'
loop_
_space_group_symop_operation_xyz
x,y,z
-x,y,1/2-z
-x,-y,-z
x,-y,1/2+z
loop_
_atom_site_type_symbol
_atom_site_label
_atom_site_fract_x
_atom_site_fract_y
_atom_site_fract_z
Si Si1 0.936583 0.158492 0.472818
Si Si2 0.999997 0.282900 0.658538
Si Si3 0.181887 0.086782 0.865039
Si Si4 0.727595 0.374652 0.130268
Si Si5 0.561076 0.305947 0.898327
Si Si6 0.768115 0.526074 0.502663
O O1 0.843876 0.153902 0.568096
O O2 0.690664 0.214871 0.520069
O O3 0.213236 0.237057 0.377666
O O4 0.002602 0.031869 0.424565
O O5 0.246470 0.255226 0.617950
O O6 0.089046 0.393504 0.591457
O O7 0.941200 0.167837 0.641913
O O8 0.722866 0.315218 0.785146
O O9 0.500000 0.055515 0.750000
O O10 0.500000 0.421793 0.250000
O O11 0.632491 0.395070 0.098107
O O12 0.009875 0.442237 0.044069
O O13 0.461049 0.439209 0.946744
#
# Coordination Sequence:
#
# PCOD8117722 Si02
#       6
#     4   4   4   4   4   4
#     4  10  21  37  55  84 108 144 188 230 284 321
#     4  11  21  37  58  83 113 153 185 228 281 333
#     4  11  21  36  61  81 109 143 187 237 275 334
#     4  10  19  32  54  82 113 140 185 236 276 327
#     4  10  22  37  57  82 117 149 189 225 275 344
#     4  10  20  34  54  83 113 152 182 230 278 333
#
# _framework density 18.181380000000001
#
# number of rings (size 3 to 8) (size 9 to 14) (size 15 to 20)
#    0.000    1.667    3.333    2.000    0.000    1.333 
#    0.000    0.000    0.000    0.000    0.000    0.000 
#    0.000    0.000    0.000    0.000    0.000    0.000 
#
# Total GULP energy -297596.677030 kJ/mol
# GULP energy per Si atom -12399.861543 kJ/mol
# Density = 1.814000 g / cm^3
# Si number density = 18.181380 Si / 1000 Ang^3
#
#
#
# Elastic Constant Matrix: (Units=GPa)
#
#
# Indices 1 2 3 4 5 6 
#
# 1 76.1037 43.4188 27.0736 0.0000 -0.4937 0.0000
# 2 43.4188 91.7796 27.8077 0.0000 -0.6316 0.0000
# 3 27.0736 27.8077 80.2327 0.0000 3.3849 0.0000
# 4 0.0000 0.0000 0.0000 14.2768 0.0000 19.8300
# 5 -0.4937 -0.6316 3.3849 0.0000 29.4268 0.0000
# 6 0.0000 0.0000 0.0000 19.8300 0.0000 1.2591
#
#
#
# Elastic Compliance Matrix: (Units=1/GPa)
#
#
# Indices 1 2 3 4 5 6 
#
# 1 0.018926 -0.007829 -0.003697 0.000000 0.000575 0.000000
# 2 -0.007829 0.015429 -0.002727 0.000000 0.000514 0.000000
# 3 -0.003697 -0.002727 0.014733 0.000000 -0.001815 0.000000
# 4 0.000000 0.000000 0.000000 -0.003355 0.000000 0.052844
# 5 0.000575 0.000514 -0.001815 0.000000 0.034212 0.000000
# 6 0.000000 0.000000 0.000000 0.052844 0.000000 -0.038046
#
#
# Mechanical properties :
#
#
# Convention : Reuss Voigt Hill
#
# Bulk Modulus (GPa) = 48.58870 49.41292 49.00081
# Shear Modulus (GPa) = 64.71106 18.98028 41.84567
#
# Velocity S-wave (km/s) = 5.97237 3.23451 4.80267
# Velocity P-wave (km/s) = 8.62215 6.41765 7.60025
#
# Compressibility (1/GPa) = 0.02058091
#
# Stress axis : x y z
#
# Youngs Moduli (GPa) = 52.83857 64.81153 67.87429
#
# Poissons Ratio (x) = 0.50742 0.25093
# Poissons Ratio (y) = 0.41368 0.18512
# Poissons Ratio (z) = 0.19534 0.17677
#
# Static dielectric constant tensor:
#      x y z
#    x 3.287970 0.000000 0.061780 
#    y 0.000000 3.364160 0.000000 
#    z 0.061780 0.000000 3.381170 
# 
# 
# High freq. dielectric constant tensor:
#      x y z
#    x 1.696490 0.000000 0.005310 
#    y 0.000000 1.706360 0.000000 
#    z 0.005310 0.000000 1.711750 
# 
# From -- ./inp_files/29438.got.cif
#   From: 2010.06.25/outbox.cif.g09.slc.cpg/sg13_15_cif.got.tgz:29438.got - 2010.06.28 04:50:58.
