data_PCOD8117614
_publ_section_title
;
Structure prediction by ZEFSAII (Michael W. Deem and Ramdas Pophale) SiO2 
 PCOD8117614
Probable space group: P 2/C
;
_chemical_formula_sum "Si O2"
_cell_formula_units_Z 28
_cell_length_a 12.769193
_cell_length_b 15.063171
_cell_length_c 8.722136
_cell_angle_alpha 90.000000
_cell_angle_beta 68.330711
_cell_angle_gamma 90.000000
_cell_volume 1559.096371
_symmetry_space_group_name_H-M "P 2/C"
_symmetry_group_IT_number 13
_symmetry_cell_setting 'monoclinic'
loop_
_space_group_symop_operation_xyz
x,y,z
-x,y,1/2-z
-x,-y,-z
x,-y,1/2+z
loop_
_atom_site_type_symbol
_atom_site_label
_atom_site_fract_x
_atom_site_fract_y
_atom_site_fract_z
Si Si1 0.369018 0.905632 0.980722
Si Si2 0.637081 0.918170 0.859102
Si Si3 0.220883 0.576717 0.527929
Si Si4 0.078899 0.543451 0.331916
Si Si5 0.393106 0.725644 0.105856
Si Si6 0.353393 0.257745 0.984864
Si Si7 0.579683 0.447259 0.070012
O O1 0.502580 0.914912 0.926046
O O2 0.319500 0.909016 0.836895
O O3 0.331076 0.810343 0.065460
O O4 0.316573 0.988275 0.101932
O O5 0.687144 0.839970 0.940225
O O6 0.162753 0.601224 0.393702
O O7 0.142288 0.531907 0.698135
O O8 0.264250 0.667383 0.584616
O O9 0.324138 0.513444 0.422145
O O10 0.000000 0.597253 0.250000
O O11 0.000000 0.500000 0.500000
O O12 0.526854 0.725544 0.000249
O O13 0.365638 0.731840 0.297668
O O14 0.353590 0.634343 0.047478
O O15 0.500000 0.412710 0.250000
O O16 0.500000 0.500000 0.000000
#
# Coordination Sequence:
#
# PCOD8117614 Si02
#       7
#     4   4   4   4   4   4   4
#     4   9  17  28  43  60  85 132 178 216 245 273
#     4   9  17  28  44  62  88 123 177 220 246 283
#     4  11  20  33  52  72  98 135 172 211 263 307
#     4   9  20  37  54  70  90 125 172 223 272 318
#     4  10  20  30  42  63 100 138 176 207 239 288
#     4  10  19  30  45  66  97 132 168 211 249 298
#     4  12  23  32  46  70 106 142 174 207 246 306
#
# _framework density 17.959122000000001
#
# number of rings (size 3 to 8) (size 9 to 14) (size 15 to 20)
#    0.000    2.000    1.429    3.429    4.000    3.429 
#    0.000    0.000    0.000    0.000    0.000    0.000 
#    0.000    0.000    0.000  169.714    0.000   13.143 
#
# Total GULP energy -346931.691009 kJ/mol
# GULP energy per Si atom -12390.417536 kJ/mol
# Density = 1.791825 g / cm^3
# Si number density = 17.959122 Si / 1000 Ang^3
#
#
#
# Elastic Constant Matrix: (Units=GPa)
#
#
# Indices 1 2 3 4 5 6 
#
# 1 59.7415 27.8769 20.8905 0.0000 13.2402 0.0000
# 2 27.8769 134.9615 32.6653 0.0000 15.9545 0.0000
# 3 20.8905 32.6653 83.2633 0.0000 13.4650 0.0000
# 4 0.0000 0.0000 0.0000 27.0534 0.0000 10.2371
# 5 13.2402 15.9545 13.4650 0.0000 25.2119 0.0000
# 6 0.0000 0.0000 0.0000 10.2371 0.0000 13.8795
#
#
#
# Elastic Compliance Matrix: (Units=1/GPa)
#
#
# Indices 1 2 3 4 5 6 
#
# 1 0.020691 -0.002668 -0.002912 0.000000 -0.007623 0.000000
# 2 -0.002668 0.008876 -0.002333 0.000000 -0.002970 0.000000
# 3 -0.002912 -0.002333 0.014415 0.000000 -0.004693 0.000000
# 4 0.000000 0.000000 0.000000 0.051275 0.000000 -0.037818
# 5 -0.007623 -0.002970 -0.004693 0.000000 0.048053 0.000000
# 6 0.000000 0.000000 0.000000 -0.037818 0.000000 0.099943
#
#
# Mechanical properties :
#
#
# Convention : Reuss Voigt Hill
#
# Bulk Modulus (GPa) = 35.51479 48.98131 42.24805
# Shear Modulus (GPa) = 18.62452 26.33120 22.47786
#
# Velocity S-wave (km/s) = 3.22382 3.83322 3.54165
# Velocity P-wave (km/s) = 5.80307 6.85014 6.34823
#
# Compressibility (1/GPa) = 0.02815729
#
# Stress axis : x y z
#
# Youngs Moduli (GPa) = 48.32935 112.65979 69.37326
#
# Poissons Ratio (x) = 0.30057 0.20202
# Poissons Ratio (y) = 0.12894 0.16182
# Poissons Ratio (z) = 0.14074 0.26279
#
# Static dielectric constant tensor:
#      x y z
#    x 3.487410 0.000000 0.235410 
#    y 0.000000 3.501940 0.000000 
#    z 0.235410 0.000000 3.667250 
# 
# 
# High freq. dielectric constant tensor:
#      x y z
#    x 1.647520 0.000000 0.031790 
#    y 0.000000 1.686260 0.000000 
#    z 0.031790 0.000000 1.702530 
# 
# From -- ./inp_files/16456.got.cif
#   From: 2010.06.25/outbox.cif.g09.slc.cpg/sg13_9_cif.got.tgz:16456.got - 2010.06.28 04:50:58.
