data_PCOD8117423
_publ_section_title
;
Structure prediction by ZEFSAII (Michael W. Deem and Ramdas Pophale) SiO2 
 PCOD8117423
Probable space group: P 2/C
;
_chemical_formula_sum "Si O2"
_cell_formula_units_Z 28
_cell_length_a 13.505282
_cell_length_b 9.424927
_cell_length_c 12.929297
_cell_angle_alpha 90.000000
_cell_angle_beta 113.218956
_cell_angle_gamma 90.000000
_cell_volume 1512.426983
_symmetry_space_group_name_H-M "P 2/C"
_symmetry_group_IT_number 13
_symmetry_cell_setting 'monoclinic'
loop_
_space_group_symop_operation_xyz
x,y,z
-x,y,1/2-z
-x,-y,-z
x,-y,1/2+z
loop_
_atom_site_type_symbol
_atom_site_label
_atom_site_fract_x
_atom_site_fract_y
_atom_site_fract_z
Si Si1 0.068283 0.640121 0.542238
Si Si2 0.805307 0.567853 0.707435
Si Si3 0.074848 0.206840 0.370937
Si Si4 0.745589 0.998339 0.586889
Si Si5 0.122588 0.724721 0.339201
Si Si6 0.365135 0.774329 0.817897
Si Si7 0.578989 0.122092 0.362837
O O1 0.159294 0.609835 0.663364
O O2 0.124053 0.693200 0.461200
O O3 0.000000 0.500000 0.500000
O O4 0.990725 0.765644 0.551288
O O5 0.879763 0.642547 0.652016
O O6 0.814641 0.400352 0.694942
O O7 0.682942 0.629373 0.652263
O O8 0.000000 0.139390 0.250000
O O9 0.167707 0.096671 0.438407
O O10 0.804634 0.138311 0.653896
O O11 0.650439 0.027766 0.466705
O O12 0.698600 0.910697 0.663336
O O13 0.000000 0.742312 0.250000
O O14 0.348943 0.779828 0.685099
O O15 0.493951 0.783196 0.896399
O O16 0.500000 0.031352 0.250000
#
# Coordination Sequence:
#
# PCOD8117423 Si02
#       7
#     4   4   4   4   4   4   4
#     4  11  19  34  52  71 112 149 177 211 250 310
#     4  10  18  36  53  75 102 146 179 206 260 317
#     4   9  19  34  53  74 106 148 180 201 254 323
#     4  11  20  34  55  82 108 135 175 223 266 303
#     4  12  23  32  50  84 112 140 174 218 259 303
#     4   8  19  36  60  74  99 138 179 215 261 329
#     4   8  19  37  58  79  98 136 179 216 273 319
#
# _framework density 18.513290999999999
#
# number of rings (size 3 to 8) (size 9 to 14) (size 15 to 20)
#    0.857    1.143    2.857    2.143    0.000    1.714 
#    0.000    0.714    0.000    3.429    0.000    0.000 
#    0.000    0.000    0.000    0.000    0.000    0.000 
#
# Total GULP energy -346873.167120 kJ/mol
# GULP energy per Si atom -12388.327397 kJ/mol
# Density = 1.847115 g / cm^3
# Si number density = 18.513291 Si / 1000 Ang^3
#
#
#
# Elastic Constant Matrix: (Units=GPa)
#
#
# Indices 1 2 3 4 5 6 
#
# 1 110.6122 52.8405 41.2800 0.0000 -3.0854 0.0000
# 2 52.8405 99.1032 26.6410 0.0000 5.9893 0.0000
# 3 41.2800 26.6410 61.7897 0.0000 5.4608 0.0000
# 4 0.0000 0.0000 0.0000 17.0589 0.0000 4.3829
# 5 -3.0854 5.9893 5.4608 0.0000 34.9428 0.0000
# 6 0.0000 0.0000 0.0000 4.3829 0.0000 11.1671
#
#
#
# Elastic Compliance Matrix: (Units=1/GPa)
#
#
# Indices 1 2 3 4 5 6 
#
# 1 0.014911 -0.006111 -0.007641 0.000000 0.003558 0.000000
# 2 -0.006111 0.013968 -0.001704 0.000000 -0.002668 0.000000
# 3 -0.007641 -0.001704 0.022366 0.000000 -0.003878 0.000000
# 4 0.000000 0.000000 0.000000 0.065195 0.000000 -0.025588
# 5 0.003558 -0.002668 -0.003878 0.000000 0.029996 0.000000
# 6 0.000000 0.000000 0.000000 -0.025588 0.000000 0.099592
#
#
# Mechanical properties :
#
#
# Convention : Reuss Voigt Hill
#
# Bulk Modulus (GPa) = 49.18216 57.00312 53.09264
# Shear Modulus (GPa) = 17.62314 22.68331 20.15323
#
# Velocity S-wave (km/s) = 3.08866 3.50415 3.30295
# Velocity P-wave (km/s) = 6.27243 6.87236 6.57923
#
# Compressibility (1/GPa) = 0.02033258
#
# Stress axis : x y z
#
# Youngs Moduli (GPa) = 67.06508 71.59120 44.71033
#
# Poissons Ratio (x) = 0.43751 0.34164
# Poissons Ratio (y) = 0.40985 0.07619
# Poissons Ratio (z) = 0.51245 0.12199
#
# Static dielectric constant tensor:
#      x y z
#    x 3.543390 0.000000 -0.088410 
#    y 0.000000 3.310120 0.000000 
#    z -0.088410 0.000000 3.284040 
# 
# 
# High freq. dielectric constant tensor:
#      x y z
#    x 1.727570 0.000000 -0.005720 
#    y 0.000000 1.693730 0.000000 
#    z -0.005720 0.000000 1.705510 
# 
# From -- ./inp_files/36230.got.cif
#   From: 2010.06.25/outbox.cif.g09.slc.cpg/sg13_19_cif.got.tgz:36230.got - 2010.06.28 04:50:58.
