data_PCOD8117638
_publ_section_title
;
Structure prediction by ZEFSAII (Michael W. Deem and Ramdas Pophale) SiO2 
 PCOD8117638
Probable space group: P 2/C
;
_chemical_formula_sum "Si O2"
_cell_formula_units_Z 24
_cell_length_a 21.474325
_cell_length_b 8.850911
_cell_length_c 10.164815
_cell_angle_alpha 90.000000
_cell_angle_beta 143.684197
_cell_angle_gamma 90.000000
_cell_volume 1144.198486
_symmetry_space_group_name_H-M "P 2/C"
_symmetry_group_IT_number 13
_symmetry_cell_setting 'monoclinic'
loop_
_space_group_symop_operation_xyz
x,y,z
-x,y,1/2-z
-x,-y,-z
x,-y,1/2+z
loop_
_atom_site_type_symbol
_atom_site_label
_atom_site_fract_x
_atom_site_fract_y
_atom_site_fract_z
Si Si1 0.303902 0.039088 0.636592
Si Si2 0.084610 0.052320 0.799384
Si Si3 0.616624 0.842814 0.966365
Si Si4 0.785011 0.408527 0.805763
Si Si5 0.013448 0.758137 0.944157
Si Si6 0.797815 0.650025 0.617537
O O1 0.381862 0.071722 0.890112
O O2 0.258420 0.188211 0.486570
O O3 0.208397 0.943521 0.543883
O O4 0.363116 0.950577 0.623237
O O5 0.078841 0.131742 0.649550
O O6 0.000000 0.138544 0.750000
O O7 0.055380 0.874684 0.759897
O O8 0.702750 0.713240 0.114019
O O9 0.500000 0.774327 0.750000
O O10 0.757757 0.557810 0.675983
O O11 0.904312 0.346374 0.993270
O O12 0.772589 0.442891 0.939912
O O13 0.923826 0.655710 0.858419
#
# Coordination Sequence:
#
# PCOD8117638 Si02
#       6
#     4   4   4   4   4   4
#     4  10  22  40  62  91 121 153 200 253 302 354
#     4  10  19  30  55  89 121 159 190 238 298 365
#     4  11  23  42  66  89 117 156 205 257 306 349
#     4  11  22  41  56  88 121 165 196 250 292 357
#     4  10  19  33  54  83 123 156 196 232 295 355
#     4  10  23  36  60  84 125 159 200 235 301 360
#
# _framework density 20.975380000000001
#
# number of rings (size 3 to 8) (size 9 to 14) (size 15 to 20)
#    0.000    1.667    1.667    4.500    4.667    2.667 
#    0.000    4.167    0.000    0.000    0.000    0.000 
#    0.000    0.000    0.000    0.000    0.000    0.000 
#
# Total GULP energy -297328.627295 kJ/mol
# GULP energy per Si atom -12388.692804 kJ/mol
# Density = 2.092764 g / cm^3
# Si number density = 20.975380 Si / 1000 Ang^3
#
#
#
# Elastic Constant Matrix: (Units=GPa)
#
#
# Indices 1 2 3 4 5 6 
#
# 1 52.0795 28.2560 7.2720 0.0000 4.6004 0.0000
# 2 28.2560 41.8965 14.7772 0.0000 -2.0004 0.0000
# 3 7.2720 14.7772 93.6887 0.0000 15.5598 0.0000
# 4 0.0000 0.0000 0.0000 16.7575 0.0000 -8.0694
# 5 4.6004 -2.0004 15.5598 0.0000 21.9071 0.0000
# 6 0.0000 0.0000 0.0000 -8.0694 0.0000 29.6215
#
#
#
# Elastic Compliance Matrix: (Units=1/GPa)
#
#
# Indices 1 2 3 4 5 6 
#
# 1 0.032537 -0.023548 0.003039 0.000000 -0.011141 0.000000
# 2 -0.023548 0.042990 -0.007285 0.000000 0.014045 0.000000
# 3 0.003039 -0.007285 0.013382 0.000000 -0.010808 0.000000
# 4 0.000000 0.000000 0.000000 0.068685 0.000000 0.018711
# 5 -0.011141 0.014045 -0.010808 0.000000 0.056946 0.000000
# 6 0.000000 0.000000 0.000000 0.018711 0.000000 0.038856
#
#
# Mechanical properties :
#
#
# Convention : Reuss Voigt Hill
#
# Bulk Modulus (GPa) = 30.01166 32.03054 31.02110
# Shear Modulus (GPa) = 15.62058 22.81454 19.21756
#
# Velocity S-wave (km/s) = 2.73190 3.30158 3.03016
# Velocity P-wave (km/s) = 4.92850 5.46238 5.20229
#
# Compressibility (1/GPa) = 0.03332038
#
# Stress axis : x y z
#
# Youngs Moduli (GPa) = 30.73416 23.26146 74.72799
#
# Poissons Ratio (x) = 0.54775 -0.22709
# Poissons Ratio (y) = 0.72371 0.54443
# Poissons Ratio (z) = -0.09340 0.16947
#
# Static dielectric constant tensor:
#      x y z
#    x 3.832620 0.000000 -0.038240 
#    y 0.000000 3.495210 0.000000 
#    z -0.038240 0.000000 3.731390 
# 
# 
# High freq. dielectric constant tensor:
#      x y z
#    x 1.822610 0.000000 -0.010430 
#    y 0.000000 1.795810 0.000000 
#    z -0.010430 0.000000 1.818030 
# 
# From -- ./inp_files/41664.got.cif
#   From: 2010.06.25/outbox.cif.g09.slc.cpg/sg13_21_cif.got.tgz:41664.got - 2010.06.28 04:50:58.
