data_PCOD8117128
_publ_section_title
;
Structure prediction by ZEFSAII (Michael W. Deem and Ramdas Pophale) SiO2 
 PCOD8117128
Probable space group: P 2/C
;
_chemical_formula_sum "Si O2"
_cell_formula_units_Z 24
_cell_length_a 9.467069
_cell_length_b 13.174122
_cell_length_c 10.560466
_cell_angle_alpha 90.000000
_cell_angle_beta 119.347636
_cell_angle_gamma 90.000000
_cell_volume 1148.070261
_symmetry_space_group_name_H-M "P 2/C"
_symmetry_group_IT_number 13
_symmetry_cell_setting 'monoclinic'
loop_
_space_group_symop_operation_xyz
x,y,z
-x,y,1/2-z
-x,-y,-z
x,-y,1/2+z
loop_
_atom_site_type_symbol
_atom_site_label
_atom_site_fract_x
_atom_site_fract_y
_atom_site_fract_z
Si Si1 0.000000 0.088212 0.250000
Si Si2 0.274092 0.182427 0.533609
Si Si3 0.719992 0.032664 0.728647
Si Si4 0.337638 0.521707 0.799628
Si Si5 0.470060 0.124632 0.059496
Si Si6 0.500000 0.704297 0.750000
Si Si7 0.686565 0.419241 0.948069
O O1 0.110919 0.159674 0.385413
O O2 0.104347 0.019120 0.199724
O O3 0.280576 0.122073 0.668945
O O4 0.429953 0.153384 0.521815
O O5 0.282168 0.301974 0.562088
O O6 0.687754 0.070291 0.568680
O O7 0.581628 0.947914 0.698082
O O8 0.377573 0.637016 0.777020
O O9 0.495308 0.448169 0.878345
O O10 0.232111 0.475148 0.637791
O O11 0.238967 0.534326 0.887975
O O12 0.408978 0.222779 0.109629
#
# Coordination Sequence:
#
# PCOD8117128 Si02
#       7
#     2   4   4   4   4   2   4
#     4  10  24  42  52  82 120 164 200 244 288 342
#     4  11  21  38  61  82 117 159 204 234 299 356
#     4  10  23  37  57  83 119 155 197 244 287 350
#     4   9  19  32  52  87 124 142 182 243 314 347
#     4  10  22  33  56  91 117 149 192 245 296 346
#     4  10  18  32  50  84 126 146 174 238 304 350
#     4   9  18  32  55  84 117 153 184 240 301 361
#
# _framework density 20.904644999999999
#
# number of rings (size 3 to 8) (size 9 to 14) (size 15 to 20)
#    0.000    2.333    1.667    1.000   11.667    0.000 
#    0.000    0.000    0.000    1.000    0.000    4.667 
#    0.000    0.000    0.000    0.000    0.000    0.000 
#
# Total GULP energy -297318.383543 kJ/mol
# GULP energy per Si atom -12388.265981 kJ/mol
# Density = 2.085707 g / cm^3
# Si number density = 20.904645 Si / 1000 Ang^3
#
#
#
# Elastic Constant Matrix: (Units=GPa)
#
#
# Indices 1 2 3 4 5 6 
#
# 1 43.1746 33.0388 41.5806 0.0000 -14.2408 0.0000
# 2 33.0388 162.3355 63.0567 0.0000 -19.5830 0.0000
# 3 41.5806 63.0567 103.7350 0.0000 -23.1657 0.0000
# 4 0.0000 0.0000 0.0000 46.0441 0.0000 -12.3703
# 5 -14.2408 -19.5830 -23.1657 0.0000 35.4468 0.0000
# 6 0.0000 0.0000 0.0000 -12.3703 0.0000 18.9815
#
#
#
# Elastic Compliance Matrix: (Units=1/GPa)
#
#
# Indices 1 2 3 4 5 6 
#
# 1 0.039504 -0.002204 -0.013140 0.000000 0.006066 0.000000
# 2 -0.002204 0.008253 -0.003879 0.000000 0.001139 0.000000
# 3 -0.013140 -0.003879 0.018274 0.000000 0.004521 0.000000
# 4 0.000000 0.000000 0.000000 0.026328 0.000000 0.017158
# 5 0.006066 0.001139 0.004521 0.000000 0.034232 0.000000
# 6 0.000000 0.000000 0.000000 0.017158 0.000000 0.063865
#
#
# Mechanical properties :
#
#
# Convention : Reuss Voigt Hill
#
# Bulk Modulus (GPa) = 36.25153 64.95526 50.60339
# Shear Modulus (GPa) = 20.99979 31.53240 26.26610
#
# Velocity S-wave (km/s) = 3.17290 3.88802 3.54852
# Velocity P-wave (km/s) = 5.54997 7.16207 6.40692
#
# Compressibility (1/GPa) = 0.02758505
#
# Stress axis : x y z
#
# Youngs Moduli (GPa) = 25.31371 121.17295 54.72145
#
# Poissons Ratio (x) = 0.26708 0.71906
# Poissons Ratio (y) = 0.05579 0.21225
# Poissons Ratio (z) = 0.33263 0.46999
#
# Static dielectric constant tensor:
#      x y z
#    x 3.433050 0.000000 -0.467560 
#    y 0.000000 3.951310 0.000000 
#    z -0.467560 0.000000 4.270090 
# 
# 
# High freq. dielectric constant tensor:
#      x y z
#    x 1.768420 0.000000 -0.043840 
#    y 0.000000 1.831960 0.000000 
#    z -0.043840 0.000000 1.828070 
# 
# From -- ./inp_files/33398.got.cif
#   From: 2010.06.25/outbox.cif.g09.slc.cpg/sg13_17_cif.got.tgz:33398.got - 2010.06.28 04:50:58.
