data_PCOD8117655
_publ_section_title
;
Structure prediction by ZEFSAII (Michael W. Deem and Ramdas Pophale) SiO2 
 PCOD8117655
Probable space group: P 2/C
;
_chemical_formula_sum "Si O2"
_cell_formula_units_Z 32
_cell_length_a 22.839572
_cell_length_b 15.252610
_cell_length_c 9.194480
_cell_angle_alpha 90.000000
_cell_angle_beta 33.212549
_cell_angle_gamma 90.000000
_cell_volume 1754.441511
_symmetry_space_group_name_H-M "P 2/C"
_symmetry_group_IT_number 13
_symmetry_cell_setting 'monoclinic'
loop_
_space_group_symop_operation_xyz
x,y,z
-x,y,1/2-z
-x,-y,-z
x,-y,1/2+z
loop_
_atom_site_type_symbol
_atom_site_label
_atom_site_fract_x
_atom_site_fract_y
_atom_site_fract_z
Si Si1 0.876221 0.429361 0.858254
Si Si2 0.505362 0.591391 0.408922
Si Si3 0.685537 0.881757 0.611647
Si Si4 0.351006 0.001699 0.565427
Si Si5 0.885104 0.601838 0.665537
Si Si6 0.699958 0.699611 0.673703
Si Si7 0.306637 0.715336 0.472984
Si Si8 0.437028 0.883528 0.136051
O O1 0.867318 0.528661 0.823929
O O2 0.988293 0.378862 0.597309
O O3 0.850156 0.436637 0.082577
O O4 0.788592 0.372832 0.957500
O O5 0.500000 0.571904 0.250000
O O6 0.500000 0.500000 0.500000
O O7 0.411577 0.658648 0.648871
O O8 0.616661 0.634470 0.224956
O O9 0.717151 0.932257 0.396740
O O10 0.738158 0.785696 0.504620
O O11 0.721610 0.941470 0.675968
O O12 0.559955 0.856028 0.886928
O O13 0.426678 0.058737 0.512729
O O14 0.418993 0.940782 0.317178
O O15 0.811500 0.688850 0.844852
O O16 0.694810 0.730189 0.851594
O O17 0.352836 0.803264 0.303142
#
# Coordination Sequence:
#
# PCOD8117655 Si02
#       8
#     4   4   4   4   4   4   4   4
#     4   9  18  34  54  74  95 125 167 208 244 282
#     4  10  20  34  46  65  99 136 160 185 237 298
#     4  11  18  32  47  72 100 131 166 200 240 288
#     4  10  21  30  50  70  99 134 165 202 244 285
#     4   9  18  34  54  74  95 125 167 208 244 282
#     4  10  19  31  50  71  99 132 161 194 243 291
#     4  10  19  31  50  71  99 132 161 194 243 291
#     4  11  18  32  47  72 100 131 166 200 240 288
#
# _framework density 18.239422999999999
#
# number of rings (size 3 to 8) (size 9 to 14) (size 15 to 20)
#    0.000    2.000    2.500    3.750    0.000    0.000 
#    4.500    0.000    0.000    0.000    0.000    5.250 
#    0.000    0.000    0.000    0.000    0.000    0.000 
#
# Total GULP energy -396570.233829 kJ/mol
# GULP energy per Si atom -12392.819807 kJ/mol
# Density = 1.819791 g / cm^3
# Si number density = 18.239423 Si / 1000 Ang^3
#
#
#
# Elastic Constant Matrix: (Units=GPa)
#
#
# Indices 1 2 3 4 5 6 
#
# 1 54.2331 21.6174 19.5322 0.0000 8.5469 0.0000
# 2 21.6174 89.2731 18.7627 0.0000 7.8555 0.0000
# 3 19.5322 18.7627 40.6987 0.0000 -0.2265 0.0000
# 4 0.0000 0.0000 0.0000 2.2920 0.0000 -18.1836
# 5 8.5469 7.8555 -0.2265 0.0000 25.2486 0.0000
# 6 0.0000 0.0000 0.0000 -18.1836 0.0000 5.1325
#
#
#
# Elastic Compliance Matrix: (Units=1/GPa)
#
#
# Indices 1 2 3 4 5 6 
#
# 1 0.024606 -0.003113 -0.010415 0.000000 -0.007454 0.000000
# 2 -0.003113 0.013196 -0.004606 0.000000 -0.003093 0.000000
# 3 -0.010415 -0.004606 0.031722 0.000000 0.005243 0.000000
# 4 0.000000 0.000000 0.000000 -0.016096 0.000000 -0.057023
# 5 -0.007454 -0.003093 0.005243 0.000000 0.043139 0.000000
# 6 0.000000 0.000000 0.000000 -0.057023 0.000000 -0.007188
#
#
# Mechanical properties :
#
#
# Convention : Reuss Voigt Hill
#
# Bulk Modulus (GPa) = 30.07178 33.78107 31.92642
# Shear Modulus (GPa) = 36.56753 14.82079 25.69416
#
# Velocity S-wave (km/s) = 4.48243 2.85365 3.75736
# Velocity P-wave (km/s) = 6.58123 5.42392 6.03040
#
# Compressibility (1/GPa) = 0.03325377
#
# Stress axis : x y z
#
# Youngs Moduli (GPa) = 40.64114 75.78166 31.52383
#
# Poissons Ratio (x) = 0.23594 0.32832
# Poissons Ratio (y) = 0.12653 0.14521
# Poissons Ratio (z) = 0.42328 0.34909
#
# Static dielectric constant tensor:
#      x y z
#    x 3.378130 0.000000 0.097130 
#    y 0.000000 3.454210 0.000000 
#    z 0.097130 0.000000 3.187140 
# 
# 
# High freq. dielectric constant tensor:
#      x y z
#    x 1.693520 0.000000 0.015450 
#    y 0.000000 1.712740 0.000000 
#    z 0.015450 0.000000 1.673370 
# 
# From -- ./inp_files/23538.got.cif
#   From: 2010.06.25/outbox.cif.g09.slc.cpg/sg13_12_cif.got.tgz:23538.got - 2010.06.28 04:50:58.
