data_PCOD8117223
_publ_section_title
;
Structure prediction by ZEFSAII (Michael W. Deem and Ramdas Pophale) SiO2 
 PCOD8117223
Probable space group: P 2/C
;
_chemical_formula_sum "Si O2"
_cell_formula_units_Z 30
_cell_length_a 29.573129
_cell_length_b 8.808499
_cell_length_c 17.290556
_cell_angle_alpha 90.000000
_cell_angle_beta 20.113927
_cell_angle_gamma 90.000000
_cell_volume 1548.906158
_symmetry_space_group_name_H-M "P 2/C"
_symmetry_group_IT_number 13
_symmetry_cell_setting 'monoclinic'
loop_
_space_group_symop_operation_xyz
x,y,z
-x,y,1/2-z
-x,-y,-z
x,-y,1/2+z
loop_
_atom_site_type_symbol
_atom_site_label
_atom_site_fract_x
_atom_site_fract_y
_atom_site_fract_z
Si Si1 0.061349 0.937324 0.538654
Si Si2 0.358082 0.661022 0.000156
Si Si3 0.216675 0.098364 0.637639
Si Si4 0.000000 0.494864 0.750000
Si Si5 0.791126 0.799701 0.942642
Si Si6 0.857658 0.428222 0.210842
Si Si7 0.022244 0.746256 0.339770
Si Si8 0.232943 0.723689 0.353423
O O1 0.113420 0.958272 0.367648
O O2 0.169305 0.879398 0.424613
O O3 0.941812 0.818336 0.727514
O O4 0.010480 0.098074 0.652282
O O5 0.500000 0.593358 0.750000
O O6 0.339009 0.820023 0.983952
O O7 0.240283 0.551047 0.166342
O O8 0.351219 0.683027 0.104327
O O9 0.146716 0.224625 0.696005
O O10 0.263461 0.951749 0.512225
O O11 0.941755 0.389432 0.775628
O O12 0.123797 0.592416 0.523914
O O13 0.784891 0.650085 0.899978
O O14 0.711264 0.758488 0.149981
O O15 0.000000 0.500000 0.000000
O O16 0.888026 0.296721 0.100407
#
# Coordination Sequence:
#
# PCOD8117223 Si02
#       8
#     4   4   4   2   4   4   4   4
#     4  10  18  33  54  88 126 153 190 243 303 350
#     4  11  25  44  61  82 120 166 204 244 303 369
#     4  10  20  36  59  84 115 159 206 240 291 358
#     4  12  22  30  52  96 132 150 188 252 312 352
#     4  11  19  33  57  89 116 152 199 251 298 348
#     4  12  19  36  62  90 119 153 201 243 300 361
#     4  11  20  31  54  93 122 152 195 246 296 358
#     4  11  22  36  56  85 125 156 192 250 311 348
#
# _framework density 19.368506
#
# number of rings (size 3 to 8) (size 9 to 14) (size 15 to 20)
#    0.000    1.067    6.667    2.400    3.733    0.000 
#    0.000    2.000    0.000    0.000    0.000    0.000 
#    0.000    0.000    0.000    0.000    0.000    0.000 
#
# Total GULP energy -371860.888259 kJ/mol
# GULP energy per Si atom -12395.362942 kJ/mol
# Density = 1.932442 g / cm^3
# Si number density = 19.368506 Si / 1000 Ang^3
#
#
#
# Elastic Constant Matrix: (Units=GPa)
#
#
# Indices 1 2 3 4 5 6 
#
# 1 102.0830 37.1689 29.1451 0.0000 30.8103 0.0000
# 2 37.1689 76.5969 19.8596 0.0000 9.6572 0.0000
# 3 29.1451 19.8596 74.3182 0.0000 11.3919 0.0000
# 4 0.0000 0.0000 0.0000 12.2852 0.0000 8.0321
# 5 30.8103 9.6572 11.3919 0.0000 25.8481 0.0000
# 6 0.0000 0.0000 0.0000 8.0321 0.0000 33.1993
#
#
#
# Elastic Compliance Matrix: (Units=1/GPa)
#
#
# Indices 1 2 3 4 5 6 
#
# 1 0.018249 -0.005819 -0.002789 0.000000 -0.018349 0.000000
# 2 -0.005819 0.016249 -0.002352 0.000000 0.001901 0.000000
# 3 -0.002789 -0.002352 0.015587 0.000000 -0.002666 0.000000
# 4 0.000000 0.000000 0.000000 0.096694 0.000000 -0.023394
# 5 -0.018349 0.001901 -0.002666 0.000000 0.061024 0.000000
# 6 0.000000 0.000000 0.000000 -0.023394 0.000000 0.035781
#
#
# Mechanical properties :
#
#
# Convention : Reuss Voigt Hill
#
# Bulk Modulus (GPa) = 35.50450 47.26058 41.38254
# Shear Modulus (GPa) = 18.18909 25.38816 21.78862
#
# Velocity S-wave (km/s) = 3.06781 3.62442 3.35767
# Velocity P-wave (km/s) = 5.56053 6.47834 6.03690
#
# Compressibility (1/GPa) = 0.02816545
#
# Stress axis : x y z
#
# Youngs Moduli (GPa) = 54.79775 61.54249 64.15792
#
# Poissons Ratio (x) = 0.35810 0.17894
# Poissons Ratio (y) = 0.31886 0.15088
# Poissons Ratio (z) = 0.15283 0.14472
#
# Static dielectric constant tensor:
#      x y z
#    x 3.724580 0.000000 0.384180 
#    y 0.000000 3.665680 0.000000 
#    z 0.384180 0.000000 3.094990 
# 
# 
# High freq. dielectric constant tensor:
#      x y z
#    x 1.760490 0.000000 0.033840 
#    y 0.000000 1.769780 0.000000 
#    z 0.033840 0.000000 1.691460 
# 
# From -- ./inp_files/72370.got.cif
#   From: 2010.06.25/outbox.cif.g09.slc.cpg/sg13_37_cif.got.tgz:72370.got - 2010.06.28 04:50:58.
