data_PCOD8117302
_publ_section_title
;
Structure prediction by ZEFSAII (Michael W. Deem and Ramdas Pophale) SiO2 
 PCOD8117302
Probable space group: P 2/C
;
_chemical_formula_sum "Si O2"
_cell_formula_units_Z 26
_cell_length_a 14.860989
_cell_length_b 9.062715
_cell_length_c 16.185347
_cell_angle_alpha 90.000000
_cell_angle_beta 140.944249
_cell_angle_gamma 90.000000
_cell_volume 1373.476347
_symmetry_space_group_name_H-M "P 2/C"
_symmetry_group_IT_number 13
_symmetry_cell_setting 'monoclinic'
loop_
_space_group_symop_operation_xyz
x,y,z
-x,y,1/2-z
-x,-y,-z
x,-y,1/2+z
loop_
_atom_site_type_symbol
_atom_site_label
_atom_site_fract_x
_atom_site_fract_y
_atom_site_fract_z
Si Si1 0.000000 0.206807 0.750000
Si Si2 0.570827 0.116857 0.492184
Si Si3 0.934792 0.849223 0.488591
Si Si4 0.379770 0.739752 0.723027
Si Si5 0.205015 0.314366 0.765667
Si Si6 0.868318 0.591260 0.870647
Si Si7 0.775000 0.030085 0.497182
O O1 0.894088 0.309396 0.724728
O O2 0.921904 0.109070 0.625593
O O3 0.449527 0.206323 0.357605
O O4 0.646760 0.240166 0.602788
O O5 0.678307 0.020380 0.510802
O O6 0.500000 0.000000 0.500000
O O7 0.852235 0.768451 0.356100
O O8 0.065322 0.745891 0.615322
O O9 0.825087 0.878833 0.487115
O O10 0.000000 0.000000 0.500000
O O11 0.500000 0.664750 0.750000
O O12 0.251519 0.624692 0.645492
O O13 0.317160 0.883019 0.634876
O O14 0.214139 0.490638 0.755519
O O15 0.000000 0.500000 0.000000
#
# Coordination Sequence:
#
# PCOD8117302 Si02
#       7
#     2   4   4   4   4   4   4
#     4  10  18  34  56  80 116 152 186 236 314 358
#     4  10  22  36  56  82 119 158 203 245 297 359
#     4  11  18  34  64  88 112 146 198 255 298 348
#     4  10  20  37  59  81 113 162 204 233 296 374
#     4  10  21  36  55  83 121 152 192 245 305 364
#     4  10  21  36  57  86 116 149 194 244 306 356
#     4  10  19  33  57  88 109 148 200 248 295 352
#
# _framework density 18.930067999999999
#
# number of rings (size 3 to 8) (size 9 to 14) (size 15 to 20)
#    0.000    1.846    3.077    1.846    0.000    0.615 
#    0.000    5.385    0.000    0.000    0.000    0.000 
#    0.000    0.000    0.000    0.000    0.000    0.000 
#
# Total GULP energy -322179.503366 kJ/mol
# GULP energy per Si atom -12391.519360 kJ/mol
# Density = 1.888698 g / cm^3
# Si number density = 18.930068 Si / 1000 Ang^3
#
#
#
# Elastic Constant Matrix: (Units=GPa)
#
#
# Indices 1 2 3 4 5 6 
#
# 1 125.0659 63.3942 35.0193 0.0000 10.6060 0.0000
# 2 63.3942 113.7846 44.9675 0.0000 1.7934 0.0000
# 3 35.0193 44.9675 106.0131 0.0000 3.2920 0.0000
# 4 0.0000 0.0000 0.0000 27.0532 0.0000 0.5435
# 5 10.6060 1.7934 3.2920 0.0000 30.6897 0.0000
# 6 0.0000 0.0000 0.0000 0.5435 0.0000 -4.4244
#
#
#
# Elastic Compliance Matrix: (Units=1/GPa)
#
#
# Indices 1 2 3 4 5 6 
#
# 1 0.011657 -0.005960 -0.001213 0.000000 -0.003550 0.000000
# 2 -0.005960 0.013606 -0.003855 0.000000 0.001678 0.000000
# 3 -0.001213 -0.003855 0.011487 0.000000 -0.000588 0.000000
# 4 0.000000 0.000000 0.000000 0.036873 0.000000 0.004529
# 5 -0.003550 0.001678 -0.000588 0.000000 0.033776 0.000000
# 6 0.000000 0.000000 0.000000 0.004529 0.000000 -0.225463
#
#
# Mechanical properties :
#
#
# Convention : Reuss Voigt Hill
#
# Bulk Modulus (GPa) = 68.04573 70.18061 69.11317
# Shear Modulus (GPa) = -54.87755 24.09587 -15.39084
#
# Velocity S-wave (km/s) = -5.39004 3.57163 -2.85447
# Velocity P-wave (km/s) = 1.64708 7.35954 5.07198
#
# Compressibility (1/GPa) = 0.01469600
#
# Stress axis : x y z
#
# Youngs Moduli (GPa) = 85.78386 73.49838 87.05769
#
# Poissons Ratio (x) = 0.43802 0.10557
# Poissons Ratio (y) = 0.51123 0.33558
# Poissons Ratio (z) = 0.10402 0.28331
#
# Static dielectric constant tensor:
#      x y z
#    x 1.713150 0.000000 0.373420 
#    y 0.000000 3.640890 0.000000 
#    z 0.373420 0.000000 3.542820 
# 
# 
# High freq. dielectric constant tensor:
#      x y z
#    x 1.741980 0.000000 0.006940 
#    y 0.000000 1.711400 0.000000 
#    z 0.006940 0.000000 1.742530 
# 
# From -- ./inp_files/53295.got.cif
#   From: 2010.06.25/outbox.cif.g09.slc.cpg/sg13_27_cif.got.tgz:53295.got - 2010.06.28 04:50:58.
