data_PCOD8117428
_publ_section_title
;
Structure prediction by ZEFSAII (Michael W. Deem and Ramdas Pophale) SiO2 
 PCOD8117428
Probable space group: P 2/C
;
_chemical_formula_sum "Si O2"
_cell_formula_units_Z 26
_cell_length_a 15.760328
_cell_length_b 9.217422
_cell_length_c 17.896901
_cell_angle_alpha 90.000000
_cell_angle_beta 148.760042
_cell_angle_gamma 90.000000
_cell_volume 1348.356328
_symmetry_space_group_name_H-M "P 2/C"
_symmetry_group_IT_number 13
_symmetry_cell_setting 'monoclinic'
loop_
_space_group_symop_operation_xyz
x,y,z
-x,y,1/2-z
-x,-y,-z
x,-y,1/2+z
loop_
_atom_site_type_symbol
_atom_site_label
_atom_site_fract_x
_atom_site_fract_y
_atom_site_fract_z
Si Si1 0.500000 0.166249 0.250000
Si Si2 0.160085 0.434696 0.536820
Si Si3 0.344384 0.575043 0.551946
Si Si4 0.890345 0.192955 0.884418
Si Si5 0.157907 0.436107 0.767792
Si Si6 0.668629 0.601899 0.713802
Si Si7 0.747951 0.094928 0.319997
O O1 0.629158 0.268455 0.390688
O O2 0.613677 0.066026 0.283685
O O3 0.310836 0.454453 0.591456
O O4 0.143164 0.275981 0.561561
O O5 0.178036 0.550706 0.618200
O O6 0.004682 0.472670 0.369329
O O7 0.189422 0.588736 0.379220
O O8 0.506424 0.533804 0.628060
O O9 0.842889 0.283636 0.775869
O O10 0.770642 0.053443 0.791628
O O11 0.077097 0.143300 0.015770
O O12 0.309248 0.533362 0.851039
O O13 0.672472 0.776582 0.711580
#
# Coordination Sequence:
#
# PCOD8117428 Si02
#       7
#     2   4   4   4   4   4   4
#     4  10  20  38  54  82 112 158 184 226 286 348
#     4  11  18  35  56  85 108 138 188 230 270 332
#     4  11  20  33  58  78 116 141 182 231 285 320
#     4  10  20  34  59  82 108 146 192 226 272 334
#     4  11  20  33  55  88 104 142 188 234 270 326
#     4  10  18  36  55  77 110 147 180 220 280 336
#     4  10  18  36  59  77 108 153 183 221 272 342
#
# _framework density 19.282736
#
# number of rings (size 3 to 8) (size 9 to 14) (size 15 to 20)
#    0.000    1.538    6.154    1.846    0.000    0.000 
#    5.538    3.077    3.385    0.000    0.000    0.000 
#    0.000    0.000    0.000    0.000    0.000    0.000 
#
# Total GULP energy -322223.547544 kJ/mol
# GULP energy per Si atom -12393.213367 kJ/mol
# Density = 1.923885 g / cm^3
# Si number density = 19.282736 Si / 1000 Ang^3
#
#
#
# Elastic Constant Matrix: (Units=GPa)
#
#
# Indices 1 2 3 4 5 6 
#
# 1 72.4439 28.6863 6.4046 0.0000 7.9907 0.0000
# 2 28.6863 87.8642 10.7949 0.0000 1.7155 0.0000
# 3 6.4046 10.7949 60.8979 0.0000 -13.4802 0.0000
# 4 0.0000 0.0000 0.0000 13.8150 0.0000 6.9610
# 5 7.9907 1.7155 -13.4802 0.0000 40.5555 0.0000
# 6 0.0000 0.0000 0.0000 6.9610 0.0000 27.6034
#
#
#
# Elastic Compliance Matrix: (Units=1/GPa)
#
#
# Indices 1 2 3 4 5 6 
#
# 1 0.016343 -0.005070 -0.001603 0.000000 -0.003539 0.000000
# 2 -0.005070 0.013268 -0.001859 0.000000 -0.000180 0.000000
# 3 -0.001603 -0.001859 0.018357 0.000000 0.006496 0.000000
# 4 0.000000 0.000000 0.000000 0.082922 0.000000 -0.020911
# 5 -0.003539 -0.000180 0.006496 0.000000 0.027522 0.000000
# 6 0.000000 0.000000 0.000000 -0.020911 0.000000 0.041501
#
#
# Mechanical properties :
#
#
# Convention : Reuss Voigt Hill
#
# Bulk Modulus (GPa) = 32.35730 34.77527 33.56628
# Shear Modulus (GPa) = 21.99947 28.08280 25.04114
#
# Velocity S-wave (km/s) = 3.38137 3.82038 3.60756
# Velocity P-wave (km/s) = 5.66231 6.12650 5.89897
#
# Compressibility (1/GPa) = 0.03090493
#
# Stress axis : x y z
#
# Youngs Moduli (GPa) = 61.18686 75.36775 54.47508
#
# Poissons Ratio (x) = 0.38210 0.08735
# Poissons Ratio (y) = 0.31020 0.10125
# Poissons Ratio (z) = 0.09811 0.14008
#
# Static dielectric constant tensor:
#      x y z
#    x 3.742530 0.000000 0.184490 
#    y 0.000000 3.375440 0.000000 
#    z 0.184490 0.000000 3.427790 
# 
# 
# High freq. dielectric constant tensor:
#      x y z
#    x 1.760020 0.000000 0.021230 
#    y 0.000000 1.719090 0.000000 
#    z 0.021230 0.000000 1.741790 
# 
# From -- ./inp_files/80797.got.cif
#   From: 2010.06.25/outbox.cif.g09.slc.cpg/sg13_41_cif.got.tgz:80797.got - 2010.06.28 04:50:58.
