data_PCOD8117304
_publ_section_title
;
Structure prediction by ZEFSAII (Michael W. Deem and Ramdas Pophale) SiO2 
 PCOD8117304
Probable space group: P 2/C
;
_chemical_formula_sum "Si O2"
_cell_formula_units_Z 26
_cell_length_a 14.042032
_cell_length_b 9.590049
_cell_length_c 11.297657
_cell_angle_alpha 90.000000
_cell_angle_beta 57.024245
_cell_angle_gamma 90.000000
_cell_volume 1276.291454
_symmetry_space_group_name_H-M "P 2/C"
_symmetry_group_IT_number 13
_symmetry_cell_setting 'monoclinic'
loop_
_space_group_symop_operation_xyz
x,y,z
-x,y,1/2-z
-x,-y,-z
x,-y,1/2+z
loop_
_atom_site_type_symbol
_atom_site_label
_atom_site_fract_x
_atom_site_fract_y
_atom_site_fract_z
Si Si1 0.266636 0.944131 0.102107
Si Si2 0.500000 0.623828 0.250000
Si Si3 0.691209 0.518584 0.500490
Si Si4 0.967160 0.920956 0.143055
Si Si5 0.544016 0.741698 0.468189
Si Si6 0.707170 0.249181 0.345141
Si Si7 0.171683 0.249208 0.479029
O O1 0.168161 0.895937 0.262052
O O2 0.387238 0.884750 0.063941
O O3 0.274444 0.110788 0.088346
O O4 0.239078 0.881082 0.991942
O O5 0.389213 0.526358 0.336494
O O6 0.512538 0.724461 0.352805
O O7 0.616453 0.609994 0.461359
O O8 0.738617 0.383061 0.402367
O O9 0.796538 0.605353 0.480303
O O10 0.000000 0.993458 0.250000
O O11 0.036828 0.774948 0.088376
O O12 0.000000 0.000000 0.000000
O O13 0.422274 0.747200 0.617814
O O14 0.796732 0.248188 0.179044
#
# Coordination Sequence:
#
# PCOD8117304 Si02
#       7
#     4   2   4   4   4   4   4
#     4  10  22  37  59  89 121 156 200 255 314 366
#     4  10  18  34  56  82 120 168 202 250 296 366
#     4  10  20  35  56  85 119 164 203 246 303 370
#     4  10  20  41  66  89 118 158 209 255 316 366
#     4  10  21  35  53  85 124 158 199 247 307 367
#     4  11  20  35  60  89 121 157 205 244 304 377
#     4  10  21  38  64  87 120 159 203 259 308 364
#
# _framework density 20.371521999999999
#
# number of rings (size 3 to 8) (size 9 to 14) (size 15 to 20)
#    0.000    1.846    1.538    4.154    0.000    4.308 
#    0.000    0.000    0.000   38.769    0.000    0.000 
#    0.000    0.000    0.000    0.000    0.000    0.000 
#
# Total GULP energy -322279.691486 kJ/mol
# GULP energy per Si atom -12395.372749 kJ/mol
# Density = 2.032516 g / cm^3
# Si number density = 20.371522 Si / 1000 Ang^3
#
#
#
# Elastic Constant Matrix: (Units=GPa)
#
#
# Indices 1 2 3 4 5 6 
#
# 1 46.6293 25.3756 11.4725 0.0000 -11.9612 0.0000
# 2 25.3756 135.5821 27.7359 0.0000 -1.9049 0.0000
# 3 11.4725 27.7359 98.8815 0.0000 1.1911 0.0000
# 4 0.0000 0.0000 0.0000 27.8714 0.0000 -4.6144
# 5 -11.9612 -1.9049 1.1911 0.0000 30.7239 0.0000
# 6 0.0000 0.0000 0.0000 -4.6144 0.0000 25.6122
#
#
#
# Elastic Compliance Matrix: (Units=1/GPa)
#
#
# Indices 1 2 3 4 5 6 
#
# 1 0.027038 -0.004507 -0.001997 0.000000 0.010324 0.000000
# 2 -0.004507 0.008586 -0.001872 0.000000 -0.001150 0.000000
# 3 -0.001997 -0.001872 0.010886 0.000000 -0.001316 0.000000
# 4 0.000000 0.000000 0.000000 0.036982 0.000000 0.006663
# 5 0.010324 -0.001150 -0.001316 0.000000 0.036547 0.000000
# 6 0.000000 0.000000 0.000000 0.006663 0.000000 0.040244
#
#
# Mechanical properties :
#
#
# Convention : Reuss Voigt Hill
#
# Bulk Modulus (GPa) = 33.60408 45.58457 39.59433
# Shear Modulus (GPa) = 26.74459 31.27542 29.01001
#
# Velocity S-wave (km/s) = 3.62725 3.92248 3.77775
# Velocity P-wave (km/s) = 5.83729 6.55284 6.20539
#
# Compressibility (1/GPa) = 0.02975829
#
# Stress axis : x y z
#
# Youngs Moduli (GPa) = 36.98488 116.47122 91.86403
#
# Poissons Ratio (x) = 0.52492 0.18348
# Poissons Ratio (y) = 0.16668 0.17193
# Poissons Ratio (z) = 0.07387 0.21798
#
# Static dielectric constant tensor:
#      x y z
#    x 3.754760 0.000000 -0.228720 
#    y 0.000000 3.694540 0.000000 
#    z -0.228720 0.000000 3.872260 
# 
# 
# High freq. dielectric constant tensor:
#      x y z
#    x 1.781860 0.000000 -0.006090 
#    y 0.000000 1.784730 0.000000 
#    z -0.006090 0.000000 1.804600 
# 
# From -- ./inp_files/36102.got.cif
#   From: 2010.06.25/outbox.cif.g09.slc.cpg/sg13_19_cif.got.tgz:36102.got - 2010.06.28 04:50:58.
