data_PCOD8117727
_publ_section_title
;
Structure prediction by ZEFSAII (Michael W. Deem and Ramdas Pophale) SiO2 
 PCOD8117727
Probable space group: P 2/C
;
_chemical_formula_sum "Si O2"
_cell_formula_units_Z 26
_cell_length_a 26.318387
_cell_length_b 10.706619
_cell_length_c 9.472102
_cell_angle_alpha 90.000000
_cell_angle_beta 30.859643
_cell_angle_gamma 90.000000
_cell_volume 1369.057810
_symmetry_space_group_name_H-M "P 2/C"
_symmetry_group_IT_number 13
_symmetry_cell_setting 'monoclinic'
loop_
_space_group_symop_operation_xyz
x,y,z
-x,y,1/2-z
-x,-y,-z
x,-y,1/2+z
loop_
_atom_site_type_symbol
_atom_site_label
_atom_site_fract_x
_atom_site_fract_y
_atom_site_fract_z
Si Si1 0.500000 0.492637 0.750000
Si Si2 0.909611 0.864891 0.770044
Si Si3 0.117512 0.852211 0.205810
Si Si4 0.247807 0.907707 0.141225
Si Si5 0.407684 0.652564 0.214133
Si Si6 0.211328 0.194805 0.212976
Si Si7 0.468759 0.881738 0.663365
O O1 0.573646 0.571288 0.472347
O O2 0.570608 0.415268 0.688298
O O3 0.865604 0.814812 0.729695
O O4 0.019700 0.802496 0.523944
O O5 0.919202 0.014077 0.763727
O O6 0.833269 0.830619 0.075210
O O7 0.218187 0.871862 0.053482
O O8 0.148008 0.763737 0.002071
O O9 0.256223 0.057458 0.139077
O O10 0.352753 0.852444 0.934018
O O11 0.295186 0.702850 0.480884
O O12 0.482049 0.766599 0.030876
O O13 0.500000 0.899432 0.750000
O O14 0.500000 0.000000 0.500000
#
# Coordination Sequence:
#
# PCOD8117727 Si02
#       7
#     2   4   4   4   4   4   4
#     4  10  26  44  62  78 114 164 214 262 304 340
#     4   9  17  31  48  77 121 154 185 230 278 359
#     4   9  18  30  49  79 116 156 191 222 282 361
#     4  10  20  30  50  82 121 158 188 218 293 358
#     4  11  23  43  61  83 119 151 212 253 299 363
#     4  10  19  32  55  81 114 150 190 235 289 353
#     4  12  25  36  58  90 127 158 190 248 308 366
#
# _framework density 18.991163
#
# number of rings (size 3 to 8) (size 9 to 14) (size 15 to 20)
#    0.000    1.846    2.308    1.846    7.538    3.692 
#    0.000    0.000    0.000    0.000    0.000    4.308 
#    0.000    0.000    0.000    0.000    0.000    0.000 
#
# Total GULP energy -322156.627132 kJ/mol
# GULP energy per Si atom -12390.639505 kJ/mol
# Density = 1.894794 g / cm^3
# Si number density = 18.991163 Si / 1000 Ang^3
#
#
#
# Elastic Constant Matrix: (Units=GPa)
#
#
# Indices 1 2 3 4 5 6 
#
# 1 99.4295 31.1863 50.9373 0.0000 -1.6808 0.0000
# 2 31.1863 63.7694 39.2505 0.0000 3.6802 0.0000
# 3 50.9373 39.2505 127.4204 0.0000 -6.3622 0.0000
# 4 0.0000 0.0000 0.0000 22.1694 0.0000 6.5007
# 5 -1.6808 3.6802 -6.3622 0.0000 41.5418 0.0000
# 6 0.0000 0.0000 0.0000 6.5007 0.0000 12.5478
#
#
#
# Elastic Compliance Matrix: (Units=1/GPa)
#
#
# Indices 1 2 3 4 5 6 
#
# 1 0.013440 -0.004060 -0.004109 0.000000 0.000274 0.000000
# 2 -0.004060 0.020870 -0.004944 0.000000 -0.002770 0.000000
# 3 -0.004109 -0.004944 0.011112 0.000000 0.001974 0.000000
# 4 0.000000 0.000000 0.000000 0.053187 0.000000 -0.027555
# 5 0.000274 -0.002770 0.001974 0.000000 0.024631 0.000000
# 6 0.000000 0.000000 0.000000 -0.027555 0.000000 0.093971
#
#
# Mechanical properties :
#
#
# Convention : Reuss Voigt Hill
#
# Bulk Modulus (GPa) = 52.09129 59.26305 55.67717
# Shear Modulus (GPa) = 20.01318 26.53481 23.27399
#
# Velocity S-wave (km/s) = 3.24977 3.74199 3.50454
# Velocity P-wave (km/s) = 6.44749 7.06706 6.76437
#
# Compressibility (1/GPa) = 0.01919707
#
# Stress axis : x y z
#
# Youngs Moduli (GPa) = 74.40372 47.91565 89.99303
#
# Poissons Ratio (x) = 0.19453 0.36974
# Poissons Ratio (y) = 0.30207 0.44494
# Poissons Ratio (z) = 0.30569 0.23690
#
# Static dielectric constant tensor:
#      x y z
#    x 3.563350 0.000000 -0.000930 
#    y 0.000000 2.970560 0.000000 
#    z -0.000930 0.000000 4.050830 
# 
# 
# High freq. dielectric constant tensor:
#      x y z
#    x 1.750430 0.000000 0.005810 
#    y 0.000000 1.670170 0.000000 
#    z 0.005810 0.000000 1.761480 
# 
# From -- ./inp_files/24712.got.cif
#   From: 2010.06.25/outbox.cif.g09.slc.cpg/sg13_13_cif.got.tgz:24712.got - 2010.06.28 04:50:58.
