data_PCOD8117515
_publ_section_title
;
Structure prediction by ZEFSAII (Michael W. Deem and Ramdas Pophale) SiO2 
 PCOD8117515
Probable space group: P 2/C
;
_chemical_formula_sum "Si O2"
_cell_formula_units_Z 28
_cell_length_a 14.988599
_cell_length_b 9.510839
_cell_length_c 21.578531
_cell_angle_alpha 90.000000
_cell_angle_beta 151.391743
_cell_angle_gamma 90.000000
_cell_volume 1472.897620
_symmetry_space_group_name_H-M "P 2/C"
_symmetry_group_IT_number 13
_symmetry_cell_setting 'monoclinic'
loop_
_space_group_symop_operation_xyz
x,y,z
-x,y,1/2-z
-x,-y,-z
x,-y,1/2+z
loop_
_atom_site_type_symbol
_atom_site_label
_atom_site_fract_x
_atom_site_fract_y
_atom_site_fract_z
Si Si1 0.772633 0.414532 0.691661
Si Si2 0.041699 0.900134 0.939000
Si Si3 0.624839 0.768281 0.903160
Si Si4 0.927161 0.340522 0.140524
Si Si5 0.734424 0.889779 0.850635
Si Si6 0.003866 0.136344 0.821595
Si Si7 0.431349 0.506923 0.554477
O O1 0.864276 0.262525 0.751455
O O2 0.635046 0.440436 0.665871
O O3 0.647051 0.414518 0.553758
O O4 0.936987 0.529460 0.791788
O O5 0.084969 0.767592 0.923109
O O6 0.895415 0.851291 0.901133
O O7 0.952436 0.018804 0.840525
O O8 0.221504 0.964685 0.085055
O O9 0.715095 0.762296 0.889013
O O10 0.463759 0.890108 0.805961
O O11 0.543970 0.617643 0.874427
O O12 0.783582 0.813345 0.047016
O O13 0.000000 0.272697 0.250000
O O14 0.713601 0.386695 0.015632
O O15 0.000000 0.074832 0.750000
#
# Coordination Sequence:
#
# PCOD8117515 Si02
#       7
#     4   4   4   4   4   4   4
#     4  10  19  34  58  93 125 152 189 242 310 381
#     4  10  21  38  60  84 117 157 207 252 298 353
#     4  10  18  37  63  79 113 164 202 242 298 364
#     4  10  19  36  59  91 127 151 187 256 321 358
#     4   9  21  38  59  77 111 163 211 236 288 350
#     4  11  19  36  60  91 120 159 197 242 310 378
#     4  10  19  33  61  88 123 153 196 243 309 361
#
# _framework density 19.010145999999999
#
# number of rings (size 3 to 8) (size 9 to 14) (size 15 to 20)
#    0.000    2.000    2.857    1.714    0.000    0.000 
#    7.714    1.429   15.714    0.000    0.000    0.000 
#    0.000    0.000    0.000    0.000    0.000    0.000 
#
# Total GULP energy -346971.789957 kJ/mol
# GULP energy per Si atom -12391.849641 kJ/mol
# Density = 1.896688 g / cm^3
# Si number density = 19.010146 Si / 1000 Ang^3
#
#
#
# Elastic Constant Matrix: (Units=GPa)
#
#
# Indices 1 2 3 4 5 6 
#
# 1 138.0437 49.7041 36.6843 0.0000 10.8384 0.0000
# 2 49.7041 70.9416 18.6166 0.0000 0.0999 0.0000
# 3 36.6843 18.6166 75.3961 0.0000 10.7192 0.0000
# 4 0.0000 0.0000 0.0000 24.7551 0.0000 -6.5677
# 5 10.8384 0.0999 10.7192 0.0000 24.8412 0.0000
# 6 0.0000 0.0000 0.0000 -6.5677 0.0000 41.0288
#
#
#
# Elastic Compliance Matrix: (Units=1/GPa)
#
#
# Indices 1 2 3 4 5 6 
#
# 1 0.010745 -0.006710 -0.003098 0.000000 -0.003324 0.000000
# 2 -0.006710 0.019327 -0.002037 0.000000 0.003729 0.000000
# 3 -0.003098 -0.002037 0.016066 0.000000 -0.005573 0.000000
# 4 0.000000 0.000000 0.000000 0.042187 0.000000 0.006753
# 5 -0.003324 0.003729 -0.005573 0.000000 0.044096 0.000000
# 6 0.000000 0.000000 0.000000 0.006753 0.000000 0.025454
#
#
# Mechanical properties :
#
#
# Convention : Reuss Voigt Hill
#
# Bulk Modulus (GPa) = 44.55224 54.93238 49.74231
# Shear Modulus (GPa) = 26.44822 30.08343 28.26583
#
# Velocity S-wave (km/s) = 3.73402 3.98237 3.86019
# Velocity P-wave (km/s) = 6.48671 7.07847 6.78904
#
# Compressibility (1/GPa) = 0.02244556
#
# Stress axis : x y z
#
# Youngs Moduli (GPa) = 93.07081 51.74134 62.24261
#
# Poissons Ratio (x) = 0.34720 0.19285
# Poissons Ratio (y) = 0.62452 0.12682
# Poissons Ratio (z) = 0.28837 0.10542
#
# Static dielectric constant tensor:
#      x y z
#    x 3.684270 0.000000 0.006910 
#    y 0.000000 3.257690 0.000000 
#    z 0.006910 0.000000 3.715440 
# 
# 
# High freq. dielectric constant tensor:
#      x y z
#    x 1.751090 0.000000 0.002400 
#    y 0.000000 1.713030 0.000000 
#    z 0.002400 0.000000 1.738760 
# 
# From -- ./inp_files/79997.got.cif
#   From: 2010.06.25/outbox.cif.g09.slc.cpg/sg13_40_cif.got.tgz:79997.got - 2010.06.28 04:50:58.
