data_PCOD8117462
_publ_section_title
;
Structure prediction by ZEFSAII (Michael W. Deem and Ramdas Pophale) SiO2 
 PCOD8117462
Probable space group: P 2/C
;
_chemical_formula_sum "Si O2"
_cell_formula_units_Z 24
_cell_length_a 22.043479
_cell_length_b 10.633705
_cell_length_c 16.468748
_cell_angle_alpha 90.000000
_cell_angle_beta 163.172010
_cell_angle_gamma 90.000000
_cell_volume 1117.565645
_symmetry_space_group_name_H-M "P 2/C"
_symmetry_group_IT_number 13
_symmetry_cell_setting 'monoclinic'
loop_
_space_group_symop_operation_xyz
x,y,z
-x,y,1/2-z
-x,-y,-z
x,-y,1/2+z
loop_
_atom_site_type_symbol
_atom_site_label
_atom_site_fract_x
_atom_site_fract_y
_atom_site_fract_z
Si Si1 0.284275 0.052427 0.189872
Si Si2 0.947720 0.806291 0.354357
Si Si3 0.080430 0.443302 0.941036
Si Si4 0.000000 0.860459 0.750000
Si Si5 0.542880 0.691604 0.632412
Si Si6 0.076683 0.293948 0.501228
Si Si7 0.500000 0.754116 0.750000
O O1 0.319744 0.181171 0.187857
O O2 0.500000 0.000000 0.500000
O O3 0.106852 0.081828 0.032173
O O4 0.200874 0.949214 0.020243
O O5 0.001784 0.769909 0.516470
O O6 0.965209 0.680825 0.323176
O O7 0.703216 0.844380 0.027557
O O8 0.000000 0.483608 0.750000
O O9 0.330831 0.416132 0.254269
O O10 0.032403 0.556415 0.942118
O O11 0.039852 0.774700 0.722125
O O12 0.326636 0.720690 0.309650
O O13 0.513784 0.659056 0.690384
#
# Coordination Sequence:
#
# PCOD8117462 Si02
#       7
#     4   4   4   2   4   4   2
#     4  11  23  44  65  89 129 176 226 271 334 404
#     4  10  23  40  68  96 128 177 226 277 331 410
#     4  11  20  38  67  94 130 174 218 276 340 402
#     4  12  24  40  64  94 134 170 212 280 340 398
#     4  10  21  39  63  91 122 178 221 271 331 407
#     4  11  23  41  63  94 137 164 221 278 345 393
#     4  10  18  36  60 100 122 158 234 278 314 396
#
# _framework density 21.475249000000002
#
# number of rings (size 3 to 8) (size 9 to 14) (size 15 to 20)
#    0.000    1.333    4.167    2.000    2.333    0.667 
#    3.000    0.000    3.667    0.000    0.000    0.000 
#    0.000    0.000    0.000    0.000    0.000    0.000 
#
# Total GULP energy -297485.634841 kJ/mol
# GULP energy per Si atom -12395.234785 kJ/mol
# Density = 2.142637 g / cm^3
# Si number density = 21.475249 Si / 1000 Ang^3
#
#
#
# Elastic Constant Matrix: (Units=GPa)
#
#
# Indices 1 2 3 4 5 6 
#
# 1 101.5824 29.1812 47.3783 0.0000 -8.6183 0.0000
# 2 29.1812 90.5149 37.6460 0.0000 -0.2522 0.0000
# 3 47.3783 37.6460 132.5853 0.0000 0.3727 0.0000
# 4 0.0000 0.0000 0.0000 31.1474 0.0000 -6.0403
# 5 -8.6183 -0.2522 0.3727 0.0000 36.8583 0.0000
# 6 0.0000 0.0000 0.0000 -6.0403 0.0000 26.9065
#
#
#
# Elastic Compliance Matrix: (Units=1/GPa)
#
#
# Indices 1 2 3 4 5 6 
#
# 1 0.012577 -0.002465 -0.003803 0.000000 0.002962 0.000000
# 2 -0.002465 0.013011 -0.002812 0.000000 -0.000459 0.000000
# 3 -0.003803 -0.002812 0.009703 0.000000 -0.001007 0.000000
# 4 0.000000 0.000000 0.000000 0.033567 0.000000 0.007535
# 5 0.002962 -0.000459 -0.001007 0.000000 0.027831 0.000000
# 6 0.000000 0.000000 0.000000 0.007535 0.000000 0.038857
#
#
# Mechanical properties :
#
#
# Convention : Reuss Voigt Hill
#
# Bulk Modulus (GPa) = 58.37414 61.45483 59.91448
# Shear Modulus (GPa) = 31.36454 33.01425 32.18939
#
# Velocity S-wave (km/s) = 3.82579 3.92512 3.87577
# Velocity P-wave (km/s) = 6.83788 7.01575 6.92739
#
# Compressibility (1/GPa) = 0.01713087
#
# Stress axis : x y z
#
# Youngs Moduli (GPa) = 79.50827 76.85862 103.06569
#
# Poissons Ratio (x) = 0.18945 0.39194
# Poissons Ratio (y) = 0.19598 0.28984
# Poissons Ratio (z) = 0.30236 0.21614
#
# Static dielectric constant tensor:
#      x y z
#    x 4.021950 0.000000 0.032330 
#    y 0.000000 3.756440 0.000000 
#    z 0.032330 0.000000 4.072350 
# 
# 
# High freq. dielectric constant tensor:
#      x y z
#    x 1.839190 0.000000 -0.005550 
#    y 0.000000 1.825900 0.000000 
#    z -0.005550 0.000000 1.849560 
# 
# From -- ./inp_files/57738.got.cif
#   From: 2010.06.25/outbox.cif.g09.slc.cpg/sg13_29_cif.got.tgz:57738.got - 2010.06.28 04:50:58.
