data_PCOD8117824
_publ_section_title
;
Structure prediction by ZEFSAII (Michael W. Deem and Ramdas Pophale) SiO2 
 PCOD8117824
Probable space group: P 2/C
;
_chemical_formula_sum "Si O2"
_cell_formula_units_Z 28
_cell_length_a 20.429661
_cell_length_b 15.040799
_cell_length_c 8.208972
_cell_angle_alpha 90.000000
_cell_angle_beta 30.792747
_cell_angle_gamma 90.000000
_cell_volume 1291.323109
_symmetry_space_group_name_H-M "P 2/C"
_symmetry_group_IT_number 13
_symmetry_cell_setting 'monoclinic'
loop_
_space_group_symop_operation_xyz
x,y,z
-x,y,1/2-z
-x,-y,-z
x,-y,1/2+z
loop_
_atom_site_type_symbol
_atom_site_label
_atom_site_fract_x
_atom_site_fract_y
_atom_site_fract_z
Si Si1 0.323547 0.237528 0.883240
Si Si2 0.764558 0.250333 0.102064
Si Si3 0.000000 0.849328 0.250000
Si Si4 0.255990 0.101023 0.608751
Si Si5 0.500000 0.168047 0.250000
Si Si6 0.167469 0.929535 0.634991
Si Si7 0.149572 0.586051 0.254152
Si Si8 0.850915 0.394230 0.376833
O O1 0.447959 0.236313 0.501338
O O2 0.352455 0.247343 0.016013
O O3 0.268440 0.139578 0.985552
O O4 0.219763 0.311754 0.054798
O O5 0.750577 0.195523 0.965993
O O6 0.772197 0.352825 0.036450
O O7 0.887163 0.215530 0.938992
O O8 0.964189 0.913901 0.481098
O O9 0.394536 0.101055 0.399773
O O10 0.232341 0.025626 0.524779
O O11 0.149162 0.087013 0.979866
O O12 0.182928 0.484727 0.143497
O O13 0.195946 0.601862 0.337915
O O14 0.003162 0.615883 0.543414
#
# Coordination Sequence:
#
# PCOD8117824 Si02
#       8
#     4   4   2   4   2   4   4   4
#     4  10  21  39  60  83 114 152 200 248 296 350
#     4  11  22  37  60  89 121 157 196 241 300 367
#     4  10  22  38  60  88 128 164 192 240 302 366
#     4  11  24  40  60  86 116 156 205 250 298 351
#     4  10  24  44  64  82 114 158 206 264 304 336
#     4  10  21  38  58  87 119 154 195 238 295 363
#     4  10  19  33  57  89 125 157 189 237 296 360
#     4  10  20  34  57  89 122 159 196 236 294 362
#
# _framework density 21.683185999999999
#
# number of rings (size 3 to 8) (size 9 to 14) (size 15 to 20)
#    0.000    1.714    0.000    6.000    0.000    9.143 
#    0.000    0.000    0.000    7.714    0.000    0.000 
#    0.000    0.000    0.000    0.000    0.000    0.000 
#
# Total GULP energy -347008.820183 kJ/mol
# GULP energy per Si atom -12393.172149 kJ/mol
# Density = 2.163383 g / cm^3
# Si number density = 21.683186 Si / 1000 Ang^3
#
#
#
# Elastic Constant Matrix: (Units=GPa)
#
#
# Indices 1 2 3 4 5 6 
#
# 1 82.7219 12.1703 33.5912 0.0000 34.7192 0.0000
# 2 12.1703 63.5846 19.0798 0.0000 9.7221 0.0000
# 3 33.5912 19.0798 106.3326 0.0000 38.2316 0.0000
# 4 0.0000 0.0000 0.0000 25.6240 0.0000 10.6845
# 5 34.7192 9.7221 38.2316 0.0000 46.8343 0.0000
# 6 0.0000 0.0000 0.0000 10.6845 0.0000 35.1887
#
#
#
# Elastic Compliance Matrix: (Units=1/GPa)
#
#
# Indices 1 2 3 4 5 6 
#
# 1 0.017754 -0.001240 -0.001057 0.000000 -0.012042 0.000000
# 2 -0.001240 0.016777 -0.002402 0.000000 -0.000603 0.000000
# 3 -0.001057 -0.002402 0.013742 0.000000 -0.009936 0.000000
# 4 0.000000 0.000000 0.000000 0.044683 0.000000 -0.013567
# 5 -0.012042 -0.000603 -0.009936 0.000000 0.038514 0.000000
# 6 0.000000 0.000000 0.000000 -0.013567 0.000000 0.032538
#
#
# Mechanical properties :
#
#
# Convention : Reuss Voigt Hill
#
# Bulk Modulus (GPa) = 25.72301 42.48018 34.10160
# Shear Modulus (GPa) = 26.82924 34.04925 30.43924
#
# Velocity S-wave (km/s) = 3.52138 3.96701 3.75082
# Velocity P-wave (km/s) = 5.33127 6.37312 5.87533
#
# Compressibility (1/GPa) = 0.03887569
#
# Stress axis : x y z
#
# Youngs Moduli (GPa) = 56.32486 59.60421 72.77198
#
# Poissons Ratio (x) = 0.07391 0.07689
# Poissons Ratio (y) = 0.06984 0.17480
# Poissons Ratio (z) = 0.05952 0.14317
#
# Static dielectric constant tensor:
#      x y z
#    x 4.055540 0.000000 0.626210 
#    y 0.000000 3.791640 0.000000 
#    z 0.626210 0.000000 4.346980 
# 
# 
# High freq. dielectric constant tensor:
#      x y z
#    x 1.854000 0.000000 0.038630 
#    y 0.000000 1.851860 0.000000 
#    z 0.038630 0.000000 1.836940 
# 
# From -- ./inp_files/23620.got.cif
#   From: 2010.06.25/outbox.cif.g09.slc.cpg/sg13_12_cif.got.tgz:23620.got - 2010.06.28 04:50:58.
