data_PCOD8117677
_publ_section_title
;
Structure prediction by ZEFSAII (Michael W. Deem and Ramdas Pophale) SiO2 
 PCOD8117677
Probable space group: P 2/C
;
_chemical_formula_sum "Si O2"
_cell_formula_units_Z 28
_cell_length_a 16.950594
_cell_length_b 11.645228
_cell_length_c 20.330148
_cell_angle_alpha 90.000000
_cell_angle_beta 159.366494
_cell_angle_gamma 90.000000
_cell_volume 1414.150999
_symmetry_space_group_name_H-M "P 2/C"
_symmetry_group_IT_number 13
_symmetry_cell_setting 'monoclinic'
loop_
_space_group_symop_operation_xyz
x,y,z
-x,y,1/2-z
-x,-y,-z
x,-y,1/2+z
loop_
_atom_site_type_symbol
_atom_site_label
_atom_site_fract_x
_atom_site_fract_y
_atom_site_fract_z
Si Si1 0.310597 0.841794 0.841158
Si Si2 0.195987 0.162246 0.947556
Si Si3 0.544482 0.358811 0.214184
Si Si4 0.113454 0.112076 0.560766
Si Si5 0.551750 0.016632 0.930477
Si Si6 0.986622 0.732671 0.401710
Si Si7 0.570086 0.387364 0.517085
O O1 0.042027 0.839982 0.618901
O O2 0.443729 0.917159 0.891419
O O3 0.339292 0.888584 0.937091
O O4 0.398655 0.713005 0.902606
O O5 0.091744 0.163744 0.939425
O O6 0.000000 0.216554 0.750000
O O7 0.421068 0.236152 0.121530
O O8 0.259427 0.035554 0.970520
O O9 0.500000 0.423471 0.250000
O O10 0.809979 0.343526 0.411615
O O11 0.446115 0.421735 0.073149
O O12 0.366849 0.077503 0.738999
O O13 0.144455 0.207985 0.641557
O O14 0.000000 0.000000 0.500000
O O15 0.821577 0.650831 0.231649
O O16 0.500000 0.500000 0.500000
#
# Coordination Sequence:
#
# PCOD8117677 Si02
#       7
#     4   4   4   4   4   4   4
#     4  10  19  35  53  85 125 154 202 242 306 360
#     4  11  20  34  59  88 125 151 197 248 318 372
#     4  10  21  37  57  90 125 153 203 267 317 362
#     4  10  19  31  56  83 122 158 190 239 313 366
#     4  10  19  33  55  84 120 159 187 246 309 371
#     4  11  21  37  57  88 129 154 201 264 307 367
#     4  12  23  39  61  93 122 166 218 263 310 365
#
# _framework density 19.799866000000002
#
# number of rings (size 3 to 8) (size 9 to 14) (size 15 to 20)
#    0.000    1.429    5.714    0.857    4.000    0.571 
#    0.000    0.000    0.000    0.000   11.143    0.000 
#    0.000    0.000    0.000    0.000    0.000    0.000 
#
# Total GULP energy -346977.057030 kJ/mol
# GULP energy per Si atom -12392.037751 kJ/mol
# Density = 1.975480 g / cm^3
# Si number density = 19.799866 Si / 1000 Ang^3
#
#
#
# Elastic Constant Matrix: (Units=GPa)
#
#
# Indices 1 2 3 4 5 6 
#
# 1 67.0952 38.0254 38.9064 0.0000 -9.2622 0.0000
# 2 38.0254 74.7234 39.9242 0.0000 -4.8171 0.0000
# 3 38.9064 39.9242 162.4870 0.0000 -13.5217 0.0000
# 4 0.0000 0.0000 0.0000 12.9077 0.0000 3.5115
# 5 -9.2622 -4.8171 -13.5217 0.0000 27.9693 0.0000
# 6 0.0000 0.0000 0.0000 3.5115 0.0000 21.2515
#
#
#
# Elastic Compliance Matrix: (Units=1/GPa)
#
#
# Indices 1 2 3 4 5 6 
#
# 1 0.022614 -0.009812 -0.002627 0.000000 0.004529 0.000000
# 2 -0.009812 0.019682 -0.002579 0.000000 -0.001106 0.000000
# 3 -0.002627 -0.002579 0.007614 0.000000 0.002367 0.000000
# 4 0.000000 0.000000 0.000000 0.081119 0.000000 -0.013404
# 5 0.004529 -0.001106 0.002367 0.000000 0.038207 0.000000
# 6 0.000000 0.000000 0.000000 -0.013404 0.000000 0.049270
#
#
# Mechanical properties :
#
#
# Convention : Reuss Voigt Hill
#
# Bulk Modulus (GPa) = 50.31607 59.77975 55.04791
# Shear Modulus (GPa) = 19.59503 24.92234 22.25869
#
# Velocity S-wave (km/s) = 3.14929 3.55168 3.35652
# Velocity P-wave (km/s) = 6.22025 6.86125 6.54860
#
# Compressibility (1/GPa) = 0.01987436
#
# Stress axis : x y z
#
# Youngs Moduli (GPa) = 44.22129 50.80684 131.33884
#
# Poissons Ratio (x) = 0.49852 0.34501
# Poissons Ratio (y) = 0.43391 0.33868
# Poissons Ratio (z) = 0.11616 0.13102
#
# Static dielectric constant tensor:
#      x y z
#    x 3.743080 0.000000 -0.257590 
#    y 0.000000 3.129370 0.000000 
#    z -0.257590 0.000000 4.231540 
# 
# 
# High freq. dielectric constant tensor:
#      x y z
#    x 1.744790 0.000000 -0.017490 
#    y 0.000000 1.712840 0.000000 
#    z -0.017490 0.000000 1.805960 
# 
# From -- ./inp_files/70737.got.cif
#   From: 2010.06.25/outbox.cif.g09.slc.cpg/sg13_36_cif.got.tgz:70737.got - 2010.06.28 04:50:58.
