data_PCOD8117804
_publ_section_title
;
Structure prediction by ZEFSAII (Michael W. Deem and Ramdas Pophale) SiO2 
 PCOD8117804
Probable space group: P 2/C
;
_chemical_formula_sum "Si O2"
_cell_formula_units_Z 26
_cell_length_a 12.733351
_cell_length_b 9.134185
_cell_length_c 20.196412
_cell_angle_alpha 90.000000
_cell_angle_beta 37.520883
_cell_angle_gamma 90.000000
_cell_volume 1430.671988
_symmetry_space_group_name_H-M "P 2/C"
_symmetry_group_IT_number 13
_symmetry_cell_setting 'monoclinic'
loop_
_space_group_symop_operation_xyz
x,y,z
-x,y,1/2-z
-x,-y,-z
x,-y,1/2+z
loop_
_atom_site_type_symbol
_atom_site_label
_atom_site_fract_x
_atom_site_fract_y
_atom_site_fract_z
Si Si1 0.320967 0.822100 0.512943
Si Si2 0.674352 0.140713 0.782391
Si Si3 0.999899 0.647830 0.827776
Si Si4 0.000077 0.306012 0.670629
Si Si5 0.500000 0.000147 0.750000
Si Si6 0.674195 0.140629 0.043343
Si Si7 0.679230 0.177909 0.333712
O O1 0.506334 0.773331 0.392635
O O2 0.169582 0.724377 0.555642
O O3 0.323377 0.790030 0.588360
O O4 0.288531 0.993006 0.515988
O O5 0.836164 0.244273 0.713237
O O6 0.630461 0.099631 0.728264
O O7 0.711786 0.992979 0.804259
O O8 0.000000 0.679708 0.750000
O O9 0.999840 0.477372 0.842976
O O10 0.169329 0.724328 0.774952
O O11 0.000000 0.269776 0.750000
O O12 0.164002 0.244188 0.549336
O O13 0.369482 0.900672 0.858748
O O14 0.506082 0.226647 0.101307
#
# Coordination Sequence:
#
# PCOD8117804 Si02
#       7
#     4   4   4   4   2   4   4
#     4   9  16  30  51  76 101 136 171 217 264 304
#     4  10  19  33  56  74 104 132 179 223 250 311
#     4   9  19  31  47  76 116 140 163 201 266 329
#     4  11  21  32  51  85 112 138 166 209 266 317
#     4   8  20  38  54  78  96 142 184 218 264 280
#     4  10  19  33  56  74 104 132 179 223 250 311
#     4   9  16  30  51  76 101 136 171 217 264 304
#
# _framework density 18.173279000000001
#
# number of rings (size 3 to 8) (size 9 to 14) (size 15 to 20)
#    0.000    2.769    0.000    4.615    0.000    3.077 
#    0.000    6.154    0.000   22.154    0.000    0.000 
#    0.000    0.000    0.000    0.000    0.000    0.000 
#
# Total GULP energy -322181.987895 kJ/mol
# GULP energy per Si atom -12391.614919 kJ/mol
# Density = 1.813192 g / cm^3
# Si number density = 18.173279 Si / 1000 Ang^3
#
#
#
# Elastic Constant Matrix: (Units=GPa)
#
#
# Indices 1 2 3 4 5 6 
#
# 1 52.4071 50.4936 126.3752 0.0000 -1.5743 0.0000
# 2 50.4936 78.5947 71.0137 0.0000 -30.5359 0.0000
# 3 126.3752 71.0137 87.0948 0.0000 -52.9650 0.0000
# 4 0.0000 0.0000 0.0000 -8.2075 0.0000 10.9579
# 5 -1.5743 -30.5359 -52.9650 0.0000 35.8787 0.0000
# 6 0.0000 0.0000 0.0000 10.9579 0.0000 -0.3141
#
#
#
# Elastic Compliance Matrix: (Units=1/GPa)
#
#
# Indices 1 2 3 4 5 6 
#
# 1 0.000388 -0.005290 0.009993 0.000000 0.010267 0.000000
# 2 -0.005290 0.028400 -0.009021 0.000000 0.010621 0.000000
# 3 0.009993 -0.009021 -0.000642 0.000000 -0.008187 0.000000
# 4 0.000000 0.000000 0.000000 0.002674 0.000000 0.093260
# 5 0.010267 0.010621 -0.008187 0.000000 0.025276 0.000000
# 6 0.000000 0.000000 0.000000 0.093260 0.000000 0.069852
#
#
# Mechanical properties :
#
#
# Convention : Reuss Voigt Hill
#
# Bulk Modulus (GPa) = 51.25332 79.31794 65.28563
# Shear Modulus (GPa) = 35.43899 3.48568 19.46234
#
# Velocity S-wave (km/s) = 4.42074 1.38643 3.27606
# Velocity P-wave (km/s) = 7.37028 6.80463 7.09310
#
# Compressibility (1/GPa) = 0.01951093
#
# Stress axis : x y z
#
# Youngs Moduli (GPa) = 2574.14311 35.21173 -1558.27172
#
# Poissons Ratio (x) = 0.18627 15.57235
# Poissons Ratio (y) = 13.61700 -14.05741
# Poissons Ratio (z) = -25.72431 0.31765
#
# Static dielectric constant tensor:
#      x y z
#    x 3.357100 0.000000 -0.274300 
#    y 0.000000 3.207890 0.000000 
#    z -0.274300 0.000000 3.550580 
# 
# 
# High freq. dielectric constant tensor:
#      x y z
#    x 1.694110 0.000000 -0.020940 
#    y 0.000000 1.684630 0.000000 
#    z -0.020940 0.000000 1.708890 
# 
# From -- ./inp_files/78194.got.cif
#   From: 2010.06.25/outbox.cif.g09.slc.cpg/sg13_40_cif.got.tgz:78194.got - 2010.06.28 04:50:58.
