data_PCOD8117461
_publ_section_title
;
Structure prediction by ZEFSAII (Michael W. Deem and Ramdas Pophale) SiO2 
 PCOD8117461
Probable space group: P 2/C
;
_chemical_formula_sum "Si O2"
_cell_formula_units_Z 28
_cell_length_a 18.853503
_cell_length_b 11.083129
_cell_length_c 17.322192
_cell_angle_alpha 90.000000
_cell_angle_beta 22.989776
_cell_angle_gamma 90.000000
_cell_volume 1413.685119
_symmetry_space_group_name_H-M "P 2/C"
_symmetry_group_IT_number 13
_symmetry_cell_setting 'monoclinic'
loop_
_space_group_symop_operation_xyz
x,y,z
-x,y,1/2-z
-x,-y,-z
x,-y,1/2+z
loop_
_atom_site_type_symbol
_atom_site_label
_atom_site_fract_x
_atom_site_fract_y
_atom_site_fract_z
Si Si1 0.893614 0.956632 0.929123
Si Si2 0.600702 0.377712 0.417045
Si Si3 0.846282 0.657484 0.529503
Si Si4 0.289442 0.814387 0.963389
Si Si5 0.888329 0.140492 0.701960
Si Si6 0.262233 0.780068 0.301258
Si Si7 0.024570 0.569727 0.896941
O O1 0.000000 0.894107 0.750000
O O2 0.747491 0.866488 0.113780
O O3 0.032970 0.007613 0.855285
O O4 0.789621 0.069911 0.999399
O O5 0.500000 0.500000 0.500000
O O6 0.672818 0.346271 0.259688
O O7 0.460063 0.279894 0.593200
O O8 0.762092 0.392420 0.319818
O O9 0.787431 0.696721 0.502820
O O10 0.960381 0.758074 0.460617
O O11 0.955595 0.531310 0.405022
O O12 0.500000 0.819091 0.750000
O O13 0.237316 0.808718 0.104329
O O14 0.775242 0.136134 0.735996
O O15 0.104192 0.684721 0.476553
O O16 0.000000 0.500000 0.000000
#
# Coordination Sequence:
#
# PCOD8117461 Si02
#       7
#     4   4   4   4   4   4   4
#     4   9  22  41  59  84 124 163 197 252 317 365
#     4  11  19  33  58  90 123 153 198 244 300 357
#     4  10  18  36  59  87 120 161 194 245 315 353
#     4  10  21  39  61  88 122 156 206 259 304 362
#     4  10  19  38  62  87 116 161 205 253 302 358
#     4  12  20  37  65  89 120 163 204 246 305 369
#     4  10  19  35  56  86 125 154 188 249 303 351
#
# _framework density 19.80639
#
# number of rings (size 3 to 8) (size 9 to 14) (size 15 to 20)
#    0.000    1.714    5.714    2.571    0.000    0.000 
#    5.143    5.000    0.000    0.857    0.000    0.000 
#    0.000    0.000    0.000    0.000    0.000    0.000 
#
# Total GULP energy -346941.268602 kJ/mol
# GULP energy per Si atom -12390.759593 kJ/mol
# Density = 1.976131 g / cm^3
# Si number density = 19.806390 Si / 1000 Ang^3
#
#
#
# Elastic Constant Matrix: (Units=GPa)
#
#
# Indices 1 2 3 4 5 6 
#
# 1 78.5831 35.3967 40.6543 0.0000 0.2383 0.0000
# 2 35.3967 81.6517 41.7791 0.0000 6.0076 0.0000
# 3 40.6543 41.7791 146.6513 0.0000 3.0844 0.0000
# 4 0.0000 0.0000 0.0000 41.2543 0.0000 4.7022
# 5 0.2383 6.0076 3.0844 0.0000 39.6801 0.0000
# 6 0.0000 0.0000 0.0000 4.7022 0.0000 3.2695
#
#
#
# Elastic Compliance Matrix: (Units=1/GPa)
#
#
# Indices 1 2 3 4 5 6 
#
# 1 0.016938 -0.005858 -0.003048 0.000000 0.001022 0.000000
# 2 -0.005858 0.016501 -0.003030 0.000000 -0.002228 0.000000
# 3 -0.003048 -0.003030 0.008531 0.000000 -0.000186 0.000000
# 4 0.000000 0.000000 0.000000 0.028992 0.000000 -0.041696
# 5 0.001022 -0.002228 -0.000186 0.000000 0.025547 0.000000
# 6 0.000000 0.000000 0.000000 -0.041696 0.000000 0.365821
#
#
# Mechanical properties :
#
#
# Convention : Reuss Voigt Hill
#
# Bulk Modulus (GPa) = 55.25726 60.28292 57.77009
# Shear Modulus (GPa) = 10.15773 29.44453 19.80113
#
# Velocity S-wave (km/s) = 2.26708 3.85985 3.16529
# Velocity P-wave (km/s) = 5.90018 7.09695 6.52606
#
# Compressibility (1/GPa) = 0.01809717
#
# Stress axis : x y z
#
# Youngs Moduli (GPa) = 59.03894 60.60207 117.21953
#
# Poissons Ratio (x) = 0.35503 0.35729
# Poissons Ratio (y) = 0.34587 0.35518
# Poissons Ratio (z) = 0.17995 0.18363
#
# Static dielectric constant tensor:
#      x y z
#    x -1.015230 0.000000 4.000660 
#    y 0.000000 4.692310 0.000000 
#    z 4.000660 0.000000 0.113320 
# 
# 
# High freq. dielectric constant tensor:
#      x y z
#    x 1.755620 0.000000 -0.002830 
#    y 0.000000 1.767050 0.000000 
#    z -0.002830 0.000000 1.777700 
# 
# From -- ./inp_files/70663.got.cif
#   From: 2010.06.25/outbox.cif.g09.slc.cpg/sg13_36_cif.got.tgz:70663.got - 2010.06.28 04:50:58.
