data_PCOD8117694
_publ_section_title
;
Structure prediction by ZEFSAII (Michael W. Deem and Ramdas Pophale) SiO2 
 PCOD8117694
Probable space group: P 2/C
;
_chemical_formula_sum "Si O2"
_cell_formula_units_Z 24
_cell_length_a 25.324675
_cell_length_b 8.869773
_cell_length_c 15.642654
_cell_angle_alpha 90.000000
_cell_angle_beta 21.232351
_cell_angle_gamma 90.000000
_cell_volume 1272.496018
_symmetry_space_group_name_H-M "P 2/C"
_symmetry_group_IT_number 13
_symmetry_cell_setting 'monoclinic'
loop_
_space_group_symop_operation_xyz
x,y,z
-x,y,1/2-z
-x,-y,-z
x,-y,1/2+z
loop_
_atom_site_type_symbol
_atom_site_label
_atom_site_fract_x
_atom_site_fract_y
_atom_site_fract_z
Si Si1 0.834028 0.704882 0.341235
Si Si2 0.336093 0.311155 0.236552
Si Si3 0.073060 0.397558 0.228074
Si Si4 0.660555 0.667352 0.267287
Si Si5 0.181433 0.200540 0.820687
Si Si6 0.089818 0.113496 0.529060
O O1 0.708228 0.735426 0.600489
O O2 0.878706 0.529645 0.280762
O O3 0.766838 0.757086 0.352611
O O4 0.980680 0.798573 0.132952
O O5 0.323403 0.489047 0.239960
O O6 0.229923 0.220167 0.334080
O O7 0.506245 0.273062 0.964386
O O8 0.000000 0.462906 0.250000
O O9 0.965460 0.291729 0.440957
O O10 0.213024 0.293425 0.992008
O O11 0.687238 0.751360 0.316026
O O12 0.148586 0.026080 0.886101
O O13 0.000000 0.065690 0.750000
#
# Coordination Sequence:
#
# PCOD8117694 Si02
#       6
#     4   4   4   4   4   4
#     4  10  19  32  51  75 101 129 162 208 256 294
#     4   9  19  35  54  71  97 134 170 204 244 299
#     4   9  17  32  52  74  99 130 169 205 243 296
#     4   9  18  34  53  74  96 128 172 206 242 296
#     4  11  20  30  50  78 103 127 163 211 252 291
#     4  10  19  33  51  73 102 137 170 201 245 300
#
# _framework density 18.860569000000002
#
# number of rings (size 3 to 8) (size 9 to 14) (size 15 to 20)
#    0.000    2.333    0.000    6.000    0.000    1.333 
#    0.000    0.000    0.000    5.000    0.000    0.000 
#    0.000    0.000    0.000    0.000    0.000    0.000 
#
# Total GULP energy -297484.238786 kJ/mol
# GULP energy per Si atom -12395.176616 kJ/mol
# Density = 1.881764 g / cm^3
# Si number density = 18.860569 Si / 1000 Ang^3
#
#
#
# Elastic Constant Matrix: (Units=GPa)
#
#
# Indices 1 2 3 4 5 6 
#
# 1 53.6356 22.1167 3.9326 0.0000 1.9351 0.0000
# 2 22.1167 56.6421 4.8024 0.0000 1.5299 0.0000
# 3 3.9326 4.8024 75.7768 0.0000 -12.3561 0.0000
# 4 0.0000 0.0000 0.0000 6.5913 0.0000 0.7566
# 5 1.9351 1.5299 -12.3561 0.0000 20.7050 0.0000
# 6 0.0000 0.0000 0.0000 0.7566 0.0000 7.4956
#
#
#
# Elastic Compliance Matrix: (Units=1/GPa)
#
#
# Indices 1 2 3 4 5 6 
#
# 1 0.022325 -0.008583 -0.000943 0.000000 -0.002015 0.000000
# 2 -0.008583 0.021140 -0.001128 0.000000 -0.001433 0.000000
# 3 -0.000943 -0.001128 0.014784 0.000000 0.008994 0.000000
# 4 0.000000 0.000000 0.000000 0.153495 0.000000 -0.015494
# 5 -0.002015 -0.001433 0.008994 0.000000 0.053959 0.000000
# 6 0.000000 0.000000 0.000000 -0.015494 0.000000 0.134975
#
#
# Mechanical properties :
#
#
# Convention : Reuss Voigt Hill
#
# Bulk Modulus (GPa) = 27.07018 27.52865 27.29942
# Shear Modulus (GPa) = 11.51278 17.30524 14.40901
#
# Velocity S-wave (km/s) = 2.47334 3.03237 2.76701
# Velocity P-wave (km/s) = 4.74768 5.18536 4.97134
#
# Compressibility (1/GPa) = 0.03694101
#
# Stress axis : x y z
#
# Youngs Moduli (GPa) = 44.79218 47.30289 67.64236
#
# Poissons Ratio (x) = 0.40599 0.06381
# Poissons Ratio (y) = 0.38444 0.07630
# Poissons Ratio (z) = 0.04225 0.05336
#
# Static dielectric constant tensor:
#      x y z
#    x 3.269590 0.000000 -0.063320 
#    y 0.000000 3.334450 0.000000 
#    z -0.063320 0.000000 3.690600 
# 
# 
# High freq. dielectric constant tensor:
#      x y z
#    x 1.712740 0.000000 -0.006670 
#    y 0.000000 1.725140 0.000000 
#    z -0.006670 0.000000 1.733800 
# 
# From -- ./inp_files/71803.got.cif
#   From: 2010.06.25/outbox.cif.g09.slc.cpg/sg13_36_cif.got.tgz:71803.got - 2010.06.28 04:50:58.
