data_PCOD8117862
_publ_section_title
;
Structure prediction by ZEFSAII (Michael W. Deem and Ramdas Pophale) SiO2 
 PCOD8117862
Probable space group: P 2/C
;
_chemical_formula_sum "Si O2"
_cell_formula_units_Z 28
_cell_length_a 18.895718
_cell_length_b 12.701907
_cell_length_c 10.701555
_cell_angle_alpha 90.000000
_cell_angle_beta 35.108099
_cell_angle_gamma 90.000000
_cell_volume 1477.196813
_symmetry_space_group_name_H-M "P 2/C"
_symmetry_group_IT_number 13
_symmetry_cell_setting 'monoclinic'
loop_
_space_group_symop_operation_xyz
x,y,z
-x,y,1/2-z
-x,-y,-z
x,-y,1/2+z
loop_
_atom_site_type_symbol
_atom_site_label
_atom_site_fract_x
_atom_site_fract_y
_atom_site_fract_z
Si Si1 0.357351 0.612915 0.489288
Si Si2 0.637347 0.820429 0.600570
Si Si3 0.368597 0.383384 0.498487
Si Si4 0.604060 0.190103 0.428691
Si Si5 0.138504 0.085267 0.063021
Si Si6 0.764407 0.018540 0.313109
Si Si7 0.662304 0.741018 0.210054
O O1 0.299626 0.497290 0.600976
O O2 0.343263 0.691334 0.628278
O O3 0.287438 0.667977 0.474590
O O4 0.500000 0.605782 0.250000
O O5 0.500000 0.802436 0.750000
O O6 0.702173 0.706029 0.482149
O O7 0.642118 0.852086 0.737785
O O8 0.695467 0.909207 0.432051
O O9 0.381775 0.338001 0.618415
O O10 0.500000 0.408945 0.250000
O O11 0.664742 0.111600 0.441789
O O12 0.456202 0.188870 0.660150
O O13 0.154301 0.041082 0.181286
O O14 0.000000 0.127196 0.250000
O O15 0.229253 0.182028 0.904268
O O16 0.158110 0.995003 0.927708
#
# Coordination Sequence:
#
# PCOD8117862 Si02
#       7
#     4   4   4   4   4   4   4
#     4   9  21  31  55  86 119 155 184 230 282 353
#     4  11  21  33  54  87 123 154 181 230 290 353
#     4  10  19  34  53  85 125 154 182 226 290 355
#     4  11  21  36  57  91 124 148 189 232 297 352
#     4  12  26  43  60  83 117 158 202 242 288 347
#     4  12  24  40  63  87 117 153 193 246 295 349
#     4  11  21  38  57  87 118 157 190 233 294 344
#
# _framework density 18.954819000000001
#
# number of rings (size 3 to 8) (size 9 to 14) (size 15 to 20)
#    0.000    1.143    7.143    0.429    4.000    2.857 
#    0.000    0.000    0.000    0.857    0.000    0.000 
#    0.000    0.000    0.000    0.000    0.000    0.000 
#
# Total GULP energy -346994.478175 kJ/mol
# GULP energy per Si atom -12392.659935 kJ/mol
# Density = 1.891168 g / cm^3
# Si number density = 18.954819 Si / 1000 Ang^3
#
#
#
# Elastic Constant Matrix: (Units=GPa)
#
#
# Indices 1 2 3 4 5 6 
#
# 1 112.0145 42.3699 43.7813 0.0000 13.6860 0.0000
# 2 42.3699 132.3095 32.5893 0.0000 -7.9363 0.0000
# 3 43.7813 32.5893 52.6809 0.0000 -1.2291 0.0000
# 4 0.0000 0.0000 0.0000 9.1552 0.0000 7.1320
# 5 13.6860 -7.9363 -1.2291 0.0000 28.2719 0.0000
# 6 0.0000 0.0000 0.0000 7.1320 0.0000 13.2313
#
#
#
# Elastic Compliance Matrix: (Units=1/GPa)
#
#
# Indices 1 2 3 4 5 6 
#
# 1 0.015458 -0.002665 -0.011402 0.000000 -0.008727 0.000000
# 2 -0.002665 0.009524 -0.003588 0.000000 0.003808 0.000000
# 3 -0.011402 -0.003588 0.030814 0.000000 0.005852 0.000000
# 4 0.000000 0.000000 0.000000 0.188291 0.000000 -0.101493
# 5 -0.008727 0.003808 0.005852 0.000000 0.040919 0.000000
# 6 0.000000 0.000000 0.000000 -0.101493 0.000000 0.130285
#
#
# Mechanical properties :
#
#
# Convention : Reuss Voigt Hill
#
# Bulk Modulus (GPa) = 48.81285 59.38731 54.10008
# Shear Modulus (GPa) = 10.93067 22.01600 16.47333
#
# Velocity S-wave (km/s) = 2.40400 3.41177 2.95122
# Velocity P-wave (km/s) = 5.78910 6.84976 6.34165
#
# Compressibility (1/GPa) = 0.02048641
#
# Stress axis : x y z
#
# Youngs Moduli (GPa) = 64.69054 105.00204 32.45328
#
# Poissons Ratio (x) = 0.27987 0.37002
# Poissons Ratio (y) = 0.17242 0.11643
# Poissons Ratio (z) = 0.73757 0.37670
#
# Static dielectric constant tensor:
#      x y z
#    x 3.533140 0.000000 0.402330 
#    y 0.000000 3.862330 0.000000 
#    z 0.402330 0.000000 3.145190 
# 
# 
# High freq. dielectric constant tensor:
#      x y z
#    x 1.734830 0.000000 0.045030 
#    y 0.000000 1.749690 0.000000 
#    z 0.045030 0.000000 1.687370 
# 
# From -- ./inp_files/40755.got.cif
#   From: 2010.06.25/outbox.cif.g09.slc.cpg/sg13_21_cif.got.tgz:40755.got - 2010.06.28 04:50:58.
