data_PCOD8117226
_publ_section_title
;
Structure prediction by ZEFSAII (Michael W. Deem and Ramdas Pophale) SiO2 
 PCOD8117226
Probable space group: P 2/C
;
_chemical_formula_sum "Si O2"
_cell_formula_units_Z 32
_cell_length_a 14.959133
_cell_length_b 9.731031
_cell_length_c 24.112591
_cell_angle_alpha 90.000000
_cell_angle_beta 29.561230
_cell_angle_gamma 90.000000
_cell_volume 1731.678570
_symmetry_space_group_name_H-M "P 2/C"
_symmetry_group_IT_number 13
_symmetry_cell_setting 'monoclinic'
loop_
_space_group_symop_operation_xyz
x,y,z
-x,y,1/2-z
-x,-y,-z
x,-y,1/2+z
loop_
_atom_site_type_symbol
_atom_site_label
_atom_site_fract_x
_atom_site_fract_y
_atom_site_fract_z
Si Si1 0.957762 0.418975 0.214461
Si Si2 0.453210 0.609052 0.900049
Si Si3 0.568359 0.348058 0.451554
Si Si4 0.675040 0.693750 0.008405
Si Si5 0.662416 0.122603 0.620225
Si Si6 0.847032 0.502988 0.661184
Si Si7 0.677540 0.809941 0.618297
Si Si8 0.963362 0.285807 0.517172
O O1 0.775493 0.334450 0.321528
O O2 0.923963 0.524470 0.181843
O O3 0.000000 0.499302 0.250000
O O4 0.110102 0.302945 0.119939
O O5 0.458419 0.696301 0.955601
O O6 0.354644 0.464524 0.959522
O O7 0.651499 0.576085 0.767782
O O8 0.329833 0.701317 0.927276
O O9 0.500000 0.500000 0.500000
O O10 0.554455 0.266548 0.518108
O O11 0.619143 0.794983 0.087426
O O12 0.500000 0.148522 0.750000
O O13 0.845828 0.169226 0.551142
O O14 0.681747 0.964192 0.592595
O O15 0.990107 0.602081 0.554198
O O16 0.844587 0.357924 0.630063
O O17 0.500000 0.785815 0.750000
O O18 0.856307 0.784332 0.557380
#
# Coordination Sequence:
#
# PCOD8117226 Si02
#       8
#     4   4   4   4   4   4   4   4
#     4   9  16  29  50  79 109 137 174 222 276 331
#     4  10  19  34  56  81 113 139 183 231 279 332
#     4   8  17  31  52  83 110 137 174 228 286 326
#     4  10  18  33  55  80 108 142 185 230 275 329
#     4  11  24  38  54  78 111 154 192 227 282 331
#     4  10  19  31  54  85 105 137 182 231 276 320
#     4  11  23  37  53  78 113 154 187 228 279 333
#     4  11  21  36  53  79 114 143 185 229 276 325
#
# _framework density 18.479179999999999
#
# number of rings (size 3 to 8) (size 9 to 14) (size 15 to 20)
#    0.000    2.000    2.500    1.875    1.750    0.500 
#    0.000    0.625    0.000    0.000    0.000   40.250 
#    0.000    0.000    0.000    0.000    0.000    0.000 
#
# Total GULP energy -396436.220414 kJ/mol
# GULP energy per Si atom -12388.631888 kJ/mol
# Density = 1.843712 g / cm^3
# Si number density = 18.479180 Si / 1000 Ang^3
#
#
#
# Elastic Constant Matrix: (Units=GPa)
#
#
# Indices 1 2 3 4 5 6 
#
# 1 132.1168 46.2881 28.2724 0.0000 16.4309 0.0000
# 2 46.2881 73.0629 23.7740 0.0000 11.3424 0.0000
# 3 28.2724 23.7740 64.7451 0.0000 3.7830 0.0000
# 4 0.0000 0.0000 0.0000 11.9822 0.0000 0.4551
# 5 16.4309 11.3424 3.7830 0.0000 32.1343 0.0000
# 6 0.0000 0.0000 0.0000 0.4551 0.0000 2.1219
#
#
#
# Elastic Compliance Matrix: (Units=1/GPa)
#
#
# Indices 1 2 3 4 5 6 
#
# 1 0.010317 -0.005273 -0.002386 0.000000 -0.003133 0.000000
# 2 -0.005273 0.019028 -0.004480 0.000000 -0.003492 0.000000
# 3 -0.002386 -0.004480 0.018093 0.000000 0.000671 0.000000
# 4 0.000000 0.000000 0.000000 0.084142 0.000000 -0.018049
# 5 -0.003133 -0.003492 0.000671 0.000000 0.033875 0.000000
# 6 0.000000 0.000000 0.000000 -0.018049 0.000000 0.475156
#
#
# Mechanical properties :
#
#
# Convention : Reuss Voigt Hill
#
# Bulk Modulus (GPa) = 43.17971 51.84375 47.51173
# Shear Modulus (GPa) = 7.43374 20.68703 14.06039
#
# Velocity S-wave (km/s) = 2.00786 3.34949 2.76139
# Velocity P-wave (km/s) = 5.36589 6.56315 5.99448
#
# Compressibility (1/GPa) = 0.02315903
#
# Stress axis : x y z
#
# Youngs Moduli (GPa) = 96.92915 52.55495 55.27074
#
# Poissons Ratio (x) = 0.27715 0.13186
# Poissons Ratio (y) = 0.51115 0.24761
# Poissons Ratio (z) = 0.23124 0.23545
#
# Static dielectric constant tensor:
#      x y z
#    x 3.895370 0.000000 0.159290 
#    y 0.000000 2.976900 0.000000 
#    z 0.159290 0.000000 3.629340 
# 
# 
# High freq. dielectric constant tensor:
#      x y z
#    x 1.742880 0.000000 0.003540 
#    y 0.000000 1.658720 0.000000 
#    z 0.003540 0.000000 1.728170 
# 
# From -- ./inp_files/53054.got.cif
#   From: 2010.06.25/outbox.cif.g09.slc.cpg/sg13_27_cif.got.tgz:53054.got - 2010.06.28 04:50:58.
