data_PCOD8117580
_publ_section_title
;
Structure prediction by ZEFSAII (Michael W. Deem and Ramdas Pophale) SiO2 
 PCOD8117580
Probable space group: P 2/C
;
_chemical_formula_sum "Si O2"
_cell_formula_units_Z 22
_cell_length_a 20.405670
_cell_length_b 7.259455
_cell_length_c 20.459809
_cell_angle_alpha 90.000000
_cell_angle_beta 159.174347
_cell_angle_gamma 90.000000
_cell_volume 1077.524560
_symmetry_space_group_name_H-M "P 2/C"
_symmetry_group_IT_number 13
_symmetry_cell_setting 'monoclinic'
loop_
_space_group_symop_operation_xyz
x,y,z
-x,y,1/2-z
-x,-y,-z
x,-y,1/2+z
loop_
_atom_site_type_symbol
_atom_site_label
_atom_site_fract_x
_atom_site_fract_y
_atom_site_fract_z
Si Si1 0.706347 0.667673 0.058703
Si Si2 0.631890 0.729663 0.519950
Si Si3 0.500000 0.849849 0.750000
Si Si4 0.934570 0.998580 0.761993
Si Si5 0.425515 0.179198 0.395890
Si Si6 0.288530 0.055996 0.659545
O O1 0.725852 0.446769 0.073518
O O2 0.900021 0.781391 0.243192
O O3 0.610091 0.721122 0.901731
O O4 0.584969 0.705267 0.009785
O O5 0.661626 0.702271 0.626070
O O6 0.733585 0.909690 0.586451
O O7 0.413691 0.767895 0.298961
O O8 0.357576 0.978931 0.654849
O O9 0.000000 0.960946 0.750000
O O10 0.073969 0.901860 0.943981
O O11 0.282868 0.107460 0.208242
O O12 0.500000 0.000000 0.500000
#
# Coordination Sequence:
#
# PCOD8117580 Si02
#       6
#     4   4   2   4   4   4
#     4  11  22  39  66  91 124 160 211 260 303 369
#     4  11  23  42  63  92 123 164 206 257 309 368
#     4  10  18  40  62  82 118 170 194 244 310 364
#     4  12  23  40  62  90 128 162 205 257 314 370
#     4   9  18  41  66  85 122 170 200 249 318 365
#     4  10  20  39  65  85 124 164 203 248 310 371
#
# _framework density 20.417169000000001
#
# number of rings (size 3 to 8) (size 9 to 14) (size 15 to 20)
#    0.000    1.455    7.273    0.545    0.000    3.636 
#    6.545    0.909    0.000    0.000    0.000    0.000 
#    0.000    0.000    0.000    0.000    0.000    0.000 
#
# Total GULP energy -272595.535840 kJ/mol
# GULP energy per Si atom -12390.706175 kJ/mol
# Density = 2.037070 g / cm^3
# Si number density = 20.417169 Si / 1000 Ang^3
#
#
#
# Elastic Constant Matrix: (Units=GPa)
#
#
# Indices 1 2 3 4 5 6 
#
# 1 119.6234 16.3717 15.7987 0.0000 -13.9116 0.0000
# 2 16.3717 86.8567 23.4701 0.0000 -4.6858 0.0000
# 3 15.7987 23.4701 103.1882 0.0000 -6.5445 0.0000
# 4 0.0000 0.0000 0.0000 20.5180 0.0000 6.6252
# 5 -13.9116 -4.6858 -6.5445 0.0000 18.8166 0.0000
# 6 0.0000 0.0000 0.0000 6.6252 0.0000 26.1083
#
#
#
# Elastic Compliance Matrix: (Units=1/GPa)
#
#
# Indices 1 2 3 4 5 6 
#
# 1 0.009365 -0.001219 -0.000753 0.000000 0.006359 0.000000
# 2 -0.001219 0.012510 -0.002575 0.000000 0.001319 0.000000
# 3 -0.000753 -0.002575 0.010549 0.000000 0.002471 0.000000
# 4 0.000000 0.000000 0.000000 0.053088 0.000000 -0.013472
# 5 0.006359 0.001319 0.002471 0.000000 0.059033 0.000000
# 6 0.000000 0.000000 0.000000 -0.013472 0.000000 0.041721
#
#
# Mechanical properties :
#
#
# Convention : Reuss Voigt Hill
#
# Bulk Modulus (GPa) = 42.86411 46.77217 44.81814
# Shear Modulus (GPa) = 24.61398 30.02375 27.31887
#
# Velocity S-wave (km/s) = 3.47587 3.83889 3.66188
# Velocity P-wave (km/s) = 6.09497 6.52744 6.31491
#
# Compressibility (1/GPa) = 0.02332954
#
# Stress axis : x y z
#
# Youngs Moduli (GPa) = 106.77683 79.93664 94.79753
#
# Poissons Ratio (x) = 0.09742 0.07142
# Poissons Ratio (y) = 0.13012 0.24412
# Poissons Ratio (z) = 0.08045 0.20585
#
# Static dielectric constant tensor:
#      x y z
#    x 4.639580 0.000000 -0.311720 
#    y 0.000000 3.891460 0.000000 
#    z -0.311720 0.000000 3.685930 
# 
# 
# High freq. dielectric constant tensor:
#      x y z
#    x 1.817730 0.000000 -0.014730 
#    y 0.000000 1.774470 0.000000 
#    z -0.014730 0.000000 1.778720 
# 
# From -- ./inp_files/81588.got.cif
#   From: 2010.06.25/outbox.cif.g09.slc.cpg/sg13_41_cif.got.tgz:81588.got - 2010.06.28 04:50:58.
