data_PCOD8117198
_publ_section_title
;
Structure prediction by ZEFSAII (Michael W. Deem and Ramdas Pophale) SiO2 
 PCOD8117198
Probable space group: P 2/C
;
_chemical_formula_sum "Si O2"
_cell_formula_units_Z 32
_cell_length_a 22.447988
_cell_length_b 8.206071
_cell_length_c 25.650242
_cell_angle_alpha 90.000000
_cell_angle_beta 19.820154
_cell_angle_gamma 90.000000
_cell_volume 1602.109005
_symmetry_space_group_name_H-M "P 2/C"
_symmetry_group_IT_number 13
_symmetry_cell_setting 'monoclinic'
loop_
_space_group_symop_operation_xyz
x,y,z
-x,y,1/2-z
-x,-y,-z
x,-y,1/2+z
loop_
_atom_site_type_symbol
_atom_site_label
_atom_site_fract_x
_atom_site_fract_y
_atom_site_fract_z
Si Si1 0.768736 0.409871 0.229858
Si Si2 0.582383 0.779229 0.963259
Si Si3 0.403967 0.768850 0.217465
Si Si4 0.182809 0.764158 0.127597
Si Si5 0.235157 0.119408 0.698837
Si Si6 0.932497 0.737606 0.071711
Si Si7 0.490231 0.426903 0.147416
Si Si8 0.509141 0.901116 0.681446
O O1 0.706649 0.364200 0.339105
O O2 0.897265 0.563359 0.128524
O O3 0.595685 0.449935 0.338756
O O4 0.875473 0.263208 0.112849
O O5 0.692868 0.939202 0.860840
O O6 0.548141 0.769826 0.052652
O O7 0.399407 0.768521 0.081790
O O8 0.206453 0.773708 0.359335
O O9 0.444104 0.597685 0.215550
O O10 0.420373 0.928539 0.239251
O O11 0.156304 0.826660 0.208326
O O12 0.000000 0.728489 0.250000
O O13 0.298910 0.597518 0.032065
O O14 0.290767 0.900444 0.005446
O O15 0.082493 0.131149 0.868910
O O16 0.410939 0.262650 0.240034
O O17 0.500000 0.885601 0.750000
#
# Coordination Sequence:
#
# PCOD8117198 Si02
#       8
#     4   4   4   4   4   4   4   4
#     4  10  19  36  53  88 122 147 183 230 295 349
#     4  10  18  32  61  86 112 150 187 230 295 351
#     4  10  20  39  61  87 116 149 192 238 288 349
#     4  10  21  40  58  82 113 151 202 240 276 339
#     4  10  19  34  56  86 114 148 192 236 280 348
#     4   9  22  33  56  89 121 148 181 237 292 346
#     4   9  21  37  63  81 114 153 193 232 289 344
#     4  10  22  41  61  81 112 153 196 240 290 339
#
# _framework density 19.973672000000001
#
# number of rings (size 3 to 8) (size 9 to 14) (size 15 to 20)
#    0.750    1.500    2.500    0.000    5.250    3.500 
#    2.250    0.625    0.000    0.000    0.000    0.000 
#    0.000    0.000    0.000    0.000    0.000    0.000 
#
# Total GULP energy -396448.692666 kJ/mol
# GULP energy per Si atom -12389.021646 kJ/mol
# Density = 1.992821 g / cm^3
# Si number density = 19.973672 Si / 1000 Ang^3
#
#
#
# Elastic Constant Matrix: (Units=GPa)
#
#
# Indices 1 2 3 4 5 6 
#
# 1 67.5844 7.6364 3.1008 0.0000 -3.0069 0.0000
# 2 7.6364 84.2256 -3.4416 0.0000 2.6579 0.0000
# 3 3.1008 -3.4416 41.6792 0.0000 -7.7596 0.0000
# 4 0.0000 0.0000 0.0000 21.4496 0.0000 -5.1550
# 5 -3.0069 2.6579 -7.7596 0.0000 25.6075 0.0000
# 6 0.0000 0.0000 0.0000 -5.1550 0.0000 21.2036
#
#
#
# Elastic Compliance Matrix: (Units=1/GPa)
#
#
# Indices 1 2 3 4 5 6 
#
# 1 0.015077 -0.001457 -0.000937 0.000000 0.001638 0.000000
# 2 -0.001457 0.012078 0.000891 0.000000 -0.001155 0.000000
# 3 -0.000937 0.000891 0.025539 0.000000 0.007536 0.000000
# 4 0.000000 0.000000 0.000000 0.049514 0.000000 0.012038
# 5 0.001638 -0.001155 0.007536 0.000000 0.041647 0.000000
# 6 0.000000 0.000000 0.000000 0.012038 0.000000 0.050088
#
#
# Mechanical properties :
#
#
# Convention : Reuss Voigt Hill
#
# Bulk Modulus (GPa) = 20.12594 23.12005 21.62299
# Shear Modulus (GPa) = 23.41788 26.06503 24.74146
#
# Velocity S-wave (km/s) = 3.42780 3.61636 3.52334
# Velocity P-wave (km/s) = 5.07588 5.38867 5.23461
#
# Compressibility (1/GPa) = 0.04968712
#
# Stress axis : x y z
#
# Youngs Moduli (GPa) = 66.32716 82.79649 39.15557
#
# Poissons Ratio (x) = 0.12063 0.03669
# Poissons Ratio (y) = 0.09663 -0.03488
# Poissons Ratio (z) = 0.06216 -0.07375
#
# Static dielectric constant tensor:
#      x y z
#    x 3.252790 0.000000 0.107430 
#    y 0.000000 3.867740 0.000000 
#    z 0.107430 0.000000 3.615260 
# 
# 
# High freq. dielectric constant tensor:
#      x y z
#    x 1.744660 0.000000 0.011820 
#    y 0.000000 1.784230 0.000000 
#    z 0.011820 0.000000 1.768480 
# 
# From -- ./inp_files/93818.got.cif
#   From: 2010.06.25/outbox.cif.g09.slc.cpg/sg13_47_cif.got.tgz:93818.got - 2010.06.28 04:50:58.
