data_PCOD8117268
_publ_section_title
;
Structure prediction by ZEFSAII (Michael W. Deem and Ramdas Pophale) SiO2 
 PCOD8117268
Probable space group: P 2/C
;
_chemical_formula_sum "Si O2"
_cell_formula_units_Z 24
_cell_length_a 10.187821
_cell_length_b 9.159136
_cell_length_c 13.079865
_cell_angle_alpha 90.000000
_cell_angle_beta 72.902348
_cell_angle_gamma 90.000000
_cell_volume 1166.563549
_symmetry_space_group_name_H-M "P 2/C"
_symmetry_group_IT_number 13
_symmetry_cell_setting 'monoclinic'
loop_
_space_group_symop_operation_xyz
x,y,z
-x,y,1/2-z
-x,-y,-z
x,-y,1/2+z
loop_
_atom_site_type_symbol
_atom_site_label
_atom_site_fract_x
_atom_site_fract_y
_atom_site_fract_z
Si Si1 0.626777 0.754236 0.106825
Si Si2 0.494396 0.202227 0.435291
Si Si3 0.407391 0.495129 0.653606
Si Si4 0.000000 0.369960 0.750000
Si Si5 0.225890 0.323532 0.551705
Si Si6 0.500000 0.993672 0.250000
Si Si7 0.194955 0.509301 0.369403
O O1 0.496337 0.648504 0.153341
O O2 0.769666 0.666457 0.085524
O O3 0.625961 0.886921 0.189258
O O4 0.603003 0.828547 0.001017
O O5 0.498893 0.370897 0.400841
O O6 0.332725 0.189669 0.505846
O O7 0.541546 0.093428 0.335980
O O8 0.300274 0.462202 0.587572
O O9 0.330913 0.539012 0.775855
O O10 0.109063 0.271403 0.660409
O O11 0.069756 0.473920 0.819346
O O12 0.159355 0.385290 0.461329
#
# Coordination Sequence:
#
# PCOD8117268 Si02
#       7
#     4   4   4   2   4   2   4
#     4  11  20  36  56  86 120 150 180 228 291 344
#     4  11  21  36  58  92 117 150 184 227 295 351
#     4  10  18  33  61  88 112 147 182 225 299 356
#     4  10  24  32  52  88 110 148 198 242 276 328
#     4  10  19  35  57  82 114 148 186 241 281 334
#     4  12  24  32  54  94 126 142 182 230 286 358
#     4  11  18  34  57  81 119 147 185 232 290 333
#
# _framework density 20.573248
#
# number of rings (size 3 to 8) (size 9 to 14) (size 15 to 20)
#    0.000    1.333    5.000    3.000    0.000    0.000 
#    0.000    0.000    0.000    1.000    0.000    0.000 
#    0.000    0.000    0.000    0.000    0.000    0.000 
#
# Total GULP energy -297385.467536 kJ/mol
# GULP energy per Si atom -12391.061147 kJ/mol
# Density = 2.052642 g / cm^3
# Si number density = 20.573248 Si / 1000 Ang^3
#
#
#
# Elastic Constant Matrix: (Units=GPa)
#
#
# Indices 1 2 3 4 5 6 
#
# 1 84.8826 15.2884 38.4512 0.0000 17.8214 0.0000
# 2 15.2884 68.8600 38.1112 0.0000 1.1617 0.0000
# 3 38.4512 38.1112 134.4254 0.0000 8.9957 0.0000
# 4 0.0000 0.0000 0.0000 35.2036 0.0000 -0.7221
# 5 17.8214 1.1617 8.9957 0.0000 38.8763 0.0000
# 6 0.0000 0.0000 0.0000 -0.7221 0.0000 6.0800
#
#
#
# Elastic Compliance Matrix: (Units=1/GPa)
#
#
# Indices 1 2 3 4 5 6 
#
# 1 0.014839 -0.001264 -0.003488 0.000000 -0.005958 0.000000
# 2 -0.001264 0.017348 -0.004633 0.000000 0.001133 0.000000
# 3 -0.003488 -0.004633 0.009785 0.000000 -0.000527 0.000000
# 4 0.000000 0.000000 0.000000 0.028476 0.000000 0.003382
# 5 -0.005958 0.001133 -0.000527 0.000000 0.028542 0.000000
# 6 0.000000 0.000000 0.000000 0.003382 0.000000 0.164875
#
#
# Mechanical properties :
#
#
# Convention : Reuss Voigt Hill
#
# Bulk Modulus (GPa) = 43.09568 52.42994 47.76281
# Shear Modulus (GPa) = 17.21955 29.11978 23.16966
#
# Velocity S-wave (km/s) = 2.89621 3.76629 3.35954
# Velocity P-wave (km/s) = 5.67247 6.66731 6.18991
#
# Compressibility (1/GPa) = 0.02320418
#
# Stress axis : x y z
#
# Youngs Moduli (GPa) = 67.38832 57.64469 102.19367
#
# Poissons Ratio (x) = 0.07286 0.35642
# Poissons Ratio (y) = 0.08517 0.47342
# Poissons Ratio (z) = 0.23503 0.26704
#
# Static dielectric constant tensor:
#      x y z
#    x 3.696700 0.000000 0.229190 
#    y 0.000000 3.337670 0.000000 
#    z 0.229190 0.000000 4.369240 
# 
# 
# High freq. dielectric constant tensor:
#      x y z
#    x 1.775290 0.000000 0.023520 
#    y 0.000000 1.753950 0.000000 
#    z 0.023520 0.000000 1.839280 
# 
# From -- ./inp_files/49355.got.cif
#   From: 2010.06.25/outbox.cif.g09.slc.cpg/sg13_25_cif.got.tgz:49355.got - 2010.06.28 04:50:58.
