data_PCOD8117841
_publ_section_title
;
Structure prediction by ZEFSAII (Michael W. Deem and Ramdas Pophale) SiO2 
 PCOD8117841
Probable space group: P 2/C
;
_chemical_formula_sum "Si O2"
_cell_formula_units_Z 30
_cell_length_a 12.354208
_cell_length_b 15.091836
_cell_length_c 12.784613
_cell_angle_alpha 90.000000
_cell_angle_beta 143.522365
_cell_angle_gamma 90.000000
_cell_volume 1417.108092
_symmetry_space_group_name_H-M "P 2/C"
_symmetry_group_IT_number 13
_symmetry_cell_setting 'monoclinic'
loop_
_space_group_symop_operation_xyz
x,y,z
-x,y,1/2-z
-x,-y,-z
x,-y,1/2+z
loop_
_atom_site_type_symbol
_atom_site_label
_atom_site_fract_x
_atom_site_fract_y
_atom_site_fract_z
Si Si1 0.780187 0.140372 0.809531
Si Si2 0.302354 0.579851 0.089889
Si Si3 0.500000 0.055937 0.750000
Si Si4 0.942774 0.492195 0.837759
Si Si5 0.313051 0.346054 0.388423
Si Si6 0.092047 0.822449 0.711967
Si Si7 0.314011 0.996336 0.914981
Si Si8 0.719465 0.336181 0.703502
O O1 0.607351 0.117009 0.749224
O O2 0.758588 0.232577 0.732765
O O3 0.811861 0.071022 0.737627
O O4 0.956914 0.143268 0.018574
O O5 0.500000 0.529065 0.250000
O O6 0.253732 0.627075 0.159032
O O7 0.324079 0.660194 0.023729
O O8 0.130952 0.515768 0.919035
O O9 0.358392 0.993090 0.574396
O O10 0.777293 0.560488 0.704071
O O11 0.864340 0.393980 0.747918
O O12 0.000000 0.500000 0.000000
O O13 0.198518 0.264228 0.253064
O O14 0.516444 0.348465 0.499509
O O15 0.232932 0.899764 0.840205
O O16 0.000000 0.797230 0.750000
O O17 0.500000 0.000000 0.000000
#
# Coordination Sequence:
#
# PCOD8117841 Si02
#       8
#     4   4   2   4   4   4   4   4
#     4  11  22  37  59  89 124 155 200 247 299 367
#     4   9  19  32  53  83 114 152 201 246 295 348
#     4  10  20  38  60  88 122 152 194 254 306 356
#     4  10  19  34  49  81 119 152 190 240 296 348
#     4  11  20  33  56  87 116 154 194 242 298 351
#     4  12  21  34  59  91 124 156 198 252 306 354
#     4  10  22  38  58  90 121 155 195 245 309 362
#     4  10  21  34  56  85 122 153 193 243 300 352
#
# _framework density 21.169875000000001
#
# number of rings (size 3 to 8) (size 9 to 14) (size 15 to 20)
#    0.000    1.600    1.333    6.000    2.800    0.000 
#    0.000    0.000    0.000    1.600   36.400    0.000 
#    0.000    0.000    0.000    0.000    0.000    0.000 
#
# Total GULP energy -371701.551257 kJ/mol
# GULP energy per Si atom -12390.051709 kJ/mol
# Density = 2.112169 g / cm^3
# Si number density = 21.169875 Si / 1000 Ang^3
#
#
#
# Elastic Constant Matrix: (Units=GPa)
#
#
# Indices 1 2 3 4 5 6 
#
# 1 36.0821 31.8453 19.5323 0.0000 11.1935 0.0000
# 2 31.8453 108.8685 37.3144 0.0000 -5.7548 0.0000
# 3 19.5323 37.3144 127.6354 0.0000 3.7003 0.0000
# 4 0.0000 0.0000 0.0000 -26.3117 0.0000 -10.7642
# 5 11.1935 -5.7548 3.7003 0.0000 31.5861 0.0000
# 6 0.0000 0.0000 0.0000 -10.7642 0.0000 23.9377
#
#
#
# Elastic Compliance Matrix: (Units=1/GPa)
#
#
# Indices 1 2 3 4 5 6 
#
# 1 0.047349 -0.013960 -0.002614 0.000000 -0.019017 0.000000
# 2 -0.013960 0.014481 -0.002325 0.000000 0.007858 0.000000
# 3 -0.002614 -0.002325 0.008930 0.000000 -0.000544 0.000000
# 4 0.000000 0.000000 0.000000 -0.032101 0.000000 -0.014435
# 5 -0.019017 0.007858 -0.000544 0.000000 0.039894 0.000000
# 6 0.000000 0.000000 0.000000 -0.014435 0.000000 0.035284
#
#
# Mechanical properties :
#
#
# Convention : Reuss Voigt Hill
#
# Bulk Modulus (GPa) = 30.33606 49.99666 40.16636
# Shear Modulus (GPa) = 30.74601 18.10202 24.42402
#
# Velocity S-wave (km/s) = 3.81510 2.92735 3.40032
# Velocity P-wave (km/s) = 5.81099 5.92402 5.86778
#
# Compressibility (1/GPa) = 0.03296407
#
# Stress axis : x y z
#
# Youngs Moduli (GPa) = 21.11965 69.05591 111.97868
#
# Poissons Ratio (x) = 0.96400 0.29266
# Poissons Ratio (y) = 0.29482 0.26036
# Poissons Ratio (z) = 0.05520 0.16056
#
# Static dielectric constant tensor:
#      x y z
#    x 4.207230 0.000000 0.138380 
#    y 0.000000 4.043350 0.000000 
#    z 0.138380 0.000000 4.379130 
# 
# 
# High freq. dielectric constant tensor:
#      x y z
#    x 1.798390 0.000000 0.005630 
#    y 0.000000 1.812000 0.000000 
#    z 0.005630 0.000000 1.863550 
# 
# From -- ./inp_files/53869.got.cif
#   From: 2010.06.25/outbox.cif.g09.slc.cpg/sg13_27_cif.got.tgz:53869.got - 2010.06.28 04:50:58.
