data_PCOD8117701
_publ_section_title
;
Structure prediction by ZEFSAII (Michael W. Deem and Ramdas Pophale) SiO2 
 PCOD8117701
Probable space group: P 2/C
;
_chemical_formula_sum "Si O2"
_cell_formula_units_Z 28
_cell_length_a 4.946077
_cell_length_b 23.427074
_cell_length_c 12.868816
_cell_angle_alpha 90.000000
_cell_angle_beta 101.297214
_cell_angle_gamma 90.000000
_cell_volume 1462.244895
_symmetry_space_group_name_H-M "P 2/C"
_symmetry_group_IT_number 13
_symmetry_cell_setting 'monoclinic'
loop_
_space_group_symop_operation_xyz
x,y,z
-x,y,1/2-z
-x,-y,-z
x,-y,1/2+z
loop_
_atom_site_type_symbol
_atom_site_label
_atom_site_fract_x
_atom_site_fract_y
_atom_site_fract_z
Si Si1 0.217565 0.069188 0.442906
Si Si2 0.305214 0.382508 0.034280
Si Si3 0.149766 0.434920 0.364248
Si Si4 0.551153 0.736159 0.872158
Si Si5 0.679523 0.991801 0.861920
Si Si6 0.049255 0.810111 0.871999
Si Si7 0.729932 0.561914 0.179106
O O1 0.504195 0.056797 0.407268
O O2 0.162431 0.136500 0.445480
O O3 0.972468 0.037906 0.359823
O O4 0.250403 0.046895 0.563074
O O5 0.545479 0.410301 0.120004
O O6 0.317001 0.314744 0.050992
O O7 0.015516 0.410440 0.048488
O O8 0.369212 0.395486 0.918181
O O9 0.176045 0.503154 0.369265
O O10 0.000000 0.412814 0.250000
O O11 0.500000 0.716023 0.750000
O O12 0.261728 0.757285 0.897205
O O13 0.759622 0.789305 0.896044
O O14 0.500000 0.012588 0.750000
O O15 0.000000 0.829815 0.750000
O O16 0.500000 0.551798 0.250000
O O17 0.000000 0.590149 0.250000
#
# Coordination Sequence:
#
# PCOD8117701 Si02
#       7
#     4   4   4   4   4   4   4
#     4  10  20  32  52  78 106 143 176 210 262 316
#     4  12  22  37  58  79 109 144 175 220 273 318
#     4  11  21  35  56  84 111 136 169 214 273 338
#     4  10  21  34  52  79 103 133 174 217 265 314
#     4  10  19  32  51  79 109 137 175 216 259 311
#     4  10  19  33  51  73 106 138 171 213 258 310
#     4  11  23  39  56  80 108 141 182 220 262 320
#
# _framework density 19.14864
#
# number of rings (size 3 to 8) (size 9 to 14) (size 15 to 20)
#    0.000    1.429    0.000    7.714    0.000    2.286 
#    0.000    0.000    0.000    2.571    0.000    0.000 
#    0.000    0.000    0.000    0.000    0.000    0.000 
#
# Total GULP energy -347235.801262 kJ/mol
# GULP energy per Si atom -12401.278616 kJ/mol
# Density = 1.910506 g / cm^3
# Si number density = 19.148640 Si / 1000 Ang^3
#
#
#
# Elastic Constant Matrix: (Units=GPa)
#
#
# Indices 1 2 3 4 5 6 
#
# 1 82.1998 17.1344 16.9762 0.0000 7.2368 0.0000
# 2 17.1344 100.8602 47.4990 0.0000 3.8736 0.0000
# 3 16.9762 47.4990 81.2860 0.0000 10.0924 0.0000
# 4 0.0000 0.0000 0.0000 19.0040 0.0000 4.2824
# 5 7.2368 3.8736 10.0924 0.0000 28.6946 0.0000
# 6 0.0000 0.0000 0.0000 4.2824 0.0000 12.6429
#
#
#
# Elastic Compliance Matrix: (Units=1/GPa)
#
#
# Indices 1 2 3 4 5 6 
#
# 1 0.013003 -0.001353 -0.001611 0.000000 -0.002530 0.000000
# 2 -0.001353 0.013848 -0.007968 0.000000 0.001274 0.000000
# 3 -0.001611 -0.007968 0.017892 0.000000 -0.004811 0.000000
# 4 0.000000 0.000000 0.000000 0.056969 0.000000 -0.019297
# 5 -0.002530 0.001274 -0.004811 0.000000 0.037008 0.000000
# 6 0.000000 0.000000 0.000000 -0.019297 0.000000 0.085632
#
#
# Mechanical properties :
#
#
# Convention : Reuss Voigt Hill
#
# Bulk Modulus (GPa) = 43.70696 47.50723 45.60710
# Shear Modulus (GPa) = 19.69737 24.25072 21.97405
#
# Velocity S-wave (km/s) = 3.21075 3.56258 3.39123
# Velocity P-wave (km/s) = 6.05143 6.46422 6.26123
#
# Compressibility (1/GPa) = 0.02287965
#
# Stress axis : x y z
#
# Youngs Moduli (GPa) = 76.90552 72.21326 55.89172
#
# Poissons Ratio (x) = 0.09772 0.09002
# Poissons Ratio (y) = 0.10407 0.44532
# Poissons Ratio (z) = 0.12387 0.57536
#
# Static dielectric constant tensor:
#      x y z
#    x 3.703010 0.000000 0.151610 
#    y 0.000000 3.226030 0.000000 
#    z 0.151610 0.000000 3.374350 
# 
# 
# High freq. dielectric constant tensor:
#      x y z
#    x 1.769090 0.000000 0.012350 
#    y 0.000000 1.723690 0.000000 
#    z 0.012350 0.000000 1.720470 
# 
# From -- ./inp_files/26758.got.cif
#   From: 2010.06.25/outbox.cif.g09.slc.cpg/sg13_14_cif.got.tgz:26758.got - 2010.06.28 04:50:58.
