data_PCOD8117545
_publ_section_title
;
Structure prediction by ZEFSAII (Michael W. Deem and Ramdas Pophale) SiO2 
 PCOD8117545
Probable space group: P 2/C
;
_chemical_formula_sum "Si O2"
_cell_formula_units_Z 22
_cell_length_a 22.908204
_cell_length_b 8.520399
_cell_length_c 15.138667
_cell_angle_alpha 90.000000
_cell_angle_beta 158.028498
_cell_angle_gamma 90.000000
_cell_volume 1105.551552
_symmetry_space_group_name_H-M "P 2/C"
_symmetry_group_IT_number 13
_symmetry_cell_setting 'monoclinic'
loop_
_space_group_symop_operation_xyz
x,y,z
-x,y,1/2-z
-x,-y,-z
x,-y,1/2+z
loop_
_atom_site_type_symbol
_atom_site_label
_atom_site_fract_x
_atom_site_fract_y
_atom_site_fract_z
Si Si1 0.500000 0.073113 0.250000
Si Si2 0.926367 0.841589 0.938297
Si Si3 0.320435 0.348589 0.525619
Si Si4 0.769903 0.295362 0.575352
Si Si5 0.273781 0.852695 0.673671
Si Si6 0.429318 0.138911 0.812687
O O1 0.652167 0.181003 0.460760
O O2 0.486548 0.965635 0.144881
O O3 0.792154 0.758504 0.692492
O O4 0.864118 0.869571 0.949706
O O5 0.065412 0.719209 0.145502
O O6 0.000000 0.000000 0.000000
O O7 0.500000 0.332602 0.750000
O O8 0.274332 0.526976 0.468422
O O9 0.315052 0.272926 0.615304
O O10 0.777118 0.252687 0.481394
O O11 0.315195 0.031676 0.709402
O O12 0.433162 0.778503 0.937704
#
# Coordination Sequence:
#
# PCOD8117545 Si02
#       6
#     2   4   4   4   4   4
#     4  10  18  38  62  94 122 174 214 254 304 390
#     4  12  24  44  68  93 127 168 220 265 311 375
#     4  12  23  43  64  93 131 170 210 253 325 390
#     4  11  24  38  63  94 133 164 209 261 325 373
#     4  10  21  39  63  95 126 162 213 267 311 367
#     4  10  19  37  66  93 124 164 222 254 306 375
#
# _framework density 19.899567999999999
#
# number of rings (size 3 to 8) (size 9 to 14) (size 15 to 20)
#    0.000    1.091    3.636    4.364    0.000    0.727 
#    0.000    3.636    0.000    0.000    0.000    0.000 
#    0.000    0.000    0.000    0.000    0.000    0.000 
#
# Total GULP energy -272672.042635 kJ/mol
# GULP energy per Si atom -12394.183756 kJ/mol
# Density = 1.985428 g / cm^3
# Si number density = 19.899568 Si / 1000 Ang^3
#
#
#
# Elastic Constant Matrix: (Units=GPa)
#
#
# Indices 1 2 3 4 5 6 
#
# 1 68.9151 25.0033 28.9525 0.0000 7.4664 0.0000
# 2 25.0033 112.4381 59.9048 0.0000 3.1517 0.0000
# 3 28.9525 59.9048 153.5717 0.0000 -2.2761 0.0000
# 4 0.0000 0.0000 0.0000 37.9087 0.0000 -0.0771
# 5 7.4664 3.1517 -2.2761 0.0000 29.9861 0.0000
# 6 0.0000 0.0000 0.0000 -0.0771 0.0000 13.8443
#
#
#
# Elastic Compliance Matrix: (Units=1/GPa)
#
#
# Indices 1 2 3 4 5 6 
#
# 1 0.016787 -0.002398 -0.002290 0.000000 -0.004102 0.000000
# 2 -0.002398 0.011639 -0.004102 0.000000 -0.000938 0.000000
# 3 -0.002290 -0.004102 0.008568 0.000000 0.001652 0.000000
# 4 0.000000 0.000000 0.000000 0.026379 0.000000 0.000147
# 5 -0.004102 -0.000938 0.001652 0.000000 0.034594 0.000000
# 6 0.000000 0.000000 0.000000 0.000147 0.000000 0.072233
#
#
# Mechanical properties :
#
#
# Convention : Reuss Voigt Hill
#
# Bulk Modulus (GPa) = 51.50962 62.51620 57.01291
# Shear Modulus (GPa) = 25.73988 31.08544 28.41266
#
# Velocity S-wave (km/s) = 3.60041 3.95665 3.78273
# Velocity P-wave (km/s) = 6.57457 7.23585 6.91312
#
# Compressibility (1/GPa) = 0.01941385
#
# Stress axis : x y z
#
# Youngs Moduli (GPa) = 59.56934 85.92069 116.71465
#
# Poissons Ratio (x) = 0.20602 0.26731
# Poissons Ratio (y) = 0.14284 0.47874
# Poissons Ratio (z) = 0.13643 0.35243
#
# Static dielectric constant tensor:
#      x y z
#    x 3.864540 0.000000 -0.126370 
#    y 0.000000 3.598750 0.000000 
#    z -0.126370 0.000000 3.899470 
# 
# 
# High freq. dielectric constant tensor:
#      x y z
#    x 1.776870 0.000000 -0.004320 
#    y 0.000000 1.767870 0.000000 
#    z -0.004320 0.000000 1.795610 
# 
# From -- ./inp_files/58751.got.cif
#   From: 2010.06.25/outbox.cif.g09.slc.cpg/sg13_30_cif.got.tgz:58751.got - 2010.06.28 04:50:58.
