data_PCOD8117472
_publ_section_title
;
Structure prediction by ZEFSAII (Michael W. Deem and Ramdas Pophale) SiO2 
 PCOD8117472
Probable space group: P 2/C
;
_chemical_formula_sum "Si O2"
_cell_formula_units_Z 30
_cell_length_a 15.920142
_cell_length_b 13.798758
_cell_length_c 14.103019
_cell_angle_alpha 90.000000
_cell_angle_beta 28.635059
_cell_angle_gamma 90.000000
_cell_volume 1484.711659
_symmetry_space_group_name_H-M "P 2/C"
_symmetry_group_IT_number 13
_symmetry_cell_setting 'monoclinic'
loop_
_space_group_symop_operation_xyz
x,y,z
-x,y,1/2-z
-x,-y,-z
x,-y,1/2+z
loop_
_atom_site_type_symbol
_atom_site_label
_atom_site_fract_x
_atom_site_fract_y
_atom_site_fract_z
Si Si1 0.132713 0.823496 0.802261
Si Si2 0.372990 0.571637 0.675956
Si Si3 0.258087 0.202360 0.835922
Si Si4 0.153836 0.616477 0.717300
Si Si5 0.454090 0.211564 0.104591
Si Si6 0.500000 0.097351 0.250000
Si Si7 0.201700 0.056826 0.061361
Si Si8 0.766085 0.414813 0.560471
O O1 0.144159 0.731974 0.721398
O O2 0.253566 0.816240 0.775851
O O3 0.212272 0.910091 0.660377
O O4 0.925537 0.827355 0.034611
O O5 0.500000 0.500000 0.500000
O O6 0.211408 0.584664 0.764244
O O7 0.465724 0.672895 0.608611
O O8 0.318495 0.515571 0.824095
O O9 0.414268 0.175700 0.608761
O O10 0.286508 0.316371 0.831575
O O11 0.266092 0.140128 0.924562
O O12 0.284748 0.590447 0.500822
O O13 0.970557 0.568125 0.875302
O O14 0.505398 0.163205 0.151834
O O15 0.324214 0.034697 0.423184
O O16 0.000000 0.026019 0.250000
#
# Coordination Sequence:
#
# PCOD8117472 Si02
#       8
#     4   4   4   4   4   2   4   4
#     4   9  19  38  65  95 120 148 198 262 312 354
#     4  11  22  37  56  88 121 160 200 240 294 364
#     4  10  19  38  67  96 121 149 199 266 310 353
#     4   9  19  34  60  88 119 150 194 252 304 352
#     4  11  25  42  58  86 126 169 205 246 303 360
#     4  12  28  44  58  82 132 172 204 248 298 376
#     4  10  21  40  69  98 121 153 202 256 316 370
#     4  10  18  36  61  90 118 152 197 251 305 351
#
# _framework density 20.205943000000001
#
# number of rings (size 3 to 8) (size 9 to 14) (size 15 to 20)
#    0.000    1.867    2.667    1.200    0.000    4.800 
#    0.000    2.667    2.933    0.000    0.000    0.000 
#    0.000    0.000    0.000    0.000    0.000    0.000 
#
# Total GULP energy -371768.482579 kJ/mol
# GULP energy per Si atom -12392.282753 kJ/mol
# Density = 2.015995 g / cm^3
# Si number density = 20.205943 Si / 1000 Ang^3
#
#
#
# Elastic Constant Matrix: (Units=GPa)
#
#
# Indices 1 2 3 4 5 6 
#
# 1 64.8071 35.0061 27.4126 0.0000 4.6996 0.0000
# 2 35.0061 98.1363 39.1422 0.0000 -0.1884 0.0000
# 3 27.4126 39.1422 80.0517 0.0000 3.2839 0.0000
# 4 0.0000 0.0000 0.0000 30.0025 0.0000 2.5721
# 5 4.6996 -0.1884 3.2839 0.0000 24.3205 0.0000
# 6 0.0000 0.0000 0.0000 2.5721 0.0000 27.7641
#
#
#
# Elastic Compliance Matrix: (Units=1/GPa)
#
#
# Indices 1 2 3 4 5 6 
#
# 1 0.020480 -0.005679 -0.004095 0.000000 -0.003449 0.000000
# 2 -0.005679 0.014255 -0.005103 0.000000 0.001897 0.000000
# 3 -0.004095 -0.005103 0.016450 0.000000 -0.001469 0.000000
# 4 0.000000 0.000000 0.000000 0.033597 0.000000 -0.003113
# 5 -0.003449 0.001897 -0.001469 0.000000 0.041997 0.000000
# 6 0.000000 0.000000 0.000000 -0.003113 0.000000 0.036306
#
#
# Mechanical properties :
#
#
# Convention : Reuss Voigt Hill
#
# Bulk Modulus (GPa) = 46.66213 49.56854 48.11533
# Shear Modulus (GPa) = 25.00223 25.84636 25.42430
#
# Velocity S-wave (km/s) = 3.52144 3.58040 3.55104
# Velocity P-wave (km/s) = 6.29901 6.45579 6.37788
#
# Compressibility (1/GPa) = 0.02143065
#
# Stress axis : x y z
#
# Youngs Moduli (GPa) = 48.82814 70.15262 60.79131
#
# Poissons Ratio (x) = 0.39838 0.24894
# Poissons Ratio (y) = 0.27728 0.31023
# Poissons Ratio (z) = 0.19995 0.35800
#
# Static dielectric constant tensor:
#      x y z
#    x 3.288260 0.000000 -0.163960 
#    y 0.000000 3.368200 0.000000 
#    z -0.163960 0.000000 3.565560 
# 
# 
# High freq. dielectric constant tensor:
#      x y z
#    x 1.783890 0.000000 -0.006260 
#    y 0.000000 1.777750 0.000000 
#    z -0.006260 0.000000 1.791160 
# 
# From -- ./inp_files/55686.got.cif
#   From: 2010.06.25/outbox.cif.g09.slc.cpg/sg13_28_cif.got.tgz:55686.got - 2010.06.28 04:50:58.
