data_PCOD8117288
_publ_section_title
;
Structure prediction by ZEFSAII (Michael W. Deem and Ramdas Pophale) SiO2 
 PCOD8117288
Probable space group: P 2/C
;
_chemical_formula_sum "Si O2"
_cell_formula_units_Z 28
_cell_length_a 9.248828
_cell_length_b 8.593453
_cell_length_c 31.606741
_cell_angle_alpha 90.000000
_cell_angle_beta 38.533896
_cell_angle_gamma 90.000000
_cell_volume 1564.971740
_symmetry_space_group_name_H-M "P 2/C"
_symmetry_group_IT_number 13
_symmetry_cell_setting 'monoclinic'
loop_
_space_group_symop_operation_xyz
x,y,z
-x,y,1/2-z
-x,-y,-z
x,-y,1/2+z
loop_
_atom_site_type_symbol
_atom_site_label
_atom_site_fract_x
_atom_site_fract_y
_atom_site_fract_z
Si Si1 0.690951 0.627489 0.068453
Si Si2 0.852216 0.592775 0.683884
Si Si3 0.000000 0.305231 0.750000
Si Si4 0.135054 0.635206 0.915574
Si Si5 0.412227 0.849187 0.188432
Si Si6 0.604219 0.215104 0.313807
Si Si7 0.719874 0.561876 0.857632
Si Si8 0.500000 0.321672 0.750000
O O1 0.797559 0.540548 0.085552
O O2 0.549879 0.779384 0.116434
O O3 0.544819 0.497820 0.074200
O O4 0.894585 0.689130 0.991585
O O5 0.879285 0.659427 0.631207
O O6 0.700183 0.704454 0.748936
O O7 0.722904 0.426783 0.710991
O O8 0.118867 0.581557 0.638453
O O9 0.858752 0.202255 0.748571
O O10 0.803370 0.412767 0.813444
O O11 0.336747 0.749305 0.884137
O O12 0.545234 0.792268 0.200052
O O13 0.384669 0.032353 0.191857
O O14 0.741357 0.284008 0.323243
#
# Coordination Sequence:
#
# PCOD8117288 Si02
#       8
#     4   4   2   4   4   4   4   2
#     4   9  20  40  56  80 109 157 201 222 276 343
#     4  12  19  35  58  85 111 145 187 247 278 340
#     4  10  18  34  54  80 106 150 184 236 278 336
#     4  10  20  36  60  78 112 154 195 235 271 346
#     4  11  23  34  56  87 117 145 186 240 292 344
#     4  11  22  35  56  87 116 150 182 234 305 338
#     4  10  19  36  58  79 110 148 192 232 281 346
#     4  12  20  36  56  88 114 144 186 242 292 326
#
# _framework density 17.891697000000001
#
# number of rings (size 3 to 8) (size 9 to 14) (size 15 to 20)
#    0.000    1.429    5.714    0.857    4.000    1.143 
#    0.000    0.000    0.000    0.857    0.000    0.000 
#    0.000    0.000    0.000    0.000    0.000    0.000 
#
# Total GULP energy -346881.298881 kJ/mol
# GULP energy per Si atom -12388.617817 kJ/mol
# Density = 1.785097 g / cm^3
# Si number density = 17.891697 Si / 1000 Ang^3
#
#
#
# Elastic Constant Matrix: (Units=GPa)
#
#
# Indices 1 2 3 4 5 6 
#
# 1 106.6217 38.8306 32.4304 0.0000 -7.9894 0.0000
# 2 38.8306 116.3994 26.7840 0.0000 -4.6723 0.0000
# 3 32.4304 26.7840 62.3365 0.0000 -13.7139 0.0000
# 4 0.0000 0.0000 0.0000 22.3608 0.0000 5.2078
# 5 -7.9894 -4.6723 -13.7139 0.0000 18.4121 0.0000
# 6 0.0000 0.0000 0.0000 5.2078 0.0000 21.2874
#
#
#
# Elastic Compliance Matrix: (Units=1/GPa)
#
#
# Indices 1 2 3 4 5 6 
#
# 1 0.011940 -0.002844 -0.004794 0.000000 0.000888 0.000000
# 2 -0.002844 0.010220 -0.003124 0.000000 -0.000968 0.000000
# 3 -0.004794 -0.003124 0.023018 0.000000 0.014272 0.000000
# 4 0.000000 0.000000 0.000000 0.047423 0.000000 -0.011602
# 5 0.000888 -0.000968 0.014272 0.000000 0.065082 0.000000
# 6 0.000000 0.000000 0.000000 -0.011602 0.000000 0.049814
#
#
# Mechanical properties :
#
#
# Convention : Reuss Voigt Hill
#
# Bulk Modulus (GPa) = 42.27894 53.49419 47.88656
# Shear Modulus (GPa) = 21.10537 24.89958 23.00247
#
# Velocity S-wave (km/s) = 3.43828 3.73457 3.58949
# Velocity P-wave (km/s) = 6.28046 6.96849 6.63340
#
# Compressibility (1/GPa) = 0.02365244
#
# Stress axis : x y z
#
# Youngs Moduli (GPa) = 83.75548 97.84705 43.44378
#
# Poissons Ratio (x) = 0.27830 0.20827
# Poissons Ratio (y) = 0.23822 0.13574
# Poissons Ratio (z) = 0.40152 0.30572
#
# Static dielectric constant tensor:
#      x y z
#    x 3.526370 0.000000 -0.231600 
#    y 0.000000 3.103170 0.000000 
#    z -0.231600 0.000000 3.297910 
# 
# 
# High freq. dielectric constant tensor:
#      x y z
#    x 1.704730 0.000000 -0.016120 
#    y 0.000000 1.674230 0.000000 
#    z -0.016120 0.000000 1.675260 
# 
# From -- ./inp_files/75270.got.cif
#   From: 2010.06.25/outbox.cif.g09.slc.cpg/sg13_38_cif.got.tgz:75270.got - 2010.06.28 04:50:58.
