data_PCOD8117591
_publ_section_title
;
Structure prediction by ZEFSAII (Michael W. Deem and Ramdas Pophale) SiO2 
 PCOD8117591
Probable space group: P 2/C
;
_chemical_formula_sum "Si O2"
_cell_formula_units_Z 18
_cell_length_a 7.792703
_cell_length_b 11.769451
_cell_length_c 9.911616
_cell_angle_alpha 90.000000
_cell_angle_beta 119.688160
_cell_angle_gamma 90.000000
_cell_volume 789.724401
_symmetry_space_group_name_H-M "P 2/C"
_symmetry_group_IT_number 13
_symmetry_cell_setting 'monoclinic'
loop_
_space_group_symop_operation_xyz
x,y,z
-x,y,1/2-z
-x,-y,-z
x,-y,1/2+z
loop_
_atom_site_type_symbol
_atom_site_label
_atom_site_fract_x
_atom_site_fract_y
_atom_site_fract_z
Si Si1 0.390464 0.149504 0.840318
Si Si2 0.706470 0.387283 0.669808
Si Si3 0.751859 0.425966 0.988437
Si Si4 0.000000 0.747288 0.750000
Si Si5 0.655678 0.101348 0.194761
O O1 0.500000 0.195825 0.750000
O O2 0.241209 0.252361 0.822954
O O3 0.277827 0.031134 0.766033
O O4 0.558128 0.124488 0.013850
O O5 0.781474 0.442577 0.839714
O O6 0.470984 0.393371 0.562586
O O7 0.807489 0.455748 0.586308
O O8 0.890150 0.326661 0.095689
O O9 0.852184 0.823901 0.781872
O O10 0.500000 0.135229 0.250000
#
# Coordination Sequence:
#
# PCOD8117591 Si02
#       5
#     4   4   4   2   4
#     4  10  18  41  65  92 132 178 213 265 334 399
#     4  10  19  41  61  94 126 184 210 271 331 403
#     4  10  22  36  67  92 132 170 224 265 339 378
#     4  12  22  44  64 108 134 168 220 296 308 400
#     4  10  23  39  68  98 130 177 218 267 337 394
#
# _framework density 22.792762
#
# number of rings (size 3 to 8) (size 9 to 14) (size 15 to 20)
#    0.000    1.778    4.444    0.000    0.000    2.667 
#    0.000   18.889    0.000    0.000    0.000    0.000 
#    0.000    0.000    0.000    0.000    0.000    0.000 
#
# Total GULP energy -223179.643452 kJ/mol
# GULP energy per Si atom -12398.869081 kJ/mol
# Density = 2.274088 g / cm^3
# Si number density = 22.792762 Si / 1000 Ang^3
#
#
#
# Elastic Constant Matrix: (Units=GPa)
#
#
# Indices 1 2 3 4 5 6 
#
# 1 97.8308 68.2678 40.4097 0.0000 3.4307 0.0000
# 2 68.2678 194.9200 56.1350 0.0000 -8.0898 0.0000
# 3 40.4097 56.1350 111.0050 0.0000 -13.6519 0.0000
# 4 0.0000 0.0000 0.0000 46.4862 0.0000 -13.7108
# 5 3.4307 -8.0898 -13.6519 0.0000 16.1874 0.0000
# 6 0.0000 0.0000 0.0000 -13.7108 0.0000 28.3757
#
#
#
# Elastic Compliance Matrix: (Units=1/GPa)
#
#
# Indices 1 2 3 4 5 6 
#
# 1 0.015598 -0.004547 -0.004535 0.000000 -0.009403 0.000000
# 2 -0.004547 0.007334 -0.001656 0.000000 0.003232 0.000000
# 3 -0.004535 -0.001656 0.012846 0.000000 0.010967 0.000000
# 4 0.000000 0.000000 0.000000 0.025087 0.000000 0.012122
# 5 -0.009403 0.003232 0.010967 0.000000 0.074634 0.000000
# 6 0.000000 0.000000 0.000000 0.012122 0.000000 0.041099
#
#
# Mechanical properties :
#
#
# Convention : Reuss Voigt Hill
#
# Bulk Modulus (GPa) = 69.92414 81.48675 75.70545
# Shear Modulus (GPa) = 24.64994 34.13939 29.39467
#
# Velocity S-wave (km/s) = 3.29216 3.87436 3.59506
# Velocity P-wave (km/s) = 6.72279 7.47282 7.10770
#
# Compressibility (1/GPa) = 0.01430121
#
# Stress axis : x y z
#
# Youngs Moduli (GPa) = 64.11192 136.35332 77.84689
#
# Poissons Ratio (x) = 0.62001 0.35304
# Poissons Ratio (y) = 0.29152 0.12891
# Poissons Ratio (z) = 0.29075 0.22579
#
# Static dielectric constant tensor:
#      x y z
#    x 3.779930 0.000000 -0.168730 
#    y 0.000000 4.681000 0.000000 
#    z -0.168730 0.000000 4.207060 
# 
# 
# High freq. dielectric constant tensor:
#      x y z
#    x 1.868310 0.000000 -0.011790 
#    y 0.000000 1.920800 0.000000 
#    z -0.011790 0.000000 1.902570 
# 
# From -- ./inp_files/29191.got.cif
#   From: 2010.06.25/outbox.cif.g09.slc.cpg/sg13_15_cif.got.tgz:29191.got - 2010.06.28 04:50:58.
