data_PCOD8117840
_publ_section_title
;
Structure prediction by ZEFSAII (Michael W. Deem and Ramdas Pophale) SiO2 
 PCOD8117840
Probable space group: P 2/C
;
_chemical_formula_sum "Si O2"
_cell_formula_units_Z 28
_cell_length_a 15.610433
_cell_length_b 14.261154
_cell_length_c 8.792173
_cell_angle_alpha 90.000000
_cell_angle_beta 131.684554
_cell_angle_gamma 90.000000
_cell_volume 1461.774309
_symmetry_space_group_name_H-M "P 2/C"
_symmetry_group_IT_number 13
_symmetry_cell_setting 'monoclinic'
loop_
_space_group_symop_operation_xyz
x,y,z
-x,y,1/2-z
-x,-y,-z
x,-y,1/2+z
loop_
_atom_site_type_symbol
_atom_site_label
_atom_site_fract_x
_atom_site_fract_y
_atom_site_fract_z
Si Si1 0.872345 0.908109 0.042482
Si Si2 0.622937 0.390018 0.718215
Si Si3 0.355995 0.201523 0.917578
Si Si4 0.645245 0.421920 0.086240
Si Si5 0.281761 0.254485 0.156391
Si Si6 0.560736 0.866697 0.478452
Si Si7 0.253142 0.983385 0.334386
O O1 0.777607 0.967820 0.025283
O O2 0.000000 0.922530 0.250000
O O3 0.841864 0.796711 0.009986
O O4 0.852950 0.955641 0.855783
O O5 0.669414 0.289188 0.721372
O O6 0.485469 0.388216 0.547918
O O7 0.665343 0.469887 0.652249
O O8 0.676900 0.410358 0.947040
O O9 0.473452 0.146146 0.016198
O O10 0.257990 0.122853 0.772909
O O11 0.357083 0.240329 0.092247
O O12 0.725528 0.362734 0.298963
O O13 0.338757 0.206796 0.371623
O O14 0.500000 0.838967 0.250000
O O15 0.621385 0.968504 0.537241
#
# Coordination Sequence:
#
# PCOD8117840 Si02
#       7
#     4   4   4   4   4   4   4
#     4  10  21  39  57  76 100 138 185 239 278 310
#     4  10  20  31  53  72 112 148 175 208 253 308
#     4  11  20  32  48  75 108 148 174 212 258 321
#     4  10  19  34  48  78 105 145 182 210 251 313
#     4  10  21  33  52  77 106 140 185 219 266 319
#     4  11  20  32  48  72 110 145 175 211 255 318
#     4  10  22  35  52  77 104 139 183 221 270 323
#
# _framework density 19.154805
#
# number of rings (size 3 to 8) (size 9 to 14) (size 15 to 20)
#    0.000    1.714    1.429    3.857    0.000    4.571 
#    0.000    0.000    0.000    0.000    0.000   10.000 
#    0.000    0.000    0.000    0.000    0.000    0.000 
#
# Total GULP energy -346928.246015 kJ/mol
# GULP energy per Si atom -12390.294501 kJ/mol
# Density = 1.911121 g / cm^3
# Si number density = 19.154805 Si / 1000 Ang^3
#
#
#
# Elastic Constant Matrix: (Units=GPa)
#
#
# Indices 1 2 3 4 5 6 
#
# 1 46.5626 37.2556 29.0352 0.0000 -12.4999 0.0000
# 2 37.2556 97.7978 24.8699 0.0000 -8.4037 0.0000
# 3 29.0352 24.8699 74.5834 0.0000 -10.2258 0.0000
# 4 0.0000 0.0000 0.0000 28.4993 0.0000 -8.2455
# 5 -12.4999 -8.4037 -10.2258 0.0000 25.6907 0.0000
# 6 0.0000 0.0000 0.0000 -8.2455 0.0000 23.1543
#
#
#
# Elastic Compliance Matrix: (Units=1/GPa)
#
#
# Indices 1 2 3 4 5 6 
#
# 1 0.040428 -0.011799 -0.010193 0.000000 0.011754 0.000000
# 2 -0.011799 0.014746 -0.000475 0.000000 -0.001107 0.000000
# 3 -0.010193 -0.000475 0.017805 0.000000 0.001972 0.000000
# 4 0.000000 0.000000 0.000000 0.039119 0.000000 0.013931
# 5 0.011754 -0.001107 0.001972 0.000000 0.045067 0.000000
# 6 0.000000 0.000000 0.000000 0.013931 0.000000 0.048149
#
#
# Mechanical properties :
#
#
# Convention : Reuss Voigt Hill
#
# Bulk Modulus (GPa) = 35.65749 44.58502 40.12126
# Shear Modulus (GPa) = 19.26066 23.98773 21.62420
#
# Velocity S-wave (km/s) = 3.17444 3.54264 3.36358
# Velocity P-wave (km/s) = 5.66498 6.32933 6.00634
#
# Compressibility (1/GPa) = 0.02804460
#
# Stress axis : x y z
#
# Youngs Moduli (GPa) = 24.73507 67.81613 56.16482
#
# Poissons Ratio (x) = 0.80016 0.57248
# Poissons Ratio (y) = 0.29185 0.02670
# Poissons Ratio (z) = 0.25212 0.03224
#
# Static dielectric constant tensor:
#      x y z
#    x 3.313770 0.000000 -0.298510 
#    y 0.000000 3.675240 0.000000 
#    z -0.298510 0.000000 3.237430 
# 
# 
# High freq. dielectric constant tensor:
#      x y z
#    x 1.711750 0.000000 -0.040800 
#    y 0.000000 1.755590 0.000000 
#    z -0.040800 0.000000 1.721380 
# 
# From -- ./inp_files/16543.got.cif
#   From: 2010.06.25/outbox.cif.g09.slc.cpg/sg13_9_cif.got.tgz:16543.got - 2010.06.28 04:50:58.
