data_PCOD8117410
_publ_section_title
;
Structure prediction by ZEFSAII (Michael W. Deem and Ramdas Pophale) SiO2 
 PCOD8117410
Probable space group: P 2/C
;
_chemical_formula_sum "Si O2"
_cell_formula_units_Z 20
_cell_length_a 18.958890
_cell_length_b 7.577663
_cell_length_c 8.924808
_cell_angle_alpha 90.000000
_cell_angle_beta 49.055791
_cell_angle_gamma 90.000000
_cell_volume 968.487877
_symmetry_space_group_name_H-M "P 2/C"
_symmetry_group_IT_number 13
_symmetry_cell_setting 'monoclinic'
loop_
_space_group_symop_operation_xyz
x,y,z
-x,y,1/2-z
-x,-y,-z
x,-y,1/2+z
loop_
_atom_site_type_symbol
_atom_site_label
_atom_site_fract_x
_atom_site_fract_y
_atom_site_fract_z
Si Si1 0.391228 0.397804 0.911327
Si Si2 0.302768 0.688710 0.845950
Si Si3 0.097029 0.763247 0.150143
Si Si4 0.157476 0.042446 0.845941
Si Si5 0.284648 0.907112 0.425679
O O1 0.500000 0.436027 0.750000
O O2 0.335486 0.570303 0.938159
O O3 0.367988 0.229578 0.838258
O O4 0.363069 0.363143 0.119955
O O5 0.322228 0.892784 0.858412
O O6 0.190933 0.655570 0.978851
O O7 0.101141 0.821419 0.319331
O O8 0.000000 0.657225 0.250000
O O9 0.089795 0.934899 0.051348
O O10 0.231296 0.149283 0.847450
O O11 0.214084 0.901341 0.665189
#
# Coordination Sequence:
#
# PCOD8117410 Si02
#       5
#     4   4   4   4   4
#     4  12  25  42  66  88 122 169 207 257 311 364
#     4  10  25  41  61  93 126 157 207 259 304 364
#     4  10  18  35  61  90 125 162 204 248 305 366
#     4   8  17  33  60  89 119 160 195 251 298 358
#     4  10  19  41  63  87 125 162 199 255 311 356
#
# _framework density 20.650749999999999
#
# number of rings (size 3 to 8) (size 9 to 14) (size 15 to 20)
#    0.000    2.400    4.000    1.200    5.600    1.600 
#    0.000    1.000    0.000    0.000    0.000    0.000 
#    0.000    0.000    0.000    0.000    0.000    0.000 
#
# Total GULP energy -247859.323547 kJ/mol
# GULP energy per Si atom -12392.966177 kJ/mol
# Density = 2.060375 g / cm^3
# Si number density = 20.650750 Si / 1000 Ang^3
#
#
#
# Elastic Constant Matrix: (Units=GPa)
#
#
# Indices 1 2 3 4 5 6 
#
# 1 100.3478 28.8815 33.6784 0.0000 -8.5808 0.0000
# 2 28.8815 75.3909 11.9372 0.0000 -2.7305 0.0000
# 3 33.6784 11.9372 83.2048 0.0000 3.4602 0.0000
# 4 0.0000 0.0000 0.0000 -35.1868 0.0000 -15.2470
# 5 -8.5808 -2.7305 3.4602 0.0000 50.3773 0.0000
# 6 0.0000 0.0000 0.0000 -15.2470 0.0000 27.3113
#
#
#
# Elastic Compliance Matrix: (Units=1/GPa)
#
#
# Indices 1 2 3 4 5 6 
#
# 1 0.012941 -0.004123 -0.004742 0.000000 0.002306 0.000000
# 2 -0.004123 0.014924 -0.000478 0.000000 0.000139 0.000000
# 3 -0.004742 -0.000478 0.014082 0.000000 -0.001801 0.000000
# 4 0.000000 0.000000 0.000000 -0.022884 0.000000 -0.012775
# 5 0.002306 0.000139 -0.001801 0.000000 0.020374 0.000000
# 6 0.000000 0.000000 0.000000 -0.012775 0.000000 0.029483
#
#
# Mechanical properties :
#
#
# Convention : Reuss Voigt Hill
#
# Bulk Modulus (GPa) = 42.99272 45.32641 44.15956
# Shear Modulus (GPa) = 52.43260 20.79678 36.61469
#
# Velocity S-wave (km/s) = 5.04433 3.17688 4.21532
# Velocity P-wave (km/s) = 7.40211 5.95428 6.71732
#
# Compressibility (1/GPa) = 0.02325975
#
# Stress axis : x y z
#
# Youngs Moduli (GPa) = 77.27448 67.00405 71.01472
#
# Poissons Ratio (x) = 0.27626 0.33678
# Poissons Ratio (y) = 0.31861 0.03395
# Poissons Ratio (z) = 0.36647 0.03203
#
# Static dielectric constant tensor:
#      x y z
#    x 3.953180 0.000000 0.220760 
#    y 0.000000 3.404760 0.000000 
#    z 0.220760 0.000000 3.764710 
# 
# 
# High freq. dielectric constant tensor:
#      x y z
#    x 1.818920 0.000000 0.017980 
#    y 0.000000 1.768470 0.000000 
#    z 0.017980 0.000000 1.811930 
# 
# From -- ./inp_files/21048.got.cif
#   From: 2010.06.25/outbox.cif.g09.slc.cpg/sg13_11_cif.got.tgz:21048.got - 2010.06.28 04:50:58.
