data_PCOD8117994
_publ_section_title
;
Structure prediction by ZEFSAII (Michael W. Deem and Ramdas Pophale) SiO2 
 PCOD8117994
Probable space group: P 2/C
;
_chemical_formula_sum "Si O2"
_cell_formula_units_Z 20
_cell_length_a 8.284213
_cell_length_b 10.181045
_cell_length_c 24.712743
_cell_angle_alpha 90.000000
_cell_angle_beta 150.341752
_cell_angle_gamma 90.000000
_cell_volume 1031.375210
_symmetry_space_group_name_H-M "P 2/C"
_symmetry_group_IT_number 13
_symmetry_cell_setting 'monoclinic'
loop_
_space_group_symop_operation_xyz
x,y,z
-x,y,1/2-z
-x,-y,-z
x,-y,1/2+z
loop_
_atom_site_type_symbol
_atom_site_label
_atom_site_fract_x
_atom_site_fract_y
_atom_site_fract_z
Si Si1 0.700312 0.761696 0.196146
Si Si2 0.077648 0.659973 0.060965
Si Si3 0.083350 0.120538 0.903646
Si Si4 0.700441 0.157728 0.017238
Si Si5 0.844407 0.385263 0.378478
O O1 0.453334 0.653296 0.148508
O O2 0.000000 0.693652 0.250000
O O3 0.833731 0.853226 0.282518
O O4 0.500142 0.854936 0.097042
O O5 0.035568 0.537291 0.089777
O O6 0.015651 0.796027 0.072973
O O7 0.829116 0.651629 0.937922
O O8 0.056557 0.966431 0.909768
O O9 0.454584 0.157310 0.996345
O O10 0.899435 0.293457 0.078217
O O11 0.500000 0.364831 0.250000
#
# Coordination Sequence:
#
# PCOD8117994 Si02
#       5
#     4   4   4   4   4
#     4   9  18  34  55  78 107 140 174 217 265 313
#     4  10  21  36  57  80 102 140 184 211 256 325
#     4  10  19  35  56  79 108 141 178 216 259 316
#     4   9  21  35  52  81 110 138 176 220 264 309
#     4  10  21  37  53  78 111 137 172 222 266 306
#
# _framework density 19.391584999999999
#
# number of rings (size 3 to 8) (size 9 to 14) (size 15 to 20)
#    0.000    2.400    0.000    1.800    0.000    7.200 
#    0.000    7.000    0.000    0.000    0.000    1.400 
#    0.000    0.000    0.000    0.000    0.000    0.000 
#
# Total GULP energy -247949.222582 kJ/mol
# GULP energy per Si atom -12397.461129 kJ/mol
# Density = 1.934745 g / cm^3
# Si number density = 19.391585 Si / 1000 Ang^3
#
#
#
# Elastic Constant Matrix: (Units=GPa)
#
#
# Indices 1 2 3 4 5 6 
#
# 1 78.9534 51.5128 31.3335 0.0000 6.0935 0.0000
# 2 51.5128 113.9196 34.5492 0.0000 14.6775 0.0000
# 3 31.3335 34.5492 125.9180 0.0000 2.8758 0.0000
# 4 0.0000 0.0000 0.0000 25.1651 0.0000 1.0189
# 5 6.0935 14.6775 2.8758 0.0000 17.6097 0.0000
# 6 0.0000 0.0000 0.0000 1.0189 0.0000 30.7953
#
#
#
# Elastic Compliance Matrix: (Units=1/GPa)
#
#
# Indices 1 2 3 4 5 6 
#
# 1 0.018686 -0.007731 -0.002538 0.000000 0.000392 0.000000
# 2 -0.007731 0.013900 -0.001693 0.000000 -0.008634 0.000000
# 3 -0.002538 -0.001693 0.009019 0.000000 0.000816 0.000000
# 4 0.000000 0.000000 0.000000 0.039791 0.000000 -0.001317
# 5 0.000392 -0.008634 0.000816 0.000000 0.063714 0.000000
# 6 0.000000 0.000000 0.000000 -0.001317 0.000000 0.032516
#
#
# Mechanical properties :
#
#
# Convention : Reuss Voigt Hill
#
# Bulk Modulus (GPa) = 56.55295 61.50913 59.03104
# Shear Modulus (GPa) = 24.10310 28.14040 26.12175
#
# Velocity S-wave (km/s) = 3.52940 3.81355 3.67422
# Velocity P-wave (km/s) = 6.77022 7.15397 6.96474
#
# Compressibility (1/GPa) = 0.01768254
#
# Stress axis : x y z
#
# Youngs Moduli (GPa) = 53.51497 71.94498 110.87671
#
# Poissons Ratio (x) = 0.55617 0.28138
# Poissons Ratio (y) = 0.41370 0.18770
# Poissons Ratio (z) = 0.13581 0.12179
#
# Static dielectric constant tensor:
#      x y z
#    x 3.607100 0.000000 0.012400 
#    y 0.000000 3.452490 0.000000 
#    z 0.012400 0.000000 3.661870 
# 
# 
# High freq. dielectric constant tensor:
#      x y z
#    x 1.746780 0.000000 -0.005200 
#    y 0.000000 1.741370 0.000000 
#    z -0.005200 0.000000 1.763460 
# 
# From -- ./inp_files/38733.got.cif
#   From: 2010.06.25/outbox.cif.g09.slc.cpg/sg13_20_cif.got.tgz:38733.got - 2010.06.28 04:50:58.
