data_PCOD8117217
_publ_section_title
;
Structure prediction by ZEFSAII (Michael W. Deem and Ramdas Pophale) SiO2 
 PCOD8117217
Probable space group: P 2/C
;
_chemical_formula_sum "Si O2"
_cell_formula_units_Z 32
_cell_length_a 16.768955
_cell_length_b 17.002440
_cell_length_c 13.658431
_cell_angle_alpha 90.000000
_cell_angle_beta 25.737893
_cell_angle_gamma 90.000000
_cell_volume 1691.074788
_symmetry_space_group_name_H-M "P 2/C"
_symmetry_group_IT_number 13
_symmetry_cell_setting 'monoclinic'
loop_
_space_group_symop_operation_xyz
x,y,z
-x,y,1/2-z
-x,-y,-z
x,-y,1/2+z
loop_
_atom_site_type_symbol
_atom_site_label
_atom_site_fract_x
_atom_site_fract_y
_atom_site_fract_z
Si Si1 0.950860 0.916988 0.693459
Si Si2 0.893487 0.470604 0.962625
Si Si3 0.221128 0.250928 0.113543
Si Si4 0.453706 0.442109 0.638049
Si Si5 0.151013 0.406093 0.281708
Si Si6 0.340888 0.105843 0.697020
Si Si7 0.385176 0.731552 0.229090
Si Si8 0.418194 0.999244 0.441943
O O1 0.885848 0.828493 0.750623
O O2 0.000000 0.936388 0.750000
O O3 0.135200 0.928957 0.426865
O O4 0.794501 0.975910 0.829987
O O5 0.000000 0.434759 0.750000
O O6 0.006791 0.537001 0.892702
O O7 0.708714 0.512475 0.124280
O O8 0.853585 0.406766 0.092908
O O9 0.103322 0.319009 0.297250
O O10 0.419011 0.246367 0.943490
O O11 0.234970 0.267472 0.982047
O O12 0.500000 0.500000 0.500000
O O13 0.644313 0.429367 0.486069
O O14 0.385009 0.355121 0.679481
O O15 0.336754 0.201037 0.703323
O O16 0.458169 0.074566 0.660045
O O17 0.437823 0.073825 0.492163
O O18 0.500000 0.029191 0.250000
#
# Coordination Sequence:
#
# PCOD8117217 Si02
#       8
#     4   4   4   4   4   4   4   4
#     4  12  21  34  58  88 119 143 184 232 291 337
#     4  10  19  32  53  76 106 143 189 224 276 341
#     4  10  19  31  53  79 117 137 173 239 282 333
#     4   9  19  34  52  77 112 144 182 231 273 330
#     4   9  20  34  48  80 109 143 178 230 283 328
#     4  11  23  36  60  87 116 153 181 238 281 334
#     4  10  18  33  53  84 109 143 185 225 288 330
#     4  11  22  41  58  84 118 151 191 224 279 342
#
# _framework density 18.922875999999999
#
# number of rings (size 3 to 8) (size 9 to 14) (size 15 to 20)
#    0.000    1.750    3.750    1.125    1.750    2.000 
#    0.000    0.000    0.000    4.500    9.750    0.000 
#    0.000    0.000    0.000    0.000    0.000    0.000 
#
# Total GULP energy -396601.023098 kJ/mol
# GULP energy per Si atom -12393.781972 kJ/mol
# Density = 1.887981 g / cm^3
# Si number density = 18.922876 Si / 1000 Ang^3
#
#
#
# Elastic Constant Matrix: (Units=GPa)
#
#
# Indices 1 2 3 4 5 6 
#
# 1 55.3788 27.0846 21.5753 0.0000 12.0284 0.0000
# 2 27.0846 94.8081 27.4547 0.0000 19.0161 0.0000
# 3 21.5753 27.4547 85.3341 0.0000 9.2868 0.0000
# 4 0.0000 0.0000 0.0000 24.3316 0.0000 2.4175
# 5 12.0284 19.0161 9.2868 0.0000 27.7934 0.0000
# 6 0.0000 0.0000 0.0000 2.4175 0.0000 17.4926
#
#
#
# Elastic Compliance Matrix: (Units=1/GPa)
#
#
# Indices 1 2 3 4 5 6 
#
# 1 0.022868 -0.004296 -0.003780 0.000000 -0.005694 0.000000
# 2 -0.004296 0.013899 -0.002649 0.000000 -0.006765 0.000000
# 3 -0.003780 -0.002649 0.013648 0.000000 -0.001112 0.000000
# 4 0.000000 0.000000 0.000000 0.041671 0.000000 -0.005759
# 5 -0.005694 -0.006765 -0.001112 0.000000 0.043444 0.000000
# 6 0.000000 0.000000 0.000000 -0.005759 0.000000 0.057963
#
#
# Mechanical properties :
#
#
# Convention : Reuss Voigt Hill
#
# Bulk Modulus (GPa) = 34.52555 43.08336 38.80445
# Shear Modulus (GPa) = 22.26194 24.55060 23.40627
#
# Velocity S-wave (km/s) = 3.43367 3.60586 3.52082
# Velocity P-wave (km/s) = 5.83139 6.33668 6.08928
#
# Compressibility (1/GPa) = 0.02896406
#
# Stress axis : x y z
#
# Youngs Moduli (GPa) = 43.72906 71.94731 73.27253
#
# Poissons Ratio (x) = 0.30910 0.27696
# Poissons Ratio (y) = 0.18787 0.19412
# Poissons Ratio (z) = 0.16529 0.19061
#
# Static dielectric constant tensor:
#      x y z
#    x 3.485610 0.000000 -0.281150 
#    y 0.000000 3.402110 0.000000 
#    z -0.281150 0.000000 3.889620 
# 
# 
# High freq. dielectric constant tensor:
#      x y z
#    x 1.719290 0.000000 -0.022230 
#    y 0.000000 1.717860 0.000000 
#    z -0.022230 0.000000 1.747680 
# 
# From -- ./inp_files/37690.got.cif
#   From: 2010.06.25/outbox.cif.g09.slc.cpg/sg13_19_cif.got.tgz:37690.got - 2010.06.28 04:50:58.
