data_PCOD8117416
_publ_section_title
;
Structure prediction by ZEFSAII (Michael W. Deem and Ramdas Pophale) SiO2 
 PCOD8117416
Probable space group: P 2/C
;
_chemical_formula_sum "Si O2"
_cell_formula_units_Z 28
_cell_length_a 9.388846
_cell_length_b 14.895052
_cell_length_c 12.177107
_cell_angle_alpha 90.000000
_cell_angle_beta 116.790532
_cell_angle_gamma 90.000000
_cell_volume 1520.143505
_symmetry_space_group_name_H-M "P 2/C"
_symmetry_group_IT_number 13
_symmetry_cell_setting 'monoclinic'
loop_
_space_group_symop_operation_xyz
x,y,z
-x,y,1/2-z
-x,-y,-z
x,-y,1/2+z
loop_
_atom_site_type_symbol
_atom_site_label
_atom_site_fract_x
_atom_site_fract_y
_atom_site_fract_z
Si Si1 0.000000 0.935277 0.250000
Si Si2 0.783765 0.439870 0.981317
Si Si3 0.682629 0.618799 0.676828
Si Si4 0.532597 0.199607 0.133896
Si Si5 0.500000 0.524425 0.250000
Si Si6 0.882614 0.366830 0.456280
Si Si7 0.854045 0.893012 0.771118
Si Si8 0.182558 0.173938 0.995839
O O1 0.078786 0.873414 0.368290
O O2 0.131781 0.998816 0.235884
O O3 0.627797 0.411973 0.856346
O O4 0.794849 0.547731 0.977995
O O5 0.778647 0.414602 0.105759
O O6 0.930334 0.387302 0.979362
O O7 0.569060 0.700975 0.600885
O O8 0.579489 0.536755 0.684657
O O9 0.811754 0.653168 0.810660
O O10 0.500000 0.212744 0.250000
O O11 0.682929 0.135290 0.161186
O O12 0.369018 0.158826 0.027991
O O13 0.853199 0.280057 0.520690
O O14 0.000000 0.848665 0.750000
O O15 0.866015 0.865604 0.902442
#
# Coordination Sequence:
#
# PCOD8117416 Si02
#       8
#     2   4   4   4   2   4   4   4
#     4  10  24  40  58  90 124 156 178 236 312 358
#     4  10  22  34  55  83 116 156 196 246 285 340
#     4  11  18  35  60  81 112 150 202 248 281 327
#     4  10  18  35  63  91 109 147 199 246 279 340
#     4  10  20  36  46  80 124 152 188 240 302 346
#     4  10  21  38  56  86 113 152 206 239 285 338
#     4   9  21  37  65  91 110 145 197 242 295 343
#     4  11  21  41  62  85 124 153 193 239 291 361
#
# _framework density 18.419312999999999
#
# number of rings (size 3 to 8) (size 9 to 14) (size 15 to 20)
#    0.429    1.429    3.571    2.143    2.000    0.571 
#   10.286    0.000    0.000    0.000    0.000    0.000 
#    0.000    0.000    0.000    0.000    0.000    0.000 
#
# Total GULP energy -347112.496442 kJ/mol
# GULP energy per Si atom -12396.874873 kJ/mol
# Density = 1.837739 g / cm^3
# Si number density = 18.419313 Si / 1000 Ang^3
#
#
#
# Elastic Constant Matrix: (Units=GPa)
#
#
# Indices 1 2 3 4 5 6 
#
# 1 109.7705 44.3266 47.3164 0.0000 17.1700 0.0000
# 2 44.3266 82.0134 41.2691 0.0000 4.2773 0.0000
# 3 47.3164 41.2691 77.0431 0.0000 11.9569 0.0000
# 4 0.0000 0.0000 0.0000 -41.8061 0.0000 -78.7499
# 5 17.1700 4.2773 11.9569 0.0000 27.0887 0.0000
# 6 0.0000 0.0000 0.0000 -78.7499 0.0000 -78.5851
#
#
#
# Elastic Compliance Matrix: (Units=1/GPa)
#
#
# Indices 1 2 3 4 5 6 
#
# 1 0.014222 -0.004717 -0.005287 0.000000 -0.005936 0.000000
# 2 -0.004717 0.018307 -0.007434 0.000000 0.003380 0.000000
# 3 -0.005287 -0.007434 0.020941 0.000000 -0.004719 0.000000
# 4 0.000000 0.000000 0.000000 0.026948 0.000000 -0.027004
# 5 -0.005936 0.003380 -0.004719 0.000000 0.042227 0.000000
# 6 0.000000 0.000000 0.000000 -0.027004 0.000000 0.014336
#
#
# Mechanical properties :
#
#
# Convention : Reuss Voigt Hill
#
# Bulk Modulus (GPa) = 53.77827 59.40571 56.59199
# Shear Modulus (GPa) = 28.08137 -9.59948 9.24095
#
# Velocity S-wave (km/s) = 3.90880 -2.28538 2.24229
# Velocity P-wave (km/s) = 7.04498 5.03567 6.12330
#
# Compressibility (1/GPa) = 0.01859487
#
# Stress axis : x y z
#
# Youngs Moduli (GPa) = 70.31397 54.62369 47.75326
#
# Poissons Ratio (x) = 0.25765 0.25245
# Poissons Ratio (y) = 0.33166 0.35500
# Poissons Ratio (z) = 0.37172 0.40608
#
# Static dielectric constant tensor:
#      x y z
#    x 3.751500 0.000000 0.311790 
#    y 0.000000 3.274600 0.000000 
#    z 0.311790 0.000000 3.309780 
# 
# 
# High freq. dielectric constant tensor:
#      x y z
#    x 1.725920 0.000000 0.011430 
#    y 0.000000 1.700530 0.000000 
#    z 0.011430 0.000000 1.695030 
# 
# From -- ./inp_files/30193.got.cif
#   From: 2010.06.25/outbox.cif.g09.slc.cpg/sg13_16_cif.got.tgz:30193.got - 2010.06.28 04:50:58.
