data_PCOD8117080
_publ_section_title
;
Structure prediction by ZEFSAII (Michael W. Deem and Ramdas Pophale) SiO2 
 PCOD8117080
Probable space group: P 2/C
;
_chemical_formula_sum "Si O2"
_cell_formula_units_Z 26
_cell_length_a 14.174137
_cell_length_b 15.154864
_cell_length_c 8.921450
_cell_angle_alpha 90.000000
_cell_angle_beta 42.037222
_cell_angle_gamma 90.000000
_cell_volume 1283.240778
_symmetry_space_group_name_H-M "P 2/C"
_symmetry_group_IT_number 13
_symmetry_cell_setting 'monoclinic'
loop_
_space_group_symop_operation_xyz
x,y,z
-x,y,1/2-z
-x,-y,-z
x,-y,1/2+z
loop_
_atom_site_type_symbol
_atom_site_label
_atom_site_fract_x
_atom_site_fract_y
_atom_site_fract_z
Si Si1 0.401431 0.548693 0.003917
Si Si2 0.648378 0.263805 0.910771
Si Si3 0.000000 0.529488 0.750000
Si Si4 0.313617 0.249329 0.300168
Si Si5 0.663621 0.905408 0.223646
Si Si6 0.171146 0.582688 0.816937
Si Si7 0.671711 0.077570 0.380852
O O1 0.326330 0.634452 0.167943
O O2 0.283132 0.479388 0.098337
O O3 0.500000 0.581390 0.750000
O O4 0.500000 0.500000 0.000000
O O5 0.714625 0.190344 0.723408
O O6 0.481315 0.252075 0.100672
O O7 0.727109 0.252696 0.977353
O O8 0.940402 0.593688 0.687883
O O9 0.111230 0.464383 0.536562
O O10 0.241929 0.326270 0.286225
O O11 0.260730 0.156496 0.295653
O O12 0.496048 0.913900 0.421717
O O13 0.724034 0.983885 0.255310
O O14 0.728229 0.915593 0.982920
#
# Coordination Sequence:
#
# PCOD8117080 Si02
#       7
#     4   4   2   4   4   4   4
#     4  12  21  34  53  82 112 146 181 231 291 344
#     4  10  18  31  46  76 109 148 172 217 274 341
#     4  10  24  40  58  72 106 154 204 246 288 312
#     4  10  18  32  51  72 108 139 184 223 273 333
#     4   9  17  28  43  67 108 145 184 205 256 330
#     4  11  22  40  56  79 109 150 195 242 281 343
#     4   9  17  28  44  70  99 149 179 217 255 321
#
# _framework density 20.261199999999999
#
# number of rings (size 3 to 8) (size 9 to 14) (size 15 to 20)
#    0.000    1.846    3.077    2.769    0.000    6.154 
#    0.000    0.000    0.000    0.000    0.000    0.000 
#    0.000   41.846    0.000    0.000    0.000    0.000 
#
# Total GULP energy -322144.135324 kJ/mol
# GULP energy per Si atom -12390.159051 kJ/mol
# Density = 2.021508 g / cm^3
# Si number density = 20.261200 Si / 1000 Ang^3
#
#
#
# Elastic Constant Matrix: (Units=GPa)
#
#
# Indices 1 2 3 4 5 6 
#
# 1 106.2931 69.8723 29.3992 0.0000 37.9166 0.0000
# 2 69.8723 186.2174 33.3313 0.0000 30.8562 0.0000
# 3 29.3992 33.3313 41.7542 0.0000 17.5049 0.0000
# 4 0.0000 0.0000 0.0000 19.7943 0.0000 15.3239
# 5 37.9166 30.8562 17.5049 0.0000 33.4234 0.0000
# 6 0.0000 0.0000 0.0000 15.3239 0.0000 27.2242
#
#
#
# Elastic Compliance Matrix: (Units=1/GPa)
#
#
# Indices 1 2 3 4 5 6 
#
# 1 0.018350 -0.003683 -0.003432 0.000000 -0.015619 0.000000
# 2 -0.003683 0.007465 -0.002855 0.000000 -0.001218 0.000000
# 3 -0.003432 -0.002855 0.033197 0.000000 -0.010857 0.000000
# 4 0.000000 0.000000 0.000000 0.089535 0.000000 -0.050398
# 5 -0.015619 -0.001218 -0.010857 0.000000 0.054449 0.000000
# 6 0.000000 0.000000 0.000000 -0.050398 0.000000 0.065100
#
#
# Mechanical properties :
#
#
# Convention : Reuss Voigt Hill
#
# Bulk Modulus (GPa) = 25.59411 66.60783 46.10097
# Shear Modulus (GPa) = 16.60800 29.53250 23.07025
#
# Velocity S-wave (km/s) = 2.86614 3.82198 3.37804
# Velocity P-wave (km/s) = 4.85927 7.24035 6.16584
#
# Compressibility (1/GPa) = 0.03907149
#
# Stress axis : x y z
#
# Youngs Moduli (GPa) = 54.49682 133.96147 30.12314
#
# Poissons Ratio (x) = 0.49335 0.10339
# Poissons Ratio (y) = 0.20070 0.08601
# Poissons Ratio (z) = 0.18704 0.38249
#
# Static dielectric constant tensor:
#      x y z
#    x 3.547410 0.000000 0.318400 
#    y 0.000000 3.966560 0.000000 
#    z 0.318400 0.000000 3.247930 
# 
# 
# High freq. dielectric constant tensor:
#      x y z
#    x 1.782110 0.000000 0.037720 
#    y 0.000000 1.801930 0.000000 
#    z 0.037720 0.000000 1.743830 
# 
# From -- ./inp_files/19839.got.cif
#   From: 2010.06.25/outbox.cif.g09.slc.cpg/sg13_10_cif.got.tgz:19839.got - 2010.06.28 04:50:58.
