data_PCOD8117953
_publ_section_title
;
Structure prediction by ZEFSAII (Michael W. Deem and Ramdas Pophale) SiO2 
 PCOD8117953
Probable space group: P 2/C
;
_chemical_formula_sum "Si O2"
_cell_formula_units_Z 24
_cell_length_a 5.120645
_cell_length_b 10.705590
_cell_length_c 25.803183
_cell_angle_alpha 90.000000
_cell_angle_beta 58.385108
_cell_angle_gamma 90.000000
_cell_volume 1204.590614
_symmetry_space_group_name_H-M "P 2/C"
_symmetry_group_IT_number 13
_symmetry_cell_setting 'monoclinic'
loop_
_space_group_symop_operation_xyz
x,y,z
-x,y,1/2-z
-x,-y,-z
x,-y,1/2+z
loop_
_atom_site_type_symbol
_atom_site_label
_atom_site_fract_x
_atom_site_fract_y
_atom_site_fract_z
Si Si1 0.840314 0.331805 0.936624
Si Si2 0.529181 0.736674 0.885217
Si Si3 0.274233 0.084069 0.491550
Si Si4 0.321488 0.586316 0.317138
Si Si5 0.782262 0.306553 0.187100
Si Si6 0.368978 0.530150 0.424282
O O1 0.506306 0.381021 0.954856
O O2 0.039176 0.324120 0.862539
O O3 0.847718 0.195446 0.959921
O O4 0.003475 0.434974 0.958277
O O5 0.462685 0.860827 0.924055
O O6 0.286639 0.734158 0.864109
O O7 0.453557 0.614137 0.928765
O O8 0.884449 0.744401 0.830167
O O9 0.500000 0.000000 0.500000
O O10 0.000000 0.000000 0.500000
O O11 0.500000 0.649579 0.250000
O O12 0.192449 0.455060 0.309211
O O13 0.512049 0.558874 0.351080
O O14 0.500000 0.251765 0.250000
#
# Coordination Sequence:
#
# PCOD8117953 Si02
#       6
#     4   4   4   4   4   4
#     4  10  20  37  56  86 120 148 194 240 288 357
#     4  11  20  38  59  90 122 156 191 244 297 359
#     4  12  27  43  61  80 112 170 212 251 287 339
#     4   8  17  31  55  88 125 149 174 227 299 372
#     4  10  19  34  59  95 128 148 180 231 309 378
#     4   9  18  33  56  92 117 145 180 234 311 343
#
# _framework density 19.923781999999999
#
# number of rings (size 3 to 8) (size 9 to 14) (size 15 to 20)
#    1.000    1.000    1.667    2.500    0.000    2.000 
#    0.000    0.000    0.000    6.000    0.000    0.000 
#    0.000    0.000    0.000    0.000    0.000    0.000 
#
# Total GULP energy -297389.396943 kJ/mol
# GULP energy per Si atom -12391.224873 kJ/mol
# Density = 1.987843 g / cm^3
# Si number density = 19.923782 Si / 1000 Ang^3
#
#
#
# Elastic Constant Matrix: (Units=GPa)
#
#
# Indices 1 2 3 4 5 6 
#
# 1 124.3256 37.7848 4.3442 0.0000 -10.1661 0.0000
# 2 37.7848 91.8619 25.7439 0.0000 -1.5664 0.0000
# 3 4.3442 25.7439 30.8622 0.0000 -15.3250 0.0000
# 4 0.0000 0.0000 0.0000 -416.0464 0.0000 -130.6015
# 5 -10.1661 -1.5664 -15.3250 0.0000 31.1036 0.0000
# 6 0.0000 0.0000 0.0000 -130.6015 0.0000 -5.1631
#
#
#
# Elastic Compliance Matrix: (Units=1/GPa)
#
#
# Indices 1 2 3 4 5 6 
#
# 1 0.010122 -0.005912 0.006622 0.000000 0.006273 0.000000
# 2 -0.005912 0.018830 -0.020340 0.000000 -0.011006 0.000000
# 3 0.006622 -0.020340 0.064876 0.000000 0.033105 0.000000
# 4 0.000000 0.000000 0.000000 0.000346 0.000000 -0.008760
# 5 0.006273 -0.011006 0.033105 0.000000 0.049958 0.000000
# 6 0.000000 0.000000 0.000000 -0.008760 0.000000 0.027906
#
#
# Mechanical properties :
#
#
# Convention : Reuss Voigt Hill
#
# Bulk Modulus (GPa) = 18.32624 42.53282 30.42953
# Shear Modulus (GPa) = 21.78765 -66.07605 -22.14420
#
# Velocity S-wave (km/s) = 3.31047 -5.76510 -3.33745
# Velocity P-wave (km/s) = 4.88165 4.78760 0.67430
#
# Compressibility (1/GPa) = 0.05456658
#
# Stress axis : x y z
#
# Youngs Moduli (GPa) = 98.79703 53.10596 15.41414
#
# Poissons Ratio (x) = 0.31397 -0.10207
# Poissons Ratio (y) = 0.58410 0.31353
# Poissons Ratio (z) = -0.65422 1.08019
#
# Static dielectric constant tensor:
#      x y z
#    x 3.577560 0.000000 0.064950 
#    y 0.000000 3.266040 0.000000 
#    z 0.064950 0.000000 3.803420 
# 
# 
# High freq. dielectric constant tensor:
#      x y z
#    x 1.788230 0.000000 0.004440 
#    y 0.000000 1.726600 0.000000 
#    z 0.004440 0.000000 1.783050 
# 
# From -- ./inp_files/73296.got.cif
#   From: 2010.06.25/outbox.cif.g09.slc.cpg/sg13_37_cif.got.tgz:73296.got - 2010.06.28 04:50:58.
