data_PCOD8117517
_publ_section_title
;
Structure prediction by ZEFSAII (Michael W. Deem and Ramdas Pophale) SiO2 
 PCOD8117517
Probable space group: P 2/C
;
_chemical_formula_sum "Si O2"
_cell_formula_units_Z 32
_cell_length_a 23.629487
_cell_length_b 11.880193
_cell_length_c 18.124768
_cell_angle_alpha 90.000000
_cell_angle_beta 161.255022
_cell_angle_gamma 90.000000
_cell_volume 1635.073527
_symmetry_space_group_name_H-M "P 2/C"
_symmetry_group_IT_number 13
_symmetry_cell_setting 'monoclinic'
loop_
_space_group_symop_operation_xyz
x,y,z
-x,y,1/2-z
-x,-y,-z
x,-y,1/2+z
loop_
_atom_site_type_symbol
_atom_site_label
_atom_site_fract_x
_atom_site_fract_y
_atom_site_fract_z
Si Si1 0.656975 0.457197 0.743540
Si Si2 0.311760 0.016909 0.481845
Si Si3 0.805978 0.150329 0.542543
Si Si4 0.183775 0.408539 0.935364
Si Si5 0.263605 0.779422 0.112250
Si Si6 0.978519 0.461446 0.390447
Si Si7 0.914646 0.224004 0.259956
Si Si8 0.536211 0.004534 0.130112
O O1 0.500000 0.500000 0.500000
O O2 0.622895 0.325406 0.717850
O O3 0.667415 0.526972 0.833104
O O4 0.836267 0.473395 0.920925
O O5 0.500000 0.046701 0.750000
O O6 0.185758 0.124611 0.322314
O O7 0.353413 0.976855 0.449461
O O8 0.213824 0.918846 0.406042
O O9 0.759985 0.278921 0.503617
O O10 0.000000 0.133546 0.750000
O O11 0.670583 0.105387 0.313741
O O12 0.164883 0.462588 0.830441
O O13 0.000000 0.419543 0.750000
O O14 0.384258 0.886107 0.245083
O O15 0.178671 0.739512 0.930922
O O16 0.113540 0.814403 0.986059
O O17 0.914220 0.332308 0.312293
O O18 0.000000 0.500000 0.500000
O O19 0.500000 0.000000 0.000000
#
# Coordination Sequence:
#
# PCOD8117517 Si02
#       8
#     4   4   4   4   4   4   4   4
#     4  10  21  37  60  89 118 155 197 239 294 357
#     4  10  20  37  59  86 113 149 194 244 294 350
#     4  10  20  39  62  81 114 162 201 229 289 368
#     4   9  19  38  62  82 116 162 193 230 296 356
#     4  10  19  36  64  84 113 157 196 238 298 354
#     4  10  21  40  58  88 121 151 196 249 290 346
#     4  10  18  37  64  85 111 152 201 241 288 364
#     4  11  24  39  57  87 123 148 192 257 300 338
#
# _framework density 19.570983999999999
#
# number of rings (size 3 to 8) (size 9 to 14) (size 15 to 20)
#    0.000    2.000    3.750    0.750    1.750    1.000 
#    9.000    3.125    0.000    0.000    0.000    0.000 
#    0.000    0.000    0.000    0.000    0.000    0.000 
#
# Total GULP energy -396782.113010 kJ/mol
# GULP energy per Si atom -12399.441032 kJ/mol
# Density = 1.952644 g / cm^3
# Si number density = 19.570984 Si / 1000 Ang^3
#
#
#
# Elastic Constant Matrix: (Units=GPa)
#
#
# Indices 1 2 3 4 5 6 
#
# 1 115.0798 44.4833 30.1708 0.0000 -13.1011 0.0000
# 2 44.4833 121.1725 48.7564 0.0000 -0.7276 0.0000
# 3 30.1708 48.7564 74.9935 0.0000 -11.6323 0.0000
# 4 0.0000 0.0000 0.0000 20.3584 0.0000 -4.3370
# 5 -13.1011 -0.7276 -11.6323 0.0000 35.5541 0.0000
# 6 0.0000 0.0000 0.0000 -4.3370 0.0000 21.1023
#
#
#
# Elastic Compliance Matrix: (Units=1/GPa)
#
#
# Indices 1 2 3 4 5 6 
#
# 1 0.010773 -0.003250 -0.001702 0.000000 0.003346 0.000000
# 2 -0.003250 0.012332 -0.007224 0.000000 -0.003308 0.000000
# 3 -0.001702 -0.007224 0.019590 0.000000 0.005634 0.000000
# 4 0.000000 0.000000 0.000000 0.051369 0.000000 0.010557
# 5 0.003346 -0.003308 0.005634 0.000000 0.031135 0.000000
# 6 0.000000 0.000000 0.000000 0.010557 0.000000 0.049558
#
#
# Mechanical properties :
#
#
# Convention : Reuss Voigt Hill
#
# Bulk Modulus (GPa) = 54.51438 62.00742 58.26090
# Shear Modulus (GPa) = 24.36379 27.92532 26.14456
#
# Velocity S-wave (km/s) = 3.53213 3.78150 3.65894
# Velocity P-wave (km/s) = 6.67456 7.12870 6.90537
#
# Compressibility (1/GPa) = 0.01834378
#
# Stress axis : x y z
#
# Youngs Moduli (GPa) = 92.82423 81.08697 51.04762
#
# Poissons Ratio (x) = 0.26352 0.08689
# Poissons Ratio (y) = 0.30166 0.36875
# Poissons Ratio (z) = 0.15801 0.58574
#
# Static dielectric constant tensor:
#      x y z
#    x 3.294160 0.000000 0.414630 
#    y 0.000000 3.711610 0.000000 
#    z 0.414630 0.000000 3.049620 
# 
# 
# High freq. dielectric constant tensor:
#      x y z
#    x 1.756950 0.000000 -0.001050 
#    y 0.000000 1.770360 0.000000 
#    z -0.001050 0.000000 1.746850 
# 
# From -- ./inp_files/71501.got.cif
#   From: 2010.06.25/outbox.cif.g09.slc.cpg/sg13_36_cif.got.tgz:71501.got - 2010.06.28 04:50:58.
