data_PCOD8117085
_publ_section_title
;
Structure prediction by ZEFSAII (Michael W. Deem and Ramdas Pophale) SiO2 
 PCOD8117085
Probable space group: P 2/C
;
_chemical_formula_sum "Si O2"
_cell_formula_units_Z 28
_cell_length_a 18.220723
_cell_length_b 8.830214
_cell_length_c 15.134597
_cell_angle_alpha 90.000000
_cell_angle_beta 142.662257
_cell_angle_gamma 90.000000
_cell_volume 1476.887087
_symmetry_space_group_name_H-M "P 2/C"
_symmetry_group_IT_number 13
_symmetry_cell_setting 'monoclinic'
loop_
_space_group_symop_operation_xyz
x,y,z
-x,y,1/2-z
-x,-y,-z
x,-y,1/2+z
loop_
_atom_site_type_symbol
_atom_site_label
_atom_site_fract_x
_atom_site_fract_y
_atom_site_fract_z
Si Si1 0.695616 0.974758 0.834019
Si Si2 0.395567 0.365005 0.264422
Si Si3 0.536474 0.923083 0.444207
Si Si4 0.668565 0.582693 0.988544
Si Si5 0.281813 0.333696 0.332668
Si Si6 0.247079 0.091414 0.926751
Si Si7 0.870119 0.052936 0.343835
O O1 0.627811 0.813477 0.766923
O O2 0.774799 0.007819 0.823710
O O3 0.587967 0.100840 0.731047
O O4 0.779888 0.977938 0.001524
O O5 0.347821 0.453964 0.131562
O O6 0.538829 0.392934 0.411458
O O7 0.322064 0.420860 0.281126
O O8 0.604788 0.767245 0.527319
O O9 0.500000 0.000000 0.500000
O O10 0.619560 0.037728 0.470129
O O11 0.741439 0.451397 0.110253
O O12 0.755408 0.727770 0.078748
O O13 0.159467 0.232881 0.198652
O O14 0.145350 0.029930 0.764155
O O15 0.000000 0.000000 0.500000
#
# Coordination Sequence:
#
# PCOD8117085 Si02
#       7
#     4   4   4   4   4   4   4
#     4  10  18  33  57  80 108 145 182 220 272 344
#     4   9  17  30  50  76 114 147 169 206 270 347
#     4  11  16  31  54  83 116 139 175 219 278 334
#     4  10  18  31  49  80 113 145 175 211 278 344
#     4  10  20  33  53  81 114 144 182 226 269 336
#     4  10  19  33  56  79 107 147 178 225 278 337
#     4  10  22  39  55  76 105 143 195 242 270 311
#
# _framework density 18.958796
#
# number of rings (size 3 to 8) (size 9 to 14) (size 15 to 20)
#    0.000    2.000    5.714    0.857    0.000    0.571 
#   10.286    0.714    0.000    0.000    0.000    6.000 
#    0.000    0.000    0.000    0.000    0.000    0.000 
#
# Total GULP energy -346959.561825 kJ/mol
# GULP energy per Si atom -12391.412922 kJ/mol
# Density = 1.891564 g / cm^3
# Si number density = 18.958796 Si / 1000 Ang^3
#
#
#
# Elastic Constant Matrix: (Units=GPa)
#
#
# Indices 1 2 3 4 5 6 
#
# 1 36.4476 22.4593 29.9904 0.0000 -15.3396 0.0000
# 2 22.4593 52.0777 33.5440 0.0000 -10.0436 0.0000
# 3 29.9904 33.5440 126.9303 0.0000 -8.7625 0.0000
# 4 0.0000 0.0000 0.0000 31.5017 0.0000 -8.7323
# 5 -15.3396 -10.0436 -8.7625 0.0000 35.1982 0.0000
# 6 0.0000 0.0000 0.0000 -8.7323 0.0000 21.2808
#
#
#
# Elastic Compliance Matrix: (Units=1/GPa)
#
#
# Indices 1 2 3 4 5 6 
#
# 1 0.047516 -0.013251 -0.006671 0.000000 0.015266 0.000000
# 2 -0.013251 0.027799 -0.004138 0.000000 0.001127 0.000000
# 3 -0.006671 -0.004138 0.010445 0.000000 -0.001488 0.000000
# 4 0.000000 0.000000 0.000000 0.035819 0.000000 0.014698
# 5 0.015266 0.001127 -0.001488 0.000000 0.035015 0.000000
# 6 0.000000 0.000000 0.000000 0.014698 0.000000 0.053022
#
#
# Mechanical properties :
#
#
# Convention : Reuss Voigt Hill
#
# Bulk Modulus (GPa) = 26.56675 43.04921 34.80798
# Shear Modulus (GPa) = 18.49911 26.22693 22.36302
#
# Velocity S-wave (km/s) = 3.12709 3.72340 3.43820
# Velocity P-wave (km/s) = 5.20400 6.42191 5.84476
#
# Compressibility (1/GPa) = 0.03764104
#
# Stress axis : x y z
#
# Youngs Moduli (GPa) = 21.04547 35.97192 95.73603
#
# Poissons Ratio (x) = 0.47666 0.63867
# Poissons Ratio (y) = 0.27887 0.39615
# Poissons Ratio (z) = 0.14040 0.14885
#
# Static dielectric constant tensor:
#      x y z
#    x 3.968370 0.000000 -1.055930 
#    y 0.000000 3.186290 0.000000 
#    z -1.055930 0.000000 4.569150 
# 
# 
# High freq. dielectric constant tensor:
#      x y z
#    x 1.726180 0.000000 -0.036540 
#    y 0.000000 1.705180 0.000000 
#    z -0.036540 0.000000 1.726590 
# 
# From -- ./inp_files/55241.got.cif
#   From: 2010.06.25/outbox.cif.g09.slc.cpg/sg13_28_cif.got.tgz:55241.got - 2010.06.28 04:50:58.
