data_PCOD8117918
_publ_section_title
;
Structure prediction by ZEFSAII (Michael W. Deem and Ramdas Pophale) SiO2 
 PCOD8117918
Probable space group: P 2/C
;
_chemical_formula_sum "Si O2"
_cell_formula_units_Z 24
_cell_length_a 12.205423
_cell_length_b 12.079503
_cell_length_c 10.355415
_cell_angle_alpha 90.000000
_cell_angle_beta 51.200236
_cell_angle_gamma 90.000000
_cell_volume 1189.862235
_symmetry_space_group_name_H-M "P 2/C"
_symmetry_group_IT_number 13
_symmetry_cell_setting 'monoclinic'
loop_
_space_group_symop_operation_xyz
x,y,z
-x,y,1/2-z
-x,-y,-z
x,-y,1/2+z
loop_
_atom_site_type_symbol
_atom_site_label
_atom_site_fract_x
_atom_site_fract_y
_atom_site_fract_z
Si Si1 0.929501 0.122011 0.431807
Si Si2 0.526846 0.095473 0.375205
Si Si3 0.883367 0.432158 0.946441
Si Si4 0.878825 0.659788 0.066084
Si Si5 0.275896 0.253917 0.572727
Si Si6 0.181055 0.901192 0.932713
O O1 0.876125 0.247971 0.454731
O O2 0.000000 0.078618 0.250000
O O3 0.035002 0.128065 0.474877
O O4 0.807378 0.034123 0.553954
O O5 0.500000 0.048431 0.250000
O O6 0.434904 0.207225 0.466864
O O7 0.689919 0.133364 0.256768
O O8 0.500000 0.000000 0.500000
O O9 0.747088 0.364240 0.997761
O O10 0.000000 0.456678 0.750000
O O11 0.963017 0.362785 0.998852
O O12 0.819634 0.545937 0.050342
O O13 0.778419 0.714323 0.246884
O O14 0.185325 0.157638 0.569800
#
# Coordination Sequence:
#
# PCOD8117918 Si02
#       6
#     4   4   4   4   4   4
#     4  11  23  32  56  88 126 156 194 255 304 366
#     4  10  22  39  62  85 122 168 208 245 300 374
#     4   9  18  33  58  89 119 154 197 254 306 360
#     4  10  19  34  57  89 118 153 201 248 304 355
#     4  10  20  38  62  85 121 161 199 248 307 365
#     4  10  23  37  55  87 122 161 198 242 313 371
#
# _framework density 20.170401999999999
#
# number of rings (size 3 to 8) (size 9 to 14) (size 15 to 20)
#    0.000    2.000    1.667    1.500    9.333    0.000 
#    0.000    0.000    0.000    9.000    0.000    0.000 
#    0.000    0.000    0.000    0.000    0.000    0.000 
#
# Total GULP energy -297373.792294 kJ/mol
# GULP energy per Si atom -12390.574679 kJ/mol
# Density = 2.012449 g / cm^3
# Si number density = 20.170402 Si / 1000 Ang^3
#
#
#
# Elastic Constant Matrix: (Units=GPa)
#
#
# Indices 1 2 3 4 5 6 
#
# 1 45.3876 39.5877 31.5703 0.0000 -4.2798 0.0000
# 2 39.5877 164.8320 65.9457 0.0000 -3.2644 0.0000
# 3 31.5703 65.9457 96.0559 0.0000 -3.5487 0.0000
# 4 0.0000 0.0000 0.0000 39.5820 0.0000 8.1859
# 5 -4.2798 -3.2644 -3.5487 0.0000 26.7850 0.0000
# 6 0.0000 0.0000 0.0000 8.1859 0.0000 37.4746
#
#
#
# Elastic Compliance Matrix: (Units=1/GPa)
#
#
# Indices 1 2 3 4 5 6 
#
# 1 0.031258 -0.004659 -0.006945 0.000000 0.003506 0.000000
# 2 -0.004659 0.009060 -0.004699 0.000000 -0.000263 0.000000
# 3 -0.006945 -0.004699 0.015935 0.000000 0.000429 0.000000
# 4 0.000000 0.000000 0.000000 0.026459 0.000000 -0.005780
# 5 0.003506 -0.000263 0.000429 0.000000 0.037919 0.000000
# 6 0.000000 0.000000 0.000000 -0.005780 0.000000 0.027947
#
#
# Mechanical properties :
#
#
# Convention : Reuss Voigt Hill
#
# Bulk Modulus (GPa) = 42.28851 64.49809 53.39330
# Shear Modulus (GPa) = 26.44562 32.04644 29.24603
#
# Velocity S-wave (km/s) = 3.62485 3.99028 3.81195
# Velocity P-wave (km/s) = 6.20730 7.29903 6.77519
#
# Compressibility (1/GPa) = 0.02364708
#
# Stress axis : x y z
#
# Youngs Moduli (GPa) = 31.99212 110.37027 62.75535
#
# Poissons Ratio (x) = 0.51423 0.43584
# Poissons Ratio (y) = 0.14906 0.29487
# Poissons Ratio (z) = 0.22219 0.51860
#
# Static dielectric constant tensor:
#      x y z
#    x 3.592340 0.000000 0.091140 
#    y 0.000000 3.917140 0.000000 
#    z 0.091140 0.000000 3.551760 
# 
# 
# High freq. dielectric constant tensor:
#      x y z
#    x 1.761560 0.000000 0.019050 
#    y 0.000000 1.795530 0.000000 
#    z 0.019050 0.000000 1.775430 
# 
# From -- ./inp_files/36861.got.cif
#   From: 2010.06.25/outbox.cif.g09.slc.cpg/sg13_19_cif.got.tgz:36861.got - 2010.06.28 04:50:58.
