data_PCOD8117360
_publ_section_title
;
Structure prediction by ZEFSAII (Michael W. Deem and Ramdas Pophale) SiO2 
 PCOD8117360
Probable space group: P 2/C
;
_chemical_formula_sum "Si O2"
_cell_formula_units_Z 26
_cell_length_a 11.766594
_cell_length_b 8.897413
_cell_length_c 14.486743
_cell_angle_alpha 90.000000
_cell_angle_beta 52.954306
_cell_angle_gamma 90.000000
_cell_volume 1210.521974
_symmetry_space_group_name_H-M "P 2/C"
_symmetry_group_IT_number 13
_symmetry_cell_setting 'monoclinic'
loop_
_space_group_symop_operation_xyz
x,y,z
-x,y,1/2-z
-x,-y,-z
x,-y,1/2+z
loop_
_atom_site_type_symbol
_atom_site_label
_atom_site_fract_x
_atom_site_fract_y
_atom_site_fract_z
Si Si1 0.571577 0.967033 0.314942
Si Si2 0.162454 0.141552 0.353345
Si Si3 0.472909 0.237664 0.492641
Si Si4 0.000000 0.401639 0.750000
Si Si5 0.194798 0.222466 0.538057
Si Si6 0.898852 0.906010 0.885286
Si Si7 0.230472 0.349897 0.152117
O O1 0.500000 0.941177 0.250000
O O2 0.551407 0.823149 0.391275
O O3 0.738534 0.995852 0.212056
O O4 0.512990 0.111167 0.398009
O O5 0.203556 0.234034 0.424230
O O6 0.180276 0.261627 0.265148
O O7 0.995267 0.093082 0.431402
O O8 0.326041 0.308255 0.524683
O O9 0.597150 0.365680 0.433648
O O10 0.955806 0.294378 0.856852
O O11 0.857397 0.496438 0.799816
O O12 0.209877 0.045328 0.556638
O O13 0.811841 0.750449 0.917211
O O14 0.000000 0.936047 0.750000
#
# Coordination Sequence:
#
# PCOD8117360 Si02
#       7
#     4   4   4   2   4   4   4
#     4  10  18  34  62  99 127 156 198 257 325 379
#     4  10  20  35  65  91 127 154 206 258 324 366
#     4  10  21  37  62  90 129 160 205 261 316 372
#     4  12  26  42  60  84 128 174 220 246 312 372
#     4  12  23  37  63 100 119 160 212 270 306 375
#     4  10  18  38  61  89 122 154 201 256 319 359
#     4  10  22  43  62  83 125 178 201 256 320 381
#
# _framework density 21.478338000000001
#
# number of rings (size 3 to 8) (size 9 to 14) (size 15 to 20)
#    0.000    1.538    4.615    4.154    0.000    1.231 
#    0.000    0.000    0.000    0.000    0.000    0.000 
#    0.000    0.000    0.000    0.000    0.000    0.000 
#
# Total GULP energy -322175.503077 kJ/mol
# GULP energy per Si atom -12391.365503 kJ/mol
# Density = 2.142945 g / cm^3
# Si number density = 21.478338 Si / 1000 Ang^3
#
#
#
# Elastic Constant Matrix: (Units=GPa)
#
#
# Indices 1 2 3 4 5 6 
#
# 1 153.4362 25.9134 58.0245 0.0000 -3.6407 0.0000
# 2 25.9134 39.7484 16.1024 0.0000 -9.2549 0.0000
# 3 58.0245 16.1024 75.7506 0.0000 4.7680 0.0000
# 4 0.0000 0.0000 0.0000 14.7156 0.0000 -14.6679
# 5 -3.6407 -9.2549 4.7680 0.0000 43.3311 0.0000
# 6 0.0000 0.0000 0.0000 -14.6679 0.0000 25.9918
#
#
#
# Elastic Compliance Matrix: (Units=1/GPa)
#
#
# Indices 1 2 3 4 5 6 
#
# 1 0.009651 -0.003373 -0.006728 0.000000 0.000831 0.000000
# 2 -0.003373 0.030699 -0.004367 0.000000 0.006754 0.000000
# 3 -0.006728 -0.004367 0.019513 0.000000 -0.003645 0.000000
# 4 0.000000 0.000000 0.000000 0.155326 0.000000 0.087655
# 5 0.000831 0.006754 -0.003645 0.000000 0.024992 0.000000
# 6 0.000000 0.000000 0.000000 0.087655 0.000000 0.087940
#
#
# Mechanical properties :
#
#
# Convention : Reuss Voigt Hill
#
# Bulk Modulus (GPa) = 32.33481 52.11286 42.22383
# Shear Modulus (GPa) = 13.61045 28.06737 20.83891
#
# Velocity S-wave (km/s) = 2.52004 3.61886 3.11823
# Velocity P-wave (km/s) = 4.85332 6.46353 5.71541
#
# Compressibility (1/GPa) = 0.03092643
#
# Stress axis : x y z
#
# Youngs Moduli (GPa) = 103.61641 32.57445 51.24912
#
# Poissons Ratio (x) = 0.10987 0.34480
# Poissons Ratio (y) = 0.34948 0.22382
# Poissons Ratio (z) = 0.69712 0.14226
#
# Static dielectric constant tensor:
#      x y z
#    x 4.590910 0.000000 -0.183870 
#    y 0.000000 3.590310 0.000000 
#    z -0.183870 0.000000 3.918490 
# 
# 
# High freq. dielectric constant tensor:
#      x y z
#    x 1.859920 0.000000 -0.010110 
#    y 0.000000 1.800690 0.000000 
#    z -0.010110 0.000000 1.843880 
# 
# From -- ./inp_files/49899.got.cif
#   From: 2010.06.25/outbox.cif.g09.slc.cpg/sg13_25_cif.got.tgz:49899.got - 2010.06.28 04:50:58.
