data_PCOD8117796
_publ_section_title
;
Structure prediction by ZEFSAII (Michael W. Deem and Ramdas Pophale) SiO2 
 PCOD8117796
Probable space group: P 2/C
;
_chemical_formula_sum "Si O2"
_cell_formula_units_Z 32
_cell_length_a 11.715167
_cell_length_b 9.545484
_cell_length_c 27.574598
_cell_angle_alpha 90.000000
_cell_angle_beta 146.734198
_cell_angle_gamma 90.000000
_cell_volume 1691.418772
_symmetry_space_group_name_H-M "P 2/C"
_symmetry_group_IT_number 13
_symmetry_cell_setting 'monoclinic'
loop_
_space_group_symop_operation_xyz
x,y,z
-x,y,1/2-z
-x,-y,-z
x,-y,1/2+z
loop_
_atom_site_type_symbol
_atom_site_label
_atom_site_fract_x
_atom_site_fract_y
_atom_site_fract_z
Si Si1 0.703729 0.412657 0.352197
Si Si2 0.573337 0.589629 0.912893
Si Si3 0.169343 0.414712 0.770639
Si Si4 0.004356 0.088744 0.607741
Si Si5 0.703729 0.087343 0.352197
Si Si6 0.004357 0.588744 0.107742
Si Si7 0.573337 0.910371 0.912893
Si Si8 0.830657 0.914713 0.229362
O O1 0.500000 0.453840 0.250000
O O2 0.666493 0.456060 0.394282
O O3 0.759558 0.250000 0.366585
O O4 0.896070 0.500017 0.400082
O O5 0.381660 0.492644 0.859528
O O6 0.495347 0.750000 0.882863
O O7 0.754551 0.570114 0.017190
O O8 0.212973 0.250000 0.787363
O O9 0.000000 0.458879 0.750000
O O10 0.085984 0.464213 0.688671
O O11 0.085983 0.035786 0.688670
O O12 0.065037 0.250000 0.620645
O O13 0.754551 0.070113 0.517190
O O14 0.103930 0.000016 0.599918
O O15 0.500000 0.046161 0.250000
O O16 0.666494 0.043941 0.394282
O O17 0.381659 0.007355 0.859528
O O18 0.000000 0.958880 0.250000
#
# Coordination Sequence:
#
# PCOD8117796 Si02
#       8
#     4   4   4   4   4   4   4   4
#     4  10  19  33  55  82 112 140 171 216 267 318
#     4  10  21  37  56  81 110 140 176 219 266 317
#     4  10  22  39  56  77 107 142 181 224 266 310
#     4  10  21  36  56  81 109 141 178 218 263 318
#     4  10  19  33  55  82 112 140 171 216 267 318
#     4  10  21  36  56  81 109 141 178 218 263 318
#     4  10  21  37  56  81 110 140 176 219 266 317
#     4  10  22  39  56  77 107 142 181 224 266 310
#
# _framework density 18.919028000000001
#
# number of rings (size 3 to 8) (size 9 to 14) (size 15 to 20)
#    0.000    2.000    2.500    0.750    0.000    4.000 
#    0.000    0.000    0.000    0.000    0.000    0.000 
#    0.000    0.000    0.000    0.000    0.000    0.000 
#
# Total GULP energy -396942.726787 kJ/mol
# GULP energy per Si atom -12404.460212 kJ/mol
# Density = 1.887597 g / cm^3
# Si number density = 18.919028 Si / 1000 Ang^3
#
#
#
# Elastic Constant Matrix: (Units=GPa)
#
#
# Indices 1 2 3 4 5 6 
#
# 1 90.3766 44.6762 27.7675 0.0000 26.0988 0.0000
# 2 44.6762 55.8868 33.9786 0.0000 20.6559 0.0000
# 3 27.7675 33.9786 82.9079 0.0000 18.9335 0.0000
# 4 0.0000 0.0000 0.0000 32.8738 0.0000 11.4921
# 5 26.0988 20.6559 18.9335 0.0000 25.0514 0.0000
# 6 0.0000 0.0000 0.0000 11.4921 0.0000 27.4189
#
#
#
# Elastic Compliance Matrix: (Units=1/GPa)
#
#
# Indices 1 2 3 4 5 6 
#
# 1 0.020307 -0.012567 0.000984 0.000000 -0.011537 0.000000
# 2 -0.012567 0.037244 -0.008499 0.000000 -0.011193 0.000000
# 3 0.000984 -0.008499 0.016738 0.000000 -0.006668 0.000000
# 4 0.000000 0.000000 0.000000 0.035642 0.000000 -0.014938
# 5 -0.011537 -0.011193 -0.006668 0.000000 0.066206 0.000000
# 6 0.000000 0.000000 0.000000 -0.014938 0.000000 0.042732
#
#
# Mechanical properties :
#
#
# Convention : Reuss Voigt Hill
#
# Bulk Modulus (GPa) = 29.30444 49.11288 39.20866
# Shear Modulus (GPa) = 18.49064 25.25208 21.87136
#
# Velocity S-wave (km/s) = 3.12966 3.65738 3.40376
# Velocity P-wave (km/s) = 5.34628 6.62202 6.01805
#
# Compressibility (1/GPa) = 0.03412452
#
# Stress axis : x y z
#
# Youngs Moduli (GPa) = 49.24499 26.85004 59.74509
#
# Poissons Ratio (x) = 0.33744 -0.05880
# Poissons Ratio (y) = 0.61888 0.50775
# Poissons Ratio (z) = -0.04847 0.22819
#
# Static dielectric constant tensor:
#      x y z
#    x 3.348810 0.000000 -0.127500 
#    y 0.000000 3.332160 0.000000 
#    z -0.127500 0.000000 3.567280 
# 
# 
# High freq. dielectric constant tensor:
#      x y z
#    x 1.725740 0.000000 -0.004410 
#    y 0.000000 1.727330 0.000000 
#    z -0.004410 0.000000 1.747270 
# 
# From -- ./inp_files/96727.got.cif
#   From: 2010.06.25/outbox.cif.g09.slc.cpg/sg13_49_cif.got.tgz:96727.got - 2010.06.28 04:50:58.
