data_PCOD8117015
_publ_section_title
;
Structure prediction by ZEFSAII (Michael W. Deem and Ramdas Pophale) SiO2 
 PCOD8117015
Probable space group: P 2/C
;
_chemical_formula_sum "Si O2"
_cell_formula_units_Z 24
_cell_length_a 8.256723
_cell_length_b 9.583548
_cell_length_c 19.387083
_cell_angle_alpha 90.000000
_cell_angle_beta 61.543618
_cell_angle_gamma 90.000000
_cell_volume 1348.727959
_symmetry_space_group_name_H-M "P 2/C"
_symmetry_group_IT_number 13
_symmetry_cell_setting 'monoclinic'
loop_
_space_group_symop_operation_xyz
x,y,z
-x,y,1/2-z
-x,-y,-z
x,-y,1/2+z
loop_
_atom_site_type_symbol
_atom_site_label
_atom_site_fract_x
_atom_site_fract_y
_atom_site_fract_z
Si Si1 0.192703 0.631646 0.678592
Si Si2 0.439516 0.606460 0.182685
Si Si3 0.714659 0.849839 0.223719
Si Si4 0.022069 0.354672 0.407220
Si Si5 0.289525 0.838873 0.769523
Si Si6 0.163223 0.346138 0.913779
O O1 0.348800 0.519745 0.661191
O O2 0.160519 0.654139 0.603716
O O3 0.261325 0.774583 0.699592
O O4 0.000000 0.580829 0.750000
O O5 0.500000 0.570269 0.250000
O O6 0.294116 0.737338 0.211381
O O7 0.626231 0.637852 0.102721
O O8 0.500000 0.864894 0.250000
O O9 0.842499 0.784297 0.137614
O O10 0.790507 0.003983 0.223279
O O11 0.968218 0.311227 0.495445
O O12 0.175661 0.246671 0.349781
O O13 0.099900 0.511939 0.388613
O O14 0.500000 0.835922 0.750000
#
# Coordination Sequence:
#
# PCOD8117015 Si02
#       6
#     4   4   4   4   4   4
#     4  10  18  29  46  72  97 118 154 197 234 272
#     4   9  16  31  52  69  92 125 158 193 231 275
#     4   8  16  30  51  70  87 121 162 192 222 275
#     4  10  20  31  47  72  98 121 153 196 234 277
#     4  10  18  31  50  69  91 124 160 191 230 278
#     4   9  18  34  50  68  94 125 158 190 233 278
#
# _framework density 17.794543000000001
#
# number of rings (size 3 to 8) (size 9 to 14) (size 15 to 20)
#    0.000    3.000    0.000    5.500    0.000    2.000 
#    0.000    7.500    0.000    9.000    0.000    0.000 
#    0.000    0.000    0.000    0.000    0.000    0.000 
#
# Total GULP energy -297320.064826 kJ/mol
# GULP energy per Si atom -12388.336034 kJ/mol
# Density = 1.775404 g / cm^3
# Si number density = 17.794543 Si / 1000 Ang^3
#
#
#
# Elastic Constant Matrix: (Units=GPa)
#
#
# Indices 1 2 3 4 5 6 
#
# 1 62.4446 41.6311 25.0291 0.0000 0.7658 0.0000
# 2 41.6311 157.1358 56.6317 0.0000 4.3391 0.0000
# 3 25.0291 56.6317 71.9145 0.0000 -1.4842 0.0000
# 4 0.0000 0.0000 0.0000 12.1504 0.0000 -14.0392
# 5 0.7658 4.3391 -1.4842 0.0000 15.4220 0.0000
# 6 0.0000 0.0000 0.0000 -14.0392 0.0000 4.0120
#
#
#
# Elastic Compliance Matrix: (Units=1/GPa)
#
#
# Indices 1 2 3 4 5 6 
#
# 1 0.020218 -0.003924 -0.003952 0.000000 -0.000280 0.000000
# 2 -0.003924 0.009806 -0.006422 0.000000 -0.003182 0.000000
# 3 -0.003952 -0.006422 0.020420 0.000000 0.003968 0.000000
# 4 0.000000 0.000000 0.000000 -0.027044 0.000000 -0.094634
# 5 -0.000280 -0.003182 0.003968 0.000000 0.066133 0.000000
# 6 0.000000 0.000000 0.000000 -0.094634 0.000000 -0.081903
#
#
# Mechanical properties :
#
#
# Convention : Reuss Voigt Hill
#
# Bulk Modulus (GPa) = 45.77237 59.78653 52.77945
# Shear Modulus (GPa) = 114.91579 17.53042 66.22310
#
# Velocity S-wave (km/s) = 8.04484 3.14213 6.10706
# Velocity P-wave (km/s) = 10.58636 6.84362 8.91365
#
# Compressibility (1/GPa) = 0.02184724
#
# Stress axis : x y z
#
# Youngs Moduli (GPa) = 49.46062 101.97859 48.97180
#
# Poissons Ratio (x) = 0.40021 0.19354
# Poissons Ratio (y) = 0.19411 0.31449
# Poissons Ratio (z) = 0.19547 0.65489
#
# Static dielectric constant tensor:
#      x y z
#    x 3.262490 0.000000 -0.052510 
#    y 0.000000 3.781890 0.000000 
#    z -0.052510 0.000000 3.159310 
# 
# 
# High freq. dielectric constant tensor:
#      x y z
#    x 1.672130 0.000000 -0.013510 
#    y 0.000000 1.693060 0.000000 
#    z -0.013510 0.000000 1.669320 
# 
# From -- ./inp_files/75194.got.cif
#   From: 2010.06.25/outbox.cif.g09.slc.cpg/sg13_38_cif.got.tgz:75194.got - 2010.06.28 04:50:58.
