data_PCOD8117419
_publ_section_title
;
Structure prediction by ZEFSAII (Michael W. Deem and Ramdas Pophale) SiO2 
 PCOD8117419
Probable space group: P 2/C
;
_chemical_formula_sum "Si O2"
_cell_formula_units_Z 26
_cell_length_a 11.479968
_cell_length_b 9.092295
_cell_length_c 13.190782
_cell_angle_alpha 90.000000
_cell_angle_beta 115.374953
_cell_angle_gamma 90.000000
_cell_volume 1244.009837
_symmetry_space_group_name_H-M "P 2/C"
_symmetry_group_IT_number 13
_symmetry_cell_setting 'monoclinic'
loop_
_space_group_symop_operation_xyz
x,y,z
-x,y,1/2-z
-x,-y,-z
x,-y,1/2+z
loop_
_atom_site_type_symbol
_atom_site_label
_atom_site_fract_x
_atom_site_fract_y
_atom_site_fract_z
Si Si1 0.854129 0.545864 0.214342
Si Si2 0.000000 0.989343 0.250000
Si Si3 0.423046 0.434713 0.122175
Si Si4 0.803788 0.251714 0.506640
Si Si5 0.908649 0.776656 0.386604
Si Si6 0.214417 0.918875 0.968010
Si Si7 0.360036 0.665592 0.935358
O O1 0.811097 0.668769 0.117593
O O2 0.848646 0.622625 0.323611
O O3 0.757078 0.408988 0.171583
O O4 0.000000 0.490694 0.250000
O O5 0.090914 0.093919 0.349231
O O6 0.082193 0.886819 0.205048
O O7 0.500000 0.482664 0.250000
O O8 0.512130 0.331952 0.084447
O O9 0.295289 0.339959 0.102404
O O10 0.384377 0.581689 0.049555
O O11 0.947477 0.246817 0.512313
O O12 0.747648 0.087737 0.500152
O O13 0.815618 0.840101 0.436944
O O14 0.328819 0.833086 0.953846
#
# Coordination Sequence:
#
# PCOD8117419 Si02
#       7
#     4   2   4   4   4   4   4
#     4   9  17  37  59  82 119 159 183 233 310 352
#     4  10  18  36  56  92 134 152 172 246 302 354
#     4  10  23  44  60  75 118 169 203 237 295 343
#     4   9  18  39  60  82 119 155 193 238 293 351
#     4  10  18  35  64  89 121 159 185 231 313 363
#     4  11  22  34  61  97 120 146 200 246 295 348
#     4  10  24  39  58  89 118 153 202 254 281 350
#
# _framework density 20.900155999999999
#
# number of rings (size 3 to 8) (size 9 to 14) (size 15 to 20)
#    0.000    2.154    3.846    1.846    3.231    3.077 
#    0.000    3.077    0.000    0.000    0.000    0.000 
#    0.000    0.000    0.000    0.000    0.000    0.000 
#
# Total GULP energy -322332.767834 kJ/mol
# GULP energy per Si atom -12397.414147 kJ/mol
# Density = 2.085259 g / cm^3
# Si number density = 20.900156 Si / 1000 Ang^3
#
#
#
# Elastic Constant Matrix: (Units=GPa)
#
#
# Indices 1 2 3 4 5 6 
#
# 1 31.9510 11.6446 3.5265 0.0000 2.5313 0.0000
# 2 11.6446 50.9279 17.1108 0.0000 11.3094 0.0000
# 3 3.5265 17.1108 92.2048 0.0000 13.1003 0.0000
# 4 0.0000 0.0000 0.0000 4.4133 0.0000 5.4809
# 5 2.5313 11.3094 13.1003 0.0000 28.5626 0.0000
# 6 0.0000 0.0000 0.0000 5.4809 0.0000 23.3918
#
#
#
# Elastic Compliance Matrix: (Units=1/GPa)
#
#
# Indices 1 2 3 4 5 6 
#
# 1 0.034145 -0.007862 0.000150 0.000000 0.000018 0.000000
# 2 -0.007862 0.024131 -0.003122 0.000000 -0.007426 0.000000
# 3 0.000150 -0.003122 0.012029 0.000000 -0.004294 0.000000
# 4 0.000000 0.000000 0.000000 0.319582 0.000000 -0.074880
# 5 0.000018 -0.007426 -0.004294 0.000000 0.039919 0.000000
# 6 0.000000 0.000000 0.000000 -0.074880 0.000000 0.060295
#
#
# Mechanical properties :
#
#
# Convention : Reuss Voigt Hill
#
# Bulk Modulus (GPa) = 20.55993 26.62752 23.59372
# Shear Modulus (GPa) = 9.47002 20.79366 15.13184
#
# Velocity S-wave (km/s) = 2.13094 3.15763 2.69366
# Velocity P-wave (km/s) = 3.98913 5.10511 4.58123
#
# Compressibility (1/GPa) = 0.04863831
#
# Stress axis : x y z
#
# Youngs Moduli (GPa) = 29.28672 41.43992 83.13086
#
# Poissons Ratio (x) = 0.32579 -0.01251
# Poissons Ratio (y) = 0.23025 0.25957
# Poissons Ratio (z) = -0.00441 0.12939
#
# Static dielectric constant tensor:
#      x y z
#    x 3.668640 0.000000 0.215530 
#    y 0.000000 3.661500 0.000000 
#    z 0.215530 0.000000 3.887140 
# 
# 
# High freq. dielectric constant tensor:
#      x y z
#    x 1.799860 0.000000 0.004910 
#    y 0.000000 1.807650 0.000000 
#    z 0.004910 0.000000 1.818400 
# 
# From -- ./inp_files/50159.got.cif
#   From: 2010.06.25/outbox.cif.g09.slc.cpg/sg13_26_cif.got.tgz:50159.got - 2010.06.28 04:50:58.
