data_PCOD8117022
_publ_section_title
;
Structure prediction by ZEFSAII (Michael W. Deem and Ramdas Pophale) SiO2 
 PCOD8117022
Probable space group: P 2/C
;
_chemical_formula_sum "Si O2"
_cell_formula_units_Z 30
_cell_length_a 6.331677
_cell_length_b 11.780464
_cell_length_c 22.814246
_cell_angle_alpha 90.000000
_cell_angle_beta 100.207319
_cell_angle_gamma 90.000000
_cell_volume 1674.783624
_symmetry_space_group_name_H-M "P 2/C"
_symmetry_group_IT_number 13
_symmetry_cell_setting 'monoclinic'
loop_
_space_group_symop_operation_xyz
x,y,z
-x,y,1/2-z
-x,-y,-z
x,-y,1/2+z
loop_
_atom_site_type_symbol
_atom_site_label
_atom_site_fract_x
_atom_site_fract_y
_atom_site_fract_z
Si Si1 0.403960 0.435925 0.551857
Si Si2 0.659689 0.165510 0.309149
Si Si3 0.352095 0.793148 0.433486
Si Si4 0.352235 0.995264 0.353496
Si Si5 0.332133 0.832756 0.952450
Si Si6 0.382051 0.337652 0.094531
Si Si7 0.999795 0.289481 0.509487
Si Si8 0.000000 0.939312 0.750000
O O1 0.500000 0.500000 0.500000
O O2 0.543618 0.327742 0.575624
O O3 0.420968 0.527479 0.606093
O O4 0.158943 0.393227 0.531874
O O5 0.500000 0.201957 0.250000
O O6 0.696393 0.275536 0.350943
O O7 0.891252 0.138162 0.294200
O O8 0.568201 0.056117 0.340202
O O9 0.384551 0.866502 0.376032
O O10 0.473376 0.858763 0.492828
O O11 0.101128 0.772390 0.437719
O O12 0.274255 0.063551 0.407092
O O13 0.178932 0.987419 0.292495
O O14 0.400758 0.722617 0.917688
O O15 0.117305 0.807184 0.977637
O O16 0.201395 0.337053 0.035734
#
# Coordination Sequence:
#
# PCOD8117022 Si02
#       8
#     4   4   4   4   4   4   4   2
#     4  11  19  33  49  75 107 143 177 201 251 315
#     4   9  20  37  57  77 100 129 173 224 269 308
#     4  10  21  31  48  78 107 141 173 204 255 314
#     4  10  20  35  52  75 106 135 169 218 261 313
#     4   9  18  31  49  76 107 137 167 208 260 312
#     4  10  18  31  53  77 103 139 169 213 262 301
#     4  10  18  29  49  77 107 138 171 206 248 311
#     4  10  20  36  56  78  94 130 180 216 266 318
#
# _framework density 17.912763000000002
#
# number of rings (size 3 to 8) (size 9 to 14) (size 15 to 20)
#    0.000    2.133    4.000    1.600    0.000    2.667 
#    0.000    0.000    0.000    4.000    0.000    0.933 
#    0.000    0.000    0.000    0.000    0.000    0.000 
#
# Total GULP energy -371830.021392 kJ/mol
# GULP energy per Si atom -12394.334046 kJ/mol
# Density = 1.787199 g / cm^3
# Si number density = 17.912763 Si / 1000 Ang^3
#
#
#
# Elastic Constant Matrix: (Units=GPa)
#
#
# Indices 1 2 3 4 5 6 
#
# 1 90.5548 41.1846 21.4289 0.0000 -15.7285 0.0000
# 2 41.1846 124.7996 55.0950 0.0000 -10.0296 0.0000
# 3 21.4289 55.0950 73.4390 0.0000 -11.3604 0.0000
# 4 0.0000 0.0000 0.0000 24.3965 0.0000 -1.3858
# 5 -15.7285 -10.0296 -11.3604 0.0000 24.2550 0.0000
# 6 0.0000 0.0000 0.0000 -1.3858 0.0000 15.5989
#
#
#
# Elastic Compliance Matrix: (Units=1/GPa)
#
#
# Indices 1 2 3 4 5 6 
#
# 1 0.014208 -0.004138 0.000128 0.000000 0.007562 0.000000
# 2 -0.004138 0.013200 -0.008912 0.000000 -0.001399 0.000000
# 3 0.000128 -0.008912 0.021248 0.000000 0.006350 0.000000
# 4 0.000000 0.000000 0.000000 0.041197 0.000000 0.003660
# 5 0.007562 -0.001399 0.006350 0.000000 0.048528 0.000000
# 6 0.000000 0.000000 0.000000 0.003660 0.000000 0.064432
#
#
# Mechanical properties :
#
#
# Convention : Reuss Voigt Hill
#
# Bulk Modulus (GPa) = 43.83506 58.24559 51.04032
# Shear Modulus (GPa) = 21.16303 24.25573 22.70938
#
# Velocity S-wave (km/s) = 3.44095 3.68381 3.56445
# Velocity P-wave (km/s) = 6.34913 7.11904 6.74508
#
# Compressibility (1/GPa) = 0.02281279
#
# Stress axis : x y z
#
# Youngs Moduli (GPa) = 70.38286 75.75613 47.06410
#
# Poissons Ratio (x) = 0.31344 -0.00603
# Poissons Ratio (y) = 0.29121 0.41944
# Poissons Ratio (z) = -0.00902 0.67515
#
# Static dielectric constant tensor:
#      x y z
#    x 3.470320 0.000000 -0.128160 
#    y 0.000000 3.343520 0.000000 
#    z -0.128160 0.000000 3.203840 
# 
# 
# High freq. dielectric constant tensor:
#      x y z
#    x 1.701680 0.000000 -0.007620 
#    y 0.000000 1.682320 0.000000 
#    z -0.007620 0.000000 1.663640 
# 
# From -- ./inp_files/83689.got.cif
#   From: 2010.06.25/outbox.cif.g09.slc.cpg/sg13_42_cif.got.tgz:83689.got - 2010.06.28 04:50:58.
