data_PCOD8117717
_publ_section_title
;
Structure prediction by ZEFSAII (Michael W. Deem and Ramdas Pophale) SiO2 
 PCOD8117717
Probable space group: P 2/C
;
_chemical_formula_sum "Si O2"
_cell_formula_units_Z 26
_cell_length_a 7.896019
_cell_length_b 10.598866
_cell_length_c 23.504125
_cell_angle_alpha 90.000000
_cell_angle_beta 130.897324
_cell_angle_gamma 90.000000
_cell_volume 1486.848964
_symmetry_space_group_name_H-M "P 2/C"
_symmetry_group_IT_number 13
_symmetry_cell_setting 'monoclinic'
loop_
_space_group_symop_operation_xyz
x,y,z
-x,y,1/2-z
-x,-y,-z
x,-y,1/2+z
loop_
_atom_site_type_symbol
_atom_site_label
_atom_site_fract_x
_atom_site_fract_y
_atom_site_fract_z
Si Si1 0.500000 0.934167 0.750000
Si Si2 0.900731 0.760979 0.107548
Si Si3 0.512554 0.224907 0.920271
Si Si4 0.795669 0.115029 0.742783
Si Si5 0.046319 0.355122 0.520427
Si Si6 0.221118 0.995813 0.483122
Si Si7 0.215315 0.855578 0.589412
O O1 0.697892 0.014861 0.765506
O O2 0.394740 0.844121 0.679023
O O3 0.680090 0.696839 0.087973
O O4 0.986709 0.686197 0.071630
O O5 0.807992 0.904857 0.077621
O O6 0.102965 0.768659 0.197627
O O7 0.407969 0.161063 0.841203
O O8 0.697637 0.322494 0.938208
O O9 0.620012 0.118668 0.986625
O O10 0.000000 0.057228 0.750000
O O11 0.886533 0.282695 0.441385
O O12 0.000000 0.500000 0.500000
O O13 0.326157 0.906799 0.555741
O O14 0.969204 0.039159 0.438739
#
# Coordination Sequence:
#
# PCOD8117717 Si02
#       7
#     2   4   4   4   4   4   4
#     4  12  16  32  50  70 112 134 148 204 268 304
#     4  10  19  32  53  78 105 134 167 209 257 306
#     4  10  19  32  53  78 105 134 167 209 257 306
#     4  10  20  30  49  83 109 133 162 193 258 332
#     4  10  22  39  51  70 100 136 186 222 242 288
#     4   9  15  30  46  79 105 128 165 197 256 317
#     4   9  18  28  51  73  97 135 167 203 250 311
#
# _framework density 17.486643999999998
#
# number of rings (size 3 to 8) (size 9 to 14) (size 15 to 20)
#    0.000    2.154    3.077    2.308    0.000    0.615 
#    0.000    1.538    0.000    0.000    0.000    0.000 
#    0.000    0.000    0.000    0.000    0.000    0.000 
#
# Total GULP energy -322124.166241 kJ/mol
# GULP energy per Si atom -12389.391009 kJ/mol
# Density = 1.744684 g / cm^3
# Si number density = 17.486644 Si / 1000 Ang^3
#
#
#
# Elastic Constant Matrix: (Units=GPa)
#
#
# Indices 1 2 3 4 5 6 
#
# 1 100.4378 31.4664 15.0738 0.0000 7.6360 0.0000
# 2 31.4664 63.9087 20.5206 0.0000 6.3347 0.0000
# 3 15.0738 20.5206 91.4783 0.0000 4.5218 0.0000
# 4 0.0000 0.0000 0.0000 14.7011 0.0000 -2.7321
# 5 7.6360 6.3347 4.5218 0.0000 23.8363 0.0000
# 6 0.0000 0.0000 0.0000 -2.7321 0.0000 5.3151
#
#
#
# Elastic Compliance Matrix: (Units=1/GPa)
#
#
# Indices 1 2 3 4 5 6 
#
# 1 0.011929 -0.005447 -0.000632 0.000000 -0.002254 0.000000
# 2 -0.005447 0.019697 -0.003380 0.000000 -0.002848 0.000000
# 3 -0.000632 -0.003380 0.011851 0.000000 -0.001147 0.000000
# 4 0.000000 0.000000 0.000000 0.075206 0.000000 0.038658
# 5 -0.002254 -0.002848 -0.001147 0.000000 0.043649 0.000000
# 6 0.000000 0.000000 0.000000 0.038658 0.000000 0.208013
#
#
# Mechanical properties :
#
#
# Convention : Reuss Voigt Hill
#
# Bulk Modulus (GPa) = 40.72033 43.32737 42.02385
# Shear Modulus (GPa) = 12.58017 21.35479 16.96748
#
# Velocity S-wave (km/s) = 2.68510 3.49837 3.11836
# Velocity P-wave (km/s) = 5.74022 6.41477 6.08685
#
# Compressibility (1/GPa) = 0.02455776
#
# Stress axis : x y z
#
# Youngs Moduli (GPa) = 83.82785 50.76940 84.38331
#
# Poissons Ratio (x) = 0.27654 0.05336
# Poissons Ratio (y) = 0.45661 0.28522
# Poissons Ratio (z) = 0.05301 0.17160
#
# Static dielectric constant tensor:
#      x y z
#    x 3.402110 0.000000 -0.036150 
#    y 0.000000 2.753640 0.000000 
#    z -0.036150 0.000000 3.421700 
# 
# 
# High freq. dielectric constant tensor:
#      x y z
#    x 1.691060 0.000000 0.001090 
#    y 0.000000 1.615800 0.000000 
#    z 0.001090 0.000000 1.687180 
# 
# From -- ./inp_files/85081.got.cif
#   From: 2010.06.25/outbox.cif.g09.slc.cpg/sg13_43_cif.got.tgz:85081.got - 2010.06.28 04:50:58.
