data_PCOD8117469
_publ_section_title
;
Structure prediction by ZEFSAII (Michael W. Deem and Ramdas Pophale) SiO2 
 PCOD8117469
Probable space group: P 2/C
;
_chemical_formula_sum "Si O2"
_cell_formula_units_Z 26
_cell_length_a 23.850803
_cell_length_b 11.015259
_cell_length_c 8.690077
_cell_angle_alpha 90.000000
_cell_angle_beta 38.640767
_cell_angle_gamma 90.000000
_cell_volume 1425.636913
_symmetry_space_group_name_H-M "P 2/C"
_symmetry_group_IT_number 13
_symmetry_cell_setting 'monoclinic'
loop_
_space_group_symop_operation_xyz
x,y,z
-x,y,1/2-z
-x,-y,-z
x,-y,1/2+z
loop_
_atom_site_type_symbol
_atom_site_label
_atom_site_fract_x
_atom_site_fract_y
_atom_site_fract_z
Si Si1 0.610790 0.124479 0.236286
Si Si2 0.808306 0.107026 0.813230
Si Si3 0.500000 0.959751 0.250000
Si Si4 0.280040 0.335009 0.593927
Si Si5 0.790078 0.513639 0.993593
Si Si6 0.102482 0.635942 0.991576
Si Si7 0.899729 0.907368 0.431130
O O1 0.572064 0.043759 0.181339
O O2 0.546802 0.126487 0.522829
O O3 0.707366 0.072295 0.086181
O O4 0.626635 0.260839 0.133154
O O5 0.804657 0.242771 0.748339
O O6 0.882801 0.106547 0.786139
O O7 0.832686 0.009699 0.632530
O O8 0.276107 0.443521 0.479326
O O9 0.271718 0.389150 0.783200
O O10 0.870359 0.580753 0.731029
O O11 0.833624 0.417581 0.015135
O O12 0.118047 0.779937 0.946573
O O13 0.000000 0.603703 0.250000
O O14 0.000000 0.952115 0.250000
#
# Coordination Sequence:
#
# PCOD8117469 Si02
#       7
#     4   4   2   4   4   4   4
#     4   9  20  34  59  87 116 147 180 229 276 355
#     4  10  21  38  53  83 112 149 189 228 286 343
#     4  10  18  36  60  92 122 140 174 230 292 336
#     4   9  21  36  58  81 107 145 195 227 279 342
#     4  10  19  37  55  75 105 149 195 237 266 338
#     4  10  20  33  51  75 106 143 192 243 287 316
#     4  11  22  35  53  79 118 149 191 237 284 330
#
# _framework density 18.237463999999999
#
# number of rings (size 3 to 8) (size 9 to 14) (size 15 to 20)
#    0.923    1.231    1.538    1.846    2.154    0.000 
#    0.000    5.385    0.000    2.769    0.000    0.000 
#    0.000    0.000    0.000    0.000    0.000    0.000 
#
# Total GULP energy -322269.085614 kJ/mol
# GULP energy per Si atom -12394.964831 kJ/mol
# Density = 1.819595 g / cm^3
# Si number density = 18.237464 Si / 1000 Ang^3
#
#
#
# Elastic Constant Matrix: (Units=GPa)
#
#
# Indices 1 2 3 4 5 6 
#
# 1 62.4816 18.9937 28.8959 0.0000 1.1150 0.0000
# 2 18.9937 99.2008 64.4401 0.0000 8.7697 0.0000
# 3 28.8959 64.4401 110.9673 0.0000 14.1026 0.0000
# 4 0.0000 0.0000 0.0000 28.2422 0.0000 5.9628
# 5 1.1150 8.7697 14.1026 0.0000 25.2086 0.0000
# 6 0.0000 0.0000 0.0000 5.9628 0.0000 23.6101
#
#
#
# Elastic Compliance Matrix: (Units=1/GPa)
#
#
# Indices 1 2 3 4 5 6 
#
# 1 0.018317 -0.000675 -0.004634 0.000000 0.002017 0.000000
# 2 -0.000675 0.016215 -0.009180 0.000000 -0.000475 0.000000
# 3 -0.004634 -0.009180 0.016275 0.000000 -0.005706 0.000000
# 4 0.000000 0.000000 0.000000 0.037402 0.000000 -0.009446
# 5 0.002017 -0.000475 -0.005706 0.000000 0.042937 0.000000
# 6 0.000000 0.000000 0.000000 -0.009446 0.000000 0.044740
#
#
# Mechanical properties :
#
#
# Convention : Reuss Voigt Hill
#
# Bulk Modulus (GPa) = 45.81251 55.25658 50.53455
# Shear Modulus (GPa) = 23.56915 26.10019 24.83467
#
# Velocity S-wave (km/s) = 3.59882 3.78713 3.69418
# Velocity P-wave (km/s) = 6.51485 7.03472 6.77977
#
# Compressibility (1/GPa) = 0.02182810
#
# Stress axis : x y z
#
# Youngs Moduli (GPa) = 54.59388 61.67036 61.44560
#
# Poissons Ratio (x) = 0.04164 0.28474
# Poissons Ratio (y) = 0.03686 0.56408
# Poissons Ratio (z) = 0.25299 0.56614
#
# Static dielectric constant tensor:
#      x y z
#    x 3.217070 0.000000 0.094270 
#    y 0.000000 3.369380 0.000000 
#    z 0.094270 0.000000 3.247640 
# 
# 
# High freq. dielectric constant tensor:
#      x y z
#    x 1.701660 0.000000 0.012870 
#    y 0.000000 1.707010 0.000000 
#    z 0.012870 0.000000 1.694450 
# 
# From -- ./inp_files/24711.got.cif
#   From: 2010.06.25/outbox.cif.g09.slc.cpg/sg13_13_cif.got.tgz:24711.got - 2010.06.28 04:50:58.
