data_PCOD8117163
_publ_section_title
;
Structure prediction by ZEFSAII (Michael W. Deem and Ramdas Pophale) SiO2 
 PCOD8117163
Probable space group: P 2/C
;
_chemical_formula_sum "Si O2"
_cell_formula_units_Z 28
_cell_length_a 13.601116
_cell_length_b 7.865305
_cell_length_c 18.187202
_cell_angle_alpha 90.000000
_cell_angle_beta 46.605813
_cell_angle_gamma 90.000000
_cell_volume 1413.767260
_symmetry_space_group_name_H-M "P 2/C"
_symmetry_group_IT_number 13
_symmetry_cell_setting 'monoclinic'
loop_
_space_group_symop_operation_xyz
x,y,z
-x,y,1/2-z
-x,-y,-z
x,-y,1/2+z
loop_
_atom_site_type_symbol
_atom_site_label
_atom_site_fract_x
_atom_site_fract_y
_atom_site_fract_z
Si Si1 0.233113 0.244019 0.805188
Si Si2 0.239684 0.371264 0.958869
Si Si3 0.512694 0.224141 0.579539
Si Si4 0.503117 0.170693 0.073085
Si Si5 0.635964 0.704483 0.642716
Si Si6 0.955147 0.549407 0.604279
Si Si7 0.236151 0.865300 0.794946
O O1 0.231467 0.239016 0.895116
O O2 0.386389 0.269065 0.696787
O O3 0.134767 0.389321 0.820162
O O4 0.181847 0.056049 0.806929
O O5 0.354923 0.319761 0.957651
O O6 0.265233 0.546084 0.901880
O O7 0.096418 0.406577 0.074483
O O8 0.480648 0.274475 0.511597
O O9 0.545733 0.025803 0.553388
O O10 0.612811 0.255043 0.069790
O O11 0.348725 0.189274 0.178076
O O12 0.500000 0.641389 0.750000
O O13 0.697151 0.862482 0.657450
O O14 0.880657 0.728314 0.649697
O O15 0.000000 0.500000 0.500000
#
# Coordination Sequence:
#
# PCOD8117163 Si02
#       7
#     4   4   4   4   4   4   4
#     4  10  20  36  62  83 115 152 189 238 287 337
#     4  11  21  34  55  87 116 147 189 238 284 337
#     4  10  20  38  58  84 113 149 195 241 283 340
#     4   9  21  36  58  86 111 145 197 237 287 341
#     4  10  18  32  55  85 113 140 186 242 282 336
#     4  10  21  37  53  87 118 148 193 230 279 350
#     4  10  19  37  60  83 115 151 186 238 291 330
#
# _framework density 19.805240999999999
#
# number of rings (size 3 to 8) (size 9 to 14) (size 15 to 20)
#    0.000    2.000    2.857    2.143    2.000    5.143 
#    2.571    0.714    0.000    0.000    0.000    0.000 
#    0.000    0.000    0.000    0.000    0.000    0.000 
#
# Total GULP energy -346886.750414 kJ/mol
# GULP energy per Si atom -12388.812515 kJ/mol
# Density = 1.976016 g / cm^3
# Si number density = 19.805241 Si / 1000 Ang^3
#
#
#
# Elastic Constant Matrix: (Units=GPa)
#
#
# Indices 1 2 3 4 5 6 
#
# 1 76.7758 43.7836 44.4782 0.0000 -15.4191 0.0000
# 2 43.7836 108.1332 41.8181 0.0000 -25.1726 0.0000
# 3 44.4782 41.8181 61.5318 0.0000 -11.7613 0.0000
# 4 0.0000 0.0000 0.0000 30.3223 0.0000 -9.8771
# 5 -15.4191 -25.1726 -11.7613 0.0000 38.2325 0.0000
# 6 0.0000 0.0000 0.0000 -9.8771 0.0000 4.2440
#
#
#
# Elastic Compliance Matrix: (Units=1/GPa)
#
#
# Indices 1 2 3 4 5 6 
#
# 1 0.023909 -0.003428 -0.014387 0.000000 0.002960 0.000000
# 2 -0.003428 0.014475 -0.006165 0.000000 0.006252 0.000000
# 3 -0.014387 -0.006165 0.030765 0.000000 -0.000397 0.000000
# 4 0.000000 0.000000 0.000000 0.136331 0.000000 0.317287
# 5 0.002960 0.006252 -0.000397 0.000000 0.031343 0.000000
# 6 0.000000 0.000000 0.000000 0.317287 0.000000 0.974059
#
#
# Mechanical properties :
#
#
# Convention : Reuss Voigt Hill
#
# Bulk Modulus (GPa) = 47.19268 56.28895 51.74082
# Shear Modulus (GPa) = 3.94974 22.31715 13.13344
#
# Velocity S-wave (km/s) = 1.41373 3.36047 2.57792
# Velocity P-wave (km/s) = 5.15218 6.59848 5.91967
#
# Compressibility (1/GPa) = 0.02118973
#
# Stress axis : x y z
#
# Youngs Moduli (GPa) = 41.82498 69.08324 32.50402
#
# Poissons Ratio (x) = 0.23681 0.46765
# Poissons Ratio (y) = 0.14337 0.20038
# Poissons Ratio (z) = 0.60175 0.42588
#
# Static dielectric constant tensor:
#      x y z
#    x 3.912160 0.000000 -0.052410 
#    y 0.000000 3.689080 0.000000 
#    z -0.052410 0.000000 3.785610 
# 
# 
# High freq. dielectric constant tensor:
#      x y z
#    x 1.752300 0.000000 -0.015680 
#    y 0.000000 1.779550 0.000000 
#    z -0.015680 0.000000 1.760840 
# 
# From -- ./inp_files/68179.got.cif
#   From: 2010.06.25/outbox.cif.g09.slc.cpg/sg13_35_cif.got.tgz:68179.got - 2010.06.28 04:50:58.
