data_PCOD8117200
_publ_section_title
;
Structure prediction by ZEFSAII (Michael W. Deem and Ramdas Pophale) SiO2 
 PCOD8117200
Probable space group: P 2/C
;
_chemical_formula_sum "Si O2"
_cell_formula_units_Z 30
_cell_length_a 22.199971
_cell_length_b 9.027488
_cell_length_c 19.770654
_cell_angle_alpha 90.000000
_cell_angle_beta 23.520344
_cell_angle_gamma 90.000000
_cell_volume 1581.228085
_symmetry_space_group_name_H-M "P 2/C"
_symmetry_group_IT_number 13
_symmetry_cell_setting 'monoclinic'
loop_
_space_group_symop_operation_xyz
x,y,z
-x,y,1/2-z
-x,-y,-z
x,-y,1/2+z
loop_
_atom_site_type_symbol
_atom_site_label
_atom_site_fract_x
_atom_site_fract_y
_atom_site_fract_z
Si Si1 0.272537 0.412671 0.587489
Si Si2 0.672918 0.819406 0.700670
Si Si3 0.639075 0.843518 0.251251
Si Si4 0.454031 0.337720 0.523053
Si Si5 0.601628 0.306273 0.587842
Si Si6 0.056524 0.370646 0.623930
Si Si7 0.846780 0.697359 0.938284
Si Si8 0.500000 0.272284 0.250000
O O1 0.315621 0.331340 0.612305
O O2 0.333582 0.580550 0.534495
O O3 0.361432 0.358702 0.428696
O O4 0.091354 0.409554 0.768226
O O5 0.599287 0.723925 0.835445
O O6 0.837338 0.744877 0.523863
O O7 0.580484 0.823294 0.725557
O O8 0.680301 0.986240 0.719873
O O9 0.598948 0.768565 0.362993
O O10 0.495437 0.821409 0.349111
O O11 0.791269 0.768614 0.065364
O O12 0.500000 0.500000 0.500000
O O13 0.500000 0.389451 0.750000
O O14 0.739670 0.243649 0.488628
O O15 0.144969 0.520208 0.556606
O O16 0.000000 0.288936 0.750000
O O17 0.000000 0.761252 0.750000
#
# Coordination Sequence:
#
# PCOD8117200 Si02
#       8
#     4   4   4   4   4   4   4   2
#     4  11  19  35  63  91 118 152 213 256 305 348
#     4  11  24  39  60  89 126 160 199 247 320 371
#     4  11  24  40  58  86 130 160 199 250 313 377
#     4  11  23  41  64  87 115 163 217 255 294 363
#     4  10  18  32  61  88 117 150 201 261 305 349
#     4  11  20  37  61  91 125 154 201 260 315 357
#     4  10  20  36  61  92 120 152 202 254 311 355
#     4  10  20  34  60  94 112 154 198 264 298 354
#
# _framework density 18.972594000000001
#
# number of rings (size 3 to 8) (size 9 to 14) (size 15 to 20)
#    0.000    1.333    6.000    1.200    6.533    0.533 
#    0.000    4.667    0.000    0.000    0.000    0.000 
#    0.000    0.000    0.000    0.000    0.000    0.000 
#
# Total GULP energy -371663.384943 kJ/mol
# GULP energy per Si atom -12388.779498 kJ/mol
# Density = 1.892941 g / cm^3
# Si number density = 18.972594 Si / 1000 Ang^3
#
#
#
# Elastic Constant Matrix: (Units=GPa)
#
#
# Indices 1 2 3 4 5 6 
#
# 1 92.6552 37.0784 60.4064 0.0000 10.7558 0.0000
# 2 37.0784 110.5298 57.8498 0.0000 9.1565 0.0000
# 3 60.4064 57.8498 141.9055 0.0000 1.7523 0.0000
# 4 0.0000 0.0000 0.0000 -0.7616 0.0000 -1.9735
# 5 10.7558 9.1565 1.7523 0.0000 34.7025 0.0000
# 6 0.0000 0.0000 0.0000 -1.9735 0.0000 20.3470
#
#
#
# Elastic Compliance Matrix: (Units=1/GPa)
#
#
# Indices 1 2 3 4 5 6 
#
# 1 0.015906 -0.001877 -0.005955 0.000000 -0.004134 0.000000
# 2 -0.001877 0.012001 -0.004064 0.000000 -0.002380 0.000000
# 3 -0.005955 -0.004064 0.011210 0.000000 0.002352 0.000000
# 4 0.000000 0.000000 0.000000 -1.049274 0.000000 -0.101774
# 5 -0.004134 -0.002380 0.002352 0.000000 0.030607 0.000000
# 6 0.000000 0.000000 0.000000 -0.101774 0.000000 0.039276
#
#
# Mechanical properties :
#
#
# Convention : Reuss Voigt Hill
#
# Bulk Modulus (GPa) = 65.25142 72.86221 69.05681
# Shear Modulus (GPa) = -5.48621 23.50797 9.01088
#
# Velocity S-wave (km/s) = -1.70233 3.52383 2.18168
# Velocity P-wave (km/s) = 5.53202 7.41915 6.54397
#
# Compressibility (1/GPa) = 0.01532534
#
# Stress axis : x y z
#
# Youngs Moduli (GPa) = 62.87043 83.32509 89.20996
#
# Poissons Ratio (x) = 0.15638 0.53121
# Poissons Ratio (y) = 0.11799 0.36257
# Poissons Ratio (z) = 0.37437 0.33865
#
# Static dielectric constant tensor:
#      x y z
#    x 3.478300 0.000000 -0.013550 
#    y 0.000000 3.193340 0.000000 
#    z -0.013550 0.000000 3.802810 
# 
# 
# High freq. dielectric constant tensor:
#      x y z
#    x 1.733670 0.000000 0.001290 
#    y 0.000000 1.712280 0.000000 
#    z 0.001290 0.000000 1.746890 
# 
# From -- ./inp_files/75705.got.cif
#   From: 2010.06.25/outbox.cif.g09.slc.cpg/sg13_38_cif.got.tgz:75705.got - 2010.06.28 04:50:58.
