data_PCOD8117152
_publ_section_title
;
Structure prediction by ZEFSAII (Michael W. Deem and Ramdas Pophale) SiO2 
 PCOD8117152
Probable space group: P 2/C
;
_chemical_formula_sum "Si O2"
_cell_formula_units_Z 32
_cell_length_a 26.223133
_cell_length_b 14.550197
_cell_length_c 8.144478
_cell_angle_alpha 90.000000
_cell_angle_beta 143.887557
_cell_angle_gamma 90.000000
_cell_volume 1831.496399
_symmetry_space_group_name_H-M "P 2/C"
_symmetry_group_IT_number 13
_symmetry_cell_setting 'monoclinic'
loop_
_space_group_symop_operation_xyz
x,y,z
-x,y,1/2-z
-x,-y,-z
x,-y,1/2+z
loop_
_atom_site_type_symbol
_atom_site_label
_atom_site_fract_x
_atom_site_fract_y
_atom_site_fract_z
Si Si1 0.083833 0.784065 0.179439
Si Si2 0.777389 0.097171 0.346196
Si Si3 0.400226 0.871615 0.508855
Si Si4 0.891657 0.259167 0.121881
Si Si5 0.319730 0.038028 0.102328
Si Si6 0.160704 0.383866 0.077631
Si Si7 0.906602 0.457346 0.273743
Si Si8 0.741227 0.754412 0.486882
O O1 0.122505 0.881167 0.347329
O O2 0.112910 0.702589 0.374549
O O3 0.126576 0.769653 0.111870
O O4 0.980591 0.788959 0.911577
O O5 0.717192 0.101994 0.350990
O O6 0.743741 0.175808 0.141716
O O7 0.763210 0.999255 0.219596
O O8 0.381449 0.901742 0.647086
O O9 0.374443 0.953095 0.317303
O O10 0.500000 0.847880 0.750000
O O11 0.349544 0.775432 0.339336
O O12 0.898890 0.369384 0.135546
O O13 0.816819 0.226195 0.050344
O O14 0.098863 0.426937 0.053477
O O15 0.247799 0.347371 0.400175
O O16 0.169324 0.467314 0.968934
O O17 0.000000 0.500000 0.500000
#
# Coordination Sequence:
#
# PCOD8117152 Si02
#       8
#     4   4   4   4   4   4   4   4
#     4  10  19  31  47  70  96 137 169 204 244 296
#     4   9  18  32  52  69 101 132 165 201 246 294
#     4  10  18  32  54  79 103 128 161 206 261 311
#     4  10  20  31  48  69  98 134 171 202 249 291
#     4   9  18  32  52  79 101 128 160 210 257 302
#     4  10  20  30  44  68 101 131 166 202 247 293
#     4  11  19  27  45  68  98 130 163 206 246 282
#     4   9  20  33  48  71 101 135 163 205 253 301
#
# _framework density 17.472052000000001
#
# number of rings (size 3 to 8) (size 9 to 14) (size 15 to 20)
#    0.000    2.250    1.250    2.250    3.500    1.500 
#    0.000    0.000    0.000   25.500    0.000    3.500 
#    0.000    0.000    0.000    1.125    0.000    0.000 
#
# Total GULP energy -396449.034026 kJ/mol
# GULP energy per Si atom -12389.032313 kJ/mol
# Density = 1.743228 g / cm^3
# Si number density = 17.472052 Si / 1000 Ang^3
#
#
#
# Elastic Constant Matrix: (Units=GPa)
#
#
# Indices 1 2 3 4 5 6 
#
# 1 108.8184 43.8178 52.8334 0.0000 -6.2708 0.0000
# 2 43.8178 53.0823 42.5261 0.0000 9.7809 0.0000
# 3 52.8334 42.5261 96.7043 0.0000 10.0451 0.0000
# 4 0.0000 0.0000 0.0000 27.6646 0.0000 -5.6680
# 5 -6.2708 9.7809 10.0451 0.0000 25.4347 0.0000
# 6 0.0000 0.0000 0.0000 -5.6680 0.0000 28.2047
#
#
#
# Elastic Compliance Matrix: (Units=1/GPa)
#
#
# Indices 1 2 3 4 5 6 
#
# 1 0.017207 -0.012008 -0.005256 0.000000 0.010936 0.000000
# 2 -0.012008 0.038499 -0.008889 0.000000 -0.014255 0.000000
# 3 -0.005256 -0.008889 0.017624 0.000000 -0.004838 0.000000
# 4 0.000000 0.000000 0.000000 0.037699 0.000000 0.007576
# 5 0.010936 -0.014255 -0.004838 0.000000 0.049405 0.000000
# 6 0.000000 0.000000 0.000000 0.007576 0.000000 0.036978
#
#
# Mechanical properties :
#
#
# Convention : Reuss Voigt Hill
#
# Bulk Modulus (GPa) = 47.56584 59.66217 53.61401
# Shear Modulus (GPa) = 19.47607 24.22265 21.84936
#
# Velocity S-wave (km/s) = 3.34233 3.72743 3.54012
# Velocity P-wave (km/s) = 6.49446 7.26267 6.88928
#
# Compressibility (1/GPa) = 0.02102349
#
# Stress axis : x y z
#
# Youngs Moduli (GPa) = 58.11571 25.97501 56.74079
#
# Poissons Ratio (x) = 0.31190 0.29825
# Poissons Ratio (y) = 0.69785 0.50436
# Poissons Ratio (z) = 0.30548 0.23089
#
# Static dielectric constant tensor:
#      x y z
#    x 3.336530 0.000000 -0.357090 
#    y 0.000000 3.607770 0.000000 
#    z -0.357090 0.000000 3.415510 
# 
# 
# High freq. dielectric constant tensor:
#      x y z
#    x 1.679230 0.000000 -0.035800 
#    y 0.000000 1.658660 0.000000 
#    z -0.035800 0.000000 1.655640 
# 
# From -- ./inp_files/24753.got.cif
#   From: 2010.06.25/outbox.cif.g09.slc.cpg/sg13_13_cif.got.tgz:24753.got - 2010.06.28 04:50:58.
