data_PCOD8117628
_publ_section_title
;
Structure prediction by ZEFSAII (Michael W. Deem and Ramdas Pophale) SiO2 
 PCOD8117628
Probable space group: P 2/C
;
_chemical_formula_sum "Si O2"
_cell_formula_units_Z 26
_cell_length_a 14.435333
_cell_length_b 20.965757
_cell_length_c 5.246552
_cell_angle_alpha 90.000000
_cell_angle_beta 116.693843
_cell_angle_gamma 90.000000
_cell_volume 1418.622503
_symmetry_space_group_name_H-M "P 2/C"
_symmetry_group_IT_number 13
_symmetry_cell_setting 'monoclinic'
loop_
_space_group_symop_operation_xyz
x,y,z
-x,y,1/2-z
-x,-y,-z
x,-y,1/2+z
loop_
_atom_site_type_symbol
_atom_site_label
_atom_site_fract_x
_atom_site_fract_y
_atom_site_fract_z
Si Si1 0.225640 0.761649 0.495652
Si Si2 0.000000 0.209210 0.750000
Si Si3 0.699262 0.830133 0.397248
Si Si4 0.500000 0.770474 0.250000
Si Si5 0.000000 0.122577 0.250000
Si Si6 0.602186 0.668982 0.712597
Si Si7 0.383661 0.527293 0.876671
Si Si8 0.205514 0.041039 0.514522
O O1 0.103148 0.746020 0.379359
O O2 0.231829 0.804356 0.249743
O O3 0.292577 0.696126 0.524759
O O4 0.263394 0.801417 0.787247
O O5 0.999798 0.165310 0.501078
O O6 0.578482 0.813900 0.184062
O O7 0.704771 0.906418 0.412412
O O8 0.577064 0.726172 0.497754
O O9 0.902879 0.076411 0.141813
O O10 0.500000 0.655056 0.750000
O O11 0.624325 0.603168 0.593450
O O12 0.326398 0.505889 0.545508
O O13 0.500000 0.500000 0.000000
O O14 0.217091 0.010856 0.807664
#
# Coordination Sequence:
#
# PCOD8117628 Si02
#       8
#     4   2   4   2   2   4   4   4
#     4  11  22  36  57  82 111 147 177 231 274 331
#     4  12  20  39  58  82 114 139 180 222 288 328
#     4  11  22  39  56  81 106 143 180 226 286 318
#     4  10  22  36  58  80 112 144 186 232 266 338
#     4  12  22  37  60  80 106 137 174 230 286 340
#     4  11  20  33  56  85 113 146 187 221 270 328
#     4  10  19  30  49  77 117 147 171 219 269 310
#     4  12  23  38  55  80 107 135 181 226 275 345
#
# _framework density 18.327638
#
# number of rings (size 3 to 8) (size 9 to 14) (size 15 to 20)
#    0.000    0.923    6.154    3.231    0.000    0.000 
#    0.000    0.769    0.000    0.000    0.000    1.077 
#    0.000    0.000    0.000    0.000    0.000    0.000 
#
# Total GULP energy -322159.820376 kJ/mol
# GULP energy per Si atom -12390.762322 kJ/mol
# Density = 1.828592 g / cm^3
# Si number density = 18.327638 Si / 1000 Ang^3
#
#
#
# Elastic Constant Matrix: (Units=GPa)
#
#
# Indices 1 2 3 4 5 6 
#
# 1 95.6457 42.9012 32.3366 0.0000 6.4004 0.0000
# 2 42.9012 91.4382 27.9106 0.0000 19.0764 0.0000
# 3 32.3366 27.9106 69.6724 0.0000 -22.1888 0.0000
# 4 0.0000 0.0000 0.0000 21.6159 0.0000 -3.4504
# 5 6.4004 19.0764 -22.1888 0.0000 34.2239 0.0000
# 6 0.0000 0.0000 0.0000 -3.4504 0.0000 13.2581
#
#
#
# Elastic Compliance Matrix: (Units=1/GPa)
#
#
# Indices 1 2 3 4 5 6 
#
# 1 0.014879 -0.003687 -0.007133 0.000000 -0.005352 0.000000
# 2 -0.003687 0.020346 -0.012390 0.000000 -0.018684 0.000000
# 3 -0.007133 -0.012390 0.031822 0.000000 0.028871 0.000000
# 4 0.000000 0.000000 0.000000 0.048267 0.000000 0.012562
# 5 -0.005352 -0.018684 0.028871 0.000000 0.059353 0.000000
# 6 0.000000 0.000000 0.000000 0.012562 0.000000 0.078695
#
#
# Mechanical properties :
#
#
# Convention : Reuss Voigt Hill
#
# Bulk Modulus (GPa) = 48.48084 51.45034 49.96559
# Shear Modulus (GPa) = 16.30485 24.06011 20.18248
#
# Velocity S-wave (km/s) = 2.98591 3.62716 3.32204
# Velocity P-wave (km/s) = 6.19655 6.75834 6.48353
#
# Compressibility (1/GPa) = 0.02062671
#
# Stress axis : x y z
#
# Youngs Moduli (GPa) = 67.20983 49.14953 31.42517
#
# Poissons Ratio (x) = 0.18121 0.22416
# Poissons Ratio (y) = 0.24780 0.38935
# Poissons Ratio (z) = 0.47942 0.60895
#
# Static dielectric constant tensor:
#      x y z
#    x 1.456870 0.000000 2.407630 
#    y 0.000000 3.534780 0.000000 
#    z 2.407630 0.000000 0.938320 
# 
# 
# High freq. dielectric constant tensor:
#      x y z
#    x 1.699560 0.000000 -0.018650 
#    y 0.000000 1.699140 0.000000 
#    z -0.018650 0.000000 1.715080 
# 
# From -- ./inp_files/5166.got.cif
#   From: 2010.06.25/outbox.cif.g09.slc.cpg/sg13_3_cif.got.tgz:5166.got - 2010.06.28 04:50:58.
