data_PCOD8117254
_publ_section_title
;
Structure prediction by ZEFSAII (Michael W. Deem and Ramdas Pophale) SiO2 
 PCOD8117254
Probable space group: P 2/C
;
_chemical_formula_sum "Si O2"
_cell_formula_units_Z 30
_cell_length_a 15.006383
_cell_length_b 9.201550
_cell_length_c 10.554632
_cell_angle_alpha 90.000000
_cell_angle_beta 71.201939
_cell_angle_gamma 90.000000
_cell_volume 1379.666806
_symmetry_space_group_name_H-M "P 2/C"
_symmetry_group_IT_number 13
_symmetry_cell_setting 'monoclinic'
loop_
_space_group_symop_operation_xyz
x,y,z
-x,y,1/2-z
-x,-y,-z
x,-y,1/2+z
loop_
_atom_site_type_symbol
_atom_site_label
_atom_site_fract_x
_atom_site_fract_y
_atom_site_fract_z
Si Si1 0.350258 0.118882 0.632121
Si Si2 0.500000 0.178537 0.750000
Si Si3 0.192835 0.084425 0.190612
Si Si4 0.896981 0.066038 0.532788
Si Si5 0.219513 0.673191 0.340871
Si Si6 0.409868 0.288083 0.368904
Si Si7 0.616693 0.606375 0.043825
Si Si8 0.736863 0.633035 0.757943
O O1 0.418791 0.083619 0.720294
O O2 0.271996 0.237873 0.706627
O O3 0.405953 0.175540 0.485759
O O4 0.299797 0.968498 0.616386
O O5 0.461885 0.276311 0.883749
O O6 0.129120 0.034625 0.101637
O O7 0.191671 0.258208 0.204334
O O8 0.164460 0.020966 0.339091
O O9 0.875944 0.238453 0.573060
O O10 0.000000 0.000000 0.500000
O O11 0.287431 0.649796 0.428540
O O12 0.199754 0.510852 0.296991
O O13 0.500000 0.233559 0.250000
O O14 0.428825 0.452035 0.404408
O O15 0.308090 0.290025 0.345047
O O16 0.643557 0.600014 0.883849
#
# Coordination Sequence:
#
# PCOD8117254 Si02
#       8
#     4   2   4   4   4   4   4   4
#     4  10  21  38  58  87 127 175 224 273 325 393
#     4  10  20  34  56  86 126 176 236 282 324 362
#     4  11  24  44  69  97 137 176 220 268 348 411
#     4  11  23  45  74 102 129 167 215 274 341 425
#     4   9  20  37  64  95 124 166 217 269 331 397
#     4  11  21  33  54  92 128 173 238 284 323 372
#     4  10  18  33  58  87 126 173 224 282 323 379
#     4  11  21  37  63  90 129 176 219 272 334 393
#
# _framework density 21.744381000000001
#
# number of rings (size 3 to 8) (size 9 to 14) (size 15 to 20)
#    0.000    1.600    3.333    2.000    0.000    1.067 
#    1.200    2.000    0.000    3.200    0.000    0.000 
#    0.000    0.000    0.000    0.000    0.000    0.000 
#
# Total GULP energy -371802.601148 kJ/mol
# GULP energy per Si atom -12393.420038 kJ/mol
# Density = 2.169489 g / cm^3
# Si number density = 21.744381 Si / 1000 Ang^3
#
#
#
# Elastic Constant Matrix: (Units=GPa)
#
#
# Indices 1 2 3 4 5 6 
#
# 1 101.4608 50.4998 22.4884 0.0000 2.3875 0.0000
# 2 50.4998 104.4227 28.2687 0.0000 -4.7532 0.0000
# 3 22.4884 28.2687 79.8611 0.0000 6.9823 0.0000
# 4 0.0000 0.0000 0.0000 28.4021 0.0000 -1.7453
# 5 2.3875 -4.7532 6.9823 0.0000 31.6931 0.0000
# 6 0.0000 0.0000 0.0000 -1.7453 0.0000 26.4525
#
#
#
# Elastic Compliance Matrix: (Units=1/GPa)
#
#
# Indices 1 2 3 4 5 6 
#
# 1 0.013242 -0.006088 -0.001434 0.000000 -0.001595 0.000000
# 2 -0.006088 0.013582 -0.003377 0.000000 0.003240 0.000000
# 3 -0.001434 -0.003377 0.014434 0.000000 -0.003578 0.000000
# 4 0.000000 0.000000 0.000000 0.035352 0.000000 0.002332
# 5 -0.001595 0.003240 -0.003578 0.000000 0.032947 0.000000
# 6 0.000000 0.000000 0.000000 0.002332 0.000000 0.037958
#
#
# Mechanical properties :
#
#
# Convention : Reuss Voigt Hill
#
# Bulk Modulus (GPa) = 51.38862 54.25095 52.81978
# Shear Modulus (GPa) = 28.44161 29.60871 29.02516
#
# Velocity S-wave (km/s) = 3.62055 3.69409 3.65750
# Velocity P-wave (km/s) = 6.41578 6.57257 6.49464
#
# Compressibility (1/GPa) = 0.01945956
#
# Stress axis : x y z
#
# Youngs Moduli (GPa) = 75.51923 73.62539 69.28213
#
# Poissons Ratio (x) = 0.44824 0.09937
# Poissons Ratio (y) = 0.45977 0.23394
# Poissons Ratio (z) = 0.10832 0.24861
#
# Static dielectric constant tensor:
#      x y z
#    x 3.614200 0.000000 0.111210 
#    y 0.000000 4.157510 0.000000 
#    z 0.111210 0.000000 4.221460 
# 
# 
# High freq. dielectric constant tensor:
#      x y z
#    x 1.820020 0.000000 0.023250 
#    y 0.000000 1.853400 0.000000 
#    z 0.023250 0.000000 1.863510 
# 
# From -- ./inp_files/36372.got.cif
#   From: 2010.06.25/outbox.cif.g09.slc.cpg/sg13_19_cif.got.tgz:36372.got - 2010.06.28 04:50:58.
