data_PCOD8117277
_publ_section_title
;
Structure prediction by ZEFSAII (Michael W. Deem and Ramdas Pophale) SiO2 
 PCOD8117277
Probable space group: P 2/C
;
_chemical_formula_sum "Si O2"
_cell_formula_units_Z 30
_cell_length_a 19.728096
_cell_length_b 13.928577
_cell_length_c 9.294781
_cell_angle_alpha 90.000000
_cell_angle_beta 138.516053
_cell_angle_gamma 90.000000
_cell_volume 1691.835302
_symmetry_space_group_name_H-M "P 2/C"
_symmetry_group_IT_number 13
_symmetry_cell_setting 'monoclinic'
loop_
_space_group_symop_operation_xyz
x,y,z
-x,y,1/2-z
-x,-y,-z
x,-y,1/2+z
loop_
_atom_site_type_symbol
_atom_site_label
_atom_site_fract_x
_atom_site_fract_y
_atom_site_fract_z
Si Si1 0.552620 0.376672 0.196892
Si Si2 0.285070 0.764686 0.976434
Si Si3 0.410594 0.109407 0.872970
Si Si4 0.674401 0.041633 0.461080
Si Si5 0.127959 0.088186 0.206708
Si Si6 0.000000 0.004874 0.750000
Si Si7 0.411023 0.587293 0.215643
Si Si8 0.631592 0.197654 0.195746
O O1 0.500000 0.325591 0.250000
O O2 0.611861 0.474090 0.341033
O O3 0.636494 0.308283 0.256098
O O4 0.454379 0.399303 0.943199
O O5 0.329100 0.811915 0.190444
O O6 0.307205 0.649911 0.021615
O O7 0.166264 0.799686 0.775260
O O8 0.341752 0.810322 0.928447
O O9 0.409785 0.018658 0.763631
O O10 0.378812 0.075773 0.979419
O O11 0.518243 0.160810 0.044690
O O12 0.707183 0.133072 0.414032
O O13 0.775012 0.981386 0.654321
O O14 0.069817 0.064361 0.262727
O O15 0.061237 0.074007 0.956830
O O16 0.500000 0.624284 0.250000
#
# Coordination Sequence:
#
# PCOD8117277 Si02
#       8
#     4   4   4   4   4   2   4   4
#     4  10  20  31  48  71 102 152 188 210 239 277
#     4  11  20  34  52  73 102 132 181 213 256 293
#     4  11  21  33  45  67 104 150 177 207 239 286
#     4  11  22  33  48  73 103 132 180 213 250 290
#     4  10  21  36  56  76  97 129 159 218 259 332
#     4  10  20  40  58  72  98 126 162 202 296 328
#     4  10  18  34  51  70 105 150 179 212 247 285
#     4  12  21  32  46  71 106 149 182 209 240 286
#
# _framework density 17.732222
#
# number of rings (size 3 to 8) (size 9 to 14) (size 15 to 20)
#    0.000    1.333    2.667    6.000    0.000    2.133 
#    0.000    0.000    0.000    0.000    0.000    0.000 
#    0.000   18.133    0.000    0.000    0.000    0.000 
#
# Total GULP energy -371829.235854 kJ/mol
# GULP energy per Si atom -12394.307862 kJ/mol
# Density = 1.769186 g / cm^3
# Si number density = 17.732222 Si / 1000 Ang^3
#
#
#
# Elastic Constant Matrix: (Units=GPa)
#
#
# Indices 1 2 3 4 5 6 
#
# 1 78.3422 24.2334 30.0204 0.0000 -12.3612 0.0000
# 2 24.2334 99.2480 31.2942 0.0000 4.4980 0.0000
# 3 30.0204 31.2942 70.5561 0.0000 -10.7488 0.0000
# 4 0.0000 0.0000 0.0000 26.8954 0.0000 -1.7059
# 5 -12.3612 4.4980 -10.7488 0.0000 30.4723 0.0000
# 6 0.0000 0.0000 0.0000 -1.7059 0.0000 23.8471
#
#
#
# Elastic Compliance Matrix: (Units=1/GPa)
#
#
# Indices 1 2 3 4 5 6 
#
# 1 0.016319 -0.002658 -0.004963 0.000000 0.005262 0.000000
# 2 -0.002658 0.012570 -0.005169 0.000000 -0.004757 0.000000
# 3 -0.004963 -0.005169 0.019431 0.000000 0.005604 0.000000
# 4 0.000000 0.000000 0.000000 0.037351 0.000000 0.002672
# 5 0.005262 -0.004757 0.005604 0.000000 0.037630 0.000000
# 6 0.000000 0.000000 0.000000 0.002672 0.000000 0.042125
#
#
# Mechanical properties :
#
#
# Convention : Reuss Voigt Hill
#
# Bulk Modulus (GPa) = 43.97534 46.58248 45.27891
# Shear Modulus (GPa) = 25.17805 27.08284 26.13045
#
# Velocity S-wave (km/s) = 3.77225 3.91234 3.84293
# Velocity P-wave (km/s) = 6.62017 6.83634 6.72912
#
# Compressibility (1/GPa) = 0.02274002
#
# Stress axis : x y z
#
# Youngs Moduli (GPa) = 61.27954 79.55257 51.46381
#
# Poissons Ratio (x) = 0.21146 0.25540
# Poissons Ratio (y) = 0.16289 0.26602
# Poissons Ratio (z) = 0.30412 0.41122
#
# Static dielectric constant tensor:
#      x y z
#    x 3.273320 0.000000 -0.282240 
#    y 0.000000 3.627090 0.000000 
#    z -0.282240 0.000000 3.433590 
# 
# 
# High freq. dielectric constant tensor:
#      x y z
#    x 1.672470 0.000000 -0.043820 
#    y 0.000000 1.682170 0.000000 
#    z -0.043820 0.000000 1.671990 
# 
# From -- ./inp_files/21904.got.cif
#   From: 2010.06.25/outbox.cif.g09.slc.cpg/sg13_11_cif.got.tgz:21904.got - 2010.06.28 04:50:58.
