data_PCOD8117076
_publ_section_title
;
Structure prediction by ZEFSAII (Michael W. Deem and Ramdas Pophale) SiO2 
 PCOD8117076
Probable space group: P 2/C
;
_chemical_formula_sum "Si O2"
_cell_formula_units_Z 32
_cell_length_a 8.741288
_cell_length_b 5.412013
_cell_length_c 30.566742
_cell_angle_alpha 90.000000
_cell_angle_beta 88.620489
_cell_angle_gamma 90.000000
_cell_volume 1445.631220
_symmetry_space_group_name_H-M "P 2/C"
_symmetry_group_IT_number 13
_symmetry_cell_setting 'monoclinic'
loop_
_space_group_symop_operation_xyz
x,y,z
-x,y,1/2-z
-x,-y,-z
x,-y,1/2+z
loop_
_atom_site_type_symbol
_atom_site_label
_atom_site_fract_x
_atom_site_fract_y
_atom_site_fract_z
Si Si1 0.866195 0.374053 0.639532
Si Si2 0.822158 0.603053 0.238488
Si Si3 0.166119 0.894624 0.726243
Si Si4 0.772334 0.407378 0.478765
Si Si5 0.276912 0.861060 0.438648
Si Si6 0.948888 0.752194 0.571319
Si Si7 0.146785 0.936363 0.131999
Si Si8 0.634352 0.098193 0.941065
O O1 0.789366 0.407036 0.687084
O O2 0.768563 0.177432 0.611972
O O3 0.863756 0.625642 0.612624
O O4 0.043802 0.298021 0.646440
O O5 0.745620 0.354998 0.259452
O O6 0.000000 0.603287 0.250000
O O7 0.747022 0.854087 0.258863
O O8 0.000000 0.893553 0.750000
O O9 0.159436 0.884797 0.673708
O O10 0.772164 0.379902 0.531975
O O11 0.947789 0.426032 0.460070
O O12 0.683960 0.656466 0.467005
O O13 0.688620 0.157461 0.462696
O O14 0.453027 0.920426 0.442167
O O15 0.177367 0.097625 0.456136
O O16 0.068197 0.942753 0.590823
O O17 0.311493 0.866064 0.110140
#
# Coordination Sequence:
#
# PCOD8117076 Si02
#       8
#     4   4   4   4   4   4   4   4
#     4  11  21  37  60  92 128 155 207 260 320 370
#     4  10  19  31  55  88 116 151 194 253 305 364
#     4  10  18  30  56  87 115 145 201 250 303 355
#     4  11  24  44  65  89 126 170 226 261 310 382
#     4  11  26  39  62  94 127 175 207 270 324 383
#     4  10  22  38  62  91 127 162 209 268 318 364
#     4  10  20  38  59  94 119 163 208 260 306 376
#     4  11  25  43  65  90 127 172 219 260 318 387
#
# _framework density 22.135656999999998
#
# number of rings (size 3 to 8) (size 9 to 14) (size 15 to 20)
#    0.000    1.500    3.750    2.625    5.250    0.500 
#    0.000    0.000    0.000    0.750    0.000    0.000 
#    0.000    0.000    0.000    0.000    0.000    0.000 
#
# Total GULP energy -396597.459327 kJ/mol
# GULP energy per Si atom -12393.670604 kJ/mol
# Density = 2.208528 g / cm^3
# Si number density = 22.135657 Si / 1000 Ang^3
#
#
#
# Elastic Constant Matrix: (Units=GPa)
#
#
# Indices 1 2 3 4 5 6 
#
# 1 86.6958 25.7639 28.3981 0.0000 1.0557 0.0000
# 2 25.7639 129.6603 22.1683 0.0000 11.0684 0.0000
# 3 28.3981 22.1683 125.7492 0.0000 6.8738 0.0000
# 4 0.0000 0.0000 0.0000 30.2511 0.0000 -1.5567
# 5 1.0557 11.0684 6.8738 0.0000 15.2948 0.0000
# 6 0.0000 0.0000 0.0000 -1.5567 0.0000 12.1435
#
#
#
# Elastic Compliance Matrix: (Units=1/GPa)
#
#
# Indices 1 2 3 4 5 6 
#
# 1 0.013066 -0.002310 -0.002651 0.000000 0.001961 0.000000
# 2 -0.002310 0.008795 -0.000707 0.000000 -0.005887 0.000000
# 3 -0.002651 -0.000707 0.008855 0.000000 -0.003285 0.000000
# 4 0.000000 0.000000 0.000000 0.033276 0.000000 0.004266
# 5 0.001961 -0.005887 -0.003285 0.000000 0.070983 0.000000
# 6 0.000000 0.000000 0.000000 0.004266 0.000000 0.082895
#
#
# Mechanical properties :
#
#
# Convention : Reuss Voigt Hill
#
# Bulk Modulus (GPa) = 51.59962 54.97399 53.28680
# Shear Modulus (GPa) = 21.21650 29.25623 25.23636
#
# Velocity S-wave (km/s) = 3.09929 3.63943 3.38017
# Velocity P-wave (km/s) = 6.01404 6.52300 6.27369
#
# Compressibility (1/GPa) = 0.01937999
#
# Stress axis : x y z
#
# Youngs Moduli (GPa) = 76.53743 113.70120 112.92928
#
# Poissons Ratio (x) = 0.26270 0.29932
# Poissons Ratio (y) = 0.17683 0.07983
# Poissons Ratio (z) = 0.20286 0.08037
#
# Static dielectric constant tensor:
#      x y z
#    x 3.605800 0.000000 -0.085320 
#    y 0.000000 4.895270 0.000000 
#    z -0.085320 0.000000 4.261620 
# 
# 
# High freq. dielectric constant tensor:
#      x y z
#    x 1.817090 0.000000 -0.000680 
#    y 0.000000 1.889170 0.000000 
#    z -0.000680 0.000000 1.881640 
# 
# From -- ./inp_files/95649.got.cif
#   From: 2010.06.25/outbox.cif.g09.slc.cpg/sg13_48_cif.got.tgz:95649.got - 2010.06.28 04:50:58.
