data_PCOD8117310
_publ_section_title
;
Structure prediction by ZEFSAII (Michael W. Deem and Ramdas Pophale) SiO2 
 PCOD8117310
Probable space group: P 2/C
;
_chemical_formula_sum "Si O2"
_cell_formula_units_Z 20
_cell_length_a 17.132571
_cell_length_b 10.061592
_cell_length_c 8.662391
_cell_angle_alpha 90.000000
_cell_angle_beta 50.052710
_cell_angle_gamma 90.000000
_cell_volume 1144.763909
_symmetry_space_group_name_H-M "P 2/C"
_symmetry_group_IT_number 13
_symmetry_cell_setting 'monoclinic'
loop_
_space_group_symop_operation_xyz
x,y,z
-x,y,1/2-z
-x,-y,-z
x,-y,1/2+z
loop_
_atom_site_type_symbol
_atom_site_label
_atom_site_fract_x
_atom_site_fract_y
_atom_site_fract_z
Si Si1 0.608621 0.669373 0.552354
Si Si2 0.731292 0.104041 0.036654
Si Si3 0.275065 0.841024 0.606116
Si Si4 0.923680 0.047122 0.222675
Si Si5 0.606528 0.389773 0.693219
O O1 0.500000 0.725517 0.750000
O O2 0.696380 0.779226 0.464784
O O3 0.637668 0.540788 0.617239
O O4 0.601014 0.630116 0.383173
O O5 0.694446 0.143010 0.253957
O O6 0.853893 0.078161 0.872028
O O7 0.677559 0.966126 0.049474
O O8 0.310538 0.703931 0.489716
O O9 0.151982 0.839841 0.745746
O O10 0.000000 0.109904 0.250000
O O11 0.000000 0.000000 0.000000
O O12 0.500000 0.353509 0.750000
#
# Coordination Sequence:
#
# PCOD8117310 Si02
#       5
#     4   4   4   4   4
#     4  11  22  38  58  80 112 149 183 221 275 329
#     4  10  20  34  56  86 111 144 184 229 269 324
#     4  10  20  34  56  86 111 144 184 228 271 322
#     4  10  18  34  57  82 111 144 180 225 279 324
#     4  11  22  38  58  80 112 149 183 222 273 331
#
# _framework density 17.470852000000001
#
# number of rings (size 3 to 8) (size 9 to 14) (size 15 to 20)
#    1.200    0.400    2.000    6.000    2.800    0.800 
#    0.000    4.000    0.000    2.400    0.000    0.000 
#    0.000    0.000    0.000    0.000    0.000    0.000 
#
# Total GULP energy -247809.790041 kJ/mol
# GULP energy per Si atom -12390.489502 kJ/mol
# Density = 1.743109 g / cm^3
# Si number density = 17.470852 Si / 1000 Ang^3
#
#
#
# Elastic Constant Matrix: (Units=GPa)
#
#
# Indices 1 2 3 4 5 6 
#
# 1 88.5864 33.6140 12.6544 0.0000 8.7269 0.0000
# 2 33.6140 66.4843 14.1195 0.0000 -14.6244 0.0000
# 3 12.6544 14.1195 73.3879 0.0000 4.8453 0.0000
# 4 0.0000 0.0000 0.0000 27.7788 0.0000 8.9602
# 5 8.7269 -14.6244 4.8453 0.0000 37.5427 0.0000
# 6 0.0000 0.0000 0.0000 8.9602 0.0000 15.0943
#
#
#
# Elastic Compliance Matrix: (Units=1/GPa)
#
#
# Indices 1 2 3 4 5 6 
#
# 1 0.015631 -0.009411 -0.000406 0.000000 -0.007247 0.000000
# 2 -0.009411 0.023128 -0.003597 0.000000 0.011661 0.000000
# 3 -0.000406 -0.003597 0.014599 0.000000 -0.003191 0.000000
# 4 0.000000 0.000000 0.000000 0.044524 0.000000 -0.026430
# 5 -0.007247 0.011661 -0.003191 0.000000 0.033275 0.000000
# 6 0.000000 0.000000 0.000000 -0.026430 0.000000 0.081940
#
#
# Mechanical properties :
#
#
# Convention : Reuss Voigt Hill
#
# Bulk Modulus (GPa) = 37.69274 38.80384 38.24829
# Shear Modulus (GPa) = 20.09897 27.28787 23.69342
#
# Velocity S-wave (km/s) = 3.39548 3.95639 3.68661
# Velocity P-wave (km/s) = 6.08226 6.56730 6.32943
#
# Compressibility (1/GPa) = 0.02653031
#
# Stress axis : x y z
#
# Youngs Moduli (GPa) = 63.97406 43.23720 68.49797
#
# Poissons Ratio (x) = 0.40690 0.02783
# Poissons Ratio (y) = 0.60206 0.24638
# Poissons Ratio (z) = 0.02599 0.15552
#
# Static dielectric constant tensor:
#      x y z
#    x 4.187180 0.000000 0.366250 
#    y 0.000000 3.104680 0.000000 
#    z 0.366250 0.000000 3.281040 
# 
# 
# High freq. dielectric constant tensor:
#      x y z
#    x 1.680830 0.000000 0.019710 
#    y 0.000000 1.654320 0.000000 
#    z 0.019710 0.000000 1.679860 
# 
# From -- ./inp_files/20785.got.cif
#   From: 2010.06.25/outbox.cif.g09.slc.cpg/sg13_11_cif.got.tgz:20785.got - 2010.06.28 04:50:58.
