data_PCOD8117640
_publ_section_title
;
Structure prediction by ZEFSAII (Michael W. Deem and Ramdas Pophale) SiO2 
 PCOD8117640
Probable space group: P 2/C
;
_chemical_formula_sum "Si O2"
_cell_formula_units_Z 32
_cell_length_a 8.523789
_cell_length_b 13.106299
_cell_length_c 18.983550
_cell_angle_alpha 90.000000
_cell_angle_beta 50.912963
_cell_angle_gamma 90.000000
_cell_volume 1646.105699
_symmetry_space_group_name_H-M "P 2/C"
_symmetry_group_IT_number 13
_symmetry_cell_setting 'monoclinic'
loop_
_space_group_symop_operation_xyz
x,y,z
-x,y,1/2-z
-x,-y,-z
x,-y,1/2+z
loop_
_atom_site_type_symbol
_atom_site_label
_atom_site_fract_x
_atom_site_fract_y
_atom_site_fract_z
Si Si1 0.462491 0.386847 0.569939
Si Si2 0.101301 0.846833 0.289877
Si Si3 0.477856 0.788671 0.334273
Si Si4 0.987904 0.626596 0.363715
Si Si5 0.267804 0.564862 0.790502
Si Si6 0.554350 0.388267 0.394055
Si Si7 0.047864 0.889519 0.458293
Si Si8 0.159264 0.307029 0.451150
O O1 0.503256 0.297673 0.612571
O O2 0.608963 0.365466 0.460277
O O3 0.526152 0.493708 0.587503
O O4 0.232344 0.397022 0.606465
O O5 0.339011 0.869850 0.213117
O O6 0.075578 0.724365 0.298884
O O7 0.000860 0.893978 0.388051
O O8 0.000000 0.895924 0.250000
O O9 0.500000 0.737998 0.250000
O O10 0.277815 0.854039 0.403847
O O11 0.148518 0.537764 0.306239
O O12 0.987583 0.644021 0.448285
O O13 0.500000 0.545273 0.750000
O O14 0.268745 0.623541 0.714269
O O15 0.143735 0.632254 0.881940
O O16 0.383791 0.309058 0.418225
O O17 0.903105 0.810904 0.540948
O O18 0.000000 0.000000 0.500000
#
# Coordination Sequence:
#
# PCOD8117640 Si02
#       8
#     4   4   4   4   4   4   4   4
#     4  10  19  34  51  81 122 151 197 228 285 340
#     4  10  19  36  63  93 119 138 186 243 295 340
#     4  10  21  36  61  91 111 146 186 247 291 340
#     4  10  19  30  56  85 119 160 183 237 285 332
#     4  10  20  33  50  82 123 162 204 223 274 348
#     4   9  20  32  50  80 117 165 190 225 271 354
#     4  10  23  42  63  83 112 146 198 251 309 346
#     4   9  20  36  54  77 112 155 196 244 283 336
#
# _framework density 19.439820999999998
#
# number of rings (size 3 to 8) (size 9 to 14) (size 15 to 20)
#    0.000    2.250    1.250    1.125    0.000   13.000 
#    0.000    6.250    2.750    0.000    0.000    0.000 
#    0.000    0.000    0.000    0.000    0.000    0.000 
#
# Total GULP energy -396513.282986 kJ/mol
# GULP energy per Si atom -12391.040093 kJ/mol
# Density = 1.939557 g / cm^3
# Si number density = 19.439821 Si / 1000 Ang^3
#
#
#
# Elastic Constant Matrix: (Units=GPa)
#
#
# Indices 1 2 3 4 5 6 
#
# 1 86.5716 42.2442 45.5730 0.0000 12.0980 0.0000
# 2 42.2442 102.0539 47.1590 0.0000 -2.5822 0.0000
# 3 45.5730 47.1590 117.7861 0.0000 17.5920 0.0000
# 4 0.0000 0.0000 0.0000 17.9314 0.0000 2.2766
# 5 12.0980 -2.5822 17.5920 0.0000 34.0205 0.0000
# 6 0.0000 0.0000 0.0000 2.2766 0.0000 13.6770
#
#
#
# Elastic Compliance Matrix: (Units=1/GPa)
#
#
# Indices 1 2 3 4 5 6 
#
# 1 0.016704 -0.005335 -0.003662 0.000000 -0.004451 0.000000
# 2 -0.005335 0.014169 -0.004392 0.000000 0.005244 0.000000
# 3 -0.003662 -0.004392 0.012485 0.000000 -0.005487 0.000000
# 4 0.000000 0.000000 0.000000 0.056972 0.000000 -0.009483
# 5 -0.004451 0.005244 -0.005487 0.000000 0.034212 0.000000
# 6 0.000000 0.000000 0.000000 -0.009483 0.000000 0.074694
#
#
# Mechanical properties :
#
#
# Convention : Reuss Voigt Hill
#
# Bulk Modulus (GPa) = 60.31364 64.04045 62.17704
# Shear Modulus (GPa) = 20.70025 24.55479 22.62752
#
# Velocity S-wave (km/s) = 3.26673 3.55789 3.41541
# Velocity P-wave (km/s) = 6.73215 7.06347 6.89980
#
# Compressibility (1/GPa) = 0.01658000
#
# Stress axis : x y z
#
# Youngs Moduli (GPa) = 59.86458 70.57485 80.09603
#
# Poissons Ratio (x) = 0.37651 0.29334
# Poissons Ratio (y) = 0.31937 0.35179
# Poissons Ratio (z) = 0.21924 0.30998
#
# Static dielectric constant tensor:
#      x y z
#    x 3.682060 0.000000 0.139550 
#    y 0.000000 3.044720 0.000000 
#    z 0.139550 0.000000 4.008950 
# 
# 
# High freq. dielectric constant tensor:
#      x y z
#    x 1.754660 0.000000 0.012720 
#    y 0.000000 1.700500 0.000000 
#    z 0.012720 0.000000 1.779790 
# 
# From -- ./inp_files/76439.got.cif
#   From: 2010.06.25/outbox.cif.g09.slc.cpg/sg13_39_cif.got.tgz:76439.got - 2010.06.28 04:50:58.
