data_PCOD8117615
_publ_section_title
;
Structure prediction by ZEFSAII (Michael W. Deem and Ramdas Pophale) SiO2 
 PCOD8117615
Probable space group: P 2/C
;
_chemical_formula_sum "Si O2"
_cell_formula_units_Z 32
_cell_length_a 25.650849
_cell_length_b 11.480818
_cell_length_c 19.765319
_cell_angle_alpha 90.000000
_cell_angle_beta 161.138765
_cell_angle_gamma 90.000000
_cell_volume 1881.713671
_symmetry_space_group_name_H-M "P 2/C"
_symmetry_group_IT_number 13
_symmetry_cell_setting 'monoclinic'
loop_
_space_group_symop_operation_xyz
x,y,z
-x,y,1/2-z
-x,-y,-z
x,-y,1/2+z
loop_
_atom_site_type_symbol
_atom_site_label
_atom_site_fract_x
_atom_site_fract_y
_atom_site_fract_z
Si Si1 0.222691 0.941347 0.104855
Si Si2 0.011555 0.258972 0.189615
Si Si3 0.850076 0.369892 0.865097
Si Si4 0.655276 0.259265 0.977225
Si Si5 0.705758 0.174845 0.253765
Si Si6 0.180178 0.629858 0.695200
Si Si7 0.541445 0.058965 0.923651
Si Si8 0.390048 0.825431 0.438003
O O1 0.347300 0.930356 0.194708
O O2 0.305786 0.886198 0.271744
O O3 0.184137 0.077755 0.072889
O O4 0.057491 0.872600 0.887952
O O5 0.195048 0.253503 0.390008
O O6 0.000000 0.317320 0.250000
O O7 0.901761 0.335459 0.004550
O O8 0.778790 0.499850 0.778813
O O9 0.714438 0.285125 0.667249
O O10 0.998408 0.359718 0.996707
O O11 0.696033 0.335640 0.093273
O O12 0.500000 0.317657 0.750000
O O13 0.602979 0.127692 0.933377
O O14 0.808457 0.285590 0.355712
O O15 0.626200 0.114258 0.092140
O O16 0.567053 0.219371 0.134248
O O17 0.593381 0.922583 0.982164
#
# Coordination Sequence:
#
# PCOD8117615 Si02
#       8
#     4   4   4   4   4   4   4   4
#     4   8  14  26  43  64  90 114 139 175 220 268
#     4  10  19  30  46  67  91 119 150 188 234 281
#     4   9  18  31  46  66  92 122 158 197 232 269
#     4  10  19  30  46  67  91 119 150 188 234 281
#     4   8  14  25  43  66  89 113 141 178 221 263
#     4   9  18  31  46  66  92 122 158 197 232 269
#     4   8  14  26  43  64  90 114 139 175 220 268
#     4   8  14  25  43  66  89 113 141 178 221 263
#
# _framework density 17.005775
#
# number of rings (size 3 to 8) (size 9 to 14) (size 15 to 20)
#    0.000    3.250    0.000    2.250    0.000    2.500 
#    0.000    5.000    0.000    1.500    0.000    7.000 
#    0.000    0.000    0.000    0.000    0.000    0.000 
#
# Total GULP energy -396542.087247 kJ/mol
# GULP energy per Si atom -12391.940226 kJ/mol
# Density = 1.696707 g / cm^3
# Si number density = 17.005775 Si / 1000 Ang^3
#
#
#
# Elastic Constant Matrix: (Units=GPa)
#
#
# Indices 1 2 3 4 5 6 
#
# 1 70.8853 45.4891 28.7646 0.0000 8.5751 0.0000
# 2 45.4891 129.7469 43.8346 0.0000 11.9125 0.0000
# 3 28.7646 43.8346 68.2143 0.0000 9.2068 0.0000
# 4 0.0000 0.0000 0.0000 21.2512 0.0000 6.1370
# 5 8.5751 11.9125 9.2068 0.0000 16.6589 0.0000
# 6 0.0000 0.0000 0.0000 6.1370 0.0000 22.2369
#
#
#
# Elastic Compliance Matrix: (Units=1/GPa)
#
#
# Indices 1 2 3 4 5 6 
#
# 1 0.019631 -0.004981 -0.004532 0.000000 -0.004039 0.000000
# 2 -0.004981 0.011340 -0.004796 0.000000 -0.002894 0.000000
# 3 -0.004532 -0.004796 0.020396 0.000000 -0.005510 0.000000
# 4 0.000000 0.000000 0.000000 0.051131 0.000000 -0.014111
# 5 -0.004039 -0.002894 -0.005510 0.000000 0.067222 0.000000
# 6 0.000000 0.000000 0.000000 -0.014111 0.000000 0.048865
#
#
# Mechanical properties :
#
#
# Convention : Reuss Voigt Hill
#
# Bulk Modulus (GPa) = 43.95742 56.11366 50.03554
# Shear Modulus (GPa) = 19.62430 22.07996 20.85213
#
# Velocity S-wave (km/s) = 3.40071 3.60721 3.50548
# Velocity P-wave (km/s) = 6.42841 7.10055 6.77282
#
# Compressibility (1/GPa) = 0.02274929
#
# Stress axis : x y z
#
# Youngs Moduli (GPa) = 50.93905 88.18692 49.02810
#
# Poissons Ratio (x) = 0.43923 0.22222
# Poissons Ratio (y) = 0.25371 0.23513
# Poissons Ratio (z) = 0.23088 0.42294
#
# Static dielectric constant tensor:
#      x y z
#    x 3.161440 0.000000 0.101960 
#    y 0.000000 3.381690 0.000000 
#    z 0.101960 0.000000 3.143400 
# 
# 
# High freq. dielectric constant tensor:
#      x y z
#    x 1.641990 0.000000 0.017260 
#    y 0.000000 1.642490 0.000000 
#    z 0.017260 0.000000 1.639100 
# 
# From -- ./inp_files/82575.got.cif
#   From: 2010.06.25/outbox.cif.g09.slc.cpg/sg13_42_cif.got.tgz:82575.got - 2010.06.28 04:50:58.
