data_PCOD8117996
_publ_section_title
;
Structure prediction by ZEFSAII (Michael W. Deem and Ramdas Pophale) SiO2 
 PCOD8117996
Probable space group: P 2/C
;
_chemical_formula_sum "Si O2"
_cell_formula_units_Z 24
_cell_length_a 17.324497
_cell_length_b 8.875442
_cell_length_c 26.919499
_cell_angle_alpha 90.000000
_cell_angle_beta 162.449664
_cell_angle_gamma 90.000000
_cell_volume 1248.152476
_symmetry_space_group_name_H-M "P 2/C"
_symmetry_group_IT_number 13
_symmetry_cell_setting 'monoclinic'
loop_
_space_group_symop_operation_xyz
x,y,z
-x,y,1/2-z
-x,-y,-z
x,-y,1/2+z
loop_
_atom_site_type_symbol
_atom_site_label
_atom_site_fract_x
_atom_site_fract_y
_atom_site_fract_z
Si Si1 0.476006 0.155103 0.539266
Si Si2 0.000000 0.646719 0.750000
Si Si3 0.674521 0.429492 0.486319
Si Si4 0.685350 0.309011 0.761022
Si Si5 0.240536 0.363229 0.068284
Si Si6 0.500000 0.349575 0.750000
Si Si7 0.707742 0.825759 0.082237
O O1 0.562310 0.194369 0.647247
O O2 0.684098 0.209548 0.626403
O O3 0.220650 0.242829 0.365712
O O4 0.452376 0.975645 0.526610
O O5 0.102471 0.541189 0.857453
O O6 0.419817 0.521984 0.314251
O O7 0.778747 0.335495 0.502884
O O8 0.597199 0.312307 0.482031
O O9 0.594434 0.253170 0.760240
O O10 0.992061 0.302621 0.944549
O O11 0.500000 0.285699 0.250000
O O12 0.258637 0.544379 0.087029
O O13 0.000000 0.854950 0.250000
#
# Coordination Sequence:
#
# PCOD8117996 Si02
#       7
#     4   2   4   4   4   2   4
#     4  10  23  36  58  81 121 154 187 230 282 344
#     4  10  20  36  52  94 116 142 192 232 280 342
#     4  10  21  31  59  87 114 148 183 235 283 331
#     4  10  19  35  56  84 111 143 193 236 278 337
#     4   9  19  34  55  85 109 143 183 240 286 325
#     4   8  18  32  54  80 110 144 178 238 290 316
#     4  11  21  39  55  82 118 160 184 226 284 348
#
# _framework density 19.228418999999999
#
# number of rings (size 3 to 8) (size 9 to 14) (size 15 to 20)
#    0.500    1.667    1.667    1.500    2.333    1.333 
#    0.000    0.000    1.833    1.000    0.000    0.000 
#    0.000    0.000    0.000    0.000    0.000    0.000 
#
# Total GULP energy -297458.568230 kJ/mol
# GULP energy per Si atom -12394.107010 kJ/mol
# Density = 1.918465 g / cm^3
# Si number density = 19.228419 Si / 1000 Ang^3
#
#
#
# Elastic Constant Matrix: (Units=GPa)
#
#
# Indices 1 2 3 4 5 6 
#
# 1 148.2888 31.6111 41.8148 0.0000 -2.3789 0.0000
# 2 31.6111 60.5095 14.0704 0.0000 -6.0388 0.0000
# 3 41.8148 14.0704 95.8269 0.0000 9.7742 0.0000
# 4 0.0000 0.0000 0.0000 12.4634 0.0000 -0.1280
# 5 -2.3789 -6.0388 9.7742 0.0000 32.3970 0.0000
# 6 0.0000 0.0000 0.0000 -0.1280 0.0000 20.1505
#
#
#
# Elastic Compliance Matrix: (Units=1/GPa)
#
#
# Indices 1 2 3 4 5 6 
#
# 1 0.008434 -0.003556 -0.003254 0.000000 0.000938 0.000000
# 2 -0.003556 0.019147 -0.001648 0.000000 0.003805 0.000000
# 3 -0.003254 -0.001648 0.012539 0.000000 -0.004329 0.000000
# 4 0.000000 0.000000 0.000000 0.080240 0.000000 0.000510
# 5 0.000938 0.003805 -0.004329 0.000000 0.032951 0.000000
# 6 0.000000 0.000000 0.000000 0.000510 0.000000 0.049630
#
#
# Mechanical properties :
#
#
# Convention : Reuss Voigt Hill
#
# Bulk Modulus (GPa) = 43.09471 53.29087 48.19279
# Shear Modulus (GPa) = 21.96920 27.47743 24.72332
#
# Velocity S-wave (km/s) = 3.38381 3.78431 3.58965
# Velocity P-wave (km/s) = 6.14228 6.84613 6.50373
#
# Compressibility (1/GPa) = 0.02320470
#
# Stress axis : x y z
#
# Youngs Moduli (GPa) = 118.56475 52.22776 79.75195
#
# Poissons Ratio (x) = 0.18572 0.25951
# Poissons Ratio (y) = 0.42160 0.13142
# Poissons Ratio (z) = 0.38580 0.08606
#
# Static dielectric constant tensor:
#      x y z
#    x 3.752570 0.000000 -0.050550 
#    y 0.000000 3.199500 0.000000 
#    z -0.050550 0.000000 3.398220 
# 
# 
# High freq. dielectric constant tensor:
#      x y z
#    x 1.762650 0.000000 -0.002650 
#    y 0.000000 1.709430 0.000000 
#    z -0.002650 0.000000 1.741610 
# 
# From -- ./inp_files/93295.got.cif
#   From: 2010.06.25/outbox.cif.g09.slc.cpg/sg13_47_cif.got.tgz:93295.got - 2010.06.28 04:50:58.
