data_PCOD8117630
_publ_section_title
;
Structure prediction by ZEFSAII (Michael W. Deem and Ramdas Pophale) SiO2 
 PCOD8117630
Probable space group: P 2/C
;
_chemical_formula_sum "Si O2"
_cell_formula_units_Z 22
_cell_length_a 18.177669
_cell_length_b 15.781968
_cell_length_c 5.119252
_cell_angle_alpha 90.000000
_cell_angle_beta 87.826774
_cell_angle_gamma 90.000000
_cell_volume 1467.551591
_symmetry_space_group_name_H-M "P 2/C"
_symmetry_group_IT_number 13
_symmetry_cell_setting 'monoclinic'
loop_
_space_group_symop_operation_xyz
x,y,z
-x,y,1/2-z
-x,-y,-z
x,-y,1/2+z
loop_
_atom_site_type_symbol
_atom_site_label
_atom_site_fract_x
_atom_site_fract_y
_atom_site_fract_z
Si Si1 0.735829 0.558144 0.716027
Si Si2 0.081546 0.964647 0.422318
Si Si3 0.000000 0.442338 0.250000
Si Si4 0.866011 0.316786 0.259965
Si Si5 0.916527 0.228001 0.753913
Si Si6 0.574915 0.446342 0.312011
O O1 0.749921 0.509938 0.442561
O O2 0.787758 0.639324 0.728825
O O3 0.653191 0.598354 0.743673
O O4 0.080685 0.870172 0.316855
O O5 0.122088 0.976750 0.696051
O O6 0.000000 0.000000 0.500000
O O7 0.927604 0.387360 0.235488
O O8 0.000000 0.500000 0.500000
O O9 0.867994 0.274927 0.543997
O O10 0.879317 0.244521 0.039325
O O11 0.000000 0.264126 0.750000
O O12 0.500000 0.392410 0.250000
O O13 0.572023 0.472411 0.615935
#
# Coordination Sequence:
#
# PCOD8117630 Si02
#       6
#     4   4   2   4   4   4
#     4  10  19  33  47  60  84 115 149 184 217 254
#     4  10  19  30  50  66  80  97 128 175 212 265
#     4  12  22  32  42  52  70 104 152 190 208 228
#     4  12  23  33  44  59  83 112 146 181 220 247
#     4  12  21  34  46  63  82 106 139 182 215 253
#     4   8  14  25  44  66  82 100 133 178 219 254
#
# _framework density 14.990954
#
# number of rings (size 3 to 8) (size 9 to 14) (size 15 to 20)
#    0.000    1.455    3.636    4.364    2.545    0.000 
#    0.000    0.000    0.000    0.000    0.000    0.000 
#    0.000    0.000    0.000    0.000    0.000   18.182 
#
# Total GULP energy -272547.379793 kJ/mol
# GULP energy per Si atom -12388.517263 kJ/mol
# Density = 1.495683 g / cm^3
# Si number density = 14.990954 Si / 1000 Ang^3
#
#
#
# Elastic Constant Matrix: (Units=GPa)
#
#
# Indices 1 2 3 4 5 6 
#
# 1 98.7207 30.0077 14.4529 0.0000 0.3887 0.0000
# 2 30.0077 65.3762 23.8458 0.0000 1.4147 0.0000
# 3 14.4529 23.8458 105.5797 0.0000 9.2881 0.0000
# 4 0.0000 0.0000 0.0000 29.0271 0.0000 0.2701
# 5 0.3887 1.4147 9.2881 0.0000 17.9190 0.0000
# 6 0.0000 0.0000 0.0000 0.2701 0.0000 15.6504
#
#
#
# Elastic Compliance Matrix: (Units=1/GPa)
#
#
# Indices 1 2 3 4 5 6 
#
# 1 0.011792 -0.005252 -0.000463 0.000000 0.000399 0.000000
# 2 -0.005252 0.019016 -0.003619 0.000000 0.000488 0.000000
# 3 -0.000463 -0.003619 0.010820 0.000000 -0.005312 0.000000
# 4 0.000000 0.000000 0.000000 0.034456 0.000000 -0.000595
# 5 0.000399 0.000488 -0.005312 0.000000 0.058513 0.000000
# 6 0.000000 0.000000 0.000000 -0.000595 0.000000 0.063906
#
#
# Mechanical properties :
#
#
# Convention : Reuss Voigt Hill
#
# Bulk Modulus (GPa) = 43.55491 45.14327 44.34909
# Shear Modulus (GPa) = 22.23940 25.94397 24.09169
#
# Velocity S-wave (km/s) = 3.85583 4.16461 4.01319
# Velocity P-wave (km/s) = 6.99574 7.30098 7.14999
#
# Compressibility (1/GPa) = 0.02295952
#
# Stress axis : x y z
#
# Youngs Moduli (GPa) = 84.80056 52.58622 92.42477
#
# Poissons Ratio (x) = 0.27621 0.04280
# Poissons Ratio (y) = 0.44541 0.33448
# Poissons Ratio (z) = 0.03927 0.19031
#
# Static dielectric constant tensor:
#      x y z
#    x 1.505620 0.000000 -4.848130 
#    y 0.000000 2.681340 0.000000 
#    z -4.848130 0.000000 -13.430870 
# 
# 
# High freq. dielectric constant tensor:
#      x y z
#    x 1.545470 0.000000 0.010410 
#    y 0.000000 1.534870 0.000000 
#    z 0.010410 0.000000 1.612390 
# 
# From -- ./inp_files/6054.got.cif
#   From: 2010.06.25/outbox.cif.g09.slc.cpg/sg13_4_cif.got.tgz:6054.got - 2010.06.28 04:50:58.
