data_PCOD8117903
_publ_section_title
;
Structure prediction by ZEFSAII (Michael W. Deem and Ramdas Pophale) SiO2 
 PCOD8117903
Probable space group: P 2/C
;
_chemical_formula_sum "Si O2"
_cell_formula_units_Z 20
_cell_length_a 12.216484
_cell_length_b 14.137755
_cell_length_c 12.595470
_cell_angle_alpha 90.000000
_cell_angle_beta 27.214880
_cell_angle_gamma 90.000000
_cell_volume 994.877717
_symmetry_space_group_name_H-M "P 2/C"
_symmetry_group_IT_number 13
_symmetry_cell_setting 'monoclinic'
loop_
_space_group_symop_operation_xyz
x,y,z
-x,y,1/2-z
-x,-y,-z
x,-y,1/2+z
loop_
_atom_site_type_symbol
_atom_site_label
_atom_site_fract_x
_atom_site_fract_y
_atom_site_fract_z
Si Si1 0.606343 0.859369 0.943626
Si Si2 0.751318 0.499827 0.155869
Si Si3 0.000000 0.061896 0.250000
Si Si4 0.000000 0.438104 0.250000
Si Si5 0.393658 0.359369 0.056374
Si Si6 0.751318 0.000174 0.155869
O O1 0.856993 0.873124 0.789866
O O2 0.607901 0.909222 0.825561
O O3 0.553174 0.750000 0.971814
O O4 0.391399 0.903624 0.197352
O O5 0.607899 0.409223 0.325563
O O6 0.608601 0.596376 0.302646
O O7 0.000000 0.500000 0.000000
O O8 0.807520 0.496359 0.980609
O O9 0.807520 0.996359 0.480609
O O10 0.856994 0.373123 0.289865
O O11 0.000000 0.000000 0.000000
#
# Coordination Sequence:
#
# PCOD8117903 Si02
#       6
#     4   4   2   2   4   4
#     4  10  20  35  56  81 108 139 176 218 264 314
#     4   9  20  35  52  77 111 142 173 216 264 312
#     4  10  19  34  57  82 108 138 173 218 265 314
#     4  10  19  34  57  82 108 138 173 218 265 314
#     4  10  20  35  56  81 108 139 176 218 264 314
#     4   9  20  35  52  77 111 142 173 216 264 312
#
# _framework density 20.102972999999999
#
# number of rings (size 3 to 8) (size 9 to 14) (size 15 to 20)
#    0.000    2.400    0.000    1.800    0.000    9.600 
#    0.000    1.000    0.000   31.200    0.000    0.000 
#    0.000    0.000    0.000    0.000    0.000    0.000 
#
# Total GULP energy -247850.778730 kJ/mol
# GULP energy per Si atom -12392.538936 kJ/mol
# Density = 2.005722 g / cm^3
# Si number density = 20.102973 Si / 1000 Ang^3
#
#
#
# Elastic Constant Matrix: (Units=GPa)
#
#
# Indices 1 2 3 4 5 6 
#
# 1 37.1804 47.0610 24.4348 0.0000 17.2214 0.0000
# 2 47.0610 159.5338 69.3971 0.0000 23.1045 0.0000
# 3 24.4348 69.3971 148.7593 0.0000 39.8677 0.0000
# 4 0.0000 0.0000 0.0000 16.5587 0.0000 -5.9507
# 5 17.2214 23.1045 39.8677 0.0000 51.9404 0.0000
# 6 0.0000 0.0000 0.0000 -5.9507 0.0000 20.8100
#
#
#
# Elastic Compliance Matrix: (Units=1/GPa)
#
#
# Indices 1 2 3 4 5 6 
#
# 1 0.047594 -0.012962 0.001149 0.000000 -0.010897 0.000000
# 2 -0.012962 0.011425 -0.003765 0.000000 0.002105 0.000000
# 3 0.001149 -0.003765 0.010000 0.000000 -0.006382 0.000000
# 4 0.000000 0.000000 0.000000 0.067308 0.000000 0.019247
# 5 -0.010897 0.002105 -0.006382 0.000000 0.026828 0.000000
# 6 0.000000 0.000000 0.000000 0.019247 0.000000 0.053558
#
#
# Mechanical properties :
#
#
# Convention : Reuss Voigt Hill
#
# Bulk Modulus (GPa) = 26.40987 69.69546 48.05266
# Shear Modulus (GPa) = 19.19472 31.50051 25.34762
#
# Velocity S-wave (km/s) = 3.09337 3.96278 3.55475
# Velocity P-wave (km/s) = 5.09160 7.46208 6.38776
#
# Compressibility (1/GPa) = 0.03786464
#
# Stress axis : x y z
#
# Youngs Moduli (GPa) = 21.01108 87.53027 99.99748
#
# Poissons Ratio (x) = 1.13453 -0.11493
# Poissons Ratio (y) = 0.27234 0.37648
# Poissons Ratio (z) = -0.02415 0.32954
#
# Static dielectric constant tensor:
#      x y z
#    x 3.953700 0.000000 0.524410 
#    y 0.000000 3.414530 0.000000 
#    z 0.524410 0.000000 4.513680 
# 
# 
# High freq. dielectric constant tensor:
#      x y z
#    x 1.775930 0.000000 0.001440 
#    y 0.000000 1.742870 0.000000 
#    z 0.001440 0.000000 1.815210 
# 
# From -- ./inp_files/26041.got.cif
#   From: 2010.06.25/outbox.cif.g09.slc.cpg/sg13_14_cif.got.tgz:26041.got - 2010.06.28 04:50:58.
