data_PCOD8117808
_publ_section_title
;
Structure prediction by ZEFSAII (Michael W. Deem and Ramdas Pophale) SiO2 
 PCOD8117808
Probable space group: P 2/C
;
_chemical_formula_sum "Si O2"
_cell_formula_units_Z 20
_cell_length_a 6.616185
_cell_length_b 22.027881
_cell_length_c 5.304963
_cell_angle_alpha 90.000000
_cell_angle_beta 75.133045
_cell_angle_gamma 90.000000
_cell_volume 747.266412
_symmetry_space_group_name_H-M "P 2/C"
_symmetry_group_IT_number 13
_symmetry_cell_setting 'monoclinic'
loop_
_space_group_symop_operation_xyz
x,y,z
-x,y,1/2-z
-x,-y,-z
x,-y,1/2+z
loop_
_atom_site_type_symbol
_atom_site_label
_atom_site_fract_x
_atom_site_fract_y
_atom_site_fract_z
Si Si1 0.233294 0.975297 0.964482
Si Si2 0.734051 0.330119 0.225261
Si Si3 0.630341 0.152593 0.954178
Si Si4 0.758811 0.471325 0.305526
Si Si5 0.259274 0.721338 0.274257
O O1 0.221627 0.903610 0.021264
O O2 0.347722 0.011851 0.159038
O O3 0.000000 0.000000 0.000000
O O4 0.500000 0.305417 0.250000
O O5 0.733464 0.399480 0.308889
O O6 0.846965 0.292999 0.419076
O O7 0.845594 0.318984 0.917335
O O8 0.500000 0.132267 0.750000
O O9 0.767742 0.209670 0.814920
O O10 0.500000 0.170292 0.250000
O O11 0.651437 0.500298 0.589257
O O12 0.000000 0.490572 0.250000
O O13 0.500000 0.703831 0.250000
#
# Coordination Sequence:
#
# PCOD8117808 Si02
#       5
#     4   4   4   4   4
#     4  10  22  39  58  80 117 160 185 233 291 351
#     4  10  19  33  56  81 112 144 181 230 283 335
#     4  11  21  35  60  90 115 147 199 243 282 349
#     4  10  21  36  54  77 110 152 189 232 278 328
#     4   9  18  33  53  82 110 143 177 229 289 330
#
# _framework density 26.764219000000001
#
# number of rings (size 3 to 8) (size 9 to 14) (size 15 to 20)
#    0.000    2.000    0.000    5.400    0.000    3.200 
#    0.000    0.000   13.200    0.000    0.000    0.000 
#    0.000    0.000    0.000    0.000    0.000    0.000 
#
# Total GULP energy -247846.106945 kJ/mol
# GULP energy per Si atom -12392.305347 kJ/mol
# Density = 2.670330 g / cm^3
# Si number density = 26.764219 Si / 1000 Ang^3
#
#
#
# Elastic Constant Matrix: (Units=GPa)
#
#
# Indices 1 2 3 4 5 6 
#
# 1 42.4185 -2.3634 54.7577 0.0000 17.0736 0.0000
# 2 -2.3634 220.0464 117.0492 0.0000 0.5508 0.0000
# 3 54.7577 117.0492 319.3015 0.0000 15.1109 0.0000
# 4 0.0000 0.0000 0.0000 62.9349 0.0000 9.9934
# 5 17.0736 0.5508 15.1109 0.0000 46.2210 0.0000
# 6 0.0000 0.0000 0.0000 9.9934 0.0000 33.5164
#
#
#
# Elastic Compliance Matrix: (Units=1/GPa)
#
#
# Indices 1 2 3 4 5 6 
#
# 1 0.038524 0.004548 -0.007717 0.000000 -0.011762 0.000000
# 2 0.004548 0.006200 -0.003016 0.000000 -0.000768 0.000000
# 3 -0.007717 -0.003016 0.005510 0.000000 0.001085 0.000000
# 4 0.000000 0.000000 0.000000 0.016679 0.000000 -0.004973
# 5 -0.011762 -0.000768 0.001085 0.000000 0.025634 0.000000
# 6 0.000000 0.000000 0.000000 -0.004973 0.000000 0.031319
#
#
# Mechanical properties :
#
#
# Convention : Reuss Voigt Hill
#
# Bulk Modulus (GPa) = 26.41102 102.29482 64.35292
# Shear Modulus (GPa) = 33.58911 56.02265 44.80588
#
# Velocity S-wave (km/s) = 3.54644 4.58010 4.09601
# Velocity P-wave (km/s) = 5.16325 8.14086 6.81662
#
# Compressibility (1/GPa) = 0.03786298
#
# Stress axis : x y z
#
# Youngs Moduli (GPa) = 25.95762 161.29666 181.49947
#
# Poissons Ratio (x) = -0.73362 1.40068
# Poissons Ratio (y) = -0.11806 0.54747
# Poissons Ratio (z) = 0.20032 0.48653
#
# Static dielectric constant tensor:
#      x y z
#    x 3.333530 0.000000 2.727040 
#    y 0.000000 4.426270 0.000000 
#    z 2.727040 0.000000 1.042330 
# 
# 
# High freq. dielectric constant tensor:
#      x y z
#    x 2.085870 0.000000 0.010680 
#    y 0.000000 2.054810 0.000000 
#    z 0.010680 0.000000 2.128940 
# 
# From -- ./inp_files/2094.got.cif
#   From: 2010.06.25/outbox.cif.g09.slc.cpg/sg13_2_cif.got.tgz:2094.got - 2010.06.28 04:50:58.
