data_PCOD8117069
_publ_section_title
;
Structure prediction by ZEFSAII (Michael W. Deem and Ramdas Pophale) SiO2 
 PCOD8117069
Probable space group: P 2/C
;
_chemical_formula_sum "Si O2"
_cell_formula_units_Z 22
_cell_length_a 18.175875
_cell_length_b 13.601555
_cell_length_c 9.453306
_cell_angle_alpha 90.000000
_cell_angle_beta 31.072805
_cell_angle_gamma 90.000000
_cell_volume 1206.213148
_symmetry_space_group_name_H-M "P 2/C"
_symmetry_group_IT_number 13
_symmetry_cell_setting 'monoclinic'
loop_
_space_group_symop_operation_xyz
x,y,z
-x,y,1/2-z
-x,-y,-z
x,-y,1/2+z
loop_
_atom_site_type_symbol
_atom_site_label
_atom_site_fract_x
_atom_site_fract_y
_atom_site_fract_z
Si Si1 0.306780 0.392034 0.989231
Si Si2 0.838254 0.278582 0.488216
Si Si3 0.395480 0.873198 0.180650
Si Si4 0.500000 0.006207 0.250000
Si Si5 0.334489 0.386515 0.491617
Si Si6 0.418817 0.310309 0.075253
O O1 0.169060 0.361287 0.124059
O O2 0.444929 0.384723 0.658330
O O3 0.289934 0.499954 0.082147
O O4 0.331825 0.311959 0.071769
O O5 0.754970 0.182596 0.571469
O O6 0.765886 0.320130 0.747915
O O7 0.000000 0.249416 0.250000
O O8 0.396825 0.942685 0.317133
O O9 0.529849 0.799415 0.973248
O O10 0.405507 0.929126 0.013715
O O11 0.310113 0.351136 0.371444
O O12 0.500000 0.366986 0.250000
#
# Coordination Sequence:
#
# PCOD8117069 Si02
#       6
#     4   4   4   2   4   4
#     4  10  19  31  54  82 111 144 188 224 259 294
#     4  11  24  38  52  76 118 153 175 214 273 329
#     4  10  19  35  55  82 108 129 172 222 284 319
#     4  10  20  34  62  86  98 122 176 242 272 324
#     4  12  18  32  57  84 108 145 193 226 250 299
#     4  10  18  30  55  85 108 136 179 236 266 303
#
# _framework density 18.238899
#
# number of rings (size 3 to 8) (size 9 to 14) (size 15 to 20)
#    0.000    1.455    5.455    4.909    0.000    0.727 
#    0.000    1.818    0.000    0.000    0.000    0.000 
#    0.000    0.000    0.000    0.000    0.000    0.000 
#
# Total GULP energy -272753.771981 kJ/mol
# GULP energy per Si atom -12397.898726 kJ/mol
# Density = 1.819739 g / cm^3
# Si number density = 18.238899 Si / 1000 Ang^3
#
#
#
# Elastic Constant Matrix: (Units=GPa)
#
#
# Indices 1 2 3 4 5 6 
#
# 1 109.2431 36.6474 60.4707 0.0000 8.5652 0.0000
# 2 36.6474 89.7708 38.6874 0.0000 5.8573 0.0000
# 3 60.4707 38.6874 72.4318 0.0000 1.6223 0.0000
# 4 0.0000 0.0000 0.0000 19.2845 0.0000 9.1421
# 5 8.5652 5.8573 1.6223 0.0000 27.3538 0.0000
# 6 0.0000 0.0000 0.0000 9.1421 0.0000 33.1777
#
#
#
# Elastic Compliance Matrix: (Units=1/GPa)
#
#
# Indices 1 2 3 4 5 6 
#
# 1 0.017630 -0.000784 -0.014199 0.000000 -0.004511 0.000000
# 2 -0.000784 0.014699 -0.007141 0.000000 -0.002478 0.000000
# 3 -0.014199 -0.007141 0.029380 0.000000 0.004233 0.000000
# 4 0.000000 0.000000 0.000000 0.059647 0.000000 -0.016436
# 5 -0.004511 -0.002478 0.004233 0.000000 0.038250 0.000000
# 6 0.000000 0.000000 0.000000 -0.016436 0.000000 0.034670
#
#
# Mechanical properties :
#
#
# Convention : Reuss Voigt Hill
#
# Bulk Modulus (GPa) = 57.27118 60.33964 58.80541
# Shear Modulus (GPa) = 20.46296 25.00587 22.73442
#
# Velocity S-wave (km/s) = 3.35317 3.70674 3.53438
# Velocity P-wave (km/s) = 6.81619 7.17459 6.99768
#
# Compressibility (1/GPa) = 0.01746079
#
# Stress axis : x y z
#
# Youngs Moduli (GPa) = 56.72024 68.03364 34.03674
#
# Poissons Ratio (x) = 0.05332 0.48330
# Poissons Ratio (y) = 0.04445 0.24306
# Poissons Ratio (z) = 0.80539 0.48583
#
# Static dielectric constant tensor:
#      x y z
#    x 3.602820 0.000000 0.323510 
#    y 0.000000 3.434070 0.000000 
#    z 0.323510 0.000000 3.063140 
# 
# 
# High freq. dielectric constant tensor:
#      x y z
#    x 1.718380 0.000000 0.037550 
#    y 0.000000 1.706760 0.000000 
#    z 0.037550 0.000000 1.660020 
# 
# From -- ./inp_files/21919.got.cif
#   From: 2010.06.25/outbox.cif.g09.slc.cpg/sg13_11_cif.got.tgz:21919.got - 2010.06.28 04:50:58.
