data_PCOD8117257
_publ_section_title
;
Structure prediction by ZEFSAII (Michael W. Deem and Ramdas Pophale) SiO2 
 PCOD8117257
Probable space group: P 2/C
;
_chemical_formula_sum "Si O2"
_cell_formula_units_Z 32
_cell_length_a 13.660019
_cell_length_b 17.595331
_cell_length_c 17.076010
_cell_angle_alpha 90.000000
_cell_angle_beta 23.272688
_cell_angle_gamma 90.000000
_cell_volume 1621.625563
_symmetry_space_group_name_H-M "P 2/C"
_symmetry_group_IT_number 13
_symmetry_cell_setting 'monoclinic'
loop_
_space_group_symop_operation_xyz
x,y,z
-x,y,1/2-z
-x,-y,-z
x,-y,1/2+z
loop_
_atom_site_type_symbol
_atom_site_label
_atom_site_fract_x
_atom_site_fract_y
_atom_site_fract_z
Si Si1 0.669421 0.718160 0.349999
Si Si2 0.631049 0.175669 0.233846
Si Si3 0.775997 0.869746 0.357087
Si Si4 0.285575 0.207852 0.846258
Si Si5 0.819178 0.286950 0.212045
Si Si6 0.237755 0.564016 0.131573
Si Si7 0.102932 0.923263 0.388243
Si Si8 0.803859 0.544888 0.698682
O O1 0.799712 0.784823 0.304301
O O2 0.712031 0.731421 0.226641
O O3 0.372785 0.717697 0.575779
O O4 0.771733 0.637988 0.305504
O O5 0.500000 0.194663 0.250000
O O6 0.473417 0.122646 0.408786
O O7 0.684425 0.257654 0.232024
O O8 0.878797 0.131869 0.031945
O O9 0.762874 0.931691 0.295257
O O10 0.000000 0.888290 0.250000
O O11 0.500000 0.219613 0.750000
O O12 0.282635 0.120415 0.817644
O O13 0.036073 0.228495 0.076471
O O14 0.917894 0.371356 0.123576
O O15 0.195787 0.490911 0.215818
O O16 0.000000 0.569715 0.250000
O O17 0.509186 0.553411 0.888487
O O18 0.000000 0.000000 0.500000
O O19 0.000000 0.500000 0.500000
#
# Coordination Sequence:
#
# PCOD8117257 Si02
#       8
#     4   4   4   4   4   4   4   4
#     4   9  19  36  60  86 120 145 193 258 291 350
#     4  10  19  35  61  87 115 144 191 244 294 351
#     4  10  18  33  58  89 114 147 188 230 299 348
#     4  10  21  39  59  85 112 158 204 235 291 358
#     4   9  20  38  55  84 115 151 194 249 295 347
#     4  10  21  39  61  87 121 161 200 251 315 366
#     4  10  22  38  58  85 124 151 186 242 288 355
#     4  10  21  40  55  83 127 154 201 248 304 370
#
# _framework density 19.733284999999999
#
# number of rings (size 3 to 8) (size 9 to 14) (size 15 to 20)
#    0.000    2.250    1.250    1.125    0.000    2.000 
#   15.750    0.000    0.000    0.000    0.000    0.000 
#    0.000    0.000    0.000    0.000    0.000    0.000 
#
# Total GULP energy -396520.694451 kJ/mol
# GULP energy per Si atom -12391.271702 kJ/mol
# Density = 1.968837 g / cm^3
# Si number density = 19.733285 Si / 1000 Ang^3
#
#
#
# Elastic Constant Matrix: (Units=GPa)
#
#
# Indices 1 2 3 4 5 6 
#
# 1 108.1811 27.7139 36.3058 0.0000 -11.4870 0.0000
# 2 27.7139 82.6650 24.0234 0.0000 11.7706 0.0000
# 3 36.3058 24.0234 91.1005 0.0000 -0.5484 0.0000
# 4 0.0000 0.0000 0.0000 30.3357 0.0000 6.2444
# 5 -11.4870 11.7706 -0.5484 0.0000 27.3057 0.0000
# 6 0.0000 0.0000 0.0000 6.2444 0.0000 17.0647
#
#
#
# Elastic Compliance Matrix: (Units=1/GPa)
#
#
# Indices 1 2 3 4 5 6 
#
# 1 0.012257 -0.003973 -0.003796 0.000000 0.006793 0.000000
# 2 -0.003973 0.015347 -0.002514 0.000000 -0.008337 0.000000
# 3 -0.003796 -0.002514 0.013151 0.000000 -0.000249 0.000000
# 4 0.000000 0.000000 0.000000 0.035650 0.000000 -0.013045
# 5 0.006793 -0.008337 -0.000249 0.000000 0.043069 0.000000
# 6 0.000000 0.000000 0.000000 -0.013045 0.000000 0.063374
#
#
# Mechanical properties :
#
#
# Convention : Reuss Voigt Hill
#
# Bulk Modulus (GPa) = 49.53261 50.89254 50.21258
# Shear Modulus (GPa) = 23.79331 27.86811 25.83071
#
# Velocity S-wave (km/s) = 3.47615 3.76205 3.62192
# Velocity P-wave (km/s) = 6.42394 6.68707 6.55683
#
# Compressibility (1/GPa) = 0.02018872
#
# Stress axis : x y z
#
# Youngs Moduli (GPa) = 81.58701 65.16039 76.03940
#
# Poissons Ratio (x) = 0.25890 0.28865
# Poissons Ratio (y) = 0.32416 0.19114
# Poissons Ratio (z) = 0.30971 0.16380
#
# Static dielectric constant tensor:
#      x y z
#    x 3.385570 0.000000 0.057420 
#    y 0.000000 3.618240 0.000000 
#    z 0.057420 0.000000 4.059970 
# 
# 
# High freq. dielectric constant tensor:
#      x y z
#    x 1.746750 0.000000 0.003490 
#    y 0.000000 1.758460 0.000000 
#    z 0.003490 0.000000 1.789450 
# 
# From -- ./inp_files/51653.got.cif
#   From: 2010.06.25/outbox.cif.g09.slc.cpg/sg13_26_cif.got.tgz:51653.got - 2010.06.28 04:50:58.
