data_PCOD8117551
_publ_section_title
;
Structure prediction by ZEFSAII (Michael W. Deem and Ramdas Pophale) SiO2 
 PCOD8117551
Probable space group: P 2/C
;
_chemical_formula_sum "Si O2"
_cell_formula_units_Z 32
_cell_length_a 7.890532
_cell_length_b 15.501246
_cell_length_c 10.964134
_cell_angle_alpha 90.000000
_cell_angle_beta 92.523605
_cell_angle_gamma 90.000000
_cell_volume 1339.756370
_symmetry_space_group_name_H-M "P 2/C"
_symmetry_group_IT_number 13
_symmetry_cell_setting 'monoclinic'
loop_
_space_group_symop_operation_xyz
x,y,z
-x,y,1/2-z
-x,-y,-z
x,-y,1/2+z
loop_
_atom_site_type_symbol
_atom_site_label
_atom_site_fract_x
_atom_site_fract_y
_atom_site_fract_z
Si Si1 0.821390 0.980864 0.800067
Si Si2 0.353705 0.835667 0.840955
Si Si3 0.683267 0.475902 0.370106
Si Si4 0.172090 0.306894 0.207303
Si Si5 0.693095 0.555148 0.134346
Si Si6 0.810758 0.264237 0.704307
Si Si7 0.717903 0.850198 0.408258
Si Si8 0.908993 0.836663 0.987256
O O1 0.735077 0.926444 0.690618
O O2 0.836669 0.922143 0.921557
O O3 0.000000 0.013970 0.750000
O O4 0.702178 0.061513 0.831397
O O5 0.500000 0.818873 0.750000
O O6 0.232349 0.752977 0.821199
O O7 0.418449 0.840362 0.984820
O O8 0.684344 0.375421 0.329581
O O9 0.785724 0.523360 0.262643
O O10 0.498697 0.519325 0.369499
O O11 0.770511 0.481370 0.508087
O O12 0.126323 0.247538 0.092283
O O13 0.000000 0.353765 0.250000
O O14 0.707289 0.658572 0.136703
O O15 0.704187 0.231812 0.818270
O O16 0.822474 0.181422 0.615412
O O17 0.000000 0.294322 0.750000
O O18 0.892747 0.851608 0.488636
#
# Coordination Sequence:
#
# PCOD8117551 Si02
#       8
#     4   4   4   4   4   4   4   4
#     4  11  21  38  70  98 133 179 235 282 332 398
#     4  11  25  41  60  95 143 180 226 279 336 402
#     4  10  23  42  72  95 131 172 226 280 353 415
#     4  11  21  42  70  98 124 173 225 281 338 406
#     4  10  22  45  63  99 135 174 222 282 346 432
#     4  10  22  38  65 101 139 178 222 287 348 408
#     4  11  22  38  66  99 133 183 228 284 336 396
#     4  10  18  38  64 100 135 167 225 286 331 397
#
# _framework density 23.884938999999999
#
# number of rings (size 3 to 8) (size 9 to 14) (size 15 to 20)
#    0.000    1.500    3.750    2.250    3.500    2.000 
#    4.500    1.250    2.750    0.000    0.000    0.000 
#    0.000    0.000    0.000    0.000    0.000    0.000 
#
# Total GULP energy -396439.438356 kJ/mol
# GULP energy per Si atom -12388.732449 kJ/mol
# Density = 2.383058 g / cm^3
# Si number density = 23.884939 Si / 1000 Ang^3
#
#
#
# Elastic Constant Matrix: (Units=GPa)
#
#
# Indices 1 2 3 4 5 6 
#
# 1 45.7191 27.0330 14.5496 0.0000 -14.5637 0.0000
# 2 27.0330 110.5390 46.5869 0.0000 -10.5100 0.0000
# 3 14.5496 46.5869 199.4103 0.0000 -29.0961 0.0000
# 4 0.0000 0.0000 0.0000 23.6058 0.0000 -7.9921
# 5 -14.5637 -10.5100 -29.0961 0.0000 25.6855 0.0000
# 6 0.0000 0.0000 0.0000 -7.9921 0.0000 25.1868
#
#
#
# Elastic Compliance Matrix: (Units=1/GPa)
#
#
# Indices 1 2 3 4 5 6 
#
# 1 0.030507 -0.006618 0.001736 0.000000 0.016556 0.000000
# 2 -0.006618 0.011536 -0.002481 0.000000 -0.001843 0.000000
# 3 0.001736 -0.002481 0.006545 0.000000 0.007383 0.000000
# 4 0.000000 0.000000 0.000000 0.047461 0.000000 0.015060
# 5 0.016556 -0.001843 0.007383 0.000000 0.055929 0.000000
# 6 0.000000 0.000000 0.000000 0.015060 0.000000 0.044482
#
#
# Mechanical properties :
#
#
# Convention : Reuss Voigt Hill
#
# Bulk Modulus (GPa) = 29.53208 59.11194 44.32201
# Shear Modulus (GPa) = 22.47451 32.72889 27.60170
#
# Velocity S-wave (km/s) = 3.07082 3.70574 3.40312
# Velocity P-wave (km/s) = 4.99644 6.56600 5.83424
#
# Compressibility (1/GPa) = 0.03386149
#
# Stress axis : x y z
#
# Youngs Moduli (GPa) = 32.77888 86.68883 152.78774
#
# Poissons Ratio (x) = 0.57373 -0.26524
# Poissons Ratio (y) = 0.21694 0.37906
# Poissons Ratio (z) = -0.05690 0.21507
#
# Static dielectric constant tensor:
#      x y z
#    x 4.026040 0.000000 -0.085550 
#    y 0.000000 4.199430 0.000000 
#    z -0.085550 0.000000 5.210690 
# 
# 
# High freq. dielectric constant tensor:
#      x y z
#    x 1.901110 0.000000 -0.014180 
#    y 0.000000 1.941460 0.000000 
#    z -0.014180 0.000000 1.977650 
# 
# From -- ./inp_files/30412.got.cif
#   From: 2010.06.25/outbox.cif.g09.slc.cpg/sg13_16_cif.got.tgz:30412.got - 2010.06.28 04:50:58.
