data_PCOD8117698
_publ_section_title
;
Structure prediction by ZEFSAII (Michael W. Deem and Ramdas Pophale) SiO2 
 PCOD8117698
Probable space group: P 2/C
;
_chemical_formula_sum "Si O2"
_cell_formula_units_Z 32
_cell_length_a 22.010432
_cell_length_b 9.744127
_cell_length_c 27.695937
_cell_angle_alpha 90.000000
_cell_angle_beta 18.331279
_cell_angle_gamma 90.000000
_cell_volume 1868.198500
_symmetry_space_group_name_H-M "P 2/C"
_symmetry_group_IT_number 13
_symmetry_cell_setting 'monoclinic'
loop_
_space_group_symop_operation_xyz
x,y,z
-x,y,1/2-z
-x,-y,-z
x,-y,1/2+z
loop_
_atom_site_type_symbol
_atom_site_label
_atom_site_fract_x
_atom_site_fract_y
_atom_site_fract_z
Si Si1 0.185372 0.687196 0.486585
Si Si2 0.307806 0.556059 0.765823
Si Si3 0.013336 0.443984 0.913057
Si Si4 0.545910 0.808591 0.897730
Si Si5 0.228679 0.191454 0.714963
Si Si6 0.468692 0.111747 0.936423
Si Si7 0.502535 0.312848 0.669435
Si Si8 0.848290 0.888310 0.746593
O O1 0.052881 0.555471 0.576147
O O2 0.315998 0.652059 0.433990
O O3 0.313741 0.722950 0.343114
O O4 0.056032 0.819296 0.595714
O O5 0.424928 0.692990 0.664546
O O6 0.463322 0.444604 0.665741
O O7 0.200563 0.500011 0.799451
O O8 0.156816 0.592755 0.921597
O O9 0.067100 0.307096 0.843432
O O10 0.743916 0.830410 0.777688
O O11 0.487815 0.948677 0.914573
O O12 0.376939 0.762764 0.061521
O O13 0.342551 0.169651 0.679057
O O14 0.121719 0.051381 0.780669
O O15 0.448950 0.180775 0.899300
O O16 0.279264 0.146256 0.110386
#
# Coordination Sequence:
#
# PCOD8117698 Si02
#       8
#     4   4   4   4   4   4   4   4
#     4  10  21  36  52  73 104 138 171 210 257 306
#     4  10  19  32  51  77 104 134 173 213 252 300
#     4  10  19  32  51  77 104 134 173 213 252 300
#     4   9  18  32  52  78 104 130 165 211 258 299
#     4   9  18  32  52  78 104 130 165 211 258 299
#     4   9  18  33  52  76 104 132 166 209 255 304
#     4  10  21  36  52  73 104 138 171 210 257 306
#     4   9  18  33  52  76 104 132 166 209 255 304
#
# _framework density 17.128800999999999
#
# number of rings (size 3 to 8) (size 9 to 14) (size 15 to 20)
#    0.000    2.500    2.500    1.500    0.000    3.000 
#    0.000    3.750    0.000    4.500    0.000    0.000 
#    0.000    0.000    0.000    0.000    0.000    0.000 
#
# Total GULP energy -396886.200915 kJ/mol
# GULP energy per Si atom -12402.693779 kJ/mol
# Density = 1.708982 g / cm^3
# Si number density = 17.128801 Si / 1000 Ang^3
#
#
#
# Elastic Constant Matrix: (Units=GPa)
#
#
# Indices 1 2 3 4 5 6 
#
# 1 87.2868 52.3710 37.1333 0.0000 -2.5561 0.0000
# 2 52.3710 113.3665 61.0203 0.0000 6.0221 0.0000
# 3 37.1333 61.0203 75.0315 0.0000 -5.8970 0.0000
# 4 0.0000 0.0000 0.0000 36.5656 0.0000 5.3953
# 5 -2.5561 6.0221 -5.8970 0.0000 20.8941 0.0000
# 6 0.0000 0.0000 0.0000 5.3953 0.0000 28.7833
#
#
#
# Elastic Compliance Matrix: (Units=1/GPa)
#
#
# Indices 1 2 3 4 5 6 
#
# 1 0.016508 -0.006255 -0.002846 0.000000 0.003019 0.000000
# 2 -0.006255 0.019607 -0.013658 0.000000 -0.010271 0.000000
# 3 -0.002846 -0.013658 0.026718 0.000000 0.011129 0.000000
# 4 0.000000 0.000000 0.000000 0.028126 0.000000 -0.005272
# 5 0.003019 -0.010271 0.011129 0.000000 0.054331 0.000000
# 6 0.000000 0.000000 0.000000 -0.005272 0.000000 0.035731
#
#
# Mechanical properties :
#
#
# Convention : Reuss Voigt Hill
#
# Bulk Modulus (GPa) = 57.74654 64.08156 60.91405
# Shear Modulus (GPa) = 21.52289 25.59261 23.55775
#
# Velocity S-wave (km/s) = 3.54861 3.86959 3.71257
# Velocity P-wave (km/s) = 7.11171 7.58009 7.34963
#
# Compressibility (1/GPa) = 0.01731706
#
# Stress axis : x y z
#
# Youngs Moduli (GPa) = 60.57520 51.00135 37.42776
#
# Poissons Ratio (x) = 0.31900 0.10652
# Poissons Ratio (y) = 0.37888 0.51117
# Poissons Ratio (z) = 0.17240 0.69656
#
# Static dielectric constant tensor:
#      x y z
#    x 3.024710 0.000000 0.051000 
#    y 0.000000 3.163210 0.000000 
#    z 0.051000 0.000000 3.097980 
# 
# 
# High freq. dielectric constant tensor:
#      x y z
#    x 1.642800 0.000000 0.009430 
#    y 0.000000 1.663830 0.000000 
#    z 0.009430 0.000000 1.656360 
# 
# From -- ./inp_files/93565.got.cif
#   From: 2010.06.25/outbox.cif.g09.slc.cpg/sg13_47_cif.got.tgz:93565.got - 2010.06.28 04:50:58.
