data_PCOD8117150
_publ_section_title
;
Structure prediction by ZEFSAII (Michael W. Deem and Ramdas Pophale) SiO2 
 PCOD8117150
Probable space group: P 2/C
;
_chemical_formula_sum "Si O2"
_cell_formula_units_Z 32
_cell_length_a 13.800924
_cell_length_b 12.164456
_cell_length_c 14.607530
_cell_angle_alpha 90.000000
_cell_angle_beta 139.973809
_cell_angle_gamma 90.000000
_cell_volume 1577.181311
_symmetry_space_group_name_H-M "P 2/C"
_symmetry_group_IT_number 13
_symmetry_cell_setting 'monoclinic'
loop_
_space_group_symop_operation_xyz
x,y,z
-x,y,1/2-z
-x,-y,-z
x,-y,1/2+z
loop_
_atom_site_type_symbol
_atom_site_label
_atom_site_fract_x
_atom_site_fract_y
_atom_site_fract_z
Si Si1 0.687191 0.905074 0.688401
Si Si2 0.712232 0.293880 0.085382
Si Si3 0.320879 0.186893 0.121127
Si Si4 0.668107 0.886694 0.067291
Si Si5 0.846107 0.583721 0.976253
Si Si6 0.365966 0.327679 0.858874
Si Si7 0.152818 0.513033 0.727638
Si Si8 0.670261 0.367242 0.867697
O O1 0.760996 0.814447 0.674960
O O2 0.731433 0.882004 0.826603
O O3 0.508961 0.903769 0.552821
O O4 0.747019 0.020339 0.688524
O O5 0.835592 0.389085 0.190965
O O6 0.545793 0.329588 0.998791
O O7 0.709069 0.275895 0.973313
O O8 0.500000 0.213170 0.250000
O O9 0.231377 0.302143 0.050577
O O10 0.280862 0.112516 0.002780
O O11 0.710477 0.768412 0.137998
O O12 0.855734 0.577535 0.874255
O O13 0.757960 0.479132 0.950856
O O14 0.013062 0.570318 0.140540
O O15 0.305860 0.443966 0.850983
O O16 0.300801 0.310741 0.708874
O O17 0.500000 0.406295 0.750000
#
# Coordination Sequence:
#
# PCOD8117150 Si02
#       8
#     4   4   4   4   4   4   4   4
#     4   9  18  34  52  80 112 138 180 232 273 335
#     4  10  18  32  54  78 108 146 180 220 281 330
#     4  10  19  33  55  82 112 148 184 234 288 336
#     4   9  19  32  54  81 106 143 185 225 280 321
#     4  10  20  34  50  79 112 145 185 223 274 332
#     4   9  19  34  50  77 111 142 181 227 272 330
#     4  10  20  33  52  78 110 148 178 227 277 325
#     4   9  19  32  50  76 108 143 178 221 273 332
#
# _framework density 20.289361
#
# number of rings (size 3 to 8) (size 9 to 14) (size 15 to 20)
#    0.000    2.500    1.250    0.750    1.750    1.500 
#    0.000    5.000    0.000    0.750    6.500    0.000 
#    0.000    0.000    0.000    0.000    0.000    0.000 
#
# Total GULP energy -396509.738949 kJ/mol
# GULP energy per Si atom -12390.929342 kJ/mol
# Density = 2.024318 g / cm^3
# Si number density = 20.289361 Si / 1000 Ang^3
#
#
#
# Elastic Constant Matrix: (Units=GPa)
#
#
# Indices 1 2 3 4 5 6 
#
# 1 63.9145 33.5464 31.1684 0.0000 -26.4933 0.0000
# 2 33.5464 90.2942 44.7107 0.0000 -22.6532 0.0000
# 3 31.1684 44.7107 54.5755 0.0000 -14.5453 0.0000
# 4 0.0000 0.0000 0.0000 21.5545 0.0000 -9.4748
# 5 -26.4933 -22.6532 -14.5453 0.0000 33.6852 0.0000
# 6 0.0000 0.0000 0.0000 -9.4748 0.0000 24.8028
#
#
#
# Elastic Compliance Matrix: (Units=1/GPa)
#
#
# Indices 1 2 3 4 5 6 
#
# 1 0.028591 -0.000839 -0.011073 0.000000 0.017141 0.000000
# 2 -0.000839 0.020106 -0.014199 0.000000 0.006730 0.000000
# 3 -0.011073 -0.014199 0.035499 0.000000 -0.002929 0.000000
# 4 0.000000 0.000000 0.000000 0.055757 0.000000 0.021299
# 5 0.017141 0.006730 -0.002929 0.000000 0.046430 0.000000
# 6 0.000000 0.000000 0.000000 0.021299 0.000000 0.048455
#
#
# Mechanical properties :
#
#
# Convention : Reuss Voigt Hill
#
# Bulk Modulus (GPa) = 31.27476 47.51503 39.39490
# Shear Modulus (GPa) = 16.79453 22.63241 19.71347
#
# Velocity S-wave (km/s) = 2.88019 3.34351 3.12046
# Velocity P-wave (km/s) = 5.14864 6.19475 5.69576
#
# Compressibility (1/GPa) = 0.03197466
#
# Stress axis : x y z
#
# Youngs Moduli (GPa) = 34.97556 49.73687 28.17012
#
# Poissons Ratio (x) = 0.04173 0.31193
# Poissons Ratio (y) = 0.02934 0.39998
# Poissons Ratio (z) = 0.38728 0.70620
#
# Static dielectric constant tensor:
#      x y z
#    x 3.696250 0.000000 -0.281210 
#    y 0.000000 3.653710 0.000000 
#    z -0.281210 0.000000 3.648610 
# 
# 
# High freq. dielectric constant tensor:
#      x y z
#    x 1.780730 0.000000 -0.026550 
#    y 0.000000 1.773460 0.000000 
#    z -0.026550 0.000000 1.780520 
# 
# From -- ./inp_files/53739.got.cif
#   From: 2010.06.25/outbox.cif.g09.slc.cpg/sg13_27_cif.got.tgz:53739.got - 2010.06.28 04:50:58.
