data_PCOD8117847
_publ_section_title
;
Structure prediction by ZEFSAII (Michael W. Deem and Ramdas Pophale) SiO2 
 PCOD8117847
Probable space group: P 2/C
;
_chemical_formula_sum "Si O2"
_cell_formula_units_Z 32
_cell_length_a 20.167340
_cell_length_b 4.996431
_cell_length_c 22.993920
_cell_angle_alpha 90.000000
_cell_angle_beta 130.661356
_cell_angle_gamma 90.000000
_cell_volume 1757.597689
_symmetry_space_group_name_H-M "P 2/C"
_symmetry_group_IT_number 13
_symmetry_cell_setting 'monoclinic'
loop_
_space_group_symop_operation_xyz
x,y,z
-x,y,1/2-z
-x,-y,-z
x,-y,1/2+z
loop_
_atom_site_type_symbol
_atom_site_label
_atom_site_fract_x
_atom_site_fract_y
_atom_site_fract_z
Si Si1 0.848362 0.071492 0.203642
Si Si2 0.286663 0.347992 0.568932
Si Si3 0.396540 0.855182 0.626775
Si Si4 0.839621 0.397239 0.771139
Si Si5 0.010691 0.183754 0.834756
Si Si6 0.300128 0.651874 0.213073
Si Si7 0.125402 0.302388 0.399595
Si Si8 0.410056 0.855097 0.771187
O O1 0.842948 0.305633 0.247822
O O2 0.820342 0.186261 0.124956
O O3 0.794663 0.815585 0.199181
O O4 0.947529 0.954160 0.249074
O O5 0.355100 0.571389 0.588350
O O6 0.272510 0.343732 0.629978
O O7 0.192697 0.400615 0.486748
O O8 0.327748 0.077178 0.566697
O O9 0.411920 0.893326 0.703529
O O10 0.490457 0.881122 0.648309
O O11 0.787684 0.401526 0.801516
O O12 0.939399 0.294960 0.841323
O O13 0.067937 0.440227 0.846571
O O14 0.069210 0.943459 0.894567
O O15 0.372549 0.429729 0.267935
O O16 0.345878 0.922895 0.261097
#
# Coordination Sequence:
#
# PCOD8117847 Si02
#       8
#     4   4   4   4   4   4   4   4
#     4  10  21  33  54  74  97 132 168 230 246 285
#     4  10  21  33  51  76 112 133 158 208 254 320
#     4   9  17  33  48  79 105 129 166 205 258 294
#     4  10  20  34  51  75 102 132 170 222 243 281
#     4  10  21  33  52  74 100 128 176 220 249 286
#     4  10  19  34  52  78 105 135 167 203 250 304
#     4  12  21  34  53  78  99 135 170 205 273 295
#     4   9  17  29  56  75 100 134 167 209 246 298
#
# _framework density 18.206669000000002
#
# number of rings (size 3 to 8) (size 9 to 14) (size 15 to 20)
#    0.750    1.250    1.250    3.375    1.750    3.000 
#    0.000    1.250    0.000    0.000    0.000   17.500 
#    0.000    0.000    0.000    0.000    0.000    0.000 
#
# Total GULP energy -396418.242464 kJ/mol
# GULP energy per Si atom -12388.070077 kJ/mol
# Density = 1.816523 g / cm^3
# Si number density = 18.206669 Si / 1000 Ang^3
#
#
#
# Elastic Constant Matrix: (Units=GPa)
#
#
# Indices 1 2 3 4 5 6 
#
# 1 50.8231 14.0142 30.4085 0.0000 -3.0940 0.0000
# 2 14.0142 92.8815 20.7112 0.0000 -7.9329 0.0000
# 3 30.4085 20.7112 41.0940 0.0000 1.8680 0.0000
# 4 0.0000 0.0000 0.0000 2.8164 0.0000 -19.1487
# 5 -3.0940 -7.9329 1.8680 0.0000 11.4807 0.0000
# 6 0.0000 0.0000 0.0000 -19.1487 0.0000 -13.7361
#
#
#
# Elastic Compliance Matrix: (Units=1/GPa)
#
#
# Indices 1 2 3 4 5 6 
#
# 1 0.038083 0.002419 -0.030165 0.000000 0.016843 0.000000
# 2 0.002419 0.013393 -0.009057 0.000000 0.011380 0.000000
# 3 -0.030165 -0.009057 0.052261 0.000000 -0.022891 0.000000
# 4 0.000000 0.000000 0.000000 0.033886 0.000000 -0.047239
# 5 0.016843 0.011380 -0.022891 0.000000 0.103229 0.000000
# 6 0.000000 0.000000 0.000000 -0.047239 0.000000 -0.006948
#
#
# Mechanical properties :
#
#
# Convention : Reuss Voigt Hill
#
# Bulk Modulus (GPa) = 33.18927 35.00738 34.09832
# Shear Modulus (GPa) = 15.74526 8.08983 11.91755
#
# Velocity S-wave (km/s) = 2.94395 2.11021 2.56123
# Velocity P-wave (km/s) = 5.46119 5.02064 5.24554
#
# Compressibility (1/GPa) = 0.03013022
#
# Stress axis : x y z
#
# Youngs Moduli (GPa) = 26.25851 74.66571 19.13460
#
# Poissons Ratio (x) = -0.18061 0.57720
# Poissons Ratio (y) = -0.06352 0.17331
# Poissons Ratio (z) = 0.79209 0.67627
#
# Static dielectric constant tensor:
#      x y z
#    x 3.272000 0.000000 0.176430 
#    y 0.000000 3.661610 0.000000 
#    z 0.176430 0.000000 2.877580 
# 
# 
# High freq. dielectric constant tensor:
#      x y z
#    x 1.694500 0.000000 0.015740 
#    y 0.000000 1.735790 0.000000 
#    z 0.015740 0.000000 1.648870 
# 
# From -- ./inp_files/80603.got.cif
#   From: 2010.06.25/outbox.cif.g09.slc.cpg/sg13_41_cif.got.tgz:80603.got - 2010.06.28 04:50:58.
