data_PCOD8117237
_publ_section_title
;
Structure prediction by ZEFSAII (Michael W. Deem and Ramdas Pophale) SiO2 
 PCOD8117237
Probable space group: P 2/C
;
_chemical_formula_sum "Si O2"
_cell_formula_units_Z 24
_cell_length_a 16.934942
_cell_length_b 13.320634
_cell_length_c 9.938866
_cell_angle_alpha 90.000000
_cell_angle_beta 28.312420
_cell_angle_gamma 90.000000
_cell_volume 1063.357734
_symmetry_space_group_name_H-M "P 2/C"
_symmetry_group_IT_number 13
_symmetry_cell_setting 'monoclinic'
loop_
_space_group_symop_operation_xyz
x,y,z
-x,y,1/2-z
-x,-y,-z
x,-y,1/2+z
loop_
_atom_site_type_symbol
_atom_site_label
_atom_site_fract_x
_atom_site_fract_y
_atom_site_fract_z
Si Si1 0.697693 0.650942 0.466051
Si Si2 0.697366 0.426594 0.462276
Si Si3 0.677723 0.939960 0.910653
Si Si4 0.316581 0.732528 0.730903
Si Si5 0.178860 0.058684 0.033706
Si Si6 0.710389 0.275329 0.664844
O O1 0.500000 0.643327 0.750000
O O2 0.773950 0.538344 0.352174
O O3 0.752669 0.715147 0.514264
O O4 0.768033 0.707939 0.231186
O O5 0.500000 0.434751 0.750000
O O6 0.752750 0.362085 0.249564
O O7 0.762548 0.371282 0.498407
O O8 0.744896 0.835365 0.746081
O O9 0.680883 0.020122 0.783420
O O10 0.500000 0.926778 0.250000
O O11 0.795658 0.982850 0.853154
O O12 0.514870 0.740242 0.438384
O O13 0.192855 0.177932 0.030079
O O14 0.000000 0.022868 0.250000
#
# Coordination Sequence:
#
# PCOD8117237 Si02
#       6
#     4   4   4   4   4   4
#     4   9  18  27  52  91 122 156 196 256 299 357
#     4   9  15  30  51  83 124 157 198 252 307 346
#     4  12  24  44  67  93 120 162 209 261 305 366
#     4  10  18  33  56  87 123 154 203 253 305 349
#     4  12  27  44  64  91 126 164 204 256 317 371
#     4  10  19  34  55  84 122 157 202 246 305 361
#
# _framework density 22.570015999999999
#
# number of rings (size 3 to 8) (size 9 to 14) (size 15 to 20)
#    0.000    1.667    3.333    2.500    2.333    4.667 
#    0.000    0.000    0.000    1.000    0.000    0.000 
#    0.000    0.000    0.000    0.000    0.000    0.000 
#
# Total GULP energy -297495.449825 kJ/mol
# GULP energy per Si atom -12395.643743 kJ/mol
# Density = 2.251865 g / cm^3
# Si number density = 22.570016 Si / 1000 Ang^3
#
#
#
# Elastic Constant Matrix: (Units=GPa)
#
#
# Indices 1 2 3 4 5 6 
#
# 1 140.4663 30.9893 36.3090 0.0000 45.5755 0.0000
# 2 30.9893 86.5518 15.3263 0.0000 13.1242 0.0000
# 3 36.3090 15.3263 33.8197 0.0000 22.3411 0.0000
# 4 0.0000 0.0000 0.0000 13.6823 0.0000 12.3998
# 5 45.5755 13.1242 22.3411 0.0000 37.8164 0.0000
# 6 0.0000 0.0000 0.0000 12.3998 0.0000 35.3245
#
#
#
# Elastic Compliance Matrix: (Units=1/GPa)
#
#
# Indices 1 2 3 4 5 6 
#
# 1 0.012573 -0.001861 -0.005038 0.000000 -0.011531 0.000000
# 2 -0.001861 0.012899 -0.003890 0.000000 0.000065 0.000000
# 3 -0.005038 -0.003890 0.052216 0.000000 -0.023426 0.000000
# 4 0.000000 0.000000 0.000000 0.107185 0.000000 -0.037625
# 5 -0.011531 0.000065 -0.023426 0.000000 0.054157 0.000000
# 6 0.000000 0.000000 0.000000 -0.037625 0.000000 0.041516
#
#
# Mechanical properties :
#
#
# Convention : Reuss Voigt Hill
#
# Bulk Modulus (GPa) = 17.82248 47.34300 32.58274
# Shear Modulus (GPa) = 15.58464 29.24552 22.41508
#
# Velocity S-wave (km/s) = 2.63059 3.60358 3.15482
# Velocity P-wave (km/s) = 4.14009 6.19161 5.26671
#
# Compressibility (1/GPa) = 0.05610892
#
# Stress axis : x y z
#
# Youngs Moduli (GPa) = 79.53355 77.52410 19.15140
#
# Poissons Ratio (x) = 0.14429 0.09649
# Poissons Ratio (y) = 0.14803 0.07450
# Poissons Ratio (z) = 0.40071 0.30158
#
# Static dielectric constant tensor:
#      x y z
#    x 4.345160 0.000000 0.444760 
#    y 0.000000 4.061990 0.000000 
#    z 0.444760 0.000000 3.573600 
# 
# 
# High freq. dielectric constant tensor:
#      x y z
#    x 1.895930 0.000000 0.038010 
#    y 0.000000 1.891290 0.000000 
#    z 0.038010 0.000000 1.841930 
# 
# From -- ./inp_files/19464.got.cif
#   From: 2010.06.25/outbox.cif.g09.slc.cpg/sg13_10_cif.got.tgz:19464.got - 2010.06.28 04:50:58.
