data_PCOD8117246
_publ_section_title
;
Structure prediction by ZEFSAII (Michael W. Deem and Ramdas Pophale) SiO2 
 PCOD8117246
Probable space group: P 2/C
;
_chemical_formula_sum "Si O2"
_cell_formula_units_Z 24
_cell_length_a 6.704212
_cell_length_b 8.639756
_cell_length_c 21.401604
_cell_angle_alpha 90.000000
_cell_angle_beta 81.537505
_cell_angle_gamma 90.000000
_cell_volume 1226.143187
_symmetry_space_group_name_H-M "P 2/C"
_symmetry_group_IT_number 13
_symmetry_cell_setting 'monoclinic'
loop_
_space_group_symop_operation_xyz
x,y,z
-x,y,1/2-z
-x,-y,-z
x,-y,1/2+z
loop_
_atom_site_type_symbol
_atom_site_label
_atom_site_fract_x
_atom_site_fract_y
_atom_site_fract_z
Si Si1 0.004588 0.100035 0.673265
Si Si2 0.640651 0.101142 0.188861
Si Si3 0.936869 0.369576 0.189991
Si Si4 0.953928 0.393801 0.592894
Si Si5 0.294603 0.595862 0.513908
Si Si6 0.713648 0.173640 0.379049
O O1 0.032504 0.259751 0.635325
O O2 0.000000 0.112679 0.750000
O O3 0.182540 0.993353 0.636520
O O4 0.789381 0.034381 0.660059
O O5 0.500000 0.034642 0.250000
O O6 0.512681 0.164490 0.136938
O O7 0.774492 0.237671 0.212419
O O8 0.844010 0.482143 0.142803
O O9 0.150357 0.300106 0.160220
O O10 0.000000 0.460809 0.250000
O O11 0.144001 0.472298 0.551258
O O12 0.786892 0.346957 0.549809
O O13 0.500000 0.500000 0.500000
O O14 0.313559 0.760448 0.549302
#
# Coordination Sequence:
#
# PCOD8117246 Si02
#       6
#     4   4   4   4   4   4
#     4  11  22  38  58  89 124 148 177 233 298 350
#     4  11  18  34  57  83 116 148 185 225 278 349
#     4  10  18  33  57  84 110 147 190 233 286 338
#     4  10  23  39  58  83 117 150 187 241 289 331
#     4  10  22  43  61  81 111 152 205 241 270 329
#     4  10  20  36  60  83 112 153 190 231 282 343
#
# _framework density 19.57357
#
# number of rings (size 3 to 8) (size 9 to 14) (size 15 to 20)
#    0.000    1.667    3.333    2.500    0.000    3.333 
#    0.000    2.500    0.000    0.000    0.000    0.000 
#    0.000    0.000    0.000    0.000    0.000    0.000 
#
# Total GULP energy -297343.818976 kJ/mol
# GULP energy per Si atom -12389.325791 kJ/mol
# Density = 1.952902 g / cm^3
# Si number density = 19.573570 Si / 1000 Ang^3
#
#
#
# Elastic Constant Matrix: (Units=GPa)
#
#
# Indices 1 2 3 4 5 6 
#
# 1 87.6887 12.2353 33.8744 0.0000 15.1161 0.0000
# 2 12.2353 76.8333 49.0219 0.0000 6.7394 0.0000
# 3 33.8744 49.0219 105.7538 0.0000 22.5687 0.0000
# 4 0.0000 0.0000 0.0000 36.3964 0.0000 1.6719
# 5 15.1161 6.7394 22.5687 0.0000 31.7520 0.0000
# 6 0.0000 0.0000 0.0000 1.6719 0.0000 14.9540
#
#
#
# Elastic Compliance Matrix: (Units=1/GPa)
#
#
# Indices 1 2 3 4 5 6 
#
# 1 0.013437 0.000596 -0.003758 0.000000 -0.003852 0.000000
# 2 0.000596 0.018685 -0.009366 0.000000 0.002408 0.000000
# 3 -0.003758 -0.009366 0.016734 0.000000 -0.008117 0.000000
# 4 0.000000 0.000000 0.000000 0.027617 0.000000 -0.003088
# 5 -0.003852 0.002408 -0.008117 0.000000 0.038586 0.000000
# 6 0.000000 0.000000 0.000000 -0.003088 0.000000 0.067217
#
#
# Mechanical properties :
#
#
# Convention : Reuss Voigt Hill
#
# Bulk Modulus (GPa) = 42.01925 51.17101 46.59513
# Shear Modulus (GPa) = 23.22725 28.29676 25.76201
#
# Velocity S-wave (km/s) = 3.44854 3.80631 3.63183
# Velocity P-wave (km/s) = 6.11314 6.74663 6.43768
#
# Compressibility (1/GPa) = 0.02379861
#
# Stress axis : x y z
#
# Youngs Moduli (GPa) = 74.42348 53.51907 59.76035
#
# Poissons Ratio (x) = -0.03190 0.22459
# Poissons Ratio (y) = -0.04435 0.55972
# Poissons Ratio (z) = 0.27969 0.50126
#
# Static dielectric constant tensor:
#      x y z
#    x 3.592410 0.000000 0.066110 
#    y 0.000000 3.475880 0.000000 
#    z 0.066110 0.000000 3.840770 
# 
# 
# High freq. dielectric constant tensor:
#      x y z
#    x 1.765640 0.000000 0.008230 
#    y 0.000000 1.745980 0.000000 
#    z 0.008230 0.000000 1.768570 
# 
# From -- ./inp_files/83346.got.cif
#   From: 2010.06.25/outbox.cif.g09.slc.cpg/sg13_42_cif.got.tgz:83346.got - 2010.06.28 04:50:58.
