data_PCOD8117960
_publ_section_title
;
Structure prediction by ZEFSAII (Michael W. Deem and Ramdas Pophale) SiO2 
 PCOD8117960
Probable space group: P 2/C
;
_chemical_formula_sum "Si O2"
_cell_formula_units_Z 24
_cell_length_a 14.670122
_cell_length_b 7.244405
_cell_length_c 8.399688
_cell_angle_alpha 90.000000
_cell_angle_beta 92.084520
_cell_angle_gamma 90.000000
_cell_volume 892.097076
_symmetry_space_group_name_H-M "P 2/C"
_symmetry_group_IT_number 13
_symmetry_cell_setting 'monoclinic'
loop_
_space_group_symop_operation_xyz
x,y,z
-x,y,1/2-z
-x,-y,-z
x,-y,1/2+z
loop_
_atom_site_type_symbol
_atom_site_label
_atom_site_fract_x
_atom_site_fract_y
_atom_site_fract_z
Si Si1 0.779004 0.890770 0.337521
Si Si2 0.097584 0.602789 0.328024
Si Si3 0.404032 0.759495 0.290759
Si Si4 0.342277 0.418563 0.086479
Si Si5 0.230742 0.686146 0.862696
Si Si6 0.941075 0.146837 0.393333
O O1 0.826908 0.710178 0.269401
O O2 0.678430 0.902140 0.253324
O O3 0.769655 0.870224 0.529263
O O4 0.845023 0.066253 0.311976
O O5 0.126999 0.386630 0.323838
O O6 0.089135 0.676195 0.507902
O O7 0.000000 0.637113 0.250000
O O8 0.500000 0.855909 0.250000
O O9 0.398981 0.573511 0.183683
O O10 0.405816 0.710113 0.479216
O O11 0.290205 0.282962 0.207098
O O12 0.270252 0.513569 0.964915
O O13 0.000000 0.213314 0.250000
O O14 0.000000 0.000000 0.500000
#
# Coordination Sequence:
#
# PCOD8117960 Si02
#       6
#     4   4   4   4   4   4
#     4  11  22  42  61  90 128 158 206 261 304 363
#     4  12  23  43  61  88 125 163 207 254 305 373
#     4  10  19  34  60  92 128 162 202 251 308 364
#     4   9  17  33  57  89 125 166 194 241 304 371
#     4  10  20  38  60  93 128 158 198 252 318 356
#     4  12  24  44  64  88 117 168 219 245 303 377
#
# _framework density 26.902903999999999
#
# number of rings (size 3 to 8) (size 9 to 14) (size 15 to 20)
#    0.000    1.333    8.333    0.500    0.000    2.000 
#    0.000    1.667    0.000    1.000    0.000    1.167 
#    0.000    0.000    0.000    0.000    0.000    0.000 
#
# Total GULP energy -297655.185758 kJ/mol
# GULP energy per Si atom -12402.299407 kJ/mol
# Density = 2.684167 g / cm^3
# Si number density = 26.902904 Si / 1000 Ang^3
#
#
#
# Elastic Constant Matrix: (Units=GPa)
#
#
# Indices 1 2 3 4 5 6 
#
# 1 185.7189 35.7165 61.4246 0.0000 -17.3210 0.0000
# 2 35.7165 73.9340 21.9172 0.0000 -13.7669 0.0000
# 3 61.4246 21.9172 172.5494 0.0000 -38.4830 0.0000
# 4 0.0000 0.0000 0.0000 33.1465 0.0000 16.4604
# 5 -17.3210 -13.7669 -38.4830 0.0000 46.0127 0.0000
# 6 0.0000 0.0000 0.0000 16.4604 0.0000 75.0343
#
#
#
# Elastic Compliance Matrix: (Units=1/GPa)
#
#
# Indices 1 2 3 4 5 6 
#
# 1 0.006540 -0.002563 -0.001997 0.000000 0.000025 0.000000
# 2 -0.002563 0.015488 -0.000291 0.000000 0.003426 0.000000
# 3 -0.001997 -0.000291 0.007814 0.000000 0.005696 0.000000
# 4 0.000000 0.000000 0.000000 0.033857 0.000000 -0.007427
# 5 0.000025 0.003426 0.005696 0.000000 0.027532 0.000000
# 6 0.000000 0.000000 0.000000 -0.007427 0.000000 0.014957
#
#
# Mechanical properties :
#
#
# Convention : Reuss Voigt Hill
#
# Bulk Modulus (GPa) = 49.65215 74.47988 62.06602
# Shear Modulus (GPa) = 40.78224 51.71495 46.24860
#
# Velocity S-wave (km/s) = 3.89769 4.38914 4.15069
# Velocity P-wave (km/s) = 6.22512 7.30964 6.78907
#
# Compressibility (1/GPa) = 0.02014011
#
# Stress axis : x y z
#
# Youngs Moduli (GPa) = 152.90052 64.56698 127.97973
#
# Poissons Ratio (x) = 0.16547 0.25559
# Poissons Ratio (y) = 0.39186 0.03723
# Poissons Ratio (z) = 0.30536 0.01878
#
# Static dielectric constant tensor:
#      x y z
#    x 4.882650 0.000000 -0.027410 
#    y 0.000000 4.481610 0.000000 
#    z -0.027410 0.000000 5.501880 
# 
# 
# High freq. dielectric constant tensor:
#      x y z
#    x 2.080900 0.000000 -0.002450 
#    y 0.000000 2.061760 0.000000 
#    z -0.002450 0.000000 2.110080 
# 
# From -- ./inp_files/18115.got.cif
#   From: 2010.06.25/outbox.cif.g09.slc.cpg/sg13_10_cif.got.tgz:18115.got - 2010.06.28 04:50:58.
