data_PCOD8117831
_publ_section_title
;
Structure prediction by ZEFSAII (Michael W. Deem and Ramdas Pophale) SiO2 
 PCOD8117831
Probable space group: P 2/C
;
_chemical_formula_sum "Si O2"
_cell_formula_units_Z 24
_cell_length_a 22.359538
_cell_length_b 10.928656
_cell_length_c 28.058884
_cell_angle_alpha 90.000000
_cell_angle_beta 169.543031
_cell_angle_gamma 90.000000
_cell_volume 1244.427124
_symmetry_space_group_name_H-M "P 2/C"
_symmetry_group_IT_number 13
_symmetry_cell_setting 'monoclinic'
loop_
_space_group_symop_operation_xyz
x,y,z
-x,y,1/2-z
-x,-y,-z
x,-y,1/2+z
loop_
_atom_site_type_symbol
_atom_site_label
_atom_site_fract_x
_atom_site_fract_y
_atom_site_fract_z
Si Si1 0.754190 0.403175 0.679227
Si Si2 0.254133 0.216634 0.246185
Si Si3 0.129530 0.830559 0.957404
Si Si4 0.198967 0.714344 0.190592
Si Si5 0.092914 0.600237 0.769097
Si Si6 0.519438 0.967842 0.460435
O O1 0.500000 0.500000 0.500000
O O2 0.568405 0.292115 0.508635
O O3 0.953162 0.344159 0.879950
O O4 0.978872 0.475673 0.817286
O O5 0.008961 0.193729 0.098268
O O6 0.395676 0.088543 0.335250
O O7 0.068379 0.295886 0.060612
O O8 0.137211 0.705251 0.933414
O O9 0.899745 0.928066 0.748720
O O10 0.500000 0.882960 0.250000
O O11 0.525872 0.639565 0.433532
O O12 0.278028 0.857065 0.258849
O O13 0.000000 0.571707 0.750000
O O14 0.500000 0.000000 0.500000
#
# Coordination Sequence:
#
# PCOD8117831 Si02
#       6
#     4   4   4   4   4   4
#     4  10  19  36  53  82 118 146 191 238 270 335
#     4  11  19  34  60  87 113 149 192 234 286 336
#     4  10  19  34  55  85 116 147 190 238 287 333
#     4  10  19  33  58  86 110 145 192 237 284 331
#     4  10  20  36  53  78 121 150 188 242 284 330
#     4   9  17  34  56  84 116 141 184 245 277 335
#
# _framework density 19.285983999999999
#
# number of rings (size 3 to 8) (size 9 to 14) (size 15 to 20)
#    0.000    2.000    6.667    1.500    0.000    2.667 
#    3.000    0.000    0.000   11.000    0.000    0.000 
#    0.000    0.000    0.000    0.000    0.000    0.000 
#
# Total GULP energy -297438.056115 kJ/mol
# GULP energy per Si atom -12393.252338 kJ/mol
# Density = 1.924209 g / cm^3
# Si number density = 19.285984 Si / 1000 Ang^3
#
#
#
# Elastic Constant Matrix: (Units=GPa)
#
#
# Indices 1 2 3 4 5 6 
#
# 1 103.8998 37.6363 24.0727 0.0000 -13.1904 0.0000
# 2 37.6363 94.0845 12.0124 0.0000 4.0386 0.0000
# 3 24.0727 12.0124 56.1466 0.0000 -7.3132 0.0000
# 4 0.0000 0.0000 0.0000 15.9926 0.0000 -4.9238
# 5 -13.1904 4.0386 -7.3132 0.0000 28.2758 0.0000
# 6 0.0000 0.0000 0.0000 -4.9238 0.0000 23.0712
#
#
#
# Elastic Compliance Matrix: (Units=1/GPa)
#
#
# Indices 1 2 3 4 5 6 
#
# 1 0.013043 -0.004986 -0.003767 0.000000 0.005822 0.000000
# 2 -0.004986 0.012973 -0.001223 0.000000 -0.004495 0.000000
# 3 -0.003767 -0.001223 0.020160 0.000000 0.003632 0.000000
# 4 0.000000 0.000000 0.000000 0.066926 0.000000 0.014283
# 5 0.005822 -0.004495 0.003632 0.000000 0.039663 0.000000
# 6 0.000000 0.000000 0.000000 0.014283 0.000000 0.046392
#
#
# Mechanical properties :
#
#
# Convention : Reuss Voigt Hill
#
# Bulk Modulus (GPa) = 38.13458 44.61929 41.37694
# Shear Modulus (GPa) = 21.94412 25.49523 23.71968
#
# Velocity S-wave (km/s) = 3.37683 3.63982 3.51079
# Velocity P-wave (km/s) = 5.91778 6.39141 6.15915
#
# Compressibility (1/GPa) = 0.02622292
#
# Stress axis : x y z
#
# Youngs Moduli (GPa) = 76.67043 77.08571 49.60258
#
# Poissons Ratio (x) = 0.38438 0.18685
# Poissons Ratio (y) = 0.38231 0.06067
# Poissons Ratio (z) = 0.28881 0.09428
#
# Static dielectric constant tensor:
#      x y z
#    x 3.738600 0.000000 -0.200260 
#    y 0.000000 4.424810 0.000000 
#    z -0.200260 0.000000 3.400860 
# 
# 
# High freq. dielectric constant tensor:
#      x y z
#    x 1.736720 0.000000 -0.026050 
#    y 0.000000 1.759060 0.000000 
#    z -0.026050 0.000000 1.722920 
# 
# From -- ./inp_files/53609.got.cif
#   From: 2010.06.25/outbox.cif.g09.slc.cpg/sg13_27_cif.got.tgz:53609.got - 2010.06.28 04:50:58.
