data_PCOD8117585
_publ_section_title
;
Structure prediction by ZEFSAII (Michael W. Deem and Ramdas Pophale) SiO2 
 PCOD8117585
Probable space group: P 2/C
;
_chemical_formula_sum "Si O2"
_cell_formula_units_Z 18
_cell_length_a 8.267634
_cell_length_b 9.213887
_cell_length_c 17.844415
_cell_angle_alpha 90.000000
_cell_angle_beta 36.832405
_cell_angle_gamma 90.000000
_cell_volume 814.889106
_symmetry_space_group_name_H-M "P 2/C"
_symmetry_group_IT_number 13
_symmetry_cell_setting 'monoclinic'
loop_
_space_group_symop_operation_xyz
x,y,z
-x,y,1/2-z
-x,-y,-z
x,-y,1/2+z
loop_
_atom_site_type_symbol
_atom_site_label
_atom_site_fract_x
_atom_site_fract_y
_atom_site_fract_z
Si Si1 0.234586 0.410786 0.512267
Si Si2 0.727366 0.331153 0.609742
Si Si3 0.000000 0.328659 0.750000
Si Si4 0.466656 0.117577 0.612272
Si Si5 0.309745 0.813538 0.631089
O O1 0.282903 0.570468 0.461697
O O2 0.510450 0.320149 0.407259
O O3 0.017588 0.328890 0.540870
O O4 0.135409 0.427794 0.635186
O O5 0.500000 0.393260 0.750000
O O6 0.662630 0.166738 0.607635
O O7 0.788004 0.224497 0.787895
O O8 0.624088 0.135398 0.476685
O O9 0.369164 0.953021 0.661971
O O10 0.000000 0.765487 0.750000
#
# Coordination Sequence:
#
# PCOD8117585 Si02
#       5
#     4   4   2   4   4
#     4  10  24  41  66  97 130 171 218 264 321 380
#     4  11  23  43  63  95 136 170 210 269 325 389
#     4  10  18  40  66  94 126 170 212 264 320 386
#     4  10  21  39  66  91 128 169 209 262 327 374
#     4  10  22  41  65  97 127 164 219 271 306 384
#
# _framework density 22.088895999999998
#
# number of rings (size 3 to 8) (size 9 to 14) (size 15 to 20)
#    0.000    1.778    3.333    0.000    0.000    8.000 
#    4.000    1.111    0.000    0.000    0.000    0.000 
#    0.000    0.000    0.000    0.000    0.000    0.000 
#
# Total GULP energy -223236.116675 kJ/mol
# GULP energy per Si atom -12402.006482 kJ/mol
# Density = 2.203862 g / cm^3
# Si number density = 22.088896 Si / 1000 Ang^3
#
#
#
# Elastic Constant Matrix: (Units=GPa)
#
#
# Indices 1 2 3 4 5 6 
#
# 1 100.7972 54.3181 40.7152 0.0000 -16.1882 0.0000
# 2 54.3181 76.1352 49.3006 0.0000 -2.1830 0.0000
# 3 40.7152 49.3006 124.6921 0.0000 -18.0598 0.0000
# 4 0.0000 0.0000 0.0000 18.0161 0.0000 4.4712
# 5 -16.1882 -2.1830 -18.0598 0.0000 41.8643 0.0000
# 6 0.0000 0.0000 0.0000 4.4712 0.0000 36.9496
#
#
#
# Elastic Compliance Matrix: (Units=1/GPa)
#
#
# Indices 1 2 3 4 5 6 
#
# 1 0.017568 -0.012394 0.000058 0.000000 0.006172 0.000000
# 2 -0.012394 0.026596 -0.007426 0.000000 -0.006609 0.000000
# 3 0.000058 -0.007426 0.011609 0.000000 0.004643 0.000000
# 4 0.000000 0.000000 0.000000 0.057225 0.000000 -0.006925
# 5 0.006172 -0.006609 0.004643 0.000000 0.027932 0.000000
# 6 0.000000 0.000000 0.000000 -0.006925 0.000000 0.027902
#
#
# Mechanical properties :
#
#
# Convention : Reuss Voigt Hill
#
# Bulk Modulus (GPa) = 61.54132 65.58804 63.56468
# Shear Modulus (GPa) = 23.38950 29.85204 26.62077
#
# Velocity S-wave (km/s) = 3.25757 3.68020 3.47532
# Velocity P-wave (km/s) = 6.48616 6.91489 6.70395
#
# Compressibility (1/GPa) = 0.01624924
#
# Stress axis : x y z
#
# Youngs Moduli (GPa) = 56.92260 37.59972 86.13774
#
# Poissons Ratio (x) = 0.46602 -0.00499
# Poissons Ratio (y) = 0.70551 0.63963
# Poissons Ratio (z) = -0.00330 0.27920
#
# Static dielectric constant tensor:
#      x y z
#    x 4.036290 0.000000 -0.123470 
#    y 0.000000 3.867110 0.000000 
#    z -0.123470 0.000000 4.103260 
# 
# 
# High freq. dielectric constant tensor:
#      x y z
#    x 1.870550 0.000000 -0.009000 
#    y 0.000000 1.856230 0.000000 
#    z -0.009000 0.000000 1.875510 
# 
# From -- ./inp_files/27654.got.cif
#   From: 2010.06.25/outbox.cif.g09.slc.cpg/sg13_14_cif.got.tgz:27654.got - 2010.06.28 04:50:58.
