data_PCOD8117521
_publ_section_title
;
Structure prediction by ZEFSAII (Michael W. Deem and Ramdas Pophale) SiO2 
 PCOD8117521
Probable space group: P 2/C
;
_chemical_formula_sum "Si O2"
_cell_formula_units_Z 26
_cell_length_a 8.794381
_cell_length_b 15.494185
_cell_length_c 18.300257
_cell_angle_alpha 90.000000
_cell_angle_beta 32.904525
_cell_angle_gamma 90.000000
_cell_volume 1354.638921
_symmetry_space_group_name_H-M "P 2/C"
_symmetry_group_IT_number 13
_symmetry_cell_setting 'monoclinic'
loop_
_space_group_symop_operation_xyz
x,y,z
-x,y,1/2-z
-x,-y,-z
x,-y,1/2+z
loop_
_atom_site_type_symbol
_atom_site_label
_atom_site_fract_x
_atom_site_fract_y
_atom_site_fract_z
Si Si1 0.319888 0.075052 0.607791
Si Si2 0.352720 0.349916 0.385106
Si Si3 0.277217 0.357014 0.902627
Si Si4 0.186427 0.237318 0.571052
Si Si5 0.000000 0.622719 0.250000
Si Si6 0.475433 0.513390 0.096584
Si Si7 0.444232 0.180944 0.693465
O O1 0.326209 0.153809 0.549110
O O2 0.468617 0.106534 0.622591
O O3 0.000000 0.044313 0.750000
O O4 0.500000 0.000000 0.500000
O O5 0.500000 0.329658 0.250000
O O6 0.365723 0.261938 0.427442
O O7 0.515563 0.424781 0.362414
O O8 0.028546 0.372308 0.506496
O O9 0.500000 0.382766 0.750000
O O10 0.291624 0.421443 0.965822
O O11 0.332311 0.258592 0.907776
O O12 0.206549 0.317330 0.619162
O O13 0.862179 0.222950 0.683477
O O14 0.179294 0.561078 0.231048
O O15 0.500000 0.500000 0.000000
O O16 0.500000 0.137110 0.750000
#
# Coordination Sequence:
#
# PCOD8117521 Si02
#       7
#     4   4   4   4   2   4   4
#     4  10  22  42  68  99 129 157 205 261 321 385
#     4  12  26  40  54  92 138 166 204 278 337 358
#     4  11  21  42  64  84 117 173 228 259 305 377
#     4  11  19  42  67  87 121 175 216 253 304 399
#     4  12  20  40  64  90 114 172 240 254 296 380
#     4  12  25  34  59  89 124 166 223 273 315 359
#     4  10  18  37  72  93 110 159 231 248 292 381
#
# _framework density 19.193307000000001
#
# number of rings (size 3 to 8) (size 9 to 14) (size 15 to 20)
#    0.000    0.923    8.462    0.923    2.154    0.000 
#    2.769    3.846    0.000    0.000    0.000    0.000 
#    0.000    0.000    0.000    0.000    0.000    0.000 
#
# Total GULP energy -322333.928962 kJ/mol
# GULP energy per Si atom -12397.458806 kJ/mol
# Density = 1.914962 g / cm^3
# Si number density = 19.193307 Si / 1000 Ang^3
#
#
#
# Elastic Constant Matrix: (Units=GPa)
#
#
# Indices 1 2 3 4 5 6 
#
# 1 124.1509 65.1919 46.5031 0.0000 16.3548 0.0000
# 2 65.1919 123.2235 61.4012 0.0000 10.8576 0.0000
# 3 46.5031 61.4012 102.7376 0.0000 23.0816 0.0000
# 4 0.0000 0.0000 0.0000 32.6887 0.0000 1.1614
# 5 16.3548 10.8576 23.0816 0.0000 37.2455 0.0000
# 6 0.0000 0.0000 0.0000 1.1614 0.0000 26.2458
#
#
#
# Elastic Compliance Matrix: (Units=1/GPa)
#
#
# Indices 1 2 3 4 5 6 
#
# 1 0.011720 -0.005155 -0.001633 0.000000 -0.002632 0.000000
# 2 -0.005155 0.013861 -0.006449 0.000000 0.002220 0.000000
# 3 -0.001633 -0.006449 0.015966 0.000000 -0.007298 0.000000
# 4 0.000000 0.000000 0.000000 0.030640 0.000000 -0.001356
# 5 -0.002632 0.002220 -0.007298 0.000000 0.031880 0.000000
# 6 0.000000 0.000000 0.000000 -0.001356 0.000000 0.038161
#
#
# Mechanical properties :
#
#
# Convention : Reuss Voigt Hill
#
# Bulk Modulus (GPa) = 66.34293 77.36715 71.85504
# Shear Modulus (GPa) = 28.78097 31.03705 29.90901
#
# Velocity S-wave (km/s) = 3.87658 4.02565 3.95182
# Velocity P-wave (km/s) = 7.39445 7.87431 7.63815
#
# Compressibility (1/GPa) = 0.01507320
#
# Stress axis : x y z
#
# Youngs Moduli (GPa) = 85.32530 72.14733 62.63135
#
# Poissons Ratio (x) = 0.37192 0.10226
# Poissons Ratio (y) = 0.43985 0.40392
# Poissons Ratio (z) = 0.13932 0.46528
#
# Static dielectric constant tensor:
#      x y z
#    x 4.018600 0.000000 0.113330 
#    y 0.000000 3.419270 0.000000 
#    z 0.113330 0.000000 3.387890 
# 
# 
# High freq. dielectric constant tensor:
#      x y z
#    x 1.773660 0.000000 0.006590 
#    y 0.000000 1.729370 0.000000 
#    z 0.006590 0.000000 1.718260 
# 
# From -- ./inp_files/64752.got.cif
#   From: 2010.06.25/outbox.cif.g09.slc.cpg/sg13_33_cif.got.tgz:64752.got - 2010.06.28 04:50:58.
