data_PCOD8117740
_publ_section_title
;
Structure prediction by ZEFSAII (Michael W. Deem and Ramdas Pophale) SiO2 
 PCOD8117740
Probable space group: P 2/C
;
_chemical_formula_sum "Si O2"
_cell_formula_units_Z 32
_cell_length_a 5.257281
_cell_length_b 16.793255
_cell_length_c 27.551142
_cell_angle_alpha 90.000000
_cell_angle_beta 48.724020
_cell_angle_gamma 90.000000
_cell_volume 1828.050619
_symmetry_space_group_name_H-M "P 2/C"
_symmetry_group_IT_number 13
_symmetry_cell_setting 'monoclinic'
loop_
_space_group_symop_operation_xyz
x,y,z
-x,y,1/2-z
-x,-y,-z
x,-y,1/2+z
loop_
_atom_site_type_symbol
_atom_site_label
_atom_site_fract_x
_atom_site_fract_y
_atom_site_fract_z
Si Si1 0.706860 0.110336 0.942267
Si Si2 0.112361 0.488684 0.056179
Si Si3 0.265852 0.403005 0.322495
Si Si4 0.833619 0.934676 0.908167
Si Si5 0.389309 0.850875 0.892564
Si Si6 0.961862 0.634010 0.498123
Si Si7 0.850067 0.806151 0.040966
Si Si8 0.625818 0.678046 0.866550
O O1 0.519610 0.155945 0.921707
O O2 0.005620 0.166743 0.925067
O O3 0.880805 0.029667 0.901463
O O4 0.431400 0.091073 0.017620
O O5 0.949873 0.567969 0.053561
O O6 0.971673 0.476545 0.128516
O O7 0.500000 0.500000 0.000000
O O8 0.047377 0.404188 0.038972
O O9 0.500000 0.436302 0.250000
O O10 0.507678 0.375465 0.336059
O O11 0.020068 0.335190 0.330487
O O12 0.684857 0.908534 0.874954
O O13 0.198131 0.892607 0.871307
O O14 0.565360 0.768033 0.856098
O O15 0.106614 0.837045 0.968443
O O16 0.571267 0.660652 0.557185
O O17 0.187769 0.710464 0.456683
#
# Coordination Sequence:
#
# PCOD8117740 Si02
#       8
#     4   4   4   4   4   4   4   4
#     4   9  16  24  35  54  86 121 151 188 228 280
#     4  10  19  33  51  69  95 125 168 215 250 298
#     4  11  22  35  51  71  98 130 162 199 255 305
#     4   9  15  24  36  56  83 118 158 187 223 270
#     4   9  16  25  41  59  81 115 157 195 220 265
#     4   9  19  30  47  70  91 124 167 213 246 289
#     4   9  17  25  38  58  84 117 156 192 234 278
#     4  10  19  33  49  69  94 124 166 203 240 289
#
# _framework density 17.504985999999999
#
# number of rings (size 3 to 8) (size 9 to 14) (size 15 to 20)
#    0.000    2.500    1.250    1.875    1.750    6.000 
#    0.000    0.000    0.000    0.000    0.000    0.000 
#    0.000    0.000    0.000   16.875    4.000   15.000 
#
# Total GULP energy -396479.148106 kJ/mol
# GULP energy per Si atom -12389.973378 kJ/mol
# Density = 1.746514 g / cm^3
# Si number density = 17.504986 Si / 1000 Ang^3
#
#
#
# Elastic Constant Matrix: (Units=GPa)
#
#
# Indices 1 2 3 4 5 6 
#
# 1 116.7619 44.2258 18.0949 0.0000 -5.9583 0.0000
# 2 44.2258 121.5168 29.9258 0.0000 -0.0448 0.0000
# 3 18.0949 29.9258 62.0112 0.0000 1.4852 0.0000
# 4 0.0000 0.0000 0.0000 9.3243 0.0000 -4.4258
# 5 -5.9583 -0.0448 1.4852 0.0000 13.6084 0.0000
# 6 0.0000 0.0000 0.0000 -4.4258 0.0000 17.4826
#
#
#
# Elastic Compliance Matrix: (Units=1/GPa)
#
#
# Indices 1 2 3 4 5 6 
#
# 1 0.010316 -0.003386 -0.001488 0.000000 0.004668 0.000000
# 2 -0.003386 0.010455 -0.004033 0.000000 -0.001008 0.000000
# 3 -0.001488 -0.004033 0.018571 0.000000 -0.002692 0.000000
# 4 0.000000 0.000000 0.000000 0.121894 0.000000 0.030858
# 5 0.004668 -0.001008 -0.002692 0.000000 0.075818 0.000000
# 6 0.000000 0.000000 0.000000 0.030858 0.000000 0.065012
#
#
# Mechanical properties :
#
#
# Convention : Reuss Voigt Hill
#
# Bulk Modulus (GPa) = 46.45272 53.86477 50.15875
# Shear Modulus (GPa) = 15.28797 21.95263 18.62030
#
# Velocity S-wave (km/s) = 2.95845 3.54514 3.26500
# Velocity P-wave (km/s) = 6.18582 6.89893 6.55209
#
# Compressibility (1/GPa) = 0.02152726
#
# Stress axis : x y z
#
# Youngs Moduli (GPa) = 96.93827 95.65182 53.84747
#
# Poissons Ratio (x) = 0.32391 0.08011
# Poissons Ratio (y) = 0.32826 0.21716
# Poissons Ratio (z) = 0.14422 0.38576
#
# Static dielectric constant tensor:
#      x y z
#    x 3.096750 0.000000 -0.274200 
#    y 0.000000 0.096980 0.000000 
#    z -0.274200 0.000000 2.365160 
# 
# 
# High freq. dielectric constant tensor:
#      x y z
#    x 1.691870 0.000000 -0.007530 
#    y 0.000000 1.674470 0.000000 
#    z -0.007530 0.000000 1.598000 
# 
# From -- ./inp_files/89570.got.cif
#   From: 2010.06.25/outbox.cif.g09.slc.cpg/sg13_45_cif.got.tgz:89570.got - 2010.06.28 04:50:58.
