data_PCOD8117623
_publ_section_title
;
Structure prediction by ZEFSAII (Michael W. Deem and Ramdas Pophale) SiO2 
 PCOD8117623
Probable space group: P 2/C
;
_chemical_formula_sum "Si O2"
_cell_formula_units_Z 28
_cell_length_a 33.264696
_cell_length_b 5.242150
_cell_length_c 26.056680
_cell_angle_alpha 90.000000
_cell_angle_beta 21.370566
_cell_angle_gamma 90.000000
_cell_volume 1655.726440
_symmetry_space_group_name_H-M "P 2/C"
_symmetry_group_IT_number 13
_symmetry_cell_setting 'monoclinic'
loop_
_space_group_symop_operation_xyz
x,y,z
-x,y,1/2-z
-x,-y,-z
x,-y,1/2+z
loop_
_atom_site_type_symbol
_atom_site_label
_atom_site_fract_x
_atom_site_fract_y
_atom_site_fract_z
Si Si1 0.455746 0.107392 0.405477
Si Si2 0.369599 0.483438 0.165966
Si Si3 0.682143 0.336318 0.158659
Si Si4 0.407816 0.598523 0.400937
Si Si5 0.778905 0.389261 0.455412
Si Si6 0.877461 0.125225 0.875553
Si Si7 0.612819 0.983174 0.398295
O O1 0.586155 0.144138 0.256115
O O2 0.401768 0.370354 0.449470
O O3 0.404028 0.040465 0.521542
O O4 0.435611 0.871959 0.391904
O O5 0.342743 0.463865 0.257590
O O6 0.316426 0.742236 0.206654
O O7 0.319599 0.241325 0.194738
O O8 0.500000 0.500000 0.000000
O O9 0.691768 0.567681 0.105966
O O10 0.795367 0.170227 0.022054
O O11 0.500000 0.522433 0.250000
O O12 0.287519 0.622175 0.518597
O O13 0.846855 0.130071 0.381378
O O14 0.863784 0.630689 0.353715
O O15 0.000000 0.100244 0.750000
O O16 0.500000 0.000000 0.500000
#
# Coordination Sequence:
#
# PCOD8117623 Si02
#       7
#     4   4   4   4   4   4   4
#     4  12  22  32  50  73 112 147 177 201 247 317
#     4  10  19  30  49  70 104 140 169 206 258 311
#     4  10  22  32  55  75 109 144 173 208 267 306
#     4  12  22  33  48  74 106 147 184 200 242 317
#     4  10  22  36  53  75 109 140 175 219 262 308
#     4  10  21  37  56  76 104 135 178 227 274 309
#     4  10  20  31  47  68 103 143 171 209 252 288
#
# _framework density 16.911006
#
# number of rings (size 3 to 8) (size 9 to 14) (size 15 to 20)
#    0.857    0.571    4.286    3.429    4.000    0.000 
#    0.000    0.000    0.000    0.000    0.000    0.000 
#    0.000   22.857    0.000    0.000    0.000    0.000 
#
# Total GULP energy -346972.901183 kJ/mol
# GULP energy per Si atom -12391.889328 kJ/mol
# Density = 1.687252 g / cm^3
# Si number density = 16.911006 Si / 1000 Ang^3
#
#
#
# Elastic Constant Matrix: (Units=GPa)
#
#
# Indices 1 2 3 4 5 6 
#
# 1 88.2309 38.2516 42.1999 0.0000 1.7929 0.0000
# 2 38.2516 149.5098 23.1334 0.0000 0.1576 0.0000
# 3 42.1999 23.1334 48.1098 0.0000 -4.3530 0.0000
# 4 0.0000 0.0000 0.0000 13.7765 0.0000 -0.1073
# 5 1.7929 0.1576 -4.3530 0.0000 21.5425 0.0000
# 6 0.0000 0.0000 0.0000 -0.1073 0.0000 35.1012
#
#
#
# Elastic Compliance Matrix: (Units=1/GPa)
#
#
# Indices 1 2 3 4 5 6 
#
# 1 0.021033 -0.002644 -0.017658 0.000000 -0.005299 0.000000
# 2 -0.002644 0.007571 -0.001331 0.000000 -0.000104 0.000000
# 3 -0.017658 -0.001331 0.037738 0.000000 0.009105 0.000000
# 4 0.000000 0.000000 0.000000 0.072589 0.000000 0.000222
# 5 -0.005299 -0.000104 0.009105 0.000000 0.048702 0.000000
# 6 0.000000 0.000000 0.000000 0.000222 0.000000 0.028490
#
#
# Mechanical properties :
#
#
# Convention : Reuss Voigt Hill
#
# Bulk Modulus (GPa) = 43.33198 54.78003 49.05600
# Shear Modulus (GPa) = 18.72097 26.23508 22.47802
#
# Velocity S-wave (km/s) = 3.33081 3.94301 3.64977
# Velocity P-wave (km/s) = 6.36173 7.29336 6.84342
#
# Compressibility (1/GPa) = 0.02307765
#
# Stress axis : x y z
#
# Youngs Moduli (GPa) = 47.54390 132.08418 26.49821
#
# Poissons Ratio (x) = 0.34917 0.46790
# Poissons Ratio (y) = 0.12568 0.03527
# Poissons Ratio (z) = 0.83952 0.17582
#
# Static dielectric constant tensor:
#      x y z
#    x 3.096260 0.000000 0.117840 
#    y 0.000000 3.683850 0.000000 
#    z 0.117840 0.000000 2.765760 
# 
# 
# High freq. dielectric constant tensor:
#      x y z
#    x 1.637180 0.000000 0.018520 
#    y 0.000000 1.685390 0.000000 
#    z 0.018520 0.000000 1.596990 
# 
# From -- ./inp_files/82318.got.cif
#   From: 2010.06.25/outbox.cif.g09.slc.cpg/sg13_42_cif.got.tgz:82318.got - 2010.06.28 04:50:58.
