data_PCOD8117108
_publ_section_title
;
Structure prediction by ZEFSAII (Michael W. Deem and Ramdas Pophale) SiO2 
 PCOD8117108
Probable space group: P 2/C
;
_chemical_formula_sum "Si O2"
_cell_formula_units_Z 28
_cell_length_a 20.274307
_cell_length_b 13.286572
_cell_length_c 17.195757
_cell_angle_alpha 90.000000
_cell_angle_beta 19.116663
_cell_angle_gamma 90.000000
_cell_volume 1516.987093
_symmetry_space_group_name_H-M "P 2/C"
_symmetry_group_IT_number 13
_symmetry_cell_setting 'monoclinic'
loop_
_space_group_symop_operation_xyz
x,y,z
-x,y,1/2-z
-x,-y,-z
x,-y,1/2+z
loop_
_atom_site_type_symbol
_atom_site_label
_atom_site_fract_x
_atom_site_fract_y
_atom_site_fract_z
Si Si1 0.562838 0.168301 0.096975
Si Si2 0.043382 0.539818 0.792768
Si Si3 0.698416 0.618665 0.414311
Si Si4 0.058051 0.107323 0.903825
Si Si5 0.269178 0.393114 0.310780
Si Si6 0.055666 0.683890 0.910846
Si Si7 0.871524 0.799151 0.467322
O O1 0.500000 0.119525 0.250000
O O2 0.363878 0.181079 0.270224
O O3 0.674484 0.276062 0.988429
O O4 0.705447 0.102592 0.882288
O O5 0.237772 0.467333 0.594142
O O6 0.083584 0.646848 0.790902
O O7 0.000000 0.556229 0.750000
O O8 0.838095 0.500181 0.061196
O O9 0.492822 0.595622 0.596008
O O10 0.870916 0.626341 0.157772
O O11 0.945367 0.125167 0.949587
O O12 0.992623 0.196359 0.036419
O O13 0.000000 0.000000 0.000000
O O14 0.258552 0.348913 0.233762
O O15 0.113498 0.319547 0.531460
O O16 0.000000 0.828340 0.250000
#
# Coordination Sequence:
#
# PCOD8117108 Si02
#       7
#     4   4   4   4   4   4   4
#     4  10  19  31  56  86 113 129 170 236 284 319
#     4  11  22  31  47  75 113 149 180 206 252 327
#     4   9  19  32  53  79 108 141 175 215 270 324
#     4  10  21  38  57  79 106 145 185 230 284 337
#     4   9  18  31  54  78 106 141 175 220 268 322
#     4   9  20  37  50  75 106 141 182 228 267 320
#     4  10  18  31  54  85 113 132 170 231 287 319
#
# _framework density 18.457637999999999
#
# number of rings (size 3 to 8) (size 9 to 14) (size 15 to 20)
#    0.000    2.286    1.429    3.000    4.000    2.857 
#    0.000    0.714    0.000    0.000    0.000    0.000 
#    0.000    0.000    0.000    0.000    0.000    0.000 
#
# Total GULP energy -346888.112960 kJ/mol
# GULP energy per Si atom -12388.861177 kJ/mol
# Density = 1.841563 g / cm^3
# Si number density = 18.457638 Si / 1000 Ang^3
#
#
#
# Elastic Constant Matrix: (Units=GPa)
#
#
# Indices 1 2 3 4 5 6 
#
# 1 116.2575 60.0758 37.5443 0.0000 0.3768 0.0000
# 2 60.0758 105.7430 40.7622 0.0000 12.5550 0.0000
# 3 37.5443 40.7622 76.7504 0.0000 -3.1853 0.0000
# 4 0.0000 0.0000 0.0000 19.8814 0.0000 -0.8038
# 5 0.3768 12.5550 -3.1853 0.0000 20.7850 0.0000
# 6 0.0000 0.0000 0.0000 -0.8038 0.0000 17.9263
#
#
#
# Elastic Compliance Matrix: (Units=1/GPa)
#
#
# Indices 1 2 3 4 5 6 
#
# 1 0.012913 -0.006747 -0.002591 0.000000 0.003444 0.000000
# 2 -0.006747 0.016990 -0.006183 0.000000 -0.011088 0.000000
# 3 -0.002591 -0.006183 0.017851 0.000000 0.006518 0.000000
# 4 0.000000 0.000000 0.000000 0.050390 0.000000 0.002259
# 5 0.003444 -0.011088 0.006518 0.000000 0.055746 0.000000
# 6 0.000000 0.000000 0.000000 0.002259 0.000000 0.055885
#
#
# Mechanical properties :
#
#
# Convention : Reuss Voigt Hill
#
# Bulk Modulus (GPa) = 59.83399 63.94614 61.89007
# Shear Modulus (GPa) = 20.29325 22.40978 21.35152
#
# Velocity S-wave (km/s) = 3.31939 3.48820 3.40484
# Velocity P-wave (km/s) = 6.86866 7.13747 7.00435
#
# Compressibility (1/GPa) = 0.01671291
#
# Stress axis : x y z
#
# Youngs Moduli (GPa) = 77.43845 58.85836 56.01933
#
# Poissons Ratio (x) = 0.39710 0.14513
# Poissons Ratio (y) = 0.52246 0.34638
# Poissons Ratio (z) = 0.20063 0.36393
#
# Static dielectric constant tensor:
#      x y z
#    x 3.504920 0.000000 -0.283570 
#    y 0.000000 3.079090 0.000000 
#    z -0.283570 0.000000 3.465020 
# 
# 
# High freq. dielectric constant tensor:
#      x y z
#    x 1.718520 0.000000 -0.023980 
#    y 0.000000 1.673610 0.000000 
#    z -0.023980 0.000000 1.713830 
# 
# From -- ./inp_files/70658.got.cif
#   From: 2010.06.25/outbox.cif.g09.slc.cpg/sg13_36_cif.got.tgz:70658.got - 2010.06.28 04:50:58.
