data_PCOD8117451
_publ_section_title
;
Structure prediction by ZEFSAII (Michael W. Deem and Ramdas Pophale) SiO2 
 PCOD8117451
Probable space group: P 2/C
;
_chemical_formula_sum "Si O2"
_cell_formula_units_Z 22
_cell_length_a 9.109347
_cell_length_b 8.257593
_cell_length_c 18.580539
_cell_angle_alpha 90.000000
_cell_angle_beta 48.574106
_cell_angle_gamma 90.000000
_cell_volume 1047.976358
_symmetry_space_group_name_H-M "P 2/C"
_symmetry_group_IT_number 13
_symmetry_cell_setting 'monoclinic'
loop_
_space_group_symop_operation_xyz
x,y,z
-x,y,1/2-z
-x,-y,-z
x,-y,1/2+z
loop_
_atom_site_type_symbol
_atom_site_label
_atom_site_fract_x
_atom_site_fract_y
_atom_site_fract_z
Si Si1 0.646343 0.367439 0.425815
Si Si2 0.645324 0.155399 0.068868
Si Si3 0.727918 0.555966 0.272499
Si Si4 0.500000 0.693178 0.750000
Si Si5 0.638929 0.777596 0.073392
Si Si6 0.964573 0.348924 0.565692
O O1 0.500000 0.500000 0.500000
O O2 0.529220 0.228990 0.421430
O O3 0.796263 0.462588 0.323717
O O4 0.742314 0.296283 0.467543
O O5 0.630898 0.190524 0.158477
O O6 0.626749 0.966278 0.061866
O O7 0.853018 0.231949 0.980535
O O8 0.623128 0.419919 0.260751
O O9 0.575908 0.702243 0.340486
O O10 0.913825 0.608156 0.165077
O O11 0.779471 0.748230 0.095211
O O12 0.000000 0.500000 0.500000
#
# Coordination Sequence:
#
# PCOD8117451 Si02
#       6
#     4   4   4   2   4   4
#     4   9  20  41  63  83 117 169 206 237 304 378
#     4  11  23  36  62  92 127 154 206 260 308 347
#     4  10  19  38  63  85 118 169 207 240 298 376
#     4  10  18  36  58  86 116 166 210 234 296 376
#     4  11  22  39  62  90 126 159 202 259 310 355
#     4  12  21  38  62  91 122 157 210 253 295 362
#
# _framework density 20.992840999999999
#
# number of rings (size 3 to 8) (size 9 to 14) (size 15 to 20)
#    0.000    1.455    3.636    3.273    2.545    0.000 
#    0.000    8.182    0.000    4.364    0.000    0.000 
#    0.000    0.000    0.000    0.000    0.000    0.000 
#
# Total GULP energy -272548.137597 kJ/mol
# GULP energy per Si atom -12388.551709 kJ/mol
# Density = 2.094506 g / cm^3
# Si number density = 20.992841 Si / 1000 Ang^3
#
#
#
# Elastic Constant Matrix: (Units=GPa)
#
#
# Indices 1 2 3 4 5 6 
#
# 1 31.4869 31.2287 26.2799 0.0000 8.3532 0.0000
# 2 31.2287 72.8588 50.7662 0.0000 17.9185 0.0000
# 3 26.2799 50.7662 172.9386 0.0000 18.9291 0.0000
# 4 0.0000 0.0000 0.0000 29.9442 0.0000 -11.2150
# 5 8.3532 17.9185 18.9291 0.0000 32.5721 0.0000
# 6 0.0000 0.0000 0.0000 -11.2150 0.0000 150.3728
#
#
#
# Elastic Compliance Matrix: (Units=1/GPa)
#
#
# Indices 1 2 3 4 5 6 
#
# 1 0.055725 -0.022412 -0.001788 0.000000 -0.000922 0.000000
# 2 -0.022412 0.027901 -0.003987 0.000000 -0.007284 0.000000
# 3 -0.001788 -0.003987 0.007405 0.000000 -0.001652 0.000000
# 4 0.000000 0.000000 0.000000 0.034355 0.000000 0.002562
# 5 -0.000922 -0.007284 -0.001652 0.000000 0.035905 0.000000
# 6 0.000000 0.000000 0.000000 0.002562 0.000000 0.006841
#
#
# Mechanical properties :
#
#
# Convention : Reuss Voigt Hill
#
# Bulk Modulus (GPa) = 28.85466 54.87043 41.86255
# Shear Modulus (GPa) = 21.18116 53.84509 37.51313
#
# Velocity S-wave (km/s) = 3.17988 5.07000 4.23182
# Velocity P-wave (km/s) = 5.22082 7.77610 6.62286
#
# Compressibility (1/GPa) = 0.03465645
#
# Stress axis : x y z
#
# Youngs Moduli (GPa) = 17.94540 35.84082 135.03739
#
# Poissons Ratio (x) = 0.80327 0.24143
# Poissons Ratio (y) = 0.40219 0.53844
# Poissons Ratio (z) = 0.03208 0.14291
#
# Static dielectric constant tensor:
#      x y z
#    x 3.562560 0.000000 0.616040 
#    y 0.000000 3.974830 0.000000 
#    z 0.616040 0.000000 4.692270 
# 
# 
# High freq. dielectric constant tensor:
#      x y z
#    x 1.808650 0.000000 0.026550 
#    y 0.000000 1.822350 0.000000 
#    z 0.026550 0.000000 1.835890 
# 
# From -- ./inp_files/49222.got.cif
#   From: 2010.06.25/outbox.cif.g09.slc.cpg/sg13_25_cif.got.tgz:49222.got - 2010.06.28 04:50:58.
