data_PCOD8117738
_publ_section_title
;
Structure prediction by ZEFSAII (Michael W. Deem and Ramdas Pophale) SiO2 
 PCOD8117738
Probable space group: P 2/C
;
_chemical_formula_sum "Si O2"
_cell_formula_units_Z 20
_cell_length_a 5.136784
_cell_length_b 9.962125
_cell_length_c 25.675230
_cell_angle_alpha 90.000000
_cell_angle_beta 124.401046
_cell_angle_gamma 90.000000
_cell_volume 1084.091394
_symmetry_space_group_name_H-M "P 2/C"
_symmetry_group_IT_number 13
_symmetry_cell_setting 'monoclinic'
loop_
_space_group_symop_operation_xyz
x,y,z
-x,y,1/2-z
-x,-y,-z
x,-y,1/2+z
loop_
_atom_site_type_symbol
_atom_site_label
_atom_site_fract_x
_atom_site_fract_y
_atom_site_fract_z
Si Si1 0.696624 0.951759 0.434267
Si Si2 0.391411 0.040456 0.184580
Si Si3 0.384679 0.380911 0.056555
Si Si4 0.671787 0.328732 0.979276
Si Si5 0.771791 0.836276 0.645745
O O1 0.750730 0.944550 0.376971
O O2 0.578363 0.805695 0.438222
O O3 0.425369 0.062396 0.414865
O O4 0.000000 0.000000 0.500000
O O5 0.500000 0.962321 0.250000
O O6 0.694401 0.121620 0.196557
O O7 0.136415 0.152027 0.172871
O O8 0.449917 0.338583 0.004427
O O9 0.653117 0.315686 0.123131
O O10 0.043320 0.324951 0.035858
O O11 0.394652 0.541788 0.064690
#
# Coordination Sequence:
#
# PCOD8117738 Si02
#       5
#     4   4   4   4   4
#     4  10  20  32  55  84 106 139 173 225 259 325
#     4  10  22  36  54  80 104 142 179 228 267 316
#     4  10  19  33  47  78 110 143 165 215 262 328
#     4  10  20  30  49  76 117 137 167 209 277 308
#     4  10  20  33  57  74 107 138 181 217 261 319
#
# _framework density 18.448626999999998
#
# number of rings (size 3 to 8) (size 9 to 14) (size 15 to 20)
#    1.200    0.800    2.000    3.000    2.800    1.600 
#    0.000    0.000    0.000    1.200    5.200    0.000 
#    0.000    0.000    0.000    0.000    0.000    0.000 
#
# Total GULP energy -247765.029566 kJ/mol
# GULP energy per Si atom -12388.251478 kJ/mol
# Density = 1.840664 g / cm^3
# Si number density = 18.448627 Si / 1000 Ang^3
#
#
#
# Elastic Constant Matrix: (Units=GPa)
#
#
# Indices 1 2 3 4 5 6 
#
# 1 81.2833 10.4562 10.0203 0.0000 2.8536 0.0000
# 2 10.4562 87.8819 22.1155 0.0000 -8.1989 0.0000
# 3 10.0203 22.1155 84.2651 0.0000 -20.6760 0.0000
# 4 0.0000 0.0000 0.0000 16.2046 0.0000 2.5667
# 5 2.8536 -8.1989 -20.6760 0.0000 26.5991 0.0000
# 6 0.0000 0.0000 0.0000 2.5667 0.0000 24.6214
#
#
#
# Elastic Compliance Matrix: (Units=1/GPa)
#
#
# Indices 1 2 3 4 5 6 
#
# 1 0.012838 -0.001337 -0.001995 0.000000 -0.003340 0.000000
# 2 -0.001337 0.012376 -0.002617 0.000000 0.001924 0.000000
# 3 -0.001995 -0.002617 0.015626 0.000000 0.011554 0.000000
# 4 0.000000 0.000000 0.000000 0.062747 0.000000 -0.006541
# 5 -0.003340 0.001924 0.011554 0.000000 0.047528 0.000000
# 6 0.000000 0.000000 0.000000 -0.006541 0.000000 0.041297
#
#
# Mechanical properties :
#
#
# Convention : Reuss Voigt Hill
#
# Bulk Modulus (GPa) = 34.55228 37.62381 36.08804
# Shear Modulus (GPa) = 23.36908 27.54093 25.45501
#
# Velocity S-wave (km/s) = 3.56295 3.86793 3.71857
# Velocity P-wave (km/s) = 5.97459 6.35499 6.16772
#
# Compressibility (1/GPa) = 0.02894165
#
# Stress axis : x y z
#
# Youngs Moduli (GPa) = 77.89447 80.80121 63.99399
#
# Poissons Ratio (x) = 0.10803 0.12769
# Poissons Ratio (y) = 0.10414 0.16748
# Poissons Ratio (z) = 0.15543 0.21146
#
# Static dielectric constant tensor:
#      x y z
#    x 3.477910 0.000000 -0.055280 
#    y 0.000000 3.370750 0.000000 
#    z -0.055280 0.000000 3.170440 
# 
# 
# High freq. dielectric constant tensor:
#      x y z
#    x 1.733810 0.000000 -0.000700 
#    y 0.000000 1.692320 0.000000 
#    z -0.000700 0.000000 1.683510 
# 
# From -- ./inp_files/94796.got.cif
#   From: 2010.06.25/outbox.cif.g09.slc.cpg/sg13_48_cif.got.tgz:94796.got - 2010.06.28 04:50:58.
