data_PCOD8117733
_publ_section_title
;
Structure prediction by ZEFSAII (Michael W. Deem and Ramdas Pophale) SiO2 
 PCOD8117733
Probable space group: P 2/C
;
_chemical_formula_sum "Si O2"
_cell_formula_units_Z 28
_cell_length_a 18.916400
_cell_length_b 15.387094
_cell_length_c 7.850649
_cell_angle_alpha 90.000000
_cell_angle_beta 35.612228
_cell_angle_gamma 90.000000
_cell_volume 1330.591752
_symmetry_space_group_name_H-M "P 2/C"
_symmetry_group_IT_number 13
_symmetry_cell_setting 'monoclinic'
loop_
_space_group_symop_operation_xyz
x,y,z
-x,y,1/2-z
-x,-y,-z
x,-y,1/2+z
loop_
_atom_site_type_symbol
_atom_site_label
_atom_site_fract_x
_atom_site_fract_y
_atom_site_fract_z
Si Si1 0.500000 0.215773 0.750000
Si Si2 0.107176 0.280118 0.656738
Si Si3 0.553034 0.910499 0.834690
Si Si4 0.732648 0.469587 0.621837
Si Si5 0.000000 0.980957 0.750000
Si Si6 0.834101 0.904442 0.349927
Si Si7 0.680238 0.369419 0.414199
Si Si8 0.895336 0.576166 0.080137
O O1 0.506706 0.159812 0.564001
O O2 0.613499 0.279417 0.521296
O O3 0.180156 0.195705 0.571581
O O4 0.180291 0.345765 0.392048
O O5 0.068201 0.333321 0.901836
O O6 0.000000 0.245015 0.750000
O O7 0.500000 0.886257 0.750000
O O8 0.698708 0.926956 0.549831
O O9 0.500000 0.000000 0.000000
O O10 0.656312 0.406323 0.649652
O O11 0.649663 0.553279 0.838673
O O12 0.859447 0.499929 0.282572
O O13 0.771422 0.413292 0.710549
O O14 0.061133 0.916573 0.495474
O O15 0.114726 0.037732 0.593450
O O16 0.000000 0.543776 0.750000
#
# Coordination Sequence:
#
# PCOD8117733 Si02
#       8
#     2   4   4   4   2   4   4   4
#     4  12  26  46  72 100 136 186 234 302 350 402
#     4  11  22  38  59  91 135 165 217 276 331 406
#     4  12  26  48  76 107 138 185 239 294 356 413
#     4   9  20  38  59  87 130 171 218 282 336 404
#     4  10  24  42  72  96 136 180 214 274 362 430
#     4  11  23  45  65 101 135 174 225 275 347 429
#     4  10  22  42  64  95 130 176 229 281 347 411
#     4  10  19  32  57  87 122 169 217 259 328 397
#
# _framework density 21.04327
#
# number of rings (size 3 to 8) (size 9 to 14) (size 15 to 20)
#    0.000    1.429    2.857    2.143    1.000    5.714 
#    5.143    0.000    0.000    0.000    0.000    0.000 
#    0.000    0.000    0.000    0.000    0.000    0.000 
#
# Total GULP energy -346881.154025 kJ/mol
# GULP energy per Si atom -12388.612644 kJ/mol
# Density = 2.099538 g / cm^3
# Si number density = 21.043270 Si / 1000 Ang^3
#
#
#
# Elastic Constant Matrix: (Units=GPa)
#
#
# Indices 1 2 3 4 5 6 
#
# 1 140.0597 61.9728 45.0420 0.0000 8.8771 0.0000
# 2 61.9728 121.2333 30.6263 0.0000 9.1067 0.0000
# 3 45.0420 30.6263 70.3895 0.0000 0.1270 0.0000
# 4 0.0000 0.0000 0.0000 31.4771 0.0000 -2.4525
# 5 8.8771 9.1067 0.1270 0.0000 36.2355 0.0000
# 6 0.0000 0.0000 0.0000 -2.4525 0.0000 38.6293
#
#
#
# Elastic Compliance Matrix: (Units=1/GPa)
#
#
# Indices 1 2 3 4 5 6 
#
# 1 0.010658 -0.004053 -0.005054 0.000000 -0.001575 0.000000
# 2 -0.004053 0.011007 -0.002192 0.000000 -0.001766 0.000000
# 3 -0.005054 -0.002192 0.018391 0.000000 0.001725 0.000000
# 4 0.000000 0.000000 0.000000 0.031927 0.000000 0.002027
# 5 -0.001575 -0.001766 0.001725 0.000000 0.028421 0.000000
# 6 0.000000 0.000000 0.000000 0.002027 0.000000 0.026016
#
#
# Mechanical properties :
#
#
# Convention : Reuss Voigt Hill
#
# Bulk Modulus (GPa) = 57.28066 67.44054 62.36060
# Shear Modulus (GPa) = 32.29173 34.20448 33.24810
#
# Velocity S-wave (km/s) = 3.92157 4.03604 3.97922
# Velocity P-wave (km/s) = 6.91263 7.33741 7.12819
#
# Compressibility (1/GPa) = 0.01745790
#
# Stress axis : x y z
#
# Youngs Moduli (GPa) = 93.82245 90.85096 54.37358
#
# Poissons Ratio (x) = 0.36826 0.27479
# Poissons Ratio (y) = 0.38030 0.11920
# Poissons Ratio (z) = 0.47416 0.19916
#
# Static dielectric constant tensor:
#      x y z
#    x 4.197700 0.000000 0.250350 
#    y 0.000000 3.703410 0.000000 
#    z 0.250350 0.000000 3.771290 
# 
# 
# High freq. dielectric constant tensor:
#      x y z
#    x 1.832100 0.000000 0.011450 
#    y 0.000000 1.824260 0.000000 
#    z 0.011450 0.000000 1.818440 
# 
# From -- ./inp_files/23621.got.cif
#   From: 2010.06.25/outbox.cif.g09.slc.cpg/sg13_12_cif.got.tgz:23621.got - 2010.06.28 04:50:58.
