data_PCOD8117264
_publ_section_title
;
Structure prediction by ZEFSAII (Michael W. Deem and Ramdas Pophale) SiO2 
 PCOD8117264
Probable space group: P 2/C
;
_chemical_formula_sum "Si O2"
_cell_formula_units_Z 32
_cell_length_a 25.457427
_cell_length_b 10.882087
_cell_length_c 16.008523
_cell_angle_alpha 90.000000
_cell_angle_beta 159.420092
_cell_angle_gamma 90.000000
_cell_volume 1558.905619
_symmetry_space_group_name_H-M "P 2/C"
_symmetry_group_IT_number 13
_symmetry_cell_setting 'monoclinic'
loop_
_space_group_symop_operation_xyz
x,y,z
-x,y,1/2-z
-x,-y,-z
x,-y,1/2+z
loop_
_atom_site_type_symbol
_atom_site_label
_atom_site_fract_x
_atom_site_fract_y
_atom_site_fract_z
Si Si1 0.129196 0.740615 0.874624
Si Si2 0.359383 0.393292 0.376479
Si Si3 0.666357 0.847767 0.759237
Si Si4 0.835467 0.700599 0.142365
Si Si5 0.884864 0.240745 0.904555
Si Si6 0.923631 0.484465 0.475228
Si Si7 0.329188 0.884533 0.291111
Si Si8 0.674749 0.483202 0.850495
O O1 0.000000 0.728459 0.750000
O O2 0.049058 0.812063 0.676590
O O3 0.271121 0.813581 0.122203
O O4 0.185793 0.607726 0.926741
O O5 0.346743 0.251660 0.332965
O O6 0.239749 0.421302 0.271124
O O7 0.523422 0.419536 0.656328
O O8 0.328128 0.482734 0.251612
O O9 0.506026 0.863713 0.566015
O O10 0.713595 0.973423 0.784885
O O11 0.796026 0.808927 0.018394
O O12 0.866041 0.760806 0.277429
O O13 0.973588 0.611848 0.317953
O O14 0.694421 0.606933 0.934925
O O15 0.892613 0.376595 0.960688
O O16 0.748671 0.164058 0.740652
O O17 0.000000 0.500000 0.500000
#
# Coordination Sequence:
#
# PCOD8117264 Si02
#       8
#     4   4   4   4   4   4   4   4
#     4  10  18  33  60  86 122 165 209 251 300 377
#     4  10  20  35  57  88 127 161 203 268 310 363
#     4  10  22  39  63  92 126 161 215 277 304 362
#     4  10  22  38  59  96 128 163 201 261 321 386
#     4  10  21  38  62  88 126 166 204 249 316 388
#     4  10  21  38  58  86 131 163 197 249 321 383
#     4  10  21  40  62  92 122 165 225 257 305 371
#     4  10  19  31  59  96 120 158 209 252 318 378
#
# _framework density 20.527221999999998
#
# number of rings (size 3 to 8) (size 9 to 14) (size 15 to 20)
#    0.000    2.000    2.500    1.500    3.500    2.000 
#    9.000    0.625    2.750    0.000    6.500    0.000 
#    0.000    0.000    0.000    0.000    0.000    0.000 
#
# Total GULP energy -396520.989937 kJ/mol
# GULP energy per Si atom -12391.280936 kJ/mol
# Density = 2.048050 g / cm^3
# Si number density = 20.527222 Si / 1000 Ang^3
#
#
#
# Elastic Constant Matrix: (Units=GPa)
#
#
# Indices 1 2 3 4 5 6 
#
# 1 63.5470 32.6582 35.6882 0.0000 4.2898 0.0000
# 2 32.6582 102.5939 30.1581 0.0000 13.2005 0.0000
# 3 35.6882 30.1581 96.0882 0.0000 3.0168 0.0000
# 4 0.0000 0.0000 0.0000 31.0865 0.0000 3.5870
# 5 4.2898 13.2005 3.0168 0.0000 30.9740 0.0000
# 6 0.0000 0.0000 0.0000 3.5870 0.0000 25.9583
#
#
#
# Elastic Compliance Matrix: (Units=1/GPa)
#
#
# Indices 1 2 3 4 5 6 
#
# 1 0.022054 -0.005047 -0.006599 0.000000 -0.000261 0.000000
# 2 -0.005047 0.012484 -0.001905 0.000000 -0.004436 0.000000
# 3 -0.006599 -0.001905 0.013443 0.000000 0.000416 0.000000
# 4 0.000000 0.000000 0.000000 0.032689 0.000000 -0.004517
# 5 -0.000261 -0.004436 0.000416 0.000000 0.034171 0.000000
# 6 0.000000 0.000000 0.000000 -0.004517 0.000000 0.039148
#
#
# Mechanical properties :
#
#
# Convention : Reuss Voigt Hill
#
# Bulk Modulus (GPa) = 47.89239 51.02646 49.45942
# Shear Modulus (GPa) = 26.58877 28.51874 27.55375
#
# Velocity S-wave (km/s) = 3.60292 3.73139 3.66772
# Velocity P-wave (km/s) = 6.37886 6.59366 6.48715
#
# Compressibility (1/GPa) = 0.02088014
#
# Stress axis : x y z
#
# Youngs Moduli (GPa) = 45.34413 80.10020 74.39015
#
# Poissons Ratio (x) = 0.40426 0.49088
# Poissons Ratio (y) = 0.22885 0.14168
# Poissons Ratio (z) = 0.29921 0.15256
#
# Static dielectric constant tensor:
#      x y z
#    x 3.278270 0.000000 -0.118190 
#    y 0.000000 3.785140 0.000000 
#    z -0.118190 0.000000 4.203430 
# 
# 
# High freq. dielectric constant tensor:
#      x y z
#    x 1.763260 0.000000 -0.002890 
#    y 0.000000 1.792420 0.000000 
#    z -0.002890 0.000000 1.823360 
# 
# From -- ./inp_files/71938.got.cif
#   From: 2010.06.25/outbox.cif.g09.slc.cpg/sg13_36_cif.got.tgz:71938.got - 2010.06.28 04:50:58.
