data_PCOD8117911
_publ_section_title
;
Structure prediction by ZEFSAII (Michael W. Deem and Ramdas Pophale) SiO2 
 PCOD8117911
Probable space group: P 2/C
;
_chemical_formula_sum "Si O2"
_cell_formula_units_Z 24
_cell_length_a 17.740009
_cell_length_b 10.192944
_cell_length_c 11.218543
_cell_angle_alpha 90.000000
_cell_angle_beta 30.361148
_cell_angle_gamma 90.000000
_cell_volume 1025.338075
_symmetry_space_group_name_H-M "P 2/C"
_symmetry_group_IT_number 13
_symmetry_cell_setting 'monoclinic'
loop_
_space_group_symop_operation_xyz
x,y,z
-x,y,1/2-z
-x,-y,-z
x,-y,1/2+z
loop_
_atom_site_type_symbol
_atom_site_label
_atom_site_fract_x
_atom_site_fract_y
_atom_site_fract_z
Si Si1 0.317090 0.923284 0.372546
Si Si2 0.374434 0.568137 0.576781
Si Si3 0.835132 0.628808 0.439399
Si Si4 0.649945 0.300286 0.982864
Si Si5 0.695131 0.368868 0.588735
Si Si6 0.349735 0.991720 0.080554
O O1 0.258346 0.775745 0.431140
O O2 0.265071 0.009194 0.325584
O O3 0.258188 0.974695 0.583137
O O4 0.497632 0.926018 0.127441
O O5 0.306675 0.418282 0.666406
O O6 0.350311 0.644062 0.486388
O O7 0.553624 0.572569 0.358267
O O8 0.281303 0.656970 0.795637
O O9 0.782940 0.715321 0.397712
O O10 0.830286 0.472491 0.416073
O O11 0.000000 0.672792 0.250000
O O12 0.500000 0.355842 0.250000
O O13 0.612794 0.163511 0.971362
#
# Coordination Sequence:
#
# PCOD8117911 Si02
#       6
#     4   4   4   4   4   4
#     4  10  20  32  53  88 123 158 195 259 314 350
#     4  10  19  34  57  84 118 153 204 254 298 367
#     4  11  24  37  58  88 125 165 198 245 315 376
#     4  11  20  35  56  89 119 157 197 252 308 356
#     4  10  20  34  56  88 116 155 206 252 305 355
#     4  10  20  32  52  85 126 150 201 254 308 353
#
# _framework density 23.406915000000001
#
# number of rings (size 3 to 8) (size 9 to 14) (size 15 to 20)
#    0.000    1.667    5.000    3.500    2.333    4.000 
#    0.000    0.000    0.000    1.000    0.000   10.500 
#    0.000    0.000    0.000    0.000    0.000    0.000 
#
# Total GULP energy -297392.549676 kJ/mol
# GULP energy per Si atom -12391.356237 kJ/mol
# Density = 2.335364 g / cm^3
# Si number density = 23.406915 Si / 1000 Ang^3
#
#
#
# Elastic Constant Matrix: (Units=GPa)
#
#
# Indices 1 2 3 4 5 6 
#
# 1 137.4416 -6.3079 34.5049 0.0000 19.5719 0.0000
# 2 -6.3079 61.3085 -11.8761 0.0000 8.7346 0.0000
# 3 34.5049 -11.8761 42.9256 0.0000 -1.6299 0.0000
# 4 0.0000 0.0000 0.0000 8.2564 0.0000 1.7486
# 5 19.5719 8.7346 -1.6299 0.0000 44.9022 0.0000
# 6 0.0000 0.0000 0.0000 1.7486 0.0000 28.3698
#
#
#
# Elastic Compliance Matrix: (Units=1/GPa)
#
#
# Indices 1 2 3 4 5 6 
#
# 1 0.010003 0.000110 -0.008188 0.000000 -0.004678 0.000000
# 2 0.000110 0.017703 0.004684 0.000000 -0.003321 0.000000
# 3 -0.008188 0.004684 0.031318 0.000000 0.003795 0.000000
# 4 0.000000 0.000000 0.000000 0.122720 0.000000 -0.007564
# 5 -0.004678 -0.003321 0.003795 0.000000 0.025094 0.000000
# 6 0.000000 0.000000 0.000000 -0.007564 0.000000 0.035715
#
#
# Mechanical properties :
#
#
# Convention : Reuss Voigt Hill
#
# Bulk Modulus (GPa) = 19.14473 30.47970 24.81221
# Shear Modulus (GPa) = 18.74400 31.32933 25.03667
#
# Velocity S-wave (km/s) = 2.83289 3.66247 3.27406
# Velocity P-wave (km/s) = 4.34709 5.56191 4.99160
#
# Compressibility (1/GPa) = 0.05223371
#
# Stress axis : x y z
#
# Youngs Moduli (GPa) = 99.97401 56.48865 31.93100
#
# Poissons Ratio (x) = -0.00619 0.26144
# Poissons Ratio (y) = -0.01096 -0.14955
# Poissons Ratio (z) = 0.81856 -0.26457
#
# Static dielectric constant tensor:
#      x y z
#    x 4.710020 0.000000 0.710010 
#    y 0.000000 3.878700 0.000000 
#    z 0.710010 0.000000 3.589500 
# 
# 
# High freq. dielectric constant tensor:
#      x y z
#    x 1.958170 0.000000 0.058530 
#    y 0.000000 1.919580 0.000000 
#    z 0.058530 0.000000 1.843370 
# 
# From -- ./inp_files/39106.got.cif
#   From: 2010.06.25/outbox.cif.g09.slc.cpg/sg13_20_cif.got.tgz:39106.got - 2010.06.28 04:50:58.
