data_PCOD8117245
_publ_section_title
;
Structure prediction by ZEFSAII (Michael W. Deem and Ramdas Pophale) SiO2 
 PCOD8117245
Probable space group: P 2/C
;
_chemical_formula_sum "Si O2"
_cell_formula_units_Z 28
_cell_length_a 9.376723
_cell_length_b 9.232771
_cell_length_c 29.145352
_cell_angle_alpha 90.000000
_cell_angle_beta 143.496936
_cell_angle_gamma 90.000000
_cell_volume 1500.968014
_symmetry_space_group_name_H-M "P 2/C"
_symmetry_group_IT_number 13
_symmetry_cell_setting 'monoclinic'
loop_
_space_group_symop_operation_xyz
x,y,z
-x,y,1/2-z
-x,-y,-z
x,-y,1/2+z
loop_
_atom_site_type_symbol
_atom_site_label
_atom_site_fract_x
_atom_site_fract_y
_atom_site_fract_z
Si Si1 0.054453 0.768791 0.103617
Si Si2 0.286318 0.468864 0.726845
Si Si3 0.405259 0.122077 0.913180
Si Si4 0.527162 0.196759 0.466674
Si Si5 0.975955 0.719996 0.689824
Si Si6 0.897144 0.041020 0.801333
Si Si7 0.496519 0.230855 0.656831
O O1 0.127931 0.639848 0.156174
O O2 0.076206 0.919239 0.137851
O O3 0.224045 0.780878 0.103536
O O4 0.782886 0.739987 0.016282
O O5 0.500000 0.530199 0.750000
O O6 0.391555 0.382923 0.797938
O O7 0.120953 0.596324 0.701633
O O8 0.512887 0.220662 0.900528
O O9 0.117879 0.117953 0.831989
O O10 0.504555 0.959420 0.937038
O O11 0.481999 0.193161 0.980681
O O12 0.306586 0.297179 0.394210
O O13 0.000000 0.706307 0.750000
O O14 0.085672 0.869263 0.699486
O O15 0.647218 0.095996 0.716061
#
# Coordination Sequence:
#
# PCOD8117245 Si02
#       7
#     4   4   4   4   4   4   4
#     4   9  19  35  56  79 109 140 172 216 262 315
#     4   9  21  38  53  76 110 141 174 218 261 305
#     4   9  17  31  54  79 109 137 169 218 261 309
#     4   9  19  35  51  78 110 137 170 217 271 306
#     4  11  22  36  55  77 104 139 181 222 260 313
#     4   9  17  32  53  80 109 136 171 220 266 305
#     4  10  18  33  57  83 104 137 181 213 255 315
#
# _framework density 18.654627999999999
#
# number of rings (size 3 to 8) (size 9 to 14) (size 15 to 20)
#    0.000    2.571    0.000    4.286    0.000    5.714 
#    0.000    1.429    0.000    3.429    0.000    0.000 
#    0.000    0.000    0.000    0.000    0.000    0.000 
#
# Total GULP energy -347163.269658 kJ/mol
# GULP energy per Si atom -12398.688202 kJ/mol
# Density = 1.861217 g / cm^3
# Si number density = 18.654628 Si / 1000 Ang^3
#
#
#
# Elastic Constant Matrix: (Units=GPa)
#
#
# Indices 1 2 3 4 5 6 
#
# 1 144.6288 69.8274 71.8229 0.0000 12.3213 0.0000
# 2 69.8274 66.2745 38.3744 0.0000 4.2092 0.0000
# 3 71.8229 38.3744 118.1087 0.0000 18.7795 0.0000
# 4 0.0000 0.0000 0.0000 5.9047 0.0000 8.5717
# 5 12.3213 4.2092 18.7795 0.0000 35.1122 0.0000
# 6 0.0000 0.0000 0.0000 8.5717 0.0000 29.5930
#
#
#
# Elastic Compliance Matrix: (Units=1/GPa)
#
#
# Indices 1 2 3 4 5 6 
#
# 1 0.016507 -0.014309 -0.005181 0.000000 -0.001306 0.000000
# 2 -0.014309 0.031027 -0.001734 0.000000 0.002229 0.000000
# 3 -0.005181 -0.001734 0.012961 0.000000 -0.004906 0.000000
# 4 0.000000 0.000000 0.000000 0.292233 0.000000 -0.084646
# 5 -0.001306 0.002229 -0.004906 0.000000 0.031295 0.000000
# 6 0.000000 0.000000 0.000000 -0.084646 0.000000 0.058310
#
#
# Mechanical properties :
#
#
# Convention : Reuss Voigt Hill
#
# Bulk Modulus (GPa) = 55.41163 76.56235 65.98699
# Shear Modulus (GPa) = 10.18752 24.05446 17.12099
#
# Velocity S-wave (km/s) = 2.33944 3.59481 3.03279
# Velocity P-wave (km/s) = 6.08816 7.63946 6.90750
#
# Compressibility (1/GPa) = 0.01804675
#
# Stress axis : x y z
#
# Youngs Moduli (GPa) = 60.58070 32.22987 77.15413
#
# Poissons Ratio (x) = 0.46117 0.39976
# Poissons Ratio (y) = 0.86684 0.13379
# Poissons Ratio (z) = 0.31389 0.05589
#
# Static dielectric constant tensor:
#      x y z
#    x 3.502020 0.000000 0.139500 
#    y 0.000000 3.218900 0.000000 
#    z 0.139500 0.000000 3.488190 
# 
# 
# High freq. dielectric constant tensor:
#      x y z
#    x 1.726350 0.000000 0.009170 
#    y 0.000000 1.699090 0.000000 
#    z 0.009170 0.000000 1.724040 
# 
# From -- ./inp_files/91219.got.cif
#   From: 2010.06.25/outbox.cif.g09.slc.cpg/sg13_46_cif.got.tgz:91219.got - 2010.06.28 04:50:58.
