data_PCOD8117406
_publ_section_title
;
Structure prediction by ZEFSAII (Michael W. Deem and Ramdas Pophale) SiO2 
 PCOD8117406
Probable space group: P 2/C
;
_chemical_formula_sum "Si O2"
_cell_formula_units_Z 26
_cell_length_a 8.971384
_cell_length_b 8.866578
_cell_length_c 17.872587
_cell_angle_alpha 90.000000
_cell_angle_beta 92.606359
_cell_angle_gamma 90.000000
_cell_volume 1420.212750
_symmetry_space_group_name_H-M "P 2/C"
_symmetry_group_IT_number 13
_symmetry_cell_setting 'monoclinic'
loop_
_space_group_symop_operation_xyz
x,y,z
-x,y,1/2-z
-x,-y,-z
x,-y,1/2+z
loop_
_atom_site_type_symbol
_atom_site_label
_atom_site_fract_x
_atom_site_fract_y
_atom_site_fract_z
Si Si1 0.219815 0.543232 0.007855
Si Si2 0.164035 0.948461 0.483509
Si Si3 0.000000 0.427127 0.750000
Si Si4 0.318016 0.748380 0.603691
Si Si5 0.341147 0.216624 0.411280
Si Si6 0.833278 0.287207 0.242756
Si Si7 0.966439 0.326767 0.590495
O O1 0.287194 0.415011 0.064203
O O2 0.124104 0.669910 0.050311
O O3 0.344058 0.639582 0.967310
O O4 0.117818 0.476793 0.939056
O O5 0.231591 0.880820 0.560337
O O6 0.141384 0.814811 0.423645
O O7 0.275915 0.071156 0.452231
O O8 0.000000 0.000000 0.500000
O O9 0.851585 0.531235 0.743374
O O10 0.004187 0.322128 0.678323
O O11 0.488565 0.800068 0.608106
O O12 0.264379 0.754019 0.687677
O O13 0.244638 0.235925 0.334712
O O14 0.000000 0.212693 0.250000
#
# Coordination Sequence:
#
# PCOD8117406 Si02
#       7
#     4   4   2   4   4   4   4
#     4  10  18  35  60  88 111 149 201 245 291 348
#     4  11  23  39  59  84 118 161 202 243 293 364
#     4  10  18  36  60  88 110 142 194 258 290 340
#     4  11  23  38  60  87 122 156 195 253 305 358
#     4  12  22  38  58  92 122 156 195 247 309 361
#     4  10  20  37  63  86 111 152 203 242 291 356
#     4  10  19  35  61  85 113 148 203 248 285 343
#
# _framework density 18.307115
#
# number of rings (size 3 to 8) (size 9 to 14) (size 15 to 20)
#    0.462    0.923    4.615    2.308    2.154    0.000 
#    4.154    0.000    0.000    0.000    0.000    0.000 
#    0.000    0.000    0.000    0.000    0.000    0.000 
#
# Total GULP energy -322212.211120 kJ/mol
# GULP energy per Si atom -12392.777351 kJ/mol
# Density = 1.826545 g / cm^3
# Si number density = 18.307115 Si / 1000 Ang^3
#
#
#
# Elastic Constant Matrix: (Units=GPa)
#
#
# Indices 1 2 3 4 5 6 
#
# 1 103.6520 29.2180 18.1203 0.0000 -17.4798 0.0000
# 2 29.2180 69.1760 42.2007 0.0000 -6.9359 0.0000
# 3 18.1203 42.2007 105.7608 0.0000 -10.4325 0.0000
# 4 0.0000 0.0000 0.0000 18.8334 0.0000 -5.2740
# 5 -17.4798 -6.9359 -10.4325 0.0000 34.5778 0.0000
# 6 0.0000 0.0000 0.0000 -5.2740 0.0000 26.5779
#
#
#
# Elastic Compliance Matrix: (Units=1/GPa)
#
#
# Indices 1 2 3 4 5 6 
#
# 1 0.011766 -0.004672 0.000353 0.000000 0.005117 0.000000
# 2 -0.004672 0.021046 -0.007641 0.000000 -0.000446 0.000000
# 3 0.000353 -0.007641 0.012688 0.000000 0.002474 0.000000
# 4 0.000000 0.000000 0.000000 0.056221 0.000000 0.011156
# 5 0.005117 -0.000446 0.002474 0.000000 0.032164 0.000000
# 6 0.000000 0.000000 0.000000 0.011156 0.000000 0.039839
#
#
# Mechanical properties :
#
#
# Convention : Reuss Voigt Hill
#
# Bulk Modulus (GPa) = 46.34017 50.85186 48.59602
# Shear Modulus (GPa) = 24.40958 28.60115 26.50537
#
# Velocity S-wave (km/s) = 3.65545 3.95688 3.80915
# Velocity P-wave (km/s) = 6.57146 6.97949 6.77854
#
# Compressibility (1/GPa) = 0.02157955
#
# Stress axis : x y z
#
# Youngs Moduli (GPa) = 84.99174 47.51487 78.81553
#
# Poissons Ratio (x) = 0.22198 -0.02783
# Poissons Ratio (y) = 0.39707 0.60225
# Poissons Ratio (z) = -0.03001 0.36308
#
# Static dielectric constant tensor:
#      x y z
#    x 3.457940 0.000000 -0.030640 
#    y 0.000000 3.685700 0.000000 
#    z -0.030640 0.000000 3.344570 
# 
# 
# High freq. dielectric constant tensor:
#      x y z
#    x 1.704780 0.000000 -0.000940 
#    y 0.000000 1.697460 0.000000 
#    z -0.000940 0.000000 1.718910 
# 
# From -- ./inp_files/63727.got.cif
#   From: 2010.06.25/outbox.cif.g09.slc.cpg/sg13_32_cif.got.tgz:63727.got - 2010.06.28 04:50:58.
