data_PCOD8117720
_publ_section_title
;
Structure prediction by ZEFSAII (Michael W. Deem and Ramdas Pophale) SiO2 
 PCOD8117720
Probable space group: P 2/C
;
_chemical_formula_sum "Si O2"
_cell_formula_units_Z 30
_cell_length_a 16.950455
_cell_length_b 18.500508
_cell_length_c 13.811140
_cell_angle_alpha 90.000000
_cell_angle_beta 19.300336
_cell_angle_gamma 90.000000
_cell_volume 1431.502763
_symmetry_space_group_name_H-M "P 2/C"
_symmetry_group_IT_number 13
_symmetry_cell_setting 'monoclinic'
loop_
_space_group_symop_operation_xyz
x,y,z
-x,y,1/2-z
-x,-y,-z
x,-y,1/2+z
loop_
_atom_site_type_symbol
_atom_site_label
_atom_site_fract_x
_atom_site_fract_y
_atom_site_fract_z
Si Si1 0.163054 0.458228 0.385822
Si Si2 0.597909 0.449899 0.740809
Si Si3 0.077447 0.924752 0.366938
Si Si4 0.084050 0.299129 0.460711
Si Si5 0.500000 0.891726 0.750000
Si Si6 0.766906 0.205789 0.702958
Si Si7 0.563848 0.288329 0.779445
Si Si8 0.251929 0.171245 0.371319
O O1 0.192298 0.499955 0.455652
O O2 0.044609 0.380234 0.545179
O O3 0.000000 0.500000 0.500000
O O4 0.408548 0.447027 0.046050
O O5 0.500000 0.480665 0.750000
O O6 0.685185 0.367520 0.623488
O O7 0.072541 0.864652 0.459526
O O8 0.882707 0.899130 0.514594
O O9 0.341823 0.936040 0.011665
O O10 0.000000 0.000000 0.500000
O O11 0.102203 0.244822 0.530999
O O12 0.853061 0.274312 0.666908
O O13 0.321779 0.293842 0.120901
O O14 0.700345 0.841998 0.570243
O O15 0.760843 0.235070 0.599715
O O16 0.502554 0.180397 0.030105
O O17 0.500000 0.254043 0.750000
#
# Coordination Sequence:
#
# PCOD8117720 Si02
#       8
#     4   4   4   4   2   4   4   4
#     4  10  19  32  54  77 110 150 191 243 300 355
#     4   9  19  34  51  76 109 149 193 240 296 358
#     4  10  21  38  65  85 119 154 190 235 289 349
#     4   9  18  33  53  79 105 149 193 237 291 344
#     4  10  20  36  64  90 112 154 196 234 282 352
#     4   9  18  33  56  79 109 148 187 233 286 340
#     4   9  17  31  54  76 106 147 192 238 290 353
#     4   9  19  37  60  81 110 145 195 231 279 341
#
# _framework density 20.956997000000001
#
# number of rings (size 3 to 8) (size 9 to 14) (size 15 to 20)
#    0.000    2.667    0.000    1.200    0.000    4.267 
#    1.200    4.000   44.000    0.000    0.000    0.000 
#    0.000    0.000    0.000    0.000    0.000    0.000 
#
# Total GULP energy -371646.323804 kJ/mol
# GULP energy per Si atom -12388.210793 kJ/mol
# Density = 2.090930 g / cm^3
# Si number density = 20.956997 Si / 1000 Ang^3
#
#
#
# Elastic Constant Matrix: (Units=GPa)
#
#
# Indices 1 2 3 4 5 6 
#
# 1 181.8393 86.7566 23.1002 0.0000 -23.6687 0.0000
# 2 86.7566 152.3857 33.0185 0.0000 -12.8954 0.0000
# 3 23.1002 33.0185 44.9765 0.0000 -7.3109 0.0000
# 4 0.0000 0.0000 0.0000 22.3174 0.0000 -3.6421
# 5 -23.6687 -12.8954 -7.3109 0.0000 31.7034 0.0000
# 6 0.0000 0.0000 0.0000 -3.6421 0.0000 24.5680
#
#
#
# Elastic Compliance Matrix: (Units=1/GPa)
#
#
# Indices 1 2 3 4 5 6 
#
# 1 0.008088 -0.004155 -0.000412 0.000000 0.004253 0.000000
# 2 -0.004155 0.010053 -0.005284 0.000000 -0.000232 0.000000
# 3 -0.000412 -0.005284 0.026935 0.000000 0.003754 0.000000
# 4 0.000000 0.000000 0.000000 0.045919 0.000000 0.006807
# 5 0.004253 -0.000232 0.003754 0.000000 0.035489 0.000000
# 6 0.000000 0.000000 0.000000 0.006807 0.000000 0.041713
#
#
# Mechanical properties :
#
#
# Convention : Reuss Voigt Hill
#
# Bulk Modulus (GPa) = 39.41144 73.88359 56.64751
# Shear Modulus (GPa) = 25.46380 31.47282 28.46831
#
# Velocity S-wave (km/s) = 3.48954 3.87949 3.68967
# Velocity P-wave (km/s) = 5.92305 7.44302 6.72611
#
# Compressibility (1/GPa) = 0.02537334
#
# Stress axis : x y z
#
# Youngs Moduli (GPa) = 123.64227 99.46922 37.12673
#
# Poissons Ratio (x) = 0.41334 0.01530
# Poissons Ratio (y) = 0.51379 0.19617
# Poissons Ratio (z) = 0.05095 0.52558
#
# Static dielectric constant tensor:
#      x y z
#    x 4.184010 0.000000 -0.889750 
#    y 0.000000 3.943410 0.000000 
#    z -0.889750 0.000000 -1.159510 
# 
# 
# High freq. dielectric constant tensor:
#      x y z
#    x 1.830600 0.000000 -0.019770 
#    y 0.000000 1.803610 0.000000 
#    z -0.019770 0.000000 1.804460 
# 
# From -- ./inp_files/55948.got.cif
#   From: 2010.06.25/outbox.cif.g09.slc.cpg/sg13_28_cif.got.tgz:55948.got - 2010.06.28 04:50:58.
