data_PCOD8117395
_publ_section_title
;
Structure prediction by ZEFSAII (Michael W. Deem and Ramdas Pophale) SiO2 
 PCOD8117395
Probable space group: P 2/C
;
_chemical_formula_sum "Si O2"
_cell_formula_units_Z 20
_cell_length_a 20.974340
_cell_length_b 7.866085
_cell_length_c 12.761431
_cell_angle_alpha 90.000000
_cell_angle_beta 26.112179
_cell_angle_gamma 90.000000
_cell_volume 926.674761
_symmetry_space_group_name_H-M "P 2/C"
_symmetry_group_IT_number 13
_symmetry_cell_setting 'monoclinic'
loop_
_space_group_symop_operation_xyz
x,y,z
-x,y,1/2-z
-x,-y,-z
x,-y,1/2+z
loop_
_atom_site_type_symbol
_atom_site_label
_atom_site_fract_x
_atom_site_fract_y
_atom_site_fract_z
Si Si1 0.156740 0.903722 0.744348
Si Si2 0.316081 0.117737 0.218584
Si Si3 0.103868 0.780819 0.192892
Si Si4 0.890505 0.399313 0.317635
Si Si5 0.372348 0.808244 0.263992
O O1 0.188981 0.879653 0.819280
O O2 0.070283 0.736248 0.831226
O O3 0.309896 0.913337 0.456018
O O4 0.073829 0.082991 0.833392
O O5 0.261979 0.200894 0.407046
O O6 0.356395 0.920921 0.181501
O O7 0.456410 0.225348 0.972079
O O8 0.091100 0.589291 0.254876
O O9 0.000000 0.824257 0.250000
O O10 0.724540 0.364045 0.603929
O O11 0.000000 0.367250 0.250000
#
# Coordination Sequence:
#
# PCOD8117395 Si02
#       5
#     4   4   4   4   4
#     4   9  19  35  58  78 110 139 183 221 272 316
#     4  10  18  35  59  81 104 149 180 221 274 323
#     4  10  21  37  54  82 114 142 183 225 268 325
#     4   9  19  38  54  76 115 145 173 228 269 313
#     4   8  19  34  57  78 110 141 175 226 271 314
#
# _framework density 21.582545
#
# number of rings (size 3 to 8) (size 9 to 14) (size 15 to 20)
#    1.200    1.600    0.000    1.200    0.000    1.600 
#    3.600    2.000   13.200    0.000    0.000    0.000 
#    0.000    0.000    0.000    0.000    0.000    0.000 
#
# Total GULP energy -247775.934439 kJ/mol
# GULP energy per Si atom -12388.796722 kJ/mol
# Density = 2.153342 g / cm^3
# Si number density = 21.582545 Si / 1000 Ang^3
#
#
#
# Elastic Constant Matrix: (Units=GPa)
#
#
# Indices 1 2 3 4 5 6 
#
# 1 103.5461 72.1288 25.0848 0.0000 -5.1385 0.0000
# 2 72.1288 147.8216 39.5531 0.0000 1.6287 0.0000
# 3 25.0848 39.5531 60.3872 0.0000 -5.5912 0.0000
# 4 0.0000 0.0000 0.0000 23.2830 0.0000 5.9896
# 5 -5.1385 1.6287 -5.5912 0.0000 29.1922 0.0000
# 6 0.0000 0.0000 0.0000 5.9896 0.0000 26.3557
#
#
#
# Elastic Compliance Matrix: (Units=1/GPa)
#
#
# Indices 1 2 3 4 5 6 
#
# 1 0.014989 -0.006968 -0.001407 0.000000 0.002758 0.000000
# 2 -0.006968 0.011508 -0.004903 0.000000 -0.002808 0.000000
# 3 -0.001407 -0.004903 0.020726 0.000000 0.003995 0.000000
# 4 0.000000 0.000000 0.000000 0.045617 0.000000 -0.010367
# 5 0.002758 -0.002808 0.003995 0.000000 0.035663 0.000000
# 6 0.000000 0.000000 0.000000 -0.010367 0.000000 0.040298
#
#
# Mechanical properties :
#
#
# Convention : Reuss Voigt Hill
#
# Bulk Modulus (GPa) = 48.38773 65.03202 56.70987
# Shear Modulus (GPa) = 24.72254 27.43207 26.07730
#
# Velocity S-wave (km/s) = 3.38818 3.56902 3.47977
# Velocity P-wave (km/s) = 6.14612 6.86885 6.51751
#
# Compressibility (1/GPa) = 0.02066640
#
# Stress axis : x y z
#
# Youngs Moduli (GPa) = 66.71648 86.89971 48.24911
#
# Poissons Ratio (x) = 0.60548 0.06790
# Poissons Ratio (y) = 0.46485 0.23656
# Poissons Ratio (z) = 0.09389 0.42607
#
# Static dielectric constant tensor:
#      x y z
#    x 3.605660 0.000000 0.074780 
#    y 0.000000 3.679010 0.000000 
#    z 0.074780 0.000000 4.110240 
# 
# 
# High freq. dielectric constant tensor:
#      x y z
#    x 1.829150 0.000000 0.008510 
#    y 0.000000 1.823750 0.000000 
#    z 0.008510 0.000000 1.871060 
# 
# From -- ./inp_files/56851.got.cif
#   From: 2010.06.25/outbox.cif.g09.slc.cpg/sg13_29_cif.got.tgz:56851.got - 2010.06.28 04:50:58.
