data_PCOD8117680
_publ_section_title
;
Structure prediction by ZEFSAII (Michael W. Deem and Ramdas Pophale) SiO2 
 PCOD8117680
Probable space group: P 2/C
;
_chemical_formula_sum "Si O2"
_cell_formula_units_Z 30
_cell_length_a 9.158736
_cell_length_b 13.092449
_cell_length_c 25.529949
_cell_angle_alpha 90.000000
_cell_angle_beta 148.972194
_cell_angle_gamma 90.000000
_cell_volume 1577.961109
_symmetry_space_group_name_H-M "P 2/C"
_symmetry_group_IT_number 13
_symmetry_cell_setting 'monoclinic'
loop_
_space_group_symop_operation_xyz
x,y,z
-x,y,1/2-z
-x,-y,-z
x,-y,1/2+z
loop_
_atom_site_type_symbol
_atom_site_label
_atom_site_fract_x
_atom_site_fract_y
_atom_site_fract_z
Si Si1 0.725387 0.647322 0.133941
Si Si2 0.301815 0.262565 0.984696
Si Si3 0.000000 0.009546 0.750000
Si Si4 0.703325 0.455452 0.857782
Si Si5 0.448758 0.151693 0.586226
Si Si6 0.707066 0.093302 0.070146
Si Si7 0.261079 0.783591 0.135963
Si Si8 0.345345 0.471941 0.045975
O O1 0.820082 0.689711 0.106570
O O2 0.563808 0.734029 0.116418
O O3 0.522691 0.549209 0.064018
O O4 0.000000 0.611638 0.250000
O O5 0.048130 0.199680 0.933964
O O6 0.558175 0.186265 0.054312
O O7 0.420062 0.354780 0.056291
O O8 0.281426 0.076529 0.830024
O O9 0.028152 0.940405 0.811837
O O10 0.500000 0.491980 0.750000
O O11 0.699190 0.334623 0.865902
O O12 0.577937 0.510151 0.870108
O O13 0.012790 0.494621 0.936471
O O14 0.229274 0.127252 0.470686
O O15 0.281645 0.147142 0.589858
O O16 0.500000 0.000000 0.000000
O O17 0.500000 0.821022 0.250000
#
# Coordination Sequence:
#
# PCOD8117680 Si02
#       8
#     4   4   2   4   4   4   4   4
#     4  11  20  33  57  88 119 149 196 241 284 339
#     4  10  22  37  54  84 121 150 192 240 288 349
#     4  10  20  40  64  80 114 146 198 240 308 360
#     4   9  19  35  55  81 121 160 190 236 289 342
#     4  10  19  35  62  90 109 146 192 243 299 349
#     4   9  21  39  62  80 113 152 188 246 297 345
#     4  10  19  31  59  88 116 146 189 245 295 339
#     4  10  20  34  54  84 121 154 195 231 282 349
#
# _framework density 19.011876000000001
#
# number of rings (size 3 to 8) (size 9 to 14) (size 15 to 20)
#    0.000    2.133    2.000    1.200    7.467    0.000 
#    1.200    4.000    0.000    0.000    0.000    0.000 
#    0.000    0.000    0.000    0.000    0.000    0.000 
#
# Total GULP energy -371900.116184 kJ/mol
# GULP energy per Si atom -12396.670539 kJ/mol
# Density = 1.896860 g / cm^3
# Si number density = 19.011876 Si / 1000 Ang^3
#
#
#
# Elastic Constant Matrix: (Units=GPa)
#
#
# Indices 1 2 3 4 5 6 
#
# 1 111.7891 24.6419 33.1333 0.0000 -16.1929 0.0000
# 2 24.6419 60.0805 22.8613 0.0000 -5.2510 0.0000
# 3 33.1333 22.8613 90.9438 0.0000 -24.6913 0.0000
# 4 0.0000 0.0000 0.0000 24.9881 0.0000 -9.5343
# 5 -16.1929 -5.2510 -24.6913 0.0000 25.6559 0.0000
# 6 0.0000 0.0000 0.0000 -9.5343 0.0000 22.9796
#
#
#
# Elastic Compliance Matrix: (Units=1/GPa)
#
#
# Indices 1 2 3 4 5 6 
#
# 1 0.010886 -0.003344 -0.001957 0.000000 0.004303 0.000000
# 2 -0.003344 0.019448 -0.004282 0.000000 -0.002251 0.000000
# 3 -0.001957 -0.004282 0.016531 0.000000 0.013798 0.000000
# 4 0.000000 0.000000 0.000000 0.047546 0.000000 0.019727
# 5 0.004303 -0.002251 0.013798 0.000000 0.054512 0.000000
# 6 0.000000 0.000000 0.000000 0.019727 0.000000 0.051702
#
#
# Mechanical properties :
#
#
# Convention : Reuss Voigt Hill
#
# Bulk Modulus (GPa) = 36.10132 47.12070 41.61101
# Shear Modulus (GPa) = 21.83173 26.86984 24.35079
#
# Velocity S-wave (km/s) = 3.39236 3.76349 3.58274
# Velocity P-wave (km/s) = 5.86295 6.61240 6.24892
#
# Compressibility (1/GPa) = 0.02769982
#
# Stress axis : x y z
#
# Youngs Moduli (GPa) = 91.86195 51.41812 60.49084
#
# Poissons Ratio (x) = 0.17194 0.11840
# Poissons Ratio (y) = 0.30719 0.25900
# Poissons Ratio (z) = 0.17980 0.22016
#
# Static dielectric constant tensor:
#      x y z
#    x 3.629170 0.000000 -0.264850 
#    y 0.000000 3.561950 0.000000 
#    z -0.264850 0.000000 3.634710 
# 
# 
# High freq. dielectric constant tensor:
#      x y z
#    x 1.741740 0.000000 -0.020880 
#    y 0.000000 1.727180 0.000000 
#    z -0.020880 0.000000 1.723780 
# 
# From -- ./inp_files/85297.got.cif
#   From: 2010.06.25/outbox.cif.g09.slc.cpg/sg13_43_cif.got.tgz:85297.got - 2010.06.28 04:50:58.
