data_PCOD8117055
_publ_section_title
;
Structure prediction by ZEFSAII (Michael W. Deem and Ramdas Pophale) SiO2 
 PCOD8117055
Probable space group: P 2/C
;
_chemical_formula_sum "Si O2"
_cell_formula_units_Z 24
_cell_length_a 26.697611
_cell_length_b 10.384593
_cell_length_c 21.707086
_cell_angle_alpha 90.000000
_cell_angle_beta 169.007049
_cell_angle_gamma 90.000000
_cell_volume 1147.591403
_symmetry_space_group_name_H-M "P 2/C"
_symmetry_group_IT_number 13
_symmetry_cell_setting 'monoclinic'
loop_
_space_group_symop_operation_xyz
x,y,z
-x,y,1/2-z
-x,-y,-z
x,-y,1/2+z
loop_
_atom_site_type_symbol
_atom_site_label
_atom_site_fract_x
_atom_site_fract_y
_atom_site_fract_z
Si Si1 0.896654 0.349501 0.193229
Si Si2 0.500000 0.134525 0.750000
Si Si3 0.332981 0.399468 0.923915
Si Si4 0.072553 0.086840 0.145793
Si Si5 0.239308 0.673299 0.774416
Si Si6 0.500000 0.441736 0.250000
Si Si7 0.653282 0.250619 0.682509
O O1 0.000000 0.376283 0.250000
O O2 0.147465 0.339319 0.539858
O O3 0.706930 0.223185 0.962122
O O4 0.756637 0.470945 0.054085
O O5 0.317125 0.041113 0.484675
O O6 0.406677 0.550606 0.000734
O O7 0.420458 0.311515 0.972678
O O8 0.029190 0.384462 0.575672
O O9 0.482942 0.355559 0.167295
O O10 0.172548 0.230230 0.249144
O O11 0.793383 0.109895 0.843778
O O12 0.000000 0.000000 0.000000
O O13 0.385058 0.756684 0.897587
#
# Coordination Sequence:
#
# PCOD8117055 Si02
#       7
#     4   2   4   4   4   2   4
#     4  10  18  30  52  79 101 130 173 224 269 302
#     4   9  18  34  53  74 102 130 171 227 270 308
#     4  10  20  33  52  77 108 144 174 213 262 313
#     4  10  21  36  55  79 105 138 177 220 270 318
#     4  10  19  35  55  78 106 135 175 220 267 317
#     4  11  20  30  45  74 112 142 175 209 250 314
#     4  10  20  35  56  78 104 138 176 219 267 314
#
# _framework density 20.913366
#
# number of rings (size 3 to 8) (size 9 to 14) (size 15 to 20)
#    0.000    2.000    0.000    7.500    0.000    2.000 
#    0.000    3.333    0.000    0.000    0.000    0.000 
#    0.000    0.000    0.000    0.000    0.000    0.000 
#
# Total GULP energy -297348.326580 kJ/mol
# GULP energy per Si atom -12389.513608 kJ/mol
# Density = 2.086577 g / cm^3
# Si number density = 20.913366 Si / 1000 Ang^3
#
#
#
# Elastic Constant Matrix: (Units=GPa)
#
#
# Indices 1 2 3 4 5 6 
#
# 1 106.7026 2.5941 34.1560 0.0000 -9.5241 0.0000
# 2 2.5941 26.1835 12.8015 0.0000 -5.7823 0.0000
# 3 34.1560 12.8015 62.4540 0.0000 -10.6150 0.0000
# 4 0.0000 0.0000 0.0000 16.6538 0.0000 -5.7694
# 5 -9.5241 -5.7823 -10.6150 0.0000 54.9845 0.0000
# 6 0.0000 0.0000 0.0000 -5.7694 0.0000 35.2017
#
#
#
# Elastic Compliance Matrix: (Units=1/GPa)
#
#
# Indices 1 2 3 4 5 6 
#
# 1 0.011517 0.002301 -0.006607 0.000000 0.000961 0.000000
# 2 0.002301 0.043351 -0.009617 0.000000 0.003101 0.000000
# 3 -0.006607 -0.009617 0.021950 0.000000 0.002082 0.000000
# 4 0.000000 0.000000 0.000000 0.063661 0.000000 0.010434
# 5 0.000961 0.003101 0.002082 0.000000 0.019081 0.000000
# 6 0.000000 0.000000 0.000000 0.010434 0.000000 0.030118
#
#
# Mechanical properties :
#
#
# Convention : Reuss Voigt Hill
#
# Bulk Modulus (GPa) = 20.41980 32.71596 26.56788
# Shear Modulus (GPa) = 21.38147 31.08723 26.23435
#
# Velocity S-wave (km/s) = 3.20094 3.85967 3.54564
# Velocity P-wave (km/s) = 4.84216 5.96156 5.43078
#
# Compressibility (1/GPa) = 0.04897208
#
# Stress axis : x y z
#
# Youngs Moduli (GPa) = 86.83161 23.06757 45.55773
#
# Poissons Ratio (x) = -0.05309 0.30099
# Poissons Ratio (y) = -0.19984 0.43815
# Poissons Ratio (z) = 0.57367 0.22185
#
# Static dielectric constant tensor:
#      x y z
#    x 4.061340 0.000000 0.077300 
#    y 0.000000 3.231060 0.000000 
#    z 0.077300 0.000000 4.010720 
# 
# 
# High freq. dielectric constant tensor:
#      x y z
#    x 1.833470 0.000000 -0.003070 
#    y 0.000000 1.755230 0.000000 
#    z -0.003070 0.000000 1.824660 
# 
# From -- ./inp_files/89685.got.cif
#   From: 2010.06.25/outbox.cif.g09.slc.cpg/sg13_45_cif.got.tgz:89685.got - 2010.06.28 04:50:58.
