data_PCOD8117092
_publ_section_title
;
Structure prediction by ZEFSAII (Michael W. Deem and Ramdas Pophale) SiO2 
 PCOD8117092
Probable space group: P 2/C
;
_chemical_formula_sum "Si O2"
_cell_formula_units_Z 32
_cell_length_a 23.019568
_cell_length_b 8.001644
_cell_length_c 27.047643
_cell_angle_alpha 90.000000
_cell_angle_beta 18.858112
_cell_angle_gamma 90.000000
_cell_volume 1610.318034
_symmetry_space_group_name_H-M "P 2/C"
_symmetry_group_IT_number 13
_symmetry_cell_setting 'monoclinic'
loop_
_space_group_symop_operation_xyz
x,y,z
-x,y,1/2-z
-x,-y,-z
x,-y,1/2+z
loop_
_atom_site_type_symbol
_atom_site_label
_atom_site_fract_x
_atom_site_fract_y
_atom_site_fract_z
Si Si1 0.779613 0.412837 0.789382
Si Si2 0.350026 0.895925 0.518229
Si Si3 0.827642 0.722789 0.923191
Si Si4 0.710220 0.051566 0.240143
Si Si5 0.011601 0.839761 0.434631
Si Si6 0.046858 0.616801 0.156592
Si Si7 0.413058 0.257771 0.072060
Si Si8 0.020244 0.976641 0.143518
O O1 0.700963 0.575805 0.827125
O O2 0.936817 0.341984 0.627597
O O3 0.867023 0.445581 0.772617
O O4 0.619587 0.277278 0.922874
O O5 0.332710 0.774470 0.484485
O O6 0.404259 0.786972 0.521804
O O7 0.519617 0.012184 0.368203
O O8 0.170170 0.003874 0.673964
O O9 0.806470 0.537062 0.965238
O O10 0.000000 0.706249 0.750000
O O11 0.852148 0.867790 0.944744
O O12 0.675034 0.118252 0.323421
O O13 0.816659 0.176884 0.117828
O O14 0.840054 0.892149 0.143876
O O15 0.006149 0.976621 0.394313
O O16 0.112113 0.796847 0.082873
O O17 0.000000 0.655713 0.250000
#
# Coordination Sequence:
#
# PCOD8117092 Si02
#       8
#     4   4   4   4   4   4   4   4
#     4  10  21  34  54  85 114 148 190 239 293 349
#     4  11  19  35  58  86 112 149 192 240 296 347
#     4   9  19  32  54  83 109 143 186 237 297 343
#     4  11  21  34  56  78 113 158 185 235 282 347
#     4  10  21  36  52  79 113 153 196 225 284 347
#     4  10  18  31  51  81 111 140 180 239 288 344
#     4  11  20  33  56  84 117 147 185 244 295 337
#     4  10  19  34  57  82 110 146 193 237 287 348
#
# _framework density 19.871850999999999
#
# number of rings (size 3 to 8) (size 9 to 14) (size 15 to 20)
#    0.000    1.750    2.500    5.250    0.000    0.500 
#    0.000    0.625    0.000    0.000    0.000   15.750 
#    0.000    0.000    0.000    0.000    0.000    0.000 
#
# Total GULP energy -396571.830947 kJ/mol
# GULP energy per Si atom -12392.869717 kJ/mol
# Density = 1.982662 g / cm^3
# Si number density = 19.871851 Si / 1000 Ang^3
#
#
#
# Elastic Constant Matrix: (Units=GPa)
#
#
# Indices 1 2 3 4 5 6 
#
# 1 84.3940 23.0131 34.3352 0.0000 -24.3308 0.0000
# 2 23.0131 96.4038 23.4166 0.0000 -10.0999 0.0000
# 3 34.3352 23.4166 86.0624 0.0000 -5.9749 0.0000
# 4 0.0000 0.0000 0.0000 21.7264 0.0000 -6.8008
# 5 -24.3308 -10.0999 -5.9749 0.0000 15.9254 0.0000
# 6 0.0000 0.0000 0.0000 -6.8008 0.0000 25.1365
#
#
#
# Elastic Compliance Matrix: (Units=1/GPa)
#
#
# Indices 1 2 3 4 5 6 
#
# 1 0.025247 -0.000497 -0.007476 0.000000 0.035453 0.000000
# 2 -0.000497 0.011719 -0.002595 0.000000 0.005700 0.000000
# 3 -0.007476 -0.002595 0.014786 0.000000 -0.007520 0.000000
# 4 0.000000 0.000000 0.000000 0.050286 0.000000 0.013605
# 5 0.035453 0.005700 -0.007520 0.000000 0.117750 0.000000
# 6 0.000000 0.000000 0.000000 0.013605 0.000000 0.043464
#
#
# Mechanical properties :
#
#
# Convention : Reuss Voigt Hill
#
# Bulk Modulus (GPa) = 32.66137 47.59890 40.13014
# Shear Modulus (GPa) = 16.97257 24.96400 20.96829
#
# Velocity S-wave (km/s) = 2.92567 3.54821 3.25187
# Velocity P-wave (km/s) = 5.28057 6.38681 5.85985
#
# Compressibility (1/GPa) = 0.03061721
#
# Stress axis : x y z
#
# Youngs Moduli (GPa) = 39.60828 85.33136 67.63144
#
# Poissons Ratio (x) = 0.04239 0.50562
# Poissons Ratio (y) = 0.01967 0.17549
# Poissons Ratio (z) = 0.29611 0.22141
#
# Static dielectric constant tensor:
#      x y z
#    x 3.772830 0.000000 -0.239320 
#    y 0.000000 3.793840 0.000000 
#    z -0.239320 0.000000 3.387100 
# 
# 
# High freq. dielectric constant tensor:
#      x y z
#    x 1.779770 0.000000 -0.022340 
#    y 0.000000 1.774000 0.000000 
#    z -0.022340 0.000000 1.731480 
# 
# From -- ./inp_files/93575.got.cif
#   From: 2010.06.25/outbox.cif.g09.slc.cpg/sg13_47_cif.got.tgz:93575.got - 2010.06.28 04:50:58.
