data_PCOD8117795
_publ_section_title
;
Structure prediction by ZEFSAII (Michael W. Deem and Ramdas Pophale) SiO2 
 PCOD8117795
Probable space group: P 2/C
;
_chemical_formula_sum "Si O2"
_cell_formula_units_Z 28
_cell_length_a 5.032249
_cell_length_b 23.596008
_cell_length_c 12.576305
_cell_angle_alpha 90.000000
_cell_angle_beta 105.620001
_cell_angle_gamma 90.000000
_cell_volume 1438.172421
_symmetry_space_group_name_H-M "P 2/C"
_symmetry_group_IT_number 13
_symmetry_cell_setting 'monoclinic'
loop_
_space_group_symop_operation_xyz
x,y,z
-x,y,1/2-z
-x,-y,-z
x,-y,1/2+z
loop_
_atom_site_type_symbol
_atom_site_label
_atom_site_fract_x
_atom_site_fract_y
_atom_site_fract_z
Si Si1 0.201352 0.490437 0.926851
Si Si2 0.806297 0.022444 0.325238
Si Si3 0.860932 0.390575 0.131336
Si Si4 0.261738 0.629192 0.482264
Si Si5 0.050317 0.088480 0.958103
Si Si6 0.512394 0.149191 0.875685
Si Si7 0.697755 0.730133 0.176316
O O1 0.128404 0.541348 0.838565
O O2 0.500000 0.500000 0.000000
O O3 0.198757 0.423807 0.893238
O O4 0.000000 0.500000 0.000000
O O5 0.500000 0.015233 0.250000
O O6 0.819679 0.071559 0.415031
O O7 0.000000 0.041412 0.250000
O O8 0.900649 0.963611 0.385559
O O9 0.544042 0.373761 0.079661
O O10 0.000000 0.361058 0.250000
O O11 0.019616 0.370124 0.043121
O O12 0.262582 0.684496 0.411110
O O13 0.297440 0.108699 0.910624
O O14 0.821695 0.137395 0.951178
O O15 0.500000 0.135792 0.750000
O O16 0.442807 0.214714 0.890741
O O17 0.500000 0.706988 0.250000
O O18 0.000000 0.747620 0.250000
#
# Coordination Sequence:
#
# PCOD8117795 Si02
#       7
#     4   4   4   4   4   4   4
#     4   8  16  30  48  72 102 135 171 213 264 317
#     4  11  22  36  56  86 120 149 185 226 269 329
#     4  10  19  33  55  80 107 144 181 216 266 328
#     4  10  20  36  54  78 112 140 175 228 274 323
#     4  11  22  36  59  85 113 153 184 221 280 324
#     4  11  21  37  59  83 110 141 186 233 276 332
#     4  11  23  38  58  84 108 141 184 232 286 327
#
# _framework density 19.469152999999999
#
# number of rings (size 3 to 8) (size 9 to 14) (size 15 to 20)
#    0.000    1.714    0.000    6.429    0.000    2.857 
#    0.000    4.286    0.000    8.571    0.000    0.000 
#    0.000    0.000    0.000    0.000    0.000    0.000 
#
# Total GULP energy -346931.266282 kJ/mol
# GULP energy per Si atom -12390.402367 kJ/mol
# Density = 1.942484 g / cm^3
# Si number density = 19.469153 Si / 1000 Ang^3
#
#
#
# Elastic Constant Matrix: (Units=GPa)
#
#
# Indices 1 2 3 4 5 6 
#
# 1 111.9276 13.1079 24.4112 0.0000 -9.9736 0.0000
# 2 13.1079 89.1115 43.6060 0.0000 -15.8786 0.0000
# 3 24.4112 43.6060 83.5389 0.0000 -4.7531 0.0000
# 4 0.0000 0.0000 0.0000 21.5528 0.0000 -5.1052
# 5 -9.9736 -15.8786 -4.7531 0.0000 24.2860 0.0000
# 6 0.0000 0.0000 0.0000 -5.1052 0.0000 33.3403
#
#
#
# Elastic Compliance Matrix: (Units=1/GPa)
#
#
# Indices 1 2 3 4 5 6 
#
# 1 0.009863 0.000741 -0.003045 0.000000 0.003939 0.000000
# 2 0.000741 0.017041 -0.008555 0.000000 0.009771 0.000000
# 3 -0.003045 -0.008555 0.017127 0.000000 -0.003492 0.000000
# 4 0.000000 0.000000 0.000000 0.048144 0.000000 0.007372
# 5 0.003939 0.009771 -0.003492 0.000000 0.048499 0.000000
# 6 0.000000 0.000000 0.000000 0.007372 0.000000 0.031123
#
#
# Mechanical properties :
#
#
# Convention : Reuss Voigt Hill
#
# Bulk Modulus (GPa) = 44.81857 49.64757 47.23307
# Shear Modulus (GPa) = 24.88164 29.39936 27.14050
#
# Velocity S-wave (km/s) = 3.57880 3.89015 3.73772
# Velocity P-wave (km/s) = 6.33619 6.76267 6.55290
#
# Compressibility (1/GPa) = 0.02231218
#
# Stress axis : x y z
#
# Youngs Moduli (GPa) = 101.39322 58.68343 58.38626
#
# Poissons Ratio (x) = -0.04348 0.17777
# Poissons Ratio (y) = -0.07513 0.49952
# Poissons Ratio (z) = 0.30871 0.50207
#
# Static dielectric constant tensor:
#      x y z
#    x 3.831240 0.000000 0.032290 
#    y 0.000000 3.707580 0.000000 
#    z 0.032290 0.000000 3.435060 
# 
# 
# High freq. dielectric constant tensor:
#      x y z
#    x 1.787970 0.000000 0.001800 
#    y 0.000000 1.746440 0.000000 
#    z 0.001800 0.000000 1.737430 
# 
# From -- ./inp_files/26768.got.cif
#   From: 2010.06.25/outbox.cif.g09.slc.cpg/sg13_14_cif.got.tgz:26768.got - 2010.06.28 04:50:58.
