data_PCOD8117595
_publ_section_title
;
Structure prediction by ZEFSAII (Michael W. Deem and Ramdas Pophale) SiO2 
 PCOD8117595
Probable space group: P 2/C
;
_chemical_formula_sum "Si O2"
_cell_formula_units_Z 28
_cell_length_a 8.646164
_cell_length_b 15.844778
_cell_length_c 11.037364
_cell_angle_alpha 90.000000
_cell_angle_beta 72.414432
_cell_angle_gamma 90.000000
_cell_volume 1441.416406
_symmetry_space_group_name_H-M "P 2/C"
_symmetry_group_IT_number 13
_symmetry_cell_setting 'monoclinic'
loop_
_space_group_symop_operation_xyz
x,y,z
-x,y,1/2-z
-x,-y,-z
x,-y,1/2+z
loop_
_atom_site_type_symbol
_atom_site_label
_atom_site_fract_x
_atom_site_fract_y
_atom_site_fract_z
Si Si1 0.690895 0.428944 0.701480
Si Si2 0.186228 0.078274 0.379765
Si Si3 0.000000 0.798848 0.750000
Si Si4 0.312188 0.717932 0.609480
Si Si5 0.927167 0.899257 0.141471
Si Si6 0.500000 0.165889 0.250000
Si Si7 0.320970 0.530160 0.565980
Si Si8 0.666134 0.241103 0.657547
O O1 0.500000 0.447290 0.750000
O O2 0.765445 0.471276 0.808541
O O3 0.760903 0.463284 0.552075
O O4 0.724317 0.328502 0.706604
O O5 0.104924 0.142898 0.309546
O O6 0.374025 0.105460 0.352082
O O7 0.088918 0.083020 0.526931
O O8 0.179460 0.984320 0.325818
O O9 0.878797 0.739483 0.853055
O O10 0.406025 0.773048 0.683580
O O11 0.328263 0.619478 0.632829
O O12 0.391998 0.737551 0.462938
O O13 0.812028 0.825525 0.120404
O O14 0.000000 0.869695 0.250000
O O15 0.500000 0.500000 0.500000
O O16 0.500000 0.202312 0.750000
#
# Coordination Sequence:
#
# PCOD8117595 Si02
#       8
#     4   4   2   4   4   2   4   4
#     4   8  16  31  51  80 112 152 187 237 286 345
#     4  10  22  41  58  86 115 153 196 243 286 346
#     4  10  18  42  58  76 120 154 198 234 296 340
#     4  10  21  37  61  86 114 158 196 242 289 344
#     4  11  23  39  62  84 117 160 192 231 306 351
#     4  10  24  36  62  90 114 144 210 246 276 334
#     4   9  17  31  55  81 114 147 194 234 292 345
#     4  10  21  37  58  87 120 152 195 241 294 347
#
# _framework density 19.425336999999999
#
# number of rings (size 3 to 8) (size 9 to 14) (size 15 to 20)
#    0.000    2.286    2.143    0.857    6.000    0.000 
#    0.000    1.429    1.571    1.714    0.000    0.000 
#    0.000    0.000    0.000    0.000    0.000    0.000 
#
# Total GULP energy -346866.172560 kJ/mol
# GULP energy per Si atom -12388.077591 kJ/mol
# Density = 1.938112 g / cm^3
# Si number density = 19.425337 Si / 1000 Ang^3
#
#
#
# Elastic Constant Matrix: (Units=GPa)
#
#
# Indices 1 2 3 4 5 6 
#
# 1 55.6756 39.9555 29.1999 0.0000 -8.5399 0.0000
# 2 39.9555 123.5655 32.7646 0.0000 -6.2516 0.0000
# 3 29.1999 32.7646 77.6006 0.0000 -0.7259 0.0000
# 4 0.0000 0.0000 0.0000 34.2619 0.0000 -2.3621
# 5 -8.5399 -6.2516 -0.7259 0.0000 26.7052 0.0000
# 6 0.0000 0.0000 0.0000 -2.3621 0.0000 14.2202
#
#
#
# Elastic Compliance Matrix: (Units=1/GPa)
#
#
# Indices 1 2 3 4 5 6 
#
# 1 0.027782 -0.006608 -0.007597 0.000000 0.007131 0.000000
# 2 -0.006608 0.010796 -0.002069 0.000000 0.000358 0.000000
# 3 -0.007597 -0.002069 0.016595 0.000000 -0.002463 0.000000
# 4 0.000000 0.000000 0.000000 0.029525 0.000000 0.004904
# 5 0.007131 0.000358 -0.002463 0.000000 0.039743 0.000000
# 6 0.000000 0.000000 0.000000 0.004904 0.000000 0.071137
#
#
# Mechanical properties :
#
#
# Convention : Reuss Voigt Hill
#
# Bulk Modulus (GPa) = 44.19690 51.18686 47.69188
# Shear Modulus (GPa) = 21.21631 25.36557 23.29094
#
# Velocity S-wave (km/s) = 3.30843 3.61750 3.46641
# Velocity P-wave (km/s) = 6.11521 6.62240 6.37385
#
# Compressibility (1/GPa) = 0.02262602
#
# Stress axis : x y z
#
# Youngs Moduli (GPa) = 35.99506 92.62483 60.25740
#
# Poissons Ratio (x) = 0.61208 0.45778
# Poissons Ratio (y) = 0.23786 0.12464
# Poissons Ratio (z) = 0.27345 0.19160
#
# Static dielectric constant tensor:
#      x y z
#    x 3.240670 0.000000 0.108330 
#    y 0.000000 3.727650 0.000000 
#    z 0.108330 0.000000 3.965420 
# 
# 
# High freq. dielectric constant tensor:
#      x y z
#    x 1.720640 0.000000 0.003240 
#    y 0.000000 1.764690 0.000000 
#    z 0.003240 0.000000 1.769800 
# 
# From -- ./inp_files/30334.got.cif
#   From: 2010.06.25/outbox.cif.g09.slc.cpg/sg13_16_cif.got.tgz:30334.got - 2010.06.28 04:50:58.
