data_PCOD8117940
_publ_section_title
;
Structure prediction by ZEFSAII (Michael W. Deem and Ramdas Pophale) SiO2 
 PCOD8117940
Probable space group: P 2/C
;
_chemical_formula_sum "Si O2"
_cell_formula_units_Z 32
_cell_length_a 17.035417
_cell_length_b 8.770377
_cell_length_c 20.511991
_cell_angle_alpha 90.000000
_cell_angle_beta 36.323155
_cell_angle_gamma 90.000000
_cell_volume 1815.302694
_symmetry_space_group_name_H-M "P 2/C"
_symmetry_group_IT_number 13
_symmetry_cell_setting 'monoclinic'
loop_
_space_group_symop_operation_xyz
x,y,z
-x,y,1/2-z
-x,-y,-z
x,-y,1/2+z
loop_
_atom_site_type_symbol
_atom_site_label
_atom_site_fract_x
_atom_site_fract_y
_atom_site_fract_z
Si Si1 0.625941 0.116957 0.211200
Si Si2 0.547777 0.192243 0.397687
Si Si3 0.369696 0.304280 0.023147
Si Si4 0.145387 0.189236 0.757562
Si Si5 0.156107 0.183185 0.536146
Si Si6 0.719179 0.357495 0.938803
Si Si7 0.385264 0.873831 0.181888
Si Si8 0.852375 0.065797 0.348421
O O1 0.500000 0.143526 0.250000
O O2 0.613595 0.228710 0.282712
O O3 0.628141 0.940745 0.235578
O O4 0.761672 0.155720 0.084383
O O5 0.618131 0.290308 0.406790
O O6 0.392625 0.229696 0.499156
O O7 0.563367 0.010234 0.400356
O O8 0.343647 0.476932 0.021193
O O9 0.248888 0.203785 0.078634
O O10 0.505608 0.258896 0.895705
O O11 0.174125 0.332005 0.690265
O O12 0.243334 0.190331 0.753825
O O13 0.995726 0.208826 0.883255
O O14 0.164657 0.031163 0.706004
O O15 0.212028 0.331158 0.537045
O O16 0.171609 0.038983 0.572834
O O17 0.000000 0.135554 0.250000
#
# Coordination Sequence:
#
# PCOD8117940 Si02
#       8
#     4   4   4   4   4   4   4   4
#     4  10  19  34  59  76 108 145 189 225 276 334
#     4  10  20  33  57  80 109 141 186 232 282 320
#     4  12  20  33  56  86 113 136 189 240 281 326
#     4  10  19  35  54  84 108 142 186 230 278 334
#     4  10  20  37  57  77 113 149 185 222 279 348
#     4  11  21  33  56  83 112 145 182 229 286 335
#     4  10  20  32  58  81 106 144 185 236 280 313
#     4   9  18  32  54  78 106 139 179 234 279 314
#
# _framework density 17.627912999999999
#
# number of rings (size 3 to 8) (size 9 to 14) (size 15 to 20)
#    0.750    1.000    3.750    4.125    0.000    1.500 
#    0.000    0.000    8.250    0.750    0.000    0.000 
#    0.000    0.000    0.000    0.000    0.000    0.000 
#
# Total GULP energy -396682.704818 kJ/mol
# GULP energy per Si atom -12396.334526 kJ/mol
# Density = 1.758779 g / cm^3
# Si number density = 17.627913 Si / 1000 Ang^3
#
#
#
# Elastic Constant Matrix: (Units=GPa)
#
#
# Indices 1 2 3 4 5 6 
#
# 1 76.3338 28.5052 51.6089 0.0000 -10.0052 0.0000
# 2 28.5052 74.2211 36.2678 0.0000 -13.2019 0.0000
# 3 51.6089 36.2678 138.8082 0.0000 -9.5048 0.0000
# 4 0.0000 0.0000 0.0000 13.3460 0.0000 -3.7896
# 5 -10.0052 -13.2019 -9.5048 0.0000 39.3098 0.0000
# 6 0.0000 0.0000 0.0000 -3.7896 0.0000 17.9314
#
#
#
# Elastic Compliance Matrix: (Units=1/GPa)
#
#
# Indices 1 2 3 4 5 6 
#
# 1 0.018786 -0.004022 -0.005795 0.000000 0.002030 0.000000
# 2 -0.004022 0.017049 -0.002682 0.000000 0.004054 0.000000
# 3 -0.005795 -0.002682 0.010063 0.000000 0.000058 0.000000
# 4 0.000000 0.000000 0.000000 0.079713 0.000000 0.016846
# 5 0.002030 0.004054 0.000058 0.000000 0.027331 0.000000
# 6 0.000000 0.000000 0.000000 0.016846 0.000000 0.059328
#
#
# Mechanical properties :
#
#
# Convention : Reuss Voigt Hill
#
# Bulk Modulus (GPa) = 47.84355 58.01410 52.92883
# Shear Modulus (GPa) = 20.47203 25.64951 23.06077
#
# Velocity S-wave (km/s) = 3.41154 3.81865 3.62082
# Velocity P-wave (km/s) = 6.53589 7.24048 6.89719
#
# Compressibility (1/GPa) = 0.02090146
#
# Stress axis : x y z
#
# Youngs Moduli (GPa) = 53.23032 58.65282 99.37120
#
# Poissons Ratio (x) = 0.23593 0.57584
# Poissons Ratio (y) = 0.21412 0.26647
# Poissons Ratio (z) = 0.30846 0.15728
#
# Static dielectric constant tensor:
#      x y z
#    x 3.252490 0.000000 -0.133220 
#    y 0.000000 2.928100 0.000000 
#    z -0.133220 0.000000 3.253400 
# 
# 
# High freq. dielectric constant tensor:
#      x y z
#    x 1.679520 0.000000 -0.016400 
#    y 0.000000 1.647540 0.000000 
#    z -0.016400 0.000000 1.681670 
# 
# From -- ./inp_files/87892.got.cif
#   From: 2010.06.25/outbox.cif.g09.slc.cpg/sg13_44_cif.got.tgz:87892.got - 2010.06.28 04:50:58.
