data_PCOD8117816
_publ_section_title
;
Structure prediction by ZEFSAII (Michael W. Deem and Ramdas Pophale) SiO2 
 PCOD8117816
Probable space group: P 2/C
;
_chemical_formula_sum "Si O2"
_cell_formula_units_Z 26
_cell_length_a 9.831373
_cell_length_b 10.997531
_cell_length_c 19.684524
_cell_angle_alpha 90.000000
_cell_angle_beta 39.608007
_cell_angle_gamma 90.000000
_cell_volume 1356.863136
_symmetry_space_group_name_H-M "P 2/C"
_symmetry_group_IT_number 13
_symmetry_cell_setting 'monoclinic'
loop_
_space_group_symop_operation_xyz
x,y,z
-x,y,1/2-z
-x,-y,-z
x,-y,1/2+z
loop_
_atom_site_type_symbol
_atom_site_label
_atom_site_fract_x
_atom_site_fract_y
_atom_site_fract_z
Si Si1 0.103980 0.208291 0.354870
Si Si2 0.700240 0.835469 0.102720
Si Si3 0.061530 0.478560 0.399224
Si Si4 0.000000 0.722337 0.750000
Si Si5 0.739921 0.278321 0.726839
Si Si6 0.000000 0.303677 0.750000
Si Si7 0.255741 0.486530 0.094309
Si Si8 0.500000 0.050178 0.250000
O O1 0.167064 0.346141 0.350275
O O2 0.307746 0.128998 0.294611
O O3 0.888438 0.163961 0.475656
O O4 0.056830 0.194121 0.292669
O O5 0.509454 0.740560 0.157035
O O6 0.800168 0.799309 0.137186
O O7 0.593933 0.968586 0.152004
O O8 0.219478 0.579161 0.306012
O O9 0.000000 0.500000 0.500000
O O10 0.839343 0.477234 0.444398
O O11 0.198730 0.633106 0.659357
O O12 0.898220 0.228485 0.725944
O O13 0.808259 0.388903 0.845856
O O14 0.500000 0.500000 0.000000
#
# Coordination Sequence:
#
# PCOD8117816 Si02
#       8
#     4   4   4   2   4   2   4   2
#     4  11  22  42  62  87 122 155 201 248 300 351
#     4  10  22  41  65  81 117 164 196 248 305 342
#     4  10  19  33  56  93 119 155 194 233 295 355
#     4   9  22  38  53  90 116 158 197 237 298 352
#     4   9  19  35  55  91 120 151 197 235 290 360
#     4   9  18  30  49  86 116 152 199 229 276 352
#     4   9  19  32  51  76 125 165 183 228 288 354
#     4  10  24  42  62  88 110 154 208 258 292 352
#
# _framework density 19.161843000000001
#
# number of rings (size 3 to 8) (size 9 to 14) (size 15 to 20)
#    0.000    2.462    1.538    1.385    4.308    2.462 
#    0.000    3.846    0.000    0.000    0.000    0.000 
#    0.000    0.000    0.000    0.000    0.000    0.000 
#
# Total GULP energy -322217.537404 kJ/mol
# GULP energy per Si atom -12392.982208 kJ/mol
# Density = 1.911823 g / cm^3
# Si number density = 19.161843 Si / 1000 Ang^3
#
#
#
# Elastic Constant Matrix: (Units=GPa)
#
#
# Indices 1 2 3 4 5 6 
#
# 1 151.2031 56.1155 86.2736 0.0000 0.0920 0.0000
# 2 56.1155 101.0920 54.6644 0.0000 -13.3524 0.0000
# 3 86.2736 54.6644 142.9922 0.0000 -12.9146 0.0000
# 4 0.0000 0.0000 0.0000 33.3486 0.0000 -9.0990
# 5 0.0920 -13.3524 -12.9146 0.0000 35.9058 0.0000
# 6 0.0000 0.0000 0.0000 -9.0990 0.0000 21.7707
#
#
#
# Elastic Compliance Matrix: (Units=1/GPa)
#
#
# Indices 1 2 3 4 5 6 
#
# 1 0.011194 -0.003587 -0.005690 0.000000 -0.003409 0.000000
# 2 -0.003587 0.013944 -0.002788 0.000000 0.004192 0.000000
# 3 -0.005690 -0.002788 0.011783 0.000000 0.003216 0.000000
# 4 0.000000 0.000000 0.000000 0.033846 0.000000 0.014146
# 5 -0.003409 0.004192 0.003216 0.000000 0.030575 0.000000
# 6 0.000000 0.000000 0.000000 0.014146 0.000000 0.051845
#
#
# Mechanical properties :
#
#
# Convention : Reuss Voigt Hill
#
# Bulk Modulus (GPa) = 78.18359 87.71047 82.94703
# Shear Modulus (GPa) = 27.53592 31.42060 29.47826
#
# Velocity S-wave (km/s) = 3.79492 4.05377 3.92648
# Velocity P-wave (km/s) = 7.75191 8.23308 7.99612
#
# Compressibility (1/GPa) = 0.01279041
#
# Stress axis : x y z
#
# Youngs Moduli (GPa) = 89.33617 71.71389 84.86860
#
# Poissons Ratio (x) = 0.25723 0.48293
# Poissons Ratio (y) = 0.32043 0.23662
# Poissons Ratio (z) = 0.50835 0.19994
#
# Static dielectric constant tensor:
#      x y z
#    x 3.454210 0.000000 -0.079590 
#    y 0.000000 3.510660 0.000000 
#    z -0.079590 0.000000 3.254760 
# 
# 
# High freq. dielectric constant tensor:
#      x y z
#    x 1.752930 0.000000 0.003990 
#    y 0.000000 1.726150 0.000000 
#    z 0.003990 0.000000 1.741900 
# 
# From -- ./inp_files/76407.got.cif
#   From: 2010.06.25/outbox.cif.g09.slc.cpg/sg13_39_cif.got.tgz:76407.got - 2010.06.28 04:50:58.
