data_PCOD8117721
_publ_section_title
;
Structure prediction by ZEFSAII (Michael W. Deem and Ramdas Pophale) SiO2 
 PCOD8117721
Probable space group: P 2/C
;
_chemical_formula_sum "Si O2"
_cell_formula_units_Z 28
_cell_length_a 19.575966
_cell_length_b 9.184202
_cell_length_c 24.786020
_cell_angle_alpha 90.000000
_cell_angle_beta 20.270490
_cell_angle_gamma 90.000000
_cell_volume 1543.885847
_symmetry_space_group_name_H-M "P 2/C"
_symmetry_group_IT_number 13
_symmetry_cell_setting 'monoclinic'
loop_
_space_group_symop_operation_xyz
x,y,z
-x,y,1/2-z
-x,-y,-z
x,-y,1/2+z
loop_
_atom_site_type_symbol
_atom_site_label
_atom_site_fract_x
_atom_site_fract_y
_atom_site_fract_z
Si Si1 0.518936 0.413833 0.144609
Si Si2 0.907807 0.536032 0.509763
Si Si3 0.226453 0.168368 0.595512
Si Si4 0.767659 0.649021 0.307539
Si Si5 0.780559 0.853254 0.924513
Si Si6 0.599228 0.395243 0.490211
Si Si7 0.707027 0.651501 0.075904
O O1 0.302526 0.379723 0.329515
O O2 0.666434 0.499736 0.075056
O O3 0.631521 0.269529 0.044902
O O4 0.473087 0.516543 0.127573
O O5 0.861227 0.386481 0.510218
O O6 0.000000 0.500000 0.500000
O O7 0.056613 0.641986 0.366575
O O8 0.228777 0.207795 0.657550
O O9 0.000000 0.194454 0.750000
O O10 0.319664 0.011078 0.510444
O O11 0.773980 0.498856 0.337687
O O12 0.550793 0.658948 0.443318
O O13 0.698577 0.745113 0.941181
O O14 0.000000 0.895057 0.750000
O O15 0.780858 0.783184 0.983791
O O16 0.500000 0.713465 0.250000
#
# Coordination Sequence:
#
# PCOD8117721 Si02
#       7
#     4   4   4   4   4   4   4
#     4   9  18  35  55  83 110 135 182 226 275 317
#     4  11  19  31  56  88 112 141 178 230 272 324
#     4  10  21  36  54  77 108 143 178 223 269 327
#     4  10  19  32  54  82 108 138 178 223 276 318
#     4  10  20  36  55  78 105 141 184 221 268 323
#     4   9  18  33  55  80 107 140 178 229 270 320
#     4   9  19  34  55  80 104 139 177 226 269 314
#
# _framework density 18.136057000000001
#
# number of rings (size 3 to 8) (size 9 to 14) (size 15 to 20)
#    0.000    2.286    1.429    1.714    0.000    4.571 
#    0.000    5.000    0.000    0.857    0.000    0.000 
#    0.000    0.000    0.000    0.000    0.000    0.000 
#
# Total GULP energy -346918.151231 kJ/mol
# GULP energy per Si atom -12389.933973 kJ/mol
# Density = 1.809478 g / cm^3
# Si number density = 18.136057 Si / 1000 Ang^3
#
#
#
# Elastic Constant Matrix: (Units=GPa)
#
#
# Indices 1 2 3 4 5 6 
#
# 1 116.4713 52.5119 21.8436 0.0000 5.3736 0.0000
# 2 52.5119 113.9429 35.0343 0.0000 3.8411 0.0000
# 3 21.8436 35.0343 75.4676 0.0000 15.5404 0.0000
# 4 0.0000 0.0000 0.0000 26.0334 0.0000 15.9315
# 5 5.3736 3.8411 15.5404 0.0000 28.7386 0.0000
# 6 0.0000 0.0000 0.0000 15.9315 0.0000 43.0143
#
#
#
# Elastic Compliance Matrix: (Units=1/GPa)
#
#
# Indices 1 2 3 4 5 6 
#
# 1 0.010923 -0.004773 -0.000739 0.000000 -0.001005 0.000000
# 2 -0.004773 0.012370 -0.004731 0.000000 0.001797 0.000000
# 3 -0.000739 -0.004731 0.017445 0.000000 -0.008663 0.000000
# 4 0.000000 0.000000 0.000000 0.049670 0.000000 -0.018397
# 5 -0.001005 0.001797 -0.008663 0.000000 0.039428 0.000000
# 6 0.000000 0.000000 0.000000 -0.018397 0.000000 0.030062
#
#
# Mechanical properties :
#
#
# Convention : Reuss Voigt Hill
#
# Bulk Modulus (GPa) = 49.37866 58.29571 53.83718
# Shear Modulus (GPa) = 26.71879 32.65673 29.68776
#
# Velocity S-wave (km/s) = 3.84245 4.24801 4.05031
# Velocity P-wave (km/s) = 6.85359 7.50161 7.18491
#
# Compressibility (1/GPa) = 0.02025166
#
# Stress axis : x y z
#
# Youngs Moduli (GPa) = 91.55367 80.84062 57.32364
#
# Poissons Ratio (x) = 0.38583 0.04236
# Poissons Ratio (y) = 0.43696 0.27121
# Poissons Ratio (z) = 0.06765 0.38248
#
# Static dielectric constant tensor:
#      x y z
#    x 3.320300 0.000000 0.149490 
#    y 0.000000 3.173010 0.000000 
#    z 0.149490 0.000000 3.347070 
# 
# 
# High freq. dielectric constant tensor:
#      x y z
#    x 1.714800 0.000000 0.005010 
#    y 0.000000 1.670470 0.000000 
#    z 0.005010 0.000000 1.708630 
# 
# From -- ./inp_files/70504.got.cif
#   From: 2010.06.25/outbox.cif.g09.slc.cpg/sg13_36_cif.got.tgz:70504.got - 2010.06.28 04:50:58.
