data_PCOD8117983
_publ_section_title
;
Structure prediction by ZEFSAII (Michael W. Deem and Ramdas Pophale) SiO2 
 PCOD8117983
Probable space group: P 2/C
;
_chemical_formula_sum "Si O2"
_cell_formula_units_Z 20
_cell_length_a 4.946681
_cell_length_b 16.548902
_cell_length_c 12.316179
_cell_angle_alpha 90.000000
_cell_angle_beta 76.308926
_cell_angle_gamma 90.000000
_cell_volume 979.580951
_symmetry_space_group_name_H-M "P 2/C"
_symmetry_group_IT_number 13
_symmetry_cell_setting 'monoclinic'
loop_
_space_group_symop_operation_xyz
x,y,z
-x,y,1/2-z
-x,-y,-z
x,-y,1/2+z
loop_
_atom_site_type_symbol
_atom_site_label
_atom_site_fract_x
_atom_site_fract_y
_atom_site_fract_z
Si Si1 0.808037 0.014925 0.362407
Si Si2 0.660390 0.437802 0.123056
Si Si3 0.223607 0.262405 0.825089
Si Si4 0.714857 0.913196 0.088377
Si Si5 0.758543 0.395137 0.505367
O O1 0.538447 0.968069 0.341101
O O2 0.000000 0.054757 0.250000
O O3 0.987737 0.945864 0.403259
O O4 0.710761 0.083816 0.456440
O O5 0.500000 0.425685 0.250000
O O6 0.504749 0.381191 0.048541
O O7 0.982299 0.412860 0.098898
O O8 0.664107 0.531985 0.091913
O O9 0.500000 0.302300 0.750000
O O10 0.312610 0.176860 0.866820
O O11 0.000000 0.255105 0.750000
O O12 0.137989 0.319750 0.932271
#
# Coordination Sequence:
#
# PCOD8117983 Si02
#       5
#     4   4   4   4   4
#     4  10  19  35  55  78 109 145 183 227 272 326
#     4  10  20  38  59  81 112 150 188 231 275 329
#     4  12  23  37  58  84 116 147 182 238 291 331
#     4  10  21  34  55  82 107 141 187 225 273 336
#     4  10  22  36  57  86 112 144 192 230 275 339
#
# _framework density 20.416893000000002
#
# number of rings (size 3 to 8) (size 9 to 14) (size 15 to 20)
#    0.000    1.600    0.000    6.000    0.000    3.200 
#    0.000    2.000    0.000    0.000    0.000    0.000 
#    0.000    0.000    0.000    0.000    0.000    0.000 
#
# Total GULP energy -247881.245831 kJ/mol
# GULP energy per Si atom -12394.062292 kJ/mol
# Density = 2.037042 g / cm^3
# Si number density = 20.416893 Si / 1000 Ang^3
#
#
#
# Elastic Constant Matrix: (Units=GPa)
#
#
# Indices 1 2 3 4 5 6 
#
# 1 99.8586 24.7482 33.9758 0.0000 3.3097 0.0000
# 2 24.7482 61.3406 36.8076 0.0000 12.6614 0.0000
# 3 33.9758 36.8076 121.4632 0.0000 -8.4791 0.0000
# 4 0.0000 0.0000 0.0000 16.9433 0.0000 0.1636
# 5 3.3097 12.6614 -8.4791 0.0000 33.7966 0.0000
# 6 0.0000 0.0000 0.0000 0.1636 0.0000 19.1019
#
#
#
# Elastic Compliance Matrix: (Units=1/GPa)
#
#
# Indices 1 2 3 4 5 6 
#
# 1 0.011610 -0.003184 -0.002319 0.000000 -0.000526 0.000000
# 2 -0.003184 0.024021 -0.007120 0.000000 -0.010474 0.000000
# 3 -0.002319 -0.007120 0.011442 0.000000 0.005765 0.000000
# 4 0.000000 0.000000 0.000000 0.059025 0.000000 -0.000505
# 5 -0.000526 -0.010474 0.005765 0.000000 0.035010 0.000000
# 6 0.000000 0.000000 0.000000 -0.000505 0.000000 0.052355
#
#
# Mechanical properties :
#
#
# Convention : Reuss Voigt Hill
#
# Bulk Modulus (GPa) = 45.81546 52.63619 49.22582
# Shear Modulus (GPa) = 22.12539 26.44375 24.28457
#
# Velocity S-wave (km/s) = 3.29550 3.60278 3.45256
# Velocity P-wave (km/s) = 6.08022 6.56836 6.32900
#
# Compressibility (1/GPa) = 0.02182669
#
# Stress axis : x y z
#
# Youngs Moduli (GPa) = 86.13424 41.63029 87.39913
#
# Poissons Ratio (x) = 0.13253 0.20272
# Poissons Ratio (y) = 0.27422 0.62227
# Poissons Ratio (z) = 0.19979 0.29640
#
# Static dielectric constant tensor:
#      x y z
#    x 3.902530 0.000000 -0.020660 
#    y 0.000000 3.291420 0.000000 
#    z -0.020660 0.000000 3.905750 
# 
# 
# High freq. dielectric constant tensor:
#      x y z
#    x 1.821140 0.000000 -0.005390 
#    y 0.000000 1.752450 0.000000 
#    z -0.005390 0.000000 1.811440 
# 
# From -- ./inp_files/26399.got.cif
#   From: 2010.06.25/outbox.cif.g09.slc.cpg/sg13_14_cif.got.tgz:26399.got - 2010.06.28 04:50:58.
