data_PCOD8117870
_publ_section_title
;
Structure prediction by ZEFSAII (Michael W. Deem and Ramdas Pophale) SiO2 
 PCOD8117870
Probable space group: P 2/C
;
_chemical_formula_sum "Si O2"
_cell_formula_units_Z 22
_cell_length_a 6.800571
_cell_length_b 8.592755
_cell_length_c 20.075980
_cell_angle_alpha 90.000000
_cell_angle_beta 90.491578
_cell_angle_gamma 90.000000
_cell_volume 1173.109571
_symmetry_space_group_name_H-M "P 2/C"
_symmetry_group_IT_number 13
_symmetry_cell_setting 'monoclinic'
loop_
_space_group_symop_operation_xyz
x,y,z
-x,y,1/2-z
-x,-y,-z
x,-y,1/2+z
loop_
_atom_site_type_symbol
_atom_site_label
_atom_site_fract_x
_atom_site_fract_y
_atom_site_fract_z
Si Si1 0.153329 0.352938 0.075753
Si Si2 0.844083 0.138725 0.692521
Si Si3 0.548193 0.557040 0.636795
Si Si4 0.500000 0.338395 0.750000
Si Si5 0.119227 0.639356 0.425904
Si Si6 0.881529 0.784165 0.682455
O O1 0.383862 0.349432 0.095338
O O2 0.069136 0.527492 0.082072
O O3 0.031995 0.235831 0.121836
O O4 0.131605 0.291888 0.000263
O O5 0.659815 0.226228 0.720758
O O6 0.914218 0.217474 0.624154
O O7 0.000000 0.159335 0.750000
O O8 0.798099 0.958545 0.679794
O O9 0.431154 0.449936 0.689457
O O10 0.679130 0.453852 0.587293
O O11 0.693279 0.672670 0.676989
O O12 0.000000 0.744920 0.750000
#
# Coordination Sequence:
#
# PCOD8117870 Si02
#       6
#     4   4   4   2   4   4
#     4  10  19  35  56  78 107 141 173 220 265 305
#     4  10  21  37  53  77 108 138 175 217 263 316
#     4  10  19  34  55  78 104 138 179 218 262 313
#     4  10  20  32  54  76  98 136 176 220 262 302
#     4   9  20  35  55  81 106 137 181 217 258 315
#     4  10  22  35  52  79 108 138 176 216 261 318
#
# _framework density 18.753577
#
# number of rings (size 3 to 8) (size 9 to 14) (size 15 to 20)
#    0.000    2.182    0.000    2.727    0.000    9.455 
#    0.000    0.909    0.000    0.000    0.000    0.000 
#    0.000    0.000    0.000    0.000    0.000    0.000 
#
# Total GULP energy -272787.575309 kJ/mol
# GULP energy per Si atom -12399.435241 kJ/mol
# Density = 1.871089 g / cm^3
# Si number density = 18.753577 Si / 1000 Ang^3
#
#
#
# Elastic Constant Matrix: (Units=GPa)
#
#
# Indices 1 2 3 4 5 6 
#
# 1 67.7041 33.9444 38.7192 0.0000 1.6080 0.0000
# 2 33.9444 90.8351 67.8698 0.0000 2.5083 0.0000
# 3 38.7192 67.8698 136.0885 0.0000 -17.7787 0.0000
# 4 0.0000 0.0000 0.0000 24.5730 0.0000 5.9804
# 5 1.6080 2.5083 -17.7787 0.0000 25.7137 0.0000
# 6 0.0000 0.0000 0.0000 5.9804 0.0000 15.8420
#
#
#
# Elastic Compliance Matrix: (Units=1/GPa)
#
#
# Indices 1 2 3 4 5 6 
#
# 1 0.019133 -0.004236 -0.003774 0.000000 -0.003393 0.000000
# 2 -0.004236 0.020372 -0.010091 0.000000 -0.008700 0.000000
# 3 -0.003774 -0.010091 0.014966 0.000000 0.011568 0.000000
# 4 0.000000 0.000000 0.000000 0.044812 0.000000 -0.016917
# 5 -0.003393 -0.008700 0.011568 0.000000 0.047949 0.000000
# 6 0.000000 0.000000 0.000000 -0.016917 0.000000 0.069509
#
#
# Mechanical properties :
#
#
# Convention : Reuss Voigt Hill
#
# Bulk Modulus (GPa) = 54.74093 63.96606 59.35349
# Shear Modulus (GPa) = 19.30251 23.49870 21.40061
#
# Velocity S-wave (km/s) = 3.21171 3.54365 3.38175
# Velocity P-wave (km/s) = 6.55792 7.13625 6.85319
#
# Compressibility (1/GPa) = 0.01826787
#
# Stress axis : x y z
#
# Youngs Moduli (GPa) = 52.26564 49.08668 66.81852
#
# Poissons Ratio (x) = 0.20794 0.25219
# Poissons Ratio (y) = 0.22141 0.67428
# Poissons Ratio (z) = 0.19726 0.49534
#
# Static dielectric constant tensor:
#      x y z
#    x 3.232720 0.000000 -0.235640 
#    y 0.000000 3.601710 0.000000 
#    z -0.235640 0.000000 3.676790 
# 
# 
# High freq. dielectric constant tensor:
#      x y z
#    x 1.728680 0.000000 -0.006880 
#    y 0.000000 1.714670 0.000000 
#    z -0.006880 0.000000 1.742800 
# 
# From -- ./inp_files/72993.got.cif
#   From: 2010.06.25/outbox.cif.g09.slc.cpg/sg13_37_cif.got.tgz:72993.got - 2010.06.28 04:50:58.
