data_PCOD8117805
_publ_section_title
;
Structure prediction by ZEFSAII (Michael W. Deem and Ramdas Pophale) SiO2 
 PCOD8117805
Probable space group: P 2/C
;
_chemical_formula_sum "Si O2"
_cell_formula_units_Z 22
_cell_length_a 11.763554
_cell_length_b 11.025756
_cell_length_c 14.703859
_cell_angle_alpha 90.000000
_cell_angle_beta 139.227485
_cell_angle_gamma 90.000000
_cell_volume 1245.459499
_symmetry_space_group_name_H-M "P 2/C"
_symmetry_group_IT_number 13
_symmetry_cell_setting 'monoclinic'
loop_
_space_group_symop_operation_xyz
x,y,z
-x,y,1/2-z
-x,-y,-z
x,-y,1/2+z
loop_
_atom_site_type_symbol
_atom_site_label
_atom_site_fract_x
_atom_site_fract_y
_atom_site_fract_z
Si Si1 0.674145 0.423185 0.118608
Si Si2 0.388793 0.839181 0.930793
Si Si3 0.000000 0.571649 0.250000
Si Si4 0.654328 0.275439 0.274996
Si Si5 0.082783 0.210339 0.918283
Si Si6 0.238546 0.915217 0.342582
O O1 0.660053 0.292748 0.057921
O O2 0.833873 0.490305 0.169823
O O3 0.702193 0.395606 0.243852
O O4 0.500000 0.500000 0.000000
O O5 0.407923 0.829321 0.832225
O O6 0.239935 0.939527 0.861785
O O7 0.573919 0.879443 0.085033
O O8 0.966733 0.653689 0.141513
O O9 0.500000 0.310223 0.250000
O O10 0.823339 0.222001 0.428377
O O11 0.210241 0.153815 0.920196
O O12 0.910717 0.124938 0.819765
#
# Coordination Sequence:
#
# PCOD8117805 Si02
#       6
#     4   4   2   4   4   4
#     4  10  20  35  56  79 112 147 188 231 270 336
#     4   9  19  32  54  79 101 148 179 223 274 332
#     4  10  20  34  54  80 110 148 186 218 278 338
#     4  10  19  34  55  83 106 140 189 224 279 327
#     4  10  19  33  56  79 104 145 181 231 276 327
#     4   9  17  33  53  76 106 136 185 219 274 342
#
# _framework density 17.664162999999999
#
# number of rings (size 3 to 8) (size 9 to 14) (size 15 to 20)
#    1.091    1.455    1.818    3.273    0.000    2.909 
#    0.000    0.000    0.000    0.000    9.455    0.000 
#    0.000    0.000    0.000    0.000    0.000    0.000 
#
# Total GULP energy -272551.473740 kJ/mol
# GULP energy per Si atom -12388.703352 kJ/mol
# Density = 1.762396 g / cm^3
# Si number density = 17.664163 Si / 1000 Ang^3
#
#
#
# Elastic Constant Matrix: (Units=GPa)
#
#
# Indices 1 2 3 4 5 6 
#
# 1 48.0084 28.5419 24.6484 0.0000 25.1301 0.0000
# 2 28.5419 137.3843 36.3348 0.0000 27.8765 0.0000
# 3 24.6484 36.3348 110.7302 0.0000 20.3269 0.0000
# 4 0.0000 0.0000 0.0000 25.9428 0.0000 11.8690
# 5 25.1301 27.8765 20.3269 0.0000 31.7702 0.0000
# 6 0.0000 0.0000 0.0000 11.8690 0.0000 26.9231
#
#
#
# Elastic Compliance Matrix: (Units=1/GPa)
#
#
# Indices 1 2 3 4 5 6 
#
# 1 0.036816 -0.001638 -0.002918 0.000000 -0.025816 0.000000
# 2 -0.001638 0.009212 -0.001600 0.000000 -0.005763 0.000000
# 3 -0.002918 -0.001600 0.010792 0.000000 -0.003192 0.000000
# 4 0.000000 0.000000 0.000000 0.048285 0.000000 -0.021286
# 5 -0.025816 -0.005763 -0.003192 0.000000 0.058996 0.000000
# 6 0.000000 0.000000 0.000000 -0.021286 0.000000 0.046527
#
#
# Mechanical properties :
#
#
# Convention : Reuss Voigt Hill
#
# Bulk Modulus (GPa) = 22.46918 52.79701 37.63310
# Shear Modulus (GPa) = 21.02825 30.70040 25.86432
#
# Velocity S-wave (km/s) = 3.45403 4.17346 3.83067
# Velocity P-wave (km/s) = 5.35303 7.29232 6.39659
#
# Compressibility (1/GPa) = 0.04450540
#
# Stress axis : x y z
#
# Youngs Moduli (GPa) = 27.16239 108.55635 92.66434
#
# Poissons Ratio (x) = 0.17785 0.27043
# Poissons Ratio (y) = 0.04450 0.14827
# Poissons Ratio (z) = 0.07927 0.17370
#
# Static dielectric constant tensor:
#      x y z
#    x 2.840220 0.000000 0.108080 
#    y 0.000000 3.356640 0.000000 
#    z 0.108080 0.000000 3.239770 
# 
# 
# High freq. dielectric constant tensor:
#      x y z
#    x 1.649720 0.000000 0.023550 
#    y 0.000000 1.688060 0.000000 
#    z 0.023550 0.000000 1.682130 
# 
# From -- ./inp_files/50946.got.cif
#   From: 2010.06.25/outbox.cif.g09.slc.cpg/sg13_26_cif.got.tgz:50946.got - 2010.06.28 04:50:58.
