data_PCOD8117175
_publ_section_title
;
Structure prediction by ZEFSAII (Michael W. Deem and Ramdas Pophale) SiO2 
 PCOD8117175
Probable space group: P 2/C
;
_chemical_formula_sum "Si O2"
_cell_formula_units_Z 22
_cell_length_a 10.168681
_cell_length_b 22.247355
_cell_length_c 5.095198
_cell_angle_alpha 90.000000
_cell_angle_beta 92.450024
_cell_angle_gamma 90.000000
_cell_volume 1151.613901
_symmetry_space_group_name_H-M "P 2/C"
_symmetry_group_IT_number 13
_symmetry_cell_setting 'monoclinic'
loop_
_space_group_symop_operation_xyz
x,y,z
-x,y,1/2-z
-x,-y,-z
x,-y,1/2+z
loop_
_atom_site_type_symbol
_atom_site_label
_atom_site_fract_x
_atom_site_fract_y
_atom_site_fract_z
Si Si1 0.645293 0.656989 0.295175
Si Si2 0.500000 0.109555 0.750000
Si Si3 0.500000 0.458413 0.750000
Si Si4 0.236510 0.960896 0.268107
Si Si5 0.735715 0.279756 0.313153
Si Si6 0.500000 0.810707 0.750000
Si Si7 0.000000 0.871999 0.250000
Si Si8 0.000000 0.208955 0.250000
O O1 0.500000 0.687265 0.250000
O O2 0.629716 0.584524 0.269573
O O3 0.703682 0.673630 0.580624
O O4 0.741217 0.681940 0.080258
O O5 0.621263 0.067940 0.678421
O O6 0.461124 0.149469 0.497123
O O7 0.500000 0.500000 0.500000
O O8 0.126767 0.911822 0.322388
O O9 0.219271 0.015188 0.471650
O O10 0.627239 0.228176 0.329080
O O11 0.876844 0.251196 0.289754
O O12 0.968302 0.831502 0.497190
#
# Coordination Sequence:
#
# PCOD8117175 Si02
#       8
#     4   2   2   4   4   2   2   2
#     4  10  20  35  58  88 122 157 200 236 285 351
#     4  12  24  36  56  86 108 136 182 234 290 354
#     4  10  18  32  56  94 126 152 200 262 294 304
#     4  12  24  42  61  79 106 143 182 234 291 349
#     4  12  21  39  57  88 120 163 192 234 294 349
#     4  12  20  36  58  80 114 150 178 236 292 344
#     4  12  24  45  58  88 106 147 196 238 286 344
#     4  12  26  39  62  88 124 149 194 244 282 350
#
# _framework density 19.103622000000001
#
# number of rings (size 3 to 8) (size 9 to 14) (size 15 to 20)
#    0.545    0.000    1.818    8.727    0.000    0.000 
#    0.000    0.000    0.000    0.000    0.000   12.727 
#    0.000    0.000    0.000    0.000    0.000    0.000 
#
# Total GULP energy -272911.851447 kJ/mol
# GULP energy per Si atom -12405.084157 kJ/mol
# Density = 1.906014 g / cm^3
# Si number density = 19.103622 Si / 1000 Ang^3
#
#
#
# Elastic Constant Matrix: (Units=GPa)
#
#
# Indices 1 2 3 4 5 6 
#
# 1 113.7887 39.1883 -0.3106 0.0000 -9.4238 0.0000
# 2 39.1883 103.6316 33.1594 0.0000 -12.9917 0.0000
# 3 -0.3106 33.1594 100.0895 0.0000 -22.5525 0.0000
# 4 0.0000 0.0000 0.0000 47.4112 0.0000 -16.7492
# 5 -9.4238 -12.9917 -22.5525 0.0000 28.0377 0.0000
# 6 0.0000 0.0000 0.0000 -16.7492 0.0000 14.8871
#
#
#
# Elastic Compliance Matrix: (Units=1/GPa)
#
#
# Indices 1 2 3 4 5 6 
#
# 1 0.010541 -0.004272 0.002199 0.000000 0.003332 0.000000
# 2 -0.004272 0.012682 -0.003926 0.000000 0.001283 0.000000
# 3 0.002199 -0.003926 0.013502 0.000000 0.009781 0.000000
# 4 0.000000 0.000000 0.000000 0.035005 0.000000 0.039384
# 5 0.003332 0.001283 0.009781 0.000000 0.045248 0.000000
# 6 0.000000 0.000000 0.000000 0.039384 0.000000 0.111482
#
#
# Mechanical properties :
#
#
# Convention : Reuss Voigt Hill
#
# Bulk Modulus (GPa) = 40.44012 51.28711 45.86361
# Shear Modulus (GPa) = 20.10439 34.43205 27.26822
#
# Velocity S-wave (km/s) = 3.24757 4.25005 3.78217
# Velocity P-wave (km/s) = 5.93945 7.14066 6.56757
#
# Compressibility (1/GPa) = 0.02472792
#
# Stress axis : x y z
#
# Youngs Moduli (GPa) = 94.86325 78.85181 74.06131
#
# Poissons Ratio (x) = 0.33686 -0.16285
# Poissons Ratio (y) = 0.40527 0.29075
# Poissons Ratio (z) = -0.20859 0.30955
#
# Static dielectric constant tensor:
#      x y z
#    x 3.390310 0.000000 -0.012450 
#    y 0.000000 3.506140 0.000000 
#    z -0.012450 0.000000 3.427570 
# 
# 
# High freq. dielectric constant tensor:
#      x y z
#    x 1.732740 0.000000 -0.009940 
#    y 0.000000 1.740800 0.000000 
#    z -0.009940 0.000000 1.764570 
# 
# From -- ./inp_files/2154.got.cif
#   From: 2010.06.25/outbox.cif.g09.slc.cpg/sg13_2_cif.got.tgz:2154.got - 2010.06.28 04:50:58.
