data_PCOD8117544
_publ_section_title
;
Structure prediction by ZEFSAII (Michael W. Deem and Ramdas Pophale) SiO2 
 PCOD8117544
Probable space group: P 2/C
;
_chemical_formula_sum "Si O2"
_cell_formula_units_Z 24
_cell_length_a 19.325693
_cell_length_b 8.485588
_cell_length_c 25.934708
_cell_angle_alpha 90.000000
_cell_angle_beta 163.803217
_cell_angle_gamma 90.000000
_cell_volume 1186.328048
_symmetry_space_group_name_H-M "P 2/C"
_symmetry_group_IT_number 13
_symmetry_cell_setting 'monoclinic'
loop_
_space_group_symop_operation_xyz
x,y,z
-x,y,1/2-z
-x,-y,-z
x,-y,1/2+z
loop_
_atom_site_type_symbol
_atom_site_label
_atom_site_fract_x
_atom_site_fract_y
_atom_site_fract_z
Si Si1 0.751611 0.631113 0.544774
Si Si2 0.762966 0.828652 0.454755
Si Si3 0.428120 0.705831 0.597438
Si Si4 0.716704 0.161387 0.211393
Si Si5 0.000000 0.086342 0.750000
Si Si6 0.500000 0.869917 0.750000
Si Si7 0.408595 0.128105 0.493141
O O1 0.834416 0.756664 0.560835
O O2 0.617204 0.478960 0.425832
O O3 0.570231 0.721472 0.454483
O O4 0.000000 0.572120 0.750000
O O5 0.500000 0.748438 0.250000
O O6 0.989707 0.800454 0.577580
O O7 0.727867 0.018171 0.431388
O O8 0.597930 0.723447 0.668442
O O9 0.570565 0.764268 0.750916
O O10 0.173295 0.801954 0.408689
O O11 0.652161 0.978860 0.178542
O O12 0.598647 0.192320 0.070456
O O13 0.837310 0.976375 0.671438
#
# Coordination Sequence:
#
# PCOD8117544 Si02
#       7
#     4   4   4   4   2   2   4
#     4  12  22  42  66  95 129 173 204 259 332 385
#     4  10  23  43  69  89 124 176 217 258 315 378
#     4  11  24  38  63  96 133 164 207 262 325 376
#     4  10  20  39  62  99 123 160 223 270 304 370
#     4  10  18  38  62  94 120 172 218 254 308 376
#     4  10  24  44  64  88 126 176 216 250 312 388
#     4  10  19  34  68  91 127 161 219 267 309 364
#
# _framework density 20.23049
#
# number of rings (size 3 to 8) (size 9 to 14) (size 15 to 20)
#    0.500    1.000    3.333    3.000    1.167    1.333 
#    0.000    0.833    0.000    0.000    0.000    0.000 
#    0.000    0.000    0.000    0.000    0.000    0.000 
#
# Total GULP energy -297480.016339 kJ/mol
# GULP energy per Si atom -12395.000681 kJ/mol
# Density = 2.018444 g / cm^3
# Si number density = 20.230490 Si / 1000 Ang^3
#
#
#
# Elastic Constant Matrix: (Units=GPa)
#
#
# Indices 1 2 3 4 5 6 
#
# 1 137.6428 60.4378 37.7465 0.0000 4.0781 0.0000
# 2 60.4378 122.3304 30.7513 0.0000 -12.5269 0.0000
# 3 37.7465 30.7513 83.1657 0.0000 14.6089 0.0000
# 4 0.0000 0.0000 0.0000 17.6579 0.0000 -6.3671
# 5 4.0781 -12.5269 14.6089 0.0000 24.8292 0.0000
# 6 0.0000 0.0000 0.0000 -6.3671 0.0000 24.2414
#
#
#
# Elastic Compliance Matrix: (Units=1/GPa)
#
#
# Indices 1 2 3 4 5 6 
#
# 1 0.010023 -0.004613 -0.002393 0.000000 -0.002566 0.000000
# 2 -0.004613 0.012484 -0.004195 0.000000 0.009524 0.000000
# 3 -0.002393 -0.004195 0.016689 0.000000 -0.011543 0.000000
# 4 0.000000 0.000000 0.000000 0.062556 0.000000 0.016431
# 5 -0.002566 0.009524 -0.011543 0.000000 0.052293 0.000000
# 6 0.000000 0.000000 0.000000 0.016431 0.000000 0.045567
#
#
# Mechanical properties :
#
#
# Convention : Reuss Voigt Hill
#
# Bulk Modulus (GPa) = 59.54660 66.77889 63.16275
# Shear Modulus (GPa) = 21.96715 27.62592 24.79653
#
# Velocity S-wave (km/s) = 3.29879 3.69936 3.50480
# Velocity P-wave (km/s) = 6.63380 7.16433 6.90417
#
# Compressibility (1/GPa) = 0.01679357
#
# Stress axis : x y z
#
# Youngs Moduli (GPa) = 99.77103 80.10492 59.91974
#
# Poissons Ratio (x) = 0.36954 0.14337
# Poissons Ratio (y) = 0.46026 0.25137
# Poissons Ratio (z) = 0.23872 0.33606
#
# Static dielectric constant tensor:
#      x y z
#    x 3.691160 0.000000 0.098150 
#    y 0.000000 3.485400 0.000000 
#    z 0.098150 0.000000 3.477570 
# 
# 
# High freq. dielectric constant tensor:
#      x y z
#    x 1.794450 0.000000 -0.000680 
#    y 0.000000 1.776270 0.000000 
#    z -0.000680 0.000000 1.770340 
# 
# From -- ./inp_files/88080.got.cif
#   From: 2010.06.25/outbox.cif.g09.slc.cpg/sg13_45_cif.got.tgz:88080.got - 2010.06.28 04:50:58.
