data_PCOD8117142
_publ_section_title
;
Structure prediction by ZEFSAII (Michael W. Deem and Ramdas Pophale) SiO2 
 PCOD8117142
Probable space group: P 2/C
;
_chemical_formula_sum "Si O2"
_cell_formula_units_Z 28
_cell_length_a 19.120254
_cell_length_b 5.306943
_cell_length_c 21.882390
_cell_angle_alpha 90.000000
_cell_angle_beta 147.237794
_cell_angle_gamma 90.000000
_cell_volume 1201.581990
_symmetry_space_group_name_H-M "P 2/C"
_symmetry_group_IT_number 13
_symmetry_cell_setting 'monoclinic'
loop_
_space_group_symop_operation_xyz
x,y,z
-x,y,1/2-z
-x,-y,-z
x,-y,1/2+z
loop_
_atom_site_type_symbol
_atom_site_label
_atom_site_fract_x
_atom_site_fract_y
_atom_site_fract_z
Si Si1 0.699488 0.255960 0.893249
Si Si2 0.500000 0.134570 0.250000
Si Si3 0.239606 0.636140 0.461579
Si Si4 0.934827 0.011785 0.596423
Si Si5 0.645890 0.751205 0.217240
Si Si6 0.511729 0.734397 0.626460
Si Si7 0.000000 0.697462 0.750000
Si Si8 0.947846 0.752101 0.428584
O O1 0.632203 0.291160 0.779212
O O2 0.617625 0.032552 0.865069
O O3 0.692194 0.505488 0.929201
O O4 0.850176 0.179283 0.992224
O O5 0.452373 0.288599 0.274517
O O6 0.166562 0.883041 0.429179
O O7 0.356248 0.711657 0.501324
O O8 0.132157 0.459139 0.352027
O O9 0.000131 0.228697 0.603311
O O10 0.031204 0.856899 0.711084
O O11 0.578457 0.500897 0.139878
O O12 0.795059 0.758684 0.307976
O O13 0.570572 0.005812 0.141826
O O14 0.000000 0.500000 0.500000
O O15 0.000000 0.000000 0.500000
#
# Coordination Sequence:
#
# PCOD8117142 Si02
#       8
#     4   2   4   4   4   4   2   4
#     4  10  19  32  55  88 133 162 213 255 331 404
#     4  10  18  32  52  90 128 172 194 258 324 416
#     4  11  21  40  62  96 122 174 221 289 344 384
#     4  11  23  41  64  95 129 176 223 283 335 397
#     4  11  23  37  56  96 130 181 207 253 334 408
#     4  11  22  35  60  86 135 165 215 266 327 409
#     4  10  26  42  68  94 128 168 238 290 348 386
#     4  12  25  42  67  97 142 184 224 271 332 415
#
# _framework density 23.302612
#
# number of rings (size 3 to 8) (size 9 to 14) (size 15 to 20)
#    0.000    1.143    2.857    4.714    8.000    0.571 
#    0.000    0.000    0.000    1.714    0.000    0.000 
#    0.000    0.000    0.000    0.000    0.000    0.000 
#
# Total GULP energy -346988.766227 kJ/mol
# GULP energy per Si atom -12392.455937 kJ/mol
# Density = 2.324957 g / cm^3
# Si number density = 23.302612 Si / 1000 Ang^3
#
#
#
# Elastic Constant Matrix: (Units=GPa)
#
#
# Indices 1 2 3 4 5 6 
#
# 1 56.1278 26.9258 33.6665 0.0000 35.4199 0.0000
# 2 26.9258 141.6232 40.5640 0.0000 22.7986 0.0000
# 3 33.6665 40.5640 106.5505 0.0000 26.2132 0.0000
# 4 0.0000 0.0000 0.0000 36.2425 0.0000 11.9398
# 5 35.4199 22.7986 26.2132 0.0000 42.6592 0.0000
# 6 0.0000 0.0000 0.0000 11.9398 0.0000 25.0249
#
#
#
# Elastic Compliance Matrix: (Units=1/GPa)
#
#
# Indices 1 2 3 4 5 6 
#
# 1 0.040023 -0.001481 -0.004832 0.000000 -0.029470 0.000000
# 2 -0.001481 0.008276 -0.002235 0.000000 -0.001820 0.000000
# 3 -0.004832 -0.002235 0.012349 0.000000 -0.002382 0.000000
# 4 0.000000 0.000000 0.000000 0.032738 0.000000 -0.015620
# 5 -0.029470 -0.001820 -0.002382 0.000000 0.050347 0.000000
# 6 0.000000 0.000000 0.000000 -0.015620 0.000000 0.047413
#
#
# Mechanical properties :
#
#
# Convention : Reuss Voigt Hill
#
# Bulk Modulus (GPa) = 22.96147 56.29044 39.62596
# Shear Modulus (GPa) = 22.44602 34.32835 28.38719
#
# Velocity S-wave (km/s) = 3.10698 3.84233 3.49406
# Velocity P-wave (km/s) = 4.76929 6.62521 5.77233
#
# Compressibility (1/GPa) = 0.04355122
#
# Stress axis : x y z
#
# Youngs Moduli (GPa) = 24.98586 120.83650 80.98025
#
# Poissons Ratio (x) = 0.17898 0.39128
# Poissons Ratio (y) = 0.03701 0.18098
# Poissons Ratio (z) = 0.12073 0.27006
#
# Static dielectric constant tensor:
#      x y z
#    x 3.922660 0.000000 0.280220 
#    y 0.000000 4.383910 0.000000 
#    z 0.280220 0.000000 4.196560 
# 
# 
# High freq. dielectric constant tensor:
#      x y z
#    x 1.880380 0.000000 0.033970 
#    y 0.000000 1.940510 0.000000 
#    z 0.033970 0.000000 1.915900 
# 
# From -- ./inp_files/77572.got.cif
#   From: 2010.06.25/outbox.cif.g09.slc.cpg/sg13_39_cif.got.tgz:77572.got - 2010.06.28 04:50:58.
