data_PCOD8117448
_publ_section_title
;
Structure prediction by ZEFSAII (Michael W. Deem and Ramdas Pophale) SiO2 
 PCOD8117448
Probable space group: P 2/C
;
_chemical_formula_sum "Si O2"
_cell_formula_units_Z 26
_cell_length_a 23.495249
_cell_length_b 12.200146
_cell_length_c 13.388321
_cell_angle_alpha 90.000000
_cell_angle_beta 159.084541
_cell_angle_gamma 90.000000
_cell_volume 1370.021243
_symmetry_space_group_name_H-M "P 2/C"
_symmetry_group_IT_number 13
_symmetry_cell_setting 'monoclinic'
loop_
_space_group_symop_operation_xyz
x,y,z
-x,y,1/2-z
-x,-y,-z
x,-y,1/2+z
loop_
_atom_site_type_symbol
_atom_site_label
_atom_site_fract_x
_atom_site_fract_y
_atom_site_fract_z
Si Si1 0.224159 0.280156 0.191110
Si Si2 0.912581 0.706398 0.309187
Si Si3 0.638087 0.112313 0.777593
Si Si4 0.102952 0.295138 0.322880
Si Si5 0.836910 0.530675 0.041570
Si Si6 0.690597 0.867695 0.846444
Si Si7 0.500000 0.184237 0.750000
O O1 0.233856 0.179808 0.130334
O O2 0.353924 0.265956 0.489597
O O3 0.268701 0.394363 0.206561
O O4 0.049984 0.271325 0.953027
O O5 0.840136 0.589766 0.155222
O O6 0.977054 0.692568 0.526189
O O7 0.776450 0.802290 0.079074
O O8 0.504297 0.141472 0.473916
O O9 0.546541 0.107400 0.733589
O O10 0.727694 0.996988 0.909899
O O11 0.774851 0.201070 0.002195
O O12 0.211627 0.404662 0.517571
O O13 0.000000 0.262764 0.250000
O O14 0.000000 0.520622 0.250000
#
# Coordination Sequence:
#
# PCOD8117448 Si02
#       7
#     4   4   4   4   4   4   2
#     4   9  17  34  62  84 108 145 193 232 271 339
#     4  10  18  36  59  85 107 151 193 226 268 342
#     4  10  21  39  56  82 117 149 181 238 282 329
#     4  11  22  36  54  84 119 146 183 231 285 329
#     4   8  17  33  58  81 110 145 182 231 283 329
#     4   9  20  37  57  83 110 145 190 230 288 319
#     4  10  18  36  58  84 110 146 194 226 282 334
#
# _framework density 18.977808
#
# number of rings (size 3 to 8) (size 9 to 14) (size 15 to 20)
#    0.000    2.462    1.538    1.846    0.000    1.846 
#    8.308    6.923    0.000    0.000    0.000    0.000 
#    0.000    0.000    0.000    0.000    0.000    0.000 
#
# Total GULP energy -322109.929705 kJ/mol
# GULP energy per Si atom -12388.843450 kJ/mol
# Density = 1.893461 g / cm^3
# Si number density = 18.977808 Si / 1000 Ang^3
#
#
#
# Elastic Constant Matrix: (Units=GPa)
#
#
# Indices 1 2 3 4 5 6 
#
# 1 69.4050 24.6708 7.8898 0.0000 -7.6810 0.0000
# 2 24.6708 111.0555 23.8983 0.0000 -1.3457 0.0000
# 3 7.8898 23.8983 56.3414 0.0000 -12.8329 0.0000
# 4 0.0000 0.0000 0.0000 8.8729 0.0000 -3.7151
# 5 -7.6810 -1.3457 -12.8329 0.0000 25.9625 0.0000
# 6 0.0000 0.0000 0.0000 -3.7151 0.0000 11.7294
#
#
#
# Elastic Compliance Matrix: (Units=1/GPa)
#
#
# Indices 1 2 3 4 5 6 
#
# 1 0.016181 -0.003613 0.000354 0.000000 0.004775 0.000000
# 2 -0.003613 0.010788 -0.004717 0.000000 -0.002841 0.000000
# 3 0.000354 -0.004717 0.022164 0.000000 0.010815 0.000000
# 4 0.000000 0.000000 0.000000 0.129934 0.000000 0.041154
# 5 0.004775 -0.002841 0.010815 0.000000 0.045128 0.000000
# 6 0.000000 0.000000 0.000000 0.041154 0.000000 0.098290
#
#
# Mechanical properties :
#
#
# Convention : Reuss Voigt Hill
#
# Bulk Modulus (GPa) = 30.13821 38.85774 34.49798
# Shear Modulus (GPa) = 14.30629 21.33582 17.82106
#
# Velocity S-wave (km/s) = 2.74860 3.35662 3.06771
# Velocity P-wave (km/s) = 5.09787 5.96174 5.54665
#
# Compressibility (1/GPa) = 0.03318047
#
# Stress axis : x y z
#
# Youngs Moduli (GPa) = 61.80244 92.69774 45.11895
#
# Poissons Ratio (x) = 0.33490 -0.01598
# Poissons Ratio (y) = 0.22328 0.21283
# Poissons Ratio (z) = -0.02189 0.43726
#
# Static dielectric constant tensor:
#      x y z
#    x 3.330750 0.000000 -0.191170 
#    y 0.000000 3.818800 0.000000 
#    z -0.191170 0.000000 3.679520 
# 
# 
# High freq. dielectric constant tensor:
#      x y z
#    x 1.720940 0.000000 -0.015620 
#    y 0.000000 1.738880 0.000000 
#    z -0.015620 0.000000 1.731450 
# 
# From -- ./inp_files/59598.got.cif
#   From: 2010.06.25/outbox.cif.g09.slc.cpg/sg13_30_cif.got.tgz:59598.got - 2010.06.28 04:50:58.
