data_PCOD8117097
_publ_section_title
;
Structure prediction by ZEFSAII (Michael W. Deem and Ramdas Pophale) SiO2 
 PCOD8117097
Probable space group: P 2/C
;
_chemical_formula_sum "Si O2"
_cell_formula_units_Z 32
_cell_length_a 9.182556
_cell_length_b 13.729197
_cell_length_c 14.454648
_cell_angle_alpha 90.000000
_cell_angle_beta 120.586792
_cell_angle_gamma 90.000000
_cell_volume 1568.730872
_symmetry_space_group_name_H-M "P 2/C"
_symmetry_group_IT_number 13
_symmetry_cell_setting 'monoclinic'
loop_
_space_group_symop_operation_xyz
x,y,z
-x,y,1/2-z
-x,-y,-z
x,-y,1/2+z
loop_
_atom_site_type_symbol
_atom_site_label
_atom_site_fract_x
_atom_site_fract_y
_atom_site_fract_z
Si Si1 0.397287 0.624632 0.803848
Si Si2 0.989774 0.815138 0.531761
Si Si3 0.108125 0.141026 0.874858
Si Si4 0.316910 0.674899 0.464455
Si Si5 0.184130 0.439635 0.764903
Si Si6 0.832506 0.079490 0.139033
Si Si7 0.674710 0.837960 0.758213
Si Si8 0.006540 0.390628 0.536180
O O1 0.500000 0.580290 0.750000
O O2 0.253482 0.548914 0.783983
O O3 0.307833 0.722062 0.740981
O O4 0.506518 0.655258 0.928590
O O5 0.836815 0.859967 0.543889
O O6 0.969877 0.696806 0.530757
O O7 0.981175 0.849310 0.421700
O O8 0.164827 0.863199 0.625682
O O9 0.270811 0.210863 0.940784
O O10 0.000000 0.172779 0.750000
O O11 0.183834 0.033938 0.888616
O O12 0.319040 0.625568 0.364316
O O13 0.174880 0.622647 0.477700
O O14 0.162040 0.386714 0.658944
O O15 0.000000 0.445328 0.750000
O O16 0.680358 0.112414 0.158014
O O17 0.000000 0.105112 0.250000
O O18 0.500000 0.871381 0.750000
O O19 0.000000 0.500000 0.500000
#
# Coordination Sequence:
#
# PCOD8117097 Si02
#       8
#     4   4   4   4   4   4   4   4
#     4  11  21  36  55  78 109 146 181 228 285 338
#     4  10  19  34  55  82 114 144 186 239 280 327
#     4  10  18  34  58  84 113 149 190 233 283 339
#     4  10  20  34  53  78 109 147 184 226 279 335
#     4  10  21  35  54  80 108 144 188 227 271 334
#     4   9  20  34  56  85 111 143 189 240 283 328
#     4  10  20  36  54  79 110 146 186 230 283 339
#     4  10  18  31  52  80 110 147 185 227 277 332
#
# _framework density 20.398655000000002
#
# number of rings (size 3 to 8) (size 9 to 14) (size 15 to 20)
#    0.000    2.000    0.000    7.125    0.000    3.500 
#    0.000    3.750    0.000    0.750    0.000    0.000 
#    0.000    0.000    0.000    0.000    0.000    0.000 
#
# Total GULP energy -396603.268164 kJ/mol
# GULP energy per Si atom -12393.852130 kJ/mol
# Density = 2.035223 g / cm^3
# Si number density = 20.398655 Si / 1000 Ang^3
#
#
#
# Elastic Constant Matrix: (Units=GPa)
#
#
# Indices 1 2 3 4 5 6 
#
# 1 79.3113 44.9025 37.0325 0.0000 -19.7115 0.0000
# 2 44.9025 100.2394 13.2580 0.0000 -19.5998 0.0000
# 3 37.0325 13.2580 102.2077 0.0000 -11.9973 0.0000
# 4 0.0000 0.0000 0.0000 33.0952 0.0000 -8.2748
# 5 -19.7115 -19.5998 -11.9973 0.0000 31.9183 0.0000
# 6 0.0000 0.0000 0.0000 -8.2748 0.0000 21.9962
#
#
#
# Elastic Compliance Matrix: (Units=1/GPa)
#
#
# Indices 1 2 3 4 5 6 
#
# 1 0.021183 -0.007478 -0.005972 0.000000 0.006245 0.000000
# 2 -0.007478 0.014023 0.001422 0.000000 0.004527 0.000000
# 3 -0.005972 0.001422 0.011961 0.000000 0.001681 0.000000
# 4 0.000000 0.000000 0.000000 0.033353 0.000000 0.012547
# 5 0.006245 0.004527 0.001681 0.000000 0.038599 0.000000
# 6 0.000000 0.000000 0.000000 0.012547 0.000000 0.050183
#
#
# Mechanical properties :
#
#
# Convention : Reuss Voigt Hill
#
# Bulk Modulus (GPa) = 43.27063 52.46048 47.86555
# Shear Modulus (GPa) = 24.86815 29.83962 27.35388
#
# Velocity S-wave (km/s) = 3.49536 3.82884 3.66589
# Velocity P-wave (km/s) = 6.12769 6.73202 6.43695
#
# Compressibility (1/GPa) = 0.02311036
#
# Stress axis : x y z
#
# Youngs Moduli (GPa) = 47.20817 71.31120 83.60736
#
# Poissons Ratio (x) = 0.53326 0.49930
# Poissons Ratio (y) = 0.35302 -0.11888
# Poissons Ratio (z) = 0.28193 -0.10139
#
# Static dielectric constant tensor:
#      x y z
#    x 3.536640 0.000000 -0.304730 
#    y 0.000000 3.733350 0.000000 
#    z -0.304730 0.000000 4.082070 
# 
# 
# High freq. dielectric constant tensor:
#      x y z
#    x 1.763560 0.000000 -0.017290 
#    y 0.000000 1.799640 0.000000 
#    z -0.017290 0.000000 1.806760 
# 
# From -- ./inp_files/47697.got.cif
#   From: 2010.06.25/outbox.cif.g09.slc.cpg/sg13_24_cif.got.tgz:47697.got - 2010.06.28 04:50:58.
