data_PCOD8117259
_publ_section_title
;
Structure prediction by ZEFSAII (Michael W. Deem and Ramdas Pophale) SiO2 
 PCOD8117259
Probable space group: P 2/C
;
_chemical_formula_sum "Si O2"
_cell_formula_units_Z 28
_cell_length_a 18.020756
_cell_length_b 10.198663
_cell_length_c 23.024556
_cell_angle_alpha 90.000000
_cell_angle_beta 21.453145
_cell_angle_gamma 90.000000
_cell_volume 1547.676717
_symmetry_space_group_name_H-M "P 2/C"
_symmetry_group_IT_number 13
_symmetry_cell_setting 'monoclinic'
loop_
_space_group_symop_operation_xyz
x,y,z
-x,y,1/2-z
-x,-y,-z
x,-y,1/2+z
loop_
_atom_site_type_symbol
_atom_site_label
_atom_site_fract_x
_atom_site_fract_y
_atom_site_fract_z
Si Si1 0.756325 0.736835 0.192488
Si Si2 0.373116 0.329595 0.198444
Si Si3 0.822736 0.299173 0.832170
Si Si4 0.073468 0.891011 0.902675
Si Si5 0.901122 0.479723 0.669852
Si Si6 0.295486 0.073007 0.667406
Si Si7 0.662399 0.470284 0.680799
O O1 0.898816 0.641757 0.126772
O O2 0.656501 0.845716 0.307508
O O3 0.596369 0.644286 0.275015
O O4 0.887915 0.789779 0.041602
O O5 0.283025 0.182709 0.266574
O O6 0.272703 0.413444 0.218763
O O7 0.330094 0.391605 0.292097
O O8 0.613425 0.326178 0.016669
O O9 0.870631 0.424365 0.756885
O O10 0.795945 0.165985 0.814986
O O11 0.000000 0.279278 0.750000
O O12 0.120268 0.964061 0.807552
O O13 0.000000 0.000000 0.000000
O O14 0.116611 0.552193 0.508333
O O15 0.500000 0.000000 0.500000
O O16 0.500000 0.474943 0.750000
#
# Coordination Sequence:
#
# PCOD8117259 Si02
#       7
#     4   4   4   4   4   4   4
#     4   9  18  35  55  79 107 136 184 229 265 333
#     4  11  19  36  59  80 110 146 187 225 271 342
#     4  11  23  37  53  83 116 141 182 240 282 321
#     4  10  18  33  59  80  99 137 192 221 255 317
#     4  10  19  35  58  80 106 144 185 222 279 343
#     4  10  20  35  59  76 101 150 191 218 263 333
#     4  11  20  33  55  85 114 142 175 236 295 322
#
# _framework density 18.091633000000002
#
# number of rings (size 3 to 8) (size 9 to 14) (size 15 to 20)
#    0.000    1.714    4.286    2.143    0.000    0.000 
#    0.000    1.429    0.000    0.000    0.000    0.000 
#    0.000    0.000    0.000    0.000    0.000    0.000 
#
# Total GULP energy -346877.113802 kJ/mol
# GULP energy per Si atom -12388.468350 kJ/mol
# Density = 1.805046 g / cm^3
# Si number density = 18.091633 Si / 1000 Ang^3
#
#
#
# Elastic Constant Matrix: (Units=GPa)
#
#
# Indices 1 2 3 4 5 6 
#
# 1 90.2316 35.9266 39.9081 0.0000 -11.3037 0.0000
# 2 35.9266 88.0652 43.6448 0.0000 -0.9291 0.0000
# 3 39.9081 43.6448 111.9256 0.0000 0.2693 0.0000
# 4 0.0000 0.0000 0.0000 28.1904 0.0000 6.1792
# 5 -11.3037 -0.9291 0.2693 0.0000 26.3915 0.0000
# 6 0.0000 0.0000 0.0000 6.1792 0.0000 13.7045
#
#
#
# Elastic Compliance Matrix: (Units=1/GPa)
#
#
# Indices 1 2 3 4 5 6 
#
# 1 0.015269 -0.004283 -0.003790 0.000000 0.006428 0.000000
# 2 -0.004283 0.015285 -0.004430 0.000000 -0.001251 0.000000
# 3 -0.003790 -0.004430 0.012018 0.000000 -0.001902 0.000000
# 4 0.000000 0.000000 0.000000 0.039364 0.000000 -0.017749
# 5 0.006428 -0.001251 -0.001902 0.000000 0.040620 0.000000
# 6 0.000000 0.000000 0.000000 -0.017749 0.000000 0.080971
#
#
# Mechanical properties :
#
#
# Convention : Reuss Voigt Hill
#
# Bulk Modulus (GPa) = 56.92758 58.79792 57.86275
# Shear Modulus (GPa) = 21.33217 25.04013 23.18615
#
# Velocity S-wave (km/s) = 3.43755 3.72435 3.58382
# Velocity P-wave (km/s) = 6.87679 7.14598 7.01268
#
# Compressibility (1/GPa) = 0.01756618
#
# Stress axis : x y z
#
# Youngs Moduli (GPa) = 65.49058 65.42406 83.20997
#
# Poissons Ratio (x) = 0.28023 0.31534
# Poissons Ratio (y) = 0.28051 0.36862
# Poissons Ratio (z) = 0.24819 0.28983
#
# Static dielectric constant tensor:
#      x y z
#    x 3.183670 0.000000 0.329830 
#    y 0.000000 4.123170 0.000000 
#    z 0.329830 0.000000 3.627310 
# 
# 
# High freq. dielectric constant tensor:
#      x y z
#    x 1.668560 0.000000 0.023170 
#    y 0.000000 1.717020 0.000000 
#    z 0.023170 0.000000 1.702230 
# 
# From -- ./inp_files/76290.got.cif
#   From: 2010.06.25/outbox.cif.g09.slc.cpg/sg13_39_cif.got.tgz:76290.got - 2010.06.28 04:50:58.
