data_PCOD8117493
_publ_section_title
;
Structure prediction by ZEFSAII (Michael W. Deem and Ramdas Pophale) SiO2 
 PCOD8117493
Probable space group: P 2/C
;
_chemical_formula_sum "Si O2"
_cell_formula_units_Z 28
_cell_length_a 10.156743
_cell_length_b 8.605931
_cell_length_c 30.223092
_cell_angle_alpha 90.000000
_cell_angle_beta 147.622196
_cell_angle_gamma 90.000000
_cell_volume 1414.654620
_symmetry_space_group_name_H-M "P 2/C"
_symmetry_group_IT_number 13
_symmetry_cell_setting 'monoclinic'
loop_
_space_group_symop_operation_xyz
x,y,z
-x,y,1/2-z
-x,-y,-z
x,-y,1/2+z
loop_
_atom_site_type_symbol
_atom_site_label
_atom_site_fract_x
_atom_site_fract_y
_atom_site_fract_z
Si Si1 0.464635 0.328404 0.009266
Si Si2 0.806149 0.652710 0.466877
Si Si3 0.393191 0.572430 0.813360
Si Si4 0.015178 0.381622 0.573084
Si Si5 0.276519 0.824867 0.842102
Si Si6 0.000000 0.377825 0.750000
Si Si7 0.500000 0.475444 0.750000
Si Si8 0.424639 0.165401 0.908672
O O1 0.475892 0.198050 0.974635
O O2 0.205592 0.309994 0.961228
O O3 0.500000 0.500000 0.000000
O O4 0.687287 0.296096 0.106810
O O5 0.614664 0.521916 0.397277
O O6 0.959615 0.708099 0.467203
O O7 0.666809 0.795586 0.449108
O O8 0.975567 0.566324 0.551484
O O9 0.405414 0.747764 0.835807
O O10 0.136320 0.488651 0.753476
O O11 0.417397 0.583350 0.767403
O O12 0.270670 0.364145 0.672342
O O13 0.000000 0.855761 0.750000
O O14 0.394117 0.985118 0.890659
O O15 0.190097 0.267586 0.829198
#
# Coordination Sequence:
#
# PCOD8117493 Si02
#       8
#     4   4   4   4   4   2   2   4
#     4  12  23  41  67  97 122 169 222 266 306 383
#     4   9  19  37  62  84 122 159 204 254 314 377
#     4  10  19  36  59  87 119 160 211 252 309 366
#     4  10  19  37  62  96 120 153 215 266 312 363
#     4  12  25  40  61  94 135 169 207 267 327 379
#     4  10  18  36  64  92 116 166 204 266 308 374
#     4  10  22  32  62  96 116 154 208 282 304 358
#     4  11  22  39  62  93 128 164 209 258 326 376
#
# _framework density 19.792816999999999
#
# number of rings (size 3 to 8) (size 9 to 14) (size 15 to 20)
#    0.000    1.429    4.286    2.143    2.000    0.000 
#    0.000    0.714    3.143    0.857    0.000    0.000 
#    0.000    0.000    0.000    0.000    0.000    0.000 
#
# Total GULP energy -347105.525538 kJ/mol
# GULP energy per Si atom -12396.625912 kJ/mol
# Density = 1.974777 g / cm^3
# Si number density = 19.792817 Si / 1000 Ang^3
#
#
#
# Elastic Constant Matrix: (Units=GPa)
#
#
# Indices 1 2 3 4 5 6 
#
# 1 150.1308 45.3223 24.2313 0.0000 -9.0798 0.0000
# 2 45.3223 90.7732 10.9643 0.0000 -9.0913 0.0000
# 3 24.2313 10.9643 76.7695 0.0000 -5.7375 0.0000
# 4 0.0000 0.0000 0.0000 27.1648 0.0000 -2.4609
# 5 -9.0798 -9.0913 -5.7375 0.0000 33.1250 0.0000
# 6 0.0000 0.0000 0.0000 -2.4609 0.0000 20.7915
#
#
#
# Elastic Compliance Matrix: (Units=1/GPa)
#
#
# Indices 1 2 3 4 5 6 
#
# 1 0.008165 -0.003751 -0.001977 0.000000 0.000866 0.000000
# 2 -0.003751 0.013202 -0.000514 0.000000 0.002506 0.000000
# 3 -0.001977 -0.000514 0.013852 0.000000 0.001716 0.000000
# 4 0.000000 0.000000 0.000000 0.037211 0.000000 0.004404
# 5 0.000866 0.002506 0.001716 0.000000 0.031411 0.000000
# 6 0.000000 0.000000 0.000000 0.004404 0.000000 0.048618
#
#
# Mechanical properties :
#
#
# Convention : Reuss Voigt Hill
#
# Bulk Modulus (GPa) = 43.98547 53.18993 48.58770
# Shear Modulus (GPa) = 28.98191 32.02663 30.50427
#
# Velocity S-wave (km/s) = 3.83072 4.02692 3.93004
# Velocity P-wave (km/s) = 6.46816 6.96801 6.72273
#
# Compressibility (1/GPa) = 0.02273478
#
# Stress axis : x y z
#
# Youngs Moduli (GPa) = 122.47914 75.74346 72.19378
#
# Poissons Ratio (x) = 0.28412 0.14270
# Poissons Ratio (y) = 0.45942 0.03713
# Poissons Ratio (z) = 0.24209 0.03896
#
# Static dielectric constant tensor:
#      x y z
#    x 4.042140 0.000000 0.001890 
#    y 0.000000 3.264620 0.000000 
#    z 0.001890 0.000000 3.860950 
# 
# 
# High freq. dielectric constant tensor:
#      x y z
#    x 1.784490 0.000000 0.000330 
#    y 0.000000 1.729140 0.000000 
#    z 0.000330 0.000000 1.787130 
# 
# From -- ./inp_files/91518.got.cif
#   From: 2010.06.25/outbox.cif.g09.slc.cpg/sg13_46_cif.got.tgz:91518.got - 2010.06.28 04:50:58.
