data_PCOD8117270
_publ_section_title
;
Structure prediction by ZEFSAII (Michael W. Deem and Ramdas Pophale) SiO2 
 PCOD8117270
Probable space group: P 2/C
;
_chemical_formula_sum "Si O2"
_cell_formula_units_Z 20
_cell_length_a 13.465081
_cell_length_b 11.134525
_cell_length_c 9.806096
_cell_angle_alpha 90.000000
_cell_angle_beta 39.587960
_cell_angle_gamma 90.000000
_cell_volume 936.903519
_symmetry_space_group_name_H-M "P 2/C"
_symmetry_group_IT_number 13
_symmetry_cell_setting 'monoclinic'
loop_
_space_group_symop_operation_xyz
x,y,z
-x,y,1/2-z
-x,-y,-z
x,-y,1/2+z
loop_
_atom_site_type_symbol
_atom_site_label
_atom_site_fract_x
_atom_site_fract_y
_atom_site_fract_z
Si Si1 0.320778 0.618563 0.472836
Si Si2 0.359484 0.747301 0.701513
Si Si3 0.828093 0.625238 0.375598
Si Si4 0.714822 0.244507 0.750872
Si Si5 0.613762 0.996082 0.256749
O O1 0.500000 0.590099 0.250000
O O2 0.300934 0.721866 0.609478
O O3 0.229732 0.501803 0.624132
O O4 0.245069 0.663443 0.412293
O O5 0.546029 0.739057 0.499578
O O6 0.300251 0.874743 0.829867
O O7 0.292165 0.649103 0.874662
O O8 0.831380 0.726483 0.252311
O O9 0.000000 0.615465 0.250000
O O10 0.734265 0.112466 0.660560
O O11 0.500000 0.970530 0.250000
O O12 0.500000 0.000000 0.500000
#
# Coordination Sequence:
#
# PCOD8117270 Si02
#       5
#     4   4   4   4   4
#     4  10  21  37  59  86 112 144 190 239 286 335
#     4  10  20  37  62  88 113 144 184 235 288 339
#     4  12  25  38  54  80 117 159 196 230 275 332
#     4  10  20  37  61  88 113 143 187 237 287 337
#     4  10  18  33  61  92 115 138 177 231 288 340
#
# _framework density 21.346914000000002
#
# number of rings (size 3 to 8) (size 9 to 14) (size 15 to 20)
#    0.000    1.600    0.000    8.400    0.000    6.400 
#    0.000    1.000    0.000    2.400    0.000    0.000 
#    0.000    0.000    0.000    0.000    0.000    0.000 
#
# Total GULP energy -247822.697716 kJ/mol
# GULP energy per Si atom -12391.134886 kJ/mol
# Density = 2.129833 g / cm^3
# Si number density = 21.346914 Si / 1000 Ang^3
#
#
#
# Elastic Constant Matrix: (Units=GPa)
#
#
# Indices 1 2 3 4 5 6 
#
# 1 128.8440 56.9516 34.0949 0.0000 23.3311 0.0000
# 2 56.9516 130.1406 22.7495 0.0000 1.4038 0.0000
# 3 34.0949 22.7495 32.8855 0.0000 16.8480 0.0000
# 4 0.0000 0.0000 0.0000 13.6986 0.0000 17.3354
# 5 23.3311 1.4038 16.8480 0.0000 25.4711 0.0000
# 6 0.0000 0.0000 0.0000 17.3354 0.0000 31.0755
#
#
#
# Elastic Compliance Matrix: (Units=1/GPa)
#
#
# Indices 1 2 3 4 5 6 
#
# 1 0.012684 -0.004331 -0.006540 0.000000 -0.007053 0.000000
# 2 -0.004331 0.010724 -0.007046 0.000000 0.008037 0.000000
# 3 -0.006540 -0.007046 0.058681 0.000000 -0.032436 0.000000
# 4 0.000000 0.000000 0.000000 0.248261 0.000000 -0.138492
# 5 -0.007053 0.008037 -0.032436 0.000000 0.066733 0.000000
# 6 0.000000 0.000000 0.000000 -0.138492 0.000000 0.109437
#
#
# Mechanical properties :
#
#
# Convention : Reuss Voigt Hill
#
# Bulk Modulus (GPa) = 21.61955 57.71801 39.66878
# Shear Modulus (GPa) = 8.96422 25.92064 17.44243
#
# Velocity S-wave (km/s) = 2.05144 3.48840 2.86159
# Velocity P-wave (km/s) = 3.97000 6.58195 5.43521
#
# Compressibility (1/GPa) = 0.04625444
#
# Stress axis : x y z
#
# Youngs Moduli (GPa) = 78.84115 93.24552 17.04119
#
# Poissons Ratio (x) = 0.40386 0.11146
# Poissons Ratio (y) = 0.34148 0.12007
# Poissons Ratio (z) = 0.51566 0.65699
#
# Static dielectric constant tensor:
#      x y z
#    x 3.686530 0.000000 0.355720 
#    y 0.000000 -2.299140 0.000000 
#    z 0.355720 0.000000 3.545550 
# 
# 
# High freq. dielectric constant tensor:
#      x y z
#    x 1.824920 0.000000 0.044850 
#    y 0.000000 1.849360 0.000000 
#    z 0.044850 0.000000 1.809100 
# 
# From -- ./inp_files/11656.got.cif
#   From: 2010.06.25/outbox.cif.g09.slc.cpg/sg13_6_cif.got.tgz:11656.got - 2010.06.28 04:50:58.
