data_PCOD8117531
_publ_section_title
;
Structure prediction by ZEFSAII (Michael W. Deem and Ramdas Pophale) SiO2 
 PCOD8117531
Probable space group: P 2/C
;
_chemical_formula_sum "Si O2"
_cell_formula_units_Z 24
_cell_length_a 13.412412
_cell_length_b 8.180067
_cell_length_c 14.804541
_cell_angle_alpha 90.000000
_cell_angle_beta 133.987995
_cell_angle_gamma 90.000000
_cell_volume 1168.639709
_symmetry_space_group_name_H-M "P 2/C"
_symmetry_group_IT_number 13
_symmetry_cell_setting 'monoclinic'
loop_
_space_group_symop_operation_xyz
x,y,z
-x,y,1/2-z
-x,-y,-z
x,-y,1/2+z
loop_
_atom_site_type_symbol
_atom_site_label
_atom_site_fract_x
_atom_site_fract_y
_atom_site_fract_z
Si Si1 0.548662 0.737301 0.987308
Si Si2 0.500000 0.600195 0.250000
Si Si3 0.000000 0.725154 0.250000
Si Si4 0.771408 0.510584 0.677605
Si Si5 0.344198 0.777700 0.008021
Si Si6 0.678251 0.658931 0.792640
Si Si7 0.766355 0.105751 0.505314
O O1 0.620526 0.579843 0.081280
O O2 0.434317 0.831772 0.976385
O O3 0.673394 0.850248 0.033546
O O4 0.471360 0.694577 0.845328
O O5 0.471236 0.714837 0.147530
O O6 0.355887 0.497858 0.167275
O O7 0.897910 0.611652 0.243801
O O8 0.921998 0.840495 0.128791
O O9 0.767963 0.642067 0.593852
O O10 0.788128 0.606644 0.783810
O O11 0.255626 0.910658 0.009541
O O12 0.730754 0.810953 0.886582
#
# Coordination Sequence:
#
# PCOD8117531 Si02
#       7
#     4   2   2   4   4   4   4
#     4  10  18  38  60  90 123 157 189 251 315 365
#     4  12  18  32  60  92 124 146 192 244 300 376
#     4  10  24  44  62  76 118 180 210 246 290 358
#     4  10  20  41  65  86 119 165 213 241 289 365
#     4  11  22  34  59  95 122 152 194 256 313 360
#     4  11  19  36  63  92 121 152 198 254 301 363
#     4  11  23  37  57  89 127 160 194 251 314 355
#
# _framework density 20.536697
#
# number of rings (size 3 to 8) (size 9 to 14) (size 15 to 20)
#    0.000    1.333    5.000    2.500    2.333    1.333 
#    0.000    0.000    0.000    6.000    0.000    0.000 
#    0.000    0.000    0.000    0.000    0.000    0.000 
#
# Total GULP energy -297332.700946 kJ/mol
# GULP energy per Si atom -12388.862539 kJ/mol
# Density = 2.048995 g / cm^3
# Si number density = 20.536697 Si / 1000 Ang^3
#
#
#
# Elastic Constant Matrix: (Units=GPa)
#
#
# Indices 1 2 3 4 5 6 
#
# 1 67.3518 35.4907 41.9791 0.0000 2.5341 0.0000
# 2 35.4907 101.0279 46.5622 0.0000 -2.3999 0.0000
# 3 41.9791 46.5622 103.7896 0.0000 -2.9926 0.0000
# 4 0.0000 0.0000 0.0000 23.6436 0.0000 -0.5611
# 5 2.5341 -2.3999 -2.9926 0.0000 32.1571 0.0000
# 6 0.0000 0.0000 0.0000 -0.5611 0.0000 30.5672
#
#
#
# Elastic Compliance Matrix: (Units=1/GPa)
#
#
# Indices 1 2 3 4 5 6 
#
# 1 0.021542 -0.004513 -0.006765 0.000000 -0.002664 0.000000
# 2 -0.004513 0.013429 -0.004171 0.000000 0.000970 0.000000
# 3 -0.006765 -0.004171 0.014287 0.000000 0.001551 0.000000
# 4 0.000000 0.000000 0.000000 0.042313 0.000000 0.000777
# 5 -0.002664 0.000970 0.001551 0.000000 0.031524 0.000000
# 6 0.000000 0.000000 0.000000 0.000777 0.000000 0.032729
#
#
# Mechanical properties :
#
#
# Convention : Reuss Voigt Hill
#
# Bulk Modulus (GPa) = 54.46735 57.80369 56.13552
# Shear Modulus (GPa) = 25.92766 27.14942 26.53854
#
# Velocity S-wave (km/s) = 3.55703 3.63987 3.59869
# Velocity P-wave (km/s) = 6.59162 6.77292 6.68289
#
# Compressibility (1/GPa) = 0.01835962
#
# Stress axis : x y z
#
# Youngs Moduli (GPa) = 46.42001 74.46471 69.99249
#
# Poissons Ratio (x) = 0.33606 0.47352
# Poissons Ratio (y) = 0.20950 0.29196
# Poissons Ratio (z) = 0.31404 0.31061
#
# Static dielectric constant tensor:
#      x y z
#    x 3.504720 0.000000 -0.133890 
#    y 0.000000 3.738720 0.000000 
#    z -0.133890 0.000000 3.652940 
# 
# 
# High freq. dielectric constant tensor:
#      x y z
#    x 1.788030 0.000000 -0.017480 
#    y 0.000000 1.793910 0.000000 
#    z -0.017480 0.000000 1.794280 
# 
# From -- ./inp_files/49613.got.cif
#   From: 2010.06.25/outbox.cif.g09.slc.cpg/sg13_25_cif.got.tgz:49613.got - 2010.06.28 04:50:58.
