data_PCOD8117935
_publ_section_title
;
Structure prediction by ZEFSAII (Michael W. Deem and Ramdas Pophale) SiO2 
 PCOD8117935
Probable space group: P 2/C
;
_chemical_formula_sum "Si O2"
_cell_formula_units_Z 32
_cell_length_a 5.044647
_cell_length_b 23.018936
_cell_length_c 12.246350
_cell_angle_alpha 90.000000
_cell_angle_beta 98.949296
_cell_angle_gamma 90.000000
_cell_volume 1404.763839
_symmetry_space_group_name_H-M "P 2/C"
_symmetry_group_IT_number 13
_symmetry_cell_setting 'monoclinic'
loop_
_space_group_symop_operation_xyz
x,y,z
-x,y,1/2-z
-x,-y,-z
x,-y,1/2+z
loop_
_atom_site_type_symbol
_atom_site_label
_atom_site_fract_x
_atom_site_fract_y
_atom_site_fract_z
Si Si1 0.892771 0.314196 0.546501
Si Si2 0.396707 0.501640 0.620529
Si Si3 0.093799 0.439410 0.876979
Si Si4 0.306376 0.122446 0.537595
Si Si5 0.419769 0.247547 0.620194
Si Si6 0.841252 0.067172 0.632087
Si Si7 0.228281 0.374467 0.174896
Si Si8 0.268639 0.061252 0.322600
O O1 0.823713 0.372399 0.608927
O O2 0.683684 0.264990 0.569469
O O3 0.871849 0.324868 0.414853
O O4 0.194844 0.296981 0.597198
O O5 0.500000 0.490016 0.750000
O O6 0.339496 0.517999 0.433694
O O7 0.292108 0.568219 0.606455
O O8 0.164855 0.456520 0.568452
O O9 0.000000 0.455775 0.750000
O O10 0.289050 0.190741 0.557585
O O11 0.552098 0.096981 0.622967
O O12 0.369127 0.109360 0.414604
O O13 0.021590 0.091700 0.544850
O O14 0.500000 0.236055 0.750000
O O15 0.000000 0.084752 0.750000
O O16 0.799694 0.998304 0.617666
O O17 0.500000 0.352533 0.250000
O O18 0.000000 0.387702 0.250000
O O19 0.500000 0.048955 0.250000
O O20 0.000000 0.085515 0.250000
#
# Coordination Sequence:
#
# PCOD8117935 Si02
#       8
#     4   4   4   4   4   4   4   4
#     4  12  26  43  66  93 125 171 217 263 322 374
#     4   9  18  33  58  89 122 155 195 249 312 379
#     4  10  19  34  58  89 123 158 196 250 318 384
#     4  12  24  42  67  95 130 177 220 261 319 378
#     4  12  26  46  68  96 127 162 215 274 319 371
#     4  11  21  38  65 100 133 170 214 263 322 385
#     4  11  23  43  65  91 128 166 210 262 313 379
#     4  11  23  41  64  99 140 173 210 262 318 379
#
# _framework density 22.779629
#
# number of rings (size 3 to 8) (size 9 to 14) (size 15 to 20)
#    0.000    1.000    0.000    9.375    0.000    2.000 
#    0.000    3.750    0.000    2.250    0.000    0.000 
#    0.000    0.000    0.000    0.000    0.000    0.000 
#
# Total GULP energy -396946.300421 kJ/mol
# GULP energy per Si atom -12404.571888 kJ/mol
# Density = 2.272778 g / cm^3
# Si number density = 22.779629 Si / 1000 Ang^3
#
#
#
# Elastic Constant Matrix: (Units=GPa)
#
#
# Indices 1 2 3 4 5 6 
#
# 1 137.3492 37.3903 39.2333 0.0000 -2.4707 0.0000
# 2 37.3903 103.6341 54.8164 0.0000 -0.1687 0.0000
# 3 39.2333 54.8164 81.2545 0.0000 -2.5596 0.0000
# 4 0.0000 0.0000 0.0000 32.3527 0.0000 5.8000
# 5 -2.4707 -0.1687 -2.5596 0.0000 42.8610 0.0000
# 6 0.0000 0.0000 0.0000 5.8000 0.0000 25.0690
#
#
#
# Elastic Compliance Matrix: (Units=1/GPa)
#
#
# Indices 1 2 3 4 5 6 
#
# 1 0.008579 -0.001413 -0.003180 0.000000 0.000299 0.000000
# 2 -0.001413 0.015248 -0.009624 0.000000 -0.000596 0.000000
# 3 -0.003180 -0.009624 0.020366 0.000000 0.000995 0.000000
# 4 0.000000 0.000000 0.000000 0.032247 0.000000 -0.007461
# 5 0.000299 -0.000596 0.000995 0.000000 0.023406 0.000000
# 6 0.000000 0.000000 0.000000 -0.007461 0.000000 0.041616
#
#
# Mechanical properties :
#
#
# Convention : Reuss Voigt Hill
#
# Bulk Modulus (GPa) = 63.44750 65.01309 64.23030
# Shear Modulus (GPa) = 28.54731 32.77640 30.66186
#
# Velocity S-wave (km/s) = 3.54389 3.79733 3.67280
# Velocity P-wave (km/s) = 6.68272 6.91580 6.80026
#
# Compressibility (1/GPa) = 0.01576106
#
# Stress axis : x y z
#
# Youngs Moduli (GPa) = 116.56377 65.58057 49.10137
#
# Poissons Ratio (x) = 0.09265 0.15613
# Poissons Ratio (y) = 0.16469 0.47253
# Poissons Ratio (z) = 0.37065 0.63112
#
# Static dielectric constant tensor:
#      x y z
#    x 4.496710 0.000000 0.123320 
#    y 0.000000 3.769630 0.000000 
#    z 0.123320 0.000000 4.284880 
# 
# 
# High freq. dielectric constant tensor:
#      x y z
#    x 1.922410 0.000000 0.009890 
#    y 0.000000 1.873490 0.000000 
#    z 0.009890 0.000000 1.922180 
# 
# From -- ./inp_files/26877.got.cif
#   From: 2010.06.25/outbox.cif.g09.slc.cpg/sg13_14_cif.got.tgz:26877.got - 2010.06.28 04:50:58.
