data_PCOD8117431
_publ_section_title
;
Structure prediction by ZEFSAII (Michael W. Deem and Ramdas Pophale) SiO2 
 PCOD8117431
Probable space group: P 2/C
;
_chemical_formula_sum "Si O2"
_cell_formula_units_Z 22
_cell_length_a 14.886833
_cell_length_b 13.499976
_cell_length_c 17.406551
_cell_angle_alpha 90.000000
_cell_angle_beta 16.990329
_cell_angle_gamma 90.000000
_cell_volume 1022.218032
_symmetry_space_group_name_H-M "P 2/C"
_symmetry_group_IT_number 13
_symmetry_cell_setting 'monoclinic'
loop_
_space_group_symop_operation_xyz
x,y,z
-x,y,1/2-z
-x,-y,-z
x,-y,1/2+z
loop_
_atom_site_type_symbol
_atom_site_label
_atom_site_fract_x
_atom_site_fract_y
_atom_site_fract_z
Si Si1 0.762002 0.835577 0.381776
Si Si2 0.050314 0.110958 0.484115
Si Si3 0.418369 0.564266 0.171159
Si Si4 0.000000 0.322274 0.250000
Si Si5 0.039380 0.725326 0.556959
Si Si6 0.434677 0.637556 0.998202
O O1 0.416440 0.868754 0.687639
O O2 0.792496 0.714734 0.357320
O O3 0.000000 0.876812 0.250000
O O4 0.877978 0.876537 0.205622
O O5 0.864919 0.182887 0.575565
O O6 0.000000 0.000000 0.500000
O O7 0.194981 0.618932 0.412468
O O8 0.285428 0.581565 0.193439
O O9 0.433470 0.444643 0.169754
O O10 0.755572 0.606775 0.909627
O O11 0.882198 0.252638 0.416868
O O12 0.681712 0.711852 0.833470
#
# Coordination Sequence:
#
# PCOD8117431 Si02
#       6
#     4   4   4   2   4   4
#     4  11  23  44  68 104 134 166 224 282 333 398
#     4  11  24  46  72  94 131 179 219 279 350 403
#     4  10  18  36  55  87 125 169 213 255 322 395
#     4  10  22  34  54  90 126 164 214 268 306 386
#     4  10  20  39  60  85 128 166 219 269 328 388
#     4   9  20  34  61  86 123 170 209 257 329 392
#
# _framework density 21.521826999999998
#
# number of rings (size 3 to 8) (size 9 to 14) (size 15 to 20)
#    0.000    1.818    1.818    2.182    1.273    0.000 
#    1.636    5.455    0.000    0.000    0.000    0.000 
#    0.000    0.000    0.000    0.000    0.000    0.000 
#
# Total GULP energy -272539.505579 kJ/mol
# GULP energy per Si atom -12388.159345 kJ/mol
# Density = 2.147284 g / cm^3
# Si number density = 21.521827 Si / 1000 Ang^3
#
#
#
# Elastic Constant Matrix: (Units=GPa)
#
#
# Indices 1 2 3 4 5 6 
#
# 1 114.8069 40.5393 17.3750 0.0000 15.8919 0.0000
# 2 40.5393 117.0882 9.1274 0.0000 7.3302 0.0000
# 3 17.3750 9.1274 76.0786 0.0000 9.5661 0.0000
# 4 0.0000 0.0000 0.0000 23.3918 0.0000 0.2363
# 5 15.8919 7.3302 9.5661 0.0000 34.5080 0.0000
# 6 0.0000 0.0000 0.0000 0.2363 0.0000 13.2104
#
#
#
# Elastic Compliance Matrix: (Units=1/GPa)
#
#
# Indices 1 2 3 4 5 6 
#
# 1 0.010642 -0.003328 -0.001558 0.000000 -0.003762 0.000000
# 2 -0.003328 0.009748 -0.000354 0.000000 -0.000440 0.000000
# 3 -0.001558 -0.000354 0.013928 0.000000 -0.003068 0.000000
# 4 0.000000 0.000000 0.000000 0.042758 0.000000 -0.000765
# 5 -0.003762 -0.000440 -0.003068 0.000000 0.031655 0.000000
# 6 0.000000 0.000000 0.000000 -0.000765 0.000000 0.075712
#
#
# Mechanical properties :
#
#
# Convention : Reuss Voigt Hill
#
# Bulk Modulus (GPa) = 41.94920 49.11747 45.53333
# Shear Modulus (GPa) = 24.64647 30.28417 27.46532
#
# Velocity S-wave (km/s) = 3.38773 3.75525 3.57622
# Velocity P-wave (km/s) = 5.90221 6.45556 6.18508
#
# Compressibility (1/GPa) = 0.02383836
#
# Stress axis : x y z
#
# Youngs Moduli (GPa) = 93.96882 102.58708 71.79539
#
# Poissons Ratio (x) = 0.34136 0.11187
# Poissons Ratio (y) = 0.31268 0.02543
# Poissons Ratio (z) = 0.14642 0.03634
#
# Static dielectric constant tensor:
#      x y z
#    x 4.177120 0.000000 0.070810 
#    y 0.000000 3.926160 0.000000 
#    z 0.070810 0.000000 3.831430 
# 
# 
# High freq. dielectric constant tensor:
#      x y z
#    x 1.842780 0.000000 0.007070 
#    y 0.000000 1.830260 0.000000 
#    z 0.007070 0.000000 1.839730 
# 
# From -- ./inp_files/68514.got.cif
#   From: 2010.06.25/outbox.cif.g09.slc.cpg/sg13_35_cif.got.tgz:68514.got - 2010.06.28 04:50:58.
