data_PCOD8117552
_publ_section_title
;
Structure prediction by ZEFSAII (Michael W. Deem and Ramdas Pophale) SiO2 
 PCOD8117552
Probable space group: P 2/C
;
_chemical_formula_sum "Si O2"
_cell_formula_units_Z 24
_cell_length_a 6.518963
_cell_length_b 12.837917
_cell_length_c 13.966427
_cell_angle_alpha 90.000000
_cell_angle_beta 69.462943
_cell_angle_gamma 90.000000
_cell_volume 1094.563340
_symmetry_space_group_name_H-M "P 2/C"
_symmetry_group_IT_number 13
_symmetry_cell_setting 'monoclinic'
loop_
_space_group_symop_operation_xyz
x,y,z
-x,y,1/2-z
-x,-y,-z
x,-y,1/2+z
loop_
_atom_site_type_symbol
_atom_site_label
_atom_site_fract_x
_atom_site_fract_y
_atom_site_fract_z
Si Si1 0.927142 0.182136 0.600978
Si Si2 0.267159 0.381237 0.939253
Si Si3 0.000000 0.697561 0.750000
Si Si4 0.394110 0.258565 0.498207
Si Si5 0.000000 0.037880 0.750000
Si Si6 0.807506 0.598710 0.618956
Si Si7 0.200216 0.131486 0.085967
O O1 0.175989 0.215695 0.584181
O O2 0.854900 0.107165 0.700404
O O3 0.780067 0.286005 0.625866
O O4 0.902575 0.120600 0.503604
O O5 0.310533 0.487257 0.874060
O O6 0.485335 0.349291 0.961116
O O7 0.059152 0.401994 0.041473
O O8 0.185810 0.624936 0.768667
O O9 0.095517 0.766068 0.648974
O O10 0.331124 0.310239 0.407899
O O11 0.541359 0.155062 0.460692
O O12 0.162145 0.968925 0.658009
#
# Coordination Sequence:
#
# PCOD8117552 Si02
#       7
#     4   4   2   4   2   4   4
#     4  10  21  42  63  85 123 162 201 254 307 360
#     4   9  19  37  58  86 125 158 196 244 301 364
#     4  11  18  37  58  90 124 163 200 247 300 360
#     4  10  18  38  64  86 123 158 199 253 306 352
#     4  11  24  41  66  84 120 169 204 253 322 360
#     4  10  19  33  60  90 122 161 194 245 305 357
#     4  10  22  41  60  89 122 153 208 261 301 357
#
# _framework density 21.926552999999998
#
# number of rings (size 3 to 8) (size 9 to 14) (size 15 to 20)
#    0.000    2.000    5.000    1.000    0.000    2.000 
#    0.000    6.667    3.667    0.000    0.000    0.000 
#    0.000    0.000    0.000    0.000    0.000    0.000 
#
# Total GULP energy -297476.908866 kJ/mol
# GULP energy per Si atom -12394.871203 kJ/mol
# Density = 2.187665 g / cm^3
# Si number density = 21.926553 Si / 1000 Ang^3
#
#
#
# Elastic Constant Matrix: (Units=GPa)
#
#
# Indices 1 2 3 4 5 6 
#
# 1 105.2885 22.4154 30.8958 0.0000 31.3855 0.0000
# 2 22.4154 118.5960 60.9563 0.0000 27.9849 0.0000
# 3 30.8958 60.9563 114.4890 0.0000 42.6083 0.0000
# 4 0.0000 0.0000 0.0000 21.2132 0.0000 15.1213
# 5 31.3855 27.9849 42.6083 0.0000 31.9489 0.0000
# 6 0.0000 0.0000 0.0000 15.1213 0.0000 15.2046
#
#
#
# Elastic Compliance Matrix: (Units=1/GPa)
#
#
# Indices 1 2 3 4 5 6 
#
# 1 0.013818 0.000096 0.002587 0.000000 -0.017109 0.000000
# 2 0.000096 0.011850 -0.004838 0.000000 -0.004020 0.000000
# 3 0.002587 -0.004838 0.019816 0.000000 -0.024732 0.000000
# 4 0.000000 0.000000 0.000000 0.161951 0.000000 -0.161064
# 5 -0.017109 -0.004020 -0.024732 0.000000 0.084612 0.000000
# 6 0.000000 0.000000 0.000000 -0.161064 0.000000 0.225951
#
#
# Mechanical properties :
#
#
# Convention : Reuss Voigt Hill
#
# Bulk Modulus (GPa) = 24.28768 62.98982 43.63875
# Shear Modulus (GPa) = 9.32778 28.61374 18.97076
#
# Velocity S-wave (km/s) = 2.06479 3.61637 2.94461
# Velocity P-wave (km/s) = 4.09699 6.79908 5.61306
#
# Compressibility (1/GPa) = 0.04117314
#
# Stress axis : x y z
#
# Youngs Moduli (GPa) = 72.36877 84.39173 50.46310
#
# Poissons Ratio (x) = -0.00806 -0.13057
# Poissons Ratio (y) = -0.00691 0.24416
# Poissons Ratio (z) = -0.18725 0.40833
#
# Static dielectric constant tensor:
#      x y z
#    x 4.008030 0.000000 0.182330 
#    y 0.000000 4.166920 0.000000 
#    z 0.182330 0.000000 3.798560 
# 
# 
# High freq. dielectric constant tensor:
#      x y z
#    x 1.850960 0.000000 0.024120 
#    y 0.000000 1.869790 0.000000 
#    z 0.024120 0.000000 1.844260 
# 
# From -- ./inp_files/44046.got.cif
#   From: 2010.06.25/outbox.cif.g09.slc.cpg/sg13_23_cif.got.tgz:44046.got - 2010.06.28 04:50:58.
