data_PCOD8117751
_publ_section_title
;
Structure prediction by ZEFSAII (Michael W. Deem and Ramdas Pophale) SiO2 
 PCOD8117751
Probable space group: P 2/C
;
_chemical_formula_sum "Si O2"
_cell_formula_units_Z 28
_cell_length_a 9.088159
_cell_length_b 16.665803
_cell_length_c 12.692068
_cell_angle_alpha 90.000000
_cell_angle_beta 45.399609
_cell_angle_gamma 90.000000
_cell_volume 1368.760641
_symmetry_space_group_name_H-M "P 2/C"
_symmetry_group_IT_number 13
_symmetry_cell_setting 'monoclinic'
loop_
_space_group_symop_operation_xyz
x,y,z
-x,y,1/2-z
-x,-y,-z
x,-y,1/2+z
loop_
_atom_site_type_symbol
_atom_site_label
_atom_site_fract_x
_atom_site_fract_y
_atom_site_fract_z
Si Si1 0.494661 0.890187 0.506736
Si Si2 0.459441 0.275068 0.945952
Si Si3 0.844460 0.091712 0.659080
Si Si4 0.005328 0.425565 0.576849
Si Si5 0.654178 0.571945 0.425817
Si Si6 0.264057 0.995367 0.981813
Si Si7 0.170779 0.264473 0.904567
O O1 0.435492 0.797071 0.542096
O O2 0.695364 0.894995 0.331295
O O3 0.562306 0.925320 0.587089
O O4 0.302076 0.940568 0.557190
O O5 0.502594 0.352155 0.994840
O O6 0.249273 0.278486 0.984185
O O7 0.644804 0.265773 0.771205
O O8 0.925475 0.175295 0.564083
O O9 0.037518 0.041944 0.604558
O O10 0.711735 0.040343 0.641446
O O11 0.811556 0.435550 0.750665
O O12 0.990849 0.337039 0.531918
O O13 0.000000 0.500000 0.500000
O O14 0.223322 0.427034 0.526420
O O15 0.500000 0.500000 0.500000
#
# Coordination Sequence:
#
# PCOD8117751 Si02
#       7
#     4   4   4   4   4   4   4
#     4  10  19  33  51  76 107 137 177 227 267 312
#     4   9  17  31  53  79 105 136 176 224 274 318
#     4  10  19  33  51  76 107 137 177 227 267 312
#     4  10  21  36  58  88 115 144 182 226 274 330
#     4  10  21  36  58  88 115 144 182 226 274 330
#     4  10  20  30  50  78 100 138 176 214 274 320
#     4   9  17  31  53  79 105 136 176 224 274 318
#
# _framework density 20.456461999999998
#
# number of rings (size 3 to 8) (size 9 to 14) (size 15 to 20)
#    0.000    2.286    1.429    1.714    2.000    1.714 
#    0.000    0.000    0.000   10.286    0.000    0.000 
#    0.000    0.000    0.000    0.000    0.000    0.000 
#
# Total GULP energy -346992.884677 kJ/mol
# GULP energy per Si atom -12392.603024 kJ/mol
# Density = 2.040990 g / cm^3
# Si number density = 20.456462 Si / 1000 Ang^3
#
#
#
# Elastic Constant Matrix: (Units=GPa)
#
#
# Indices 1 2 3 4 5 6 
#
# 1 132.7035 79.0787 9.8409 0.0000 -3.8762 0.0000
# 2 79.0787 186.0436 17.4270 0.0000 -1.5420 0.0000
# 3 9.8409 17.4270 8.4954 0.0000 -2.9188 0.0000
# 4 0.0000 0.0000 0.0000 28.1387 0.0000 0.2332
# 5 -3.8762 -1.5420 -2.9188 0.0000 25.2476 0.0000
# 6 0.0000 0.0000 0.0000 0.2332 0.0000 37.0140
#
#
#
# Elastic Compliance Matrix: (Units=1/GPa)
#
#
# Indices 1 2 3 4 5 6 
#
# 1 0.010202 -0.004026 -0.003235 0.000000 0.000946 0.000000
# 2 -0.004026 0.008278 -0.012868 0.000000 -0.001600 0.000000
# 3 -0.003235 -0.012868 0.153512 0.000000 0.016464 0.000000
# 4 0.000000 0.000000 0.000000 0.035540 0.000000 -0.000224
# 5 0.000946 -0.001600 0.016464 0.000000 0.041559 0.000000
# 6 0.000000 0.000000 0.000000 -0.000224 0.000000 0.027018
#
#
# Mechanical properties :
#
#
# Convention : Reuss Voigt Hill
#
# Bulk Modulus (GPa) = 7.59101 59.99286 33.79193
# Shear Modulus (GPa) = 13.87817 32.80644 23.34231
#
# Velocity S-wave (km/s) = 2.60748 4.00899 3.38164
# Velocity P-wave (km/s) = 3.57550 7.12882 5.63934
#
# Compressibility (1/GPa) = 0.13173482
#
# Stress axis : x y z
#
# Youngs Moduli (GPa) = 98.02033 120.79803 6.51415
#
# Poissons Ratio (x) = 0.48628 0.02107
# Poissons Ratio (y) = 0.39458 0.08383
# Poissons Ratio (z) = 0.31708 1.55446
#
# Static dielectric constant tensor:
#      x y z
#    x 4.032230 0.000000 -0.082840 
#    y 0.000000 4.209290 0.000000 
#    z -0.082840 0.000000 3.040640 
# 
# 
# High freq. dielectric constant tensor:
#      x y z
#    x 1.818980 0.000000 -0.002590 
#    y 0.000000 1.816290 0.000000 
#    z -0.002590 0.000000 1.740130 
# 
# From -- ./inp_files/47615.got.cif
#   From: 2010.06.25/outbox.cif.g09.slc.cpg/sg13_24_cif.got.tgz:47615.got - 2010.06.28 04:50:58.
