data_PCOD8117909
_publ_section_title
;
Structure prediction by ZEFSAII (Michael W. Deem and Ramdas Pophale) SiO2 
 PCOD8117909
Probable space group: P 2/C
;
_chemical_formula_sum "Si O2"
_cell_formula_units_Z 18
_cell_length_a 9.297842
_cell_length_b 18.849110
_cell_length_c 8.948638
_cell_angle_alpha 90.000000
_cell_angle_beta 32.332498
_cell_angle_gamma 90.000000
_cell_volume 838.778106
_symmetry_space_group_name_H-M "P 2/C"
_symmetry_group_IT_number 13
_symmetry_cell_setting 'monoclinic'
loop_
_space_group_symop_operation_xyz
x,y,z
-x,y,1/2-z
-x,-y,-z
x,-y,1/2+z
loop_
_atom_site_type_symbol
_atom_site_label
_atom_site_fract_x
_atom_site_fract_y
_atom_site_fract_z
Si Si1 0.679874 0.402499 0.328369
Si Si2 0.070489 0.841432 0.360936
Si Si3 0.871014 0.681339 0.200033
Si Si4 0.438806 0.925675 0.629685
Si Si5 0.500000 0.489192 0.750000
O O1 0.436131 0.345723 0.523835
O O2 0.685242 0.439024 0.485209
O O3 0.678778 0.462156 0.200667
O O4 0.966215 0.365144 0.061482
O O5 0.092529 0.760675 0.396543
O O6 0.000000 0.841915 0.250000
O O7 0.857650 0.891875 0.635755
O O8 0.365431 0.871870 0.126152
O O9 0.000000 0.674420 0.250000
O O10 0.500000 0.933582 0.750000
O O11 0.500000 0.000000 0.500000
#
# Coordination Sequence:
#
# PCOD8117909 Si02
#       5
#     4   4   4   4   2
#     4  11  23  38  60  82 114 148 189 234 284 334
#     4   9  19  33  56  83 109 143 188 226 261 322
#     4  11  20  37  60  86 111 148 193 233 278 330
#     4  10  19  34  57  83 111 143 181 226 270 318
#     4  10  24  40  58  86 112 148 190 234 284 340
#
# _framework density 21.459789000000001
#
# number of rings (size 3 to 8) (size 9 to 14) (size 15 to 20)
#    0.000    1.778    2.222    2.000    0.000    9.778 
#    0.000    0.000   14.667    0.000    0.000    0.000 
#    0.000    0.000    0.000    0.000    0.000    0.000 
#
# Total GULP energy -223120.877364 kJ/mol
# GULP energy per Si atom -12395.604298 kJ/mol
# Density = 2.141095 g / cm^3
# Si number density = 21.459789 Si / 1000 Ang^3
#
#
#
# Elastic Constant Matrix: (Units=GPa)
#
#
# Indices 1 2 3 4 5 6 
#
# 1 35.9051 21.3051 22.1794 0.0000 13.9625 0.0000
# 2 21.3051 151.4620 59.9138 0.0000 21.5027 0.0000
# 3 22.1794 59.9138 132.3528 0.0000 3.6176 0.0000
# 4 0.0000 0.0000 0.0000 43.8465 0.0000 9.5388
# 5 13.9625 21.5027 3.6176 0.0000 26.1024 0.0000
# 6 0.0000 0.0000 0.0000 9.5388 0.0000 6.8070
#
#
#
# Elastic Compliance Matrix: (Units=1/GPa)
#
#
# Indices 1 2 3 4 5 6 
#
# 1 0.039498 -0.000384 -0.005899 0.000000 -0.019994 0.000000
# 2 -0.000384 0.009164 -0.003898 0.000000 -0.006804 0.000000
# 3 -0.005899 -0.003898 0.010173 0.000000 0.004957 0.000000
# 4 0.000000 0.000000 0.000000 0.032809 0.000000 -0.045975
# 5 -0.019994 -0.006804 0.004957 0.000000 0.053924 0.000000
# 6 0.000000 0.000000 0.000000 -0.045975 0.000000 0.211333
#
#
# Mechanical properties :
#
#
# Convention : Reuss Voigt Hill
#
# Bulk Modulus (GPa) = 25.99180 58.50182 42.24681
# Shear Modulus (GPa) = 12.81766 29.77261 21.29513
#
# Velocity S-wave (km/s) = 2.44660 3.72878 3.15354
# Velocity P-wave (km/s) = 4.48545 6.77191 5.74360
#
# Compressibility (1/GPa) = 0.03847367
#
# Stress axis : x y z
#
# Youngs Moduli (GPa) = 25.31777 109.11978 98.29754
#
# Poissons Ratio (x) = 0.04191 0.57982
# Poissons Ratio (y) = 0.00972 0.38318
# Poissons Ratio (z) = 0.14934 0.42537
#
# Static dielectric constant tensor:
#      x y z
#    x 3.615180 0.000000 -0.032360 
#    y 0.000000 4.205550 0.000000 
#    z -0.032360 0.000000 4.198270 
# 
# 
# High freq. dielectric constant tensor:
#      x y z
#    x 1.801000 0.000000 0.000000 
#    y 0.000000 1.859380 0.000000 
#    z 0.000000 0.000000 1.856250 
# 
# From -- ./inp_files/9191.got.cif
#   From: 2010.06.25/outbox.cif.g09.slc.cpg/sg13_5_cif.got.tgz:9191.got - 2010.06.28 04:50:58.
