data_PCOD8117170
_publ_section_title
;
Structure prediction by ZEFSAII (Michael W. Deem and Ramdas Pophale) SiO2 
 PCOD8117170
Probable space group: P 2/C
;
_chemical_formula_sum "Si O2"
_cell_formula_units_Z 28
_cell_length_a 24.245090
_cell_length_b 8.919517
_cell_length_c 19.392547
_cell_angle_alpha 90.000000
_cell_angle_beta 159.394388
_cell_angle_gamma 90.000000
_cell_volume 1475.911755
_symmetry_space_group_name_H-M "P 2/C"
_symmetry_group_IT_number 13
_symmetry_cell_setting 'monoclinic'
loop_
_space_group_symop_operation_xyz
x,y,z
-x,y,1/2-z
-x,-y,-z
x,-y,1/2+z
loop_
_atom_site_type_symbol
_atom_site_label
_atom_site_fract_x
_atom_site_fract_y
_atom_site_fract_z
Si Si1 0.044661 0.828575 0.550434
Si Si2 0.444512 0.330432 0.293355
Si Si3 0.500000 0.080146 0.250000
Si Si4 0.475528 0.151636 0.928250
Si Si5 0.655632 0.166862 0.005998
Si Si6 0.260497 0.665771 0.258784
Si Si7 0.748563 0.663567 0.805452
Si Si8 0.500000 0.424707 0.750000
O O1 0.110905 0.774651 0.553439
O O2 0.896157 0.726160 0.390229
O O3 0.178261 0.810830 0.764078
O O4 0.000000 0.000000 0.500000
O O5 0.445501 0.179861 0.250263
O O6 0.602731 0.341637 0.523867
O O7 0.285688 0.326129 0.153080
O O8 0.425432 0.474050 0.222381
O O9 0.352049 0.974810 0.054963
O O10 0.509197 0.129166 0.886791
O O11 0.305759 0.219796 0.749183
O O12 0.591560 0.284603 0.084498
O O13 0.500000 0.000000 0.000000
O O14 0.634032 0.320869 0.939434
O O15 0.217385 0.505074 0.177785
#
# Coordination Sequence:
#
# PCOD8117170 Si02
#       8
#     4   4   2   4   4   4   4   2
#     4  11  22  36  57  83 111 140 175 233 285 322
#     4  10  19  35  57  83 105 139 184 219 272 316
#     4  10  20  32  56  78 108 146 182 222 248 328
#     4  10  18  32  56  83 110 139 180 232 271 314
#     4  10  20  36  54  81 109 143 184 215 272 321
#     4  11  20  34  59  86 111 137 176 235 283 320
#     4  10  20  34  54  82 110 138 179 230 274 319
#     4  10  20  34  58  78 110 146 180 222 250 332
#
# _framework density 18.971323999999999
#
# number of rings (size 3 to 8) (size 9 to 14) (size 15 to 20)
#    0.000    1.714    0.000    9.000    0.000    0.000 
#    0.000    0.000    0.000   29.143    0.000    0.000 
#    0.000    0.000    0.000    0.000    0.000    0.000 
#
# Total GULP energy -347032.009540 kJ/mol
# GULP energy per Si atom -12394.000341 kJ/mol
# Density = 1.892814 g / cm^3
# Si number density = 18.971324 Si / 1000 Ang^3
#
#
#
# Elastic Constant Matrix: (Units=GPa)
#
#
# Indices 1 2 3 4 5 6 
#
# 1 124.0102 63.6647 54.4500 0.0000 18.3333 0.0000
# 2 63.6647 154.3472 35.8915 0.0000 12.4572 0.0000
# 3 54.4500 35.8915 74.5406 0.0000 17.1321 0.0000
# 4 0.0000 0.0000 0.0000 25.4306 0.0000 2.8817
# 5 18.3333 12.4572 17.1321 0.0000 30.8295 0.0000
# 6 0.0000 0.0000 0.0000 2.8817 0.0000 31.1264
#
#
#
# Elastic Compliance Matrix: (Units=1/GPa)
#
#
# Indices 1 2 3 4 5 6 
#
# 1 0.013663 -0.003660 -0.007670 0.000000 -0.002384 0.000000
# 2 -0.003660 0.008311 -0.001212 0.000000 -0.000509 0.000000
# 3 -0.007670 -0.001212 0.021141 0.000000 -0.006697 0.000000
# 4 0.000000 0.000000 0.000000 0.039740 0.000000 -0.003679
# 5 -0.002384 -0.000509 -0.006697 0.000000 0.037781 0.000000
# 6 0.000000 0.000000 0.000000 -0.003679 0.000000 0.032468
#
#
# Mechanical properties :
#
#
# Convention : Reuss Voigt Hill
#
# Bulk Modulus (GPa) = 55.45722 73.43449 64.44585
# Shear Modulus (GPa) = 27.14468 30.73677 28.94072
#
# Velocity S-wave (km/s) = 3.78673 4.02950 3.91000
# Velocity P-wave (km/s) = 6.95807 7.77440 7.37753
#
# Compressibility (1/GPa) = 0.01803192
#
# Stress axis : x y z
#
# Youngs Moduli (GPa) = 73.19056 120.31918 47.30075
#
# Poissons Ratio (x) = 0.44032 0.36282
# Poissons Ratio (y) = 0.26785 0.05731
# Poissons Ratio (z) = 0.56141 0.14579
#
# Static dielectric constant tensor:
#      x y z
#    x 4.030810 0.000000 0.121710 
#    y 0.000000 3.755860 0.000000 
#    z 0.121710 0.000000 3.042860 
# 
# 
# High freq. dielectric constant tensor:
#      x y z
#    x 1.745730 0.000000 0.008040 
#    y 0.000000 1.766780 0.000000 
#    z 0.008040 0.000000 1.695140 
# 
# From -- ./inp_files/82265.got.cif
#   From: 2010.06.25/outbox.cif.g09.slc.cpg/sg13_42_cif.got.tgz:82265.got - 2010.06.28 04:50:58.
