data_PCOD8117828
_publ_section_title
;
Structure prediction by ZEFSAII (Michael W. Deem and Ramdas Pophale) SiO2 
 PCOD8117828
Probable space group: P 2/C
;
_chemical_formula_sum "Si O2"
_cell_formula_units_Z 24
_cell_length_a 15.809269
_cell_length_b 9.386902
_cell_length_c 21.675299
_cell_angle_alpha 90.000000
_cell_angle_beta 23.523348
_cell_angle_gamma 90.000000
_cell_volume 1283.824441
_symmetry_space_group_name_H-M "P 2/C"
_symmetry_group_IT_number 13
_symmetry_cell_setting 'monoclinic'
loop_
_space_group_symop_operation_xyz
x,y,z
-x,y,1/2-z
-x,-y,-z
x,-y,1/2+z
loop_
_atom_site_type_symbol
_atom_site_label
_atom_site_fract_x
_atom_site_fract_y
_atom_site_fract_z
Si Si1 0.500000 0.667936 0.250000
Si Si2 0.179247 0.793893 0.369700
Si Si3 0.507068 0.333317 0.433768
Si Si4 0.262385 0.104729 0.293817
Si Si5 0.792893 0.592966 0.263247
Si Si6 0.738651 0.427259 0.019281
Si Si7 0.500000 0.195346 0.250000
O O1 0.361653 0.767213 0.297837
O O2 0.658640 0.572655 0.103514
O O3 0.171594 0.664351 0.326869
O O4 0.954389 0.805652 0.554922
O O5 0.220217 0.940640 0.304478
O O6 0.592566 0.179578 0.354969
O O7 0.706234 0.434234 0.312690
O O8 0.369341 0.311821 0.587746
O O9 0.362375 0.411592 0.480178
O O10 0.387193 0.097738 0.275007
O O11 0.009595 0.572933 0.155526
O O12 0.681252 0.293190 0.099784
#
# Coordination Sequence:
#
# PCOD8117828 Si02
#       7
#     2   4   4   4   4   4   2
#     4  11  21  34  58  88 112 140 184 236 282 320
#     4  11  22  36  58  84 113 148 184 231 276 331
#     4  10  22  37  57  83 113 149 183 230 273 330
#     4  10  21  37  56  84 114 147 186 226 277 331
#     4  11  21  37  58  84 112 146 190 225 279 327
#     4  10  19  33  58  85 109 139 183 232 274 324
#     4   9  17  32  56  82 108 138 180 226 272 324
#
# _framework density 18.694144999999999
#
# number of rings (size 3 to 8) (size 9 to 14) (size 15 to 20)
#    0.000    1.667    3.333    2.000    0.000    2.000 
#    0.000    0.000    0.000    0.000    4.333    0.000 
#    0.000    0.000    0.000    0.000    0.000    0.000 
#
# Total GULP energy -297657.519131 kJ/mol
# GULP energy per Si atom -12402.396630 kJ/mol
# Density = 1.865160 g / cm^3
# Si number density = 18.694145 Si / 1000 Ang^3
#
#
#
# Elastic Constant Matrix: (Units=GPa)
#
#
# Indices 1 2 3 4 5 6 
#
# 1 48.4992 0.3004 26.3636 0.0000 -6.9910 0.0000
# 2 0.3004 49.3364 29.5210 0.0000 0.3870 0.0000
# 3 26.3636 29.5210 79.2436 0.0000 -21.9480 0.0000
# 4 0.0000 0.0000 0.0000 18.5558 0.0000 21.0645
# 5 -6.9910 0.3870 -21.9480 0.0000 28.8990 0.0000
# 6 0.0000 0.0000 0.0000 21.0645 0.0000 -35.7481
#
#
#
# Elastic Compliance Matrix: (Units=1/GPa)
#
#
# Indices 1 2 3 4 5 6 
#
# 1 0.026969 0.007400 -0.012600 0.000000 -0.003144 0.000000
# 2 0.007400 0.030500 -0.017022 0.000000 -0.011546 0.000000
# 3 -0.012600 -0.017022 0.028331 0.000000 0.018696 0.000000
# 4 0.000000 0.000000 0.000000 0.032291 0.000000 0.019028
# 5 -0.003144 -0.011546 0.018696 0.000000 0.048197 0.000000
# 6 0.000000 0.000000 0.000000 0.019028 0.000000 -0.016762
#
#
# Mechanical properties :
#
#
# Convention : Reuss Voigt Hill
#
# Bulk Modulus (GPa) = 24.18066 32.16101 28.17084
# Shear Modulus (GPa) = 24.06679 10.40095 17.23387
#
# Velocity S-wave (km/s) = 3.59192 2.36132 3.03955
# Velocity P-wave (km/s) = 5.49231 4.96745 5.23646
#
# Compressibility (1/GPa) = 0.04135536
#
# Stress axis : x y z
#
# Youngs Moduli (GPa) = 37.07968 32.78715 35.29737
#
# Poissons Ratio (x) = -0.24262 0.44474
# Poissons Ratio (y) = -0.27438 0.60083
# Poissons Ratio (z) = 0.46720 0.55810
#
# Static dielectric constant tensor:
#      x y z
#    x 3.477020 0.000000 -0.100350 
#    y 0.000000 3.196090 0.000000 
#    z -0.100350 0.000000 3.433190 
# 
# 
# High freq. dielectric constant tensor:
#      x y z
#    x 1.727070 0.000000 -0.014020 
#    y 0.000000 1.714800 0.000000 
#    z -0.014020 0.000000 1.729950 
# 
# From -- ./inp_files/46076.got.cif
#   From: 2010.06.25/outbox.cif.g09.slc.cpg/sg13_24_cif.got.tgz:46076.got - 2010.06.28 04:50:58.
