data_PCOD8117362
_publ_section_title
;
Structure prediction by ZEFSAII (Michael W. Deem and Ramdas Pophale) SiO2 
 PCOD8117362
Probable space group: P 2/C
;
_chemical_formula_sum "Si O2"
_cell_formula_units_Z 22
_cell_length_a 14.961220
_cell_length_b 8.818905
_cell_length_c 16.807813
_cell_angle_alpha 90.000000
_cell_angle_beta 153.253312
_cell_angle_gamma 90.000000
_cell_volume 998.046049
_symmetry_space_group_name_H-M "P 2/C"
_symmetry_group_IT_number 13
_symmetry_cell_setting 'monoclinic'
loop_
_space_group_symop_operation_xyz
x,y,z
-x,y,1/2-z
-x,-y,-z
x,-y,1/2+z
loop_
_atom_site_type_symbol
_atom_site_label
_atom_site_fract_x
_atom_site_fract_y
_atom_site_fract_z
Si Si1 0.000000 0.483453 0.250000
Si Si2 0.500000 0.856092 0.750000
Si Si3 0.900313 0.263506 0.556236
Si Si4 0.685723 0.910976 0.279078
Si Si5 0.288591 0.762123 0.932258
Si Si6 0.000000 0.013162 0.750000
Si Si7 0.898803 0.826871 0.875168
O O1 0.000423 0.585038 0.170223
O O2 0.797538 0.383598 0.089537
O O3 0.321790 0.744873 0.583667
O O4 0.429958 0.961881 0.765319
O O5 0.898488 0.263280 0.458878
O O6 0.007279 0.113408 0.675622
O O7 0.870984 0.833802 0.473180
O O8 0.799939 0.004027 0.299890
O O9 0.528977 0.781192 0.126985
O O10 0.224238 0.737837 0.789336
O O11 0.196643 0.910710 0.900935
#
# Coordination Sequence:
#
# PCOD8117362 Si02
#       7
#     2   2   4   4   4   2   4
#     4  10  26  42  60  88 130 172 214 248 314 378
#     4  10  18  36  66  92 118 168 218 256 312 370
#     4  10  21  42  59  88 127 170 208 254 309 382
#     4  10  20  36  64 103 120 153 208 269 319 361
#     4  11  21  39  63  95 121 162 205 267 313 363
#     4  10  18  34  64  86 122 152 212 266 298 362
#     4  10  22  37  64  95 130 154 205 270 318 360
#
# _framework density 22.043071999999999
#
# number of rings (size 3 to 8) (size 9 to 14) (size 15 to 20)
#    0.000    1.818    1.818    3.818    2.545    0.727 
#    6.545    0.909    0.000    0.000    0.000    0.000 
#    0.000    0.000    0.000    0.000    0.000    0.000 
#
# Total GULP energy -272578.848838 kJ/mol
# GULP energy per Si atom -12389.947674 kJ/mol
# Density = 2.199290 g / cm^3
# Si number density = 22.043072 Si / 1000 Ang^3
#
#
#
# Elastic Constant Matrix: (Units=GPa)
#
#
# Indices 1 2 3 4 5 6 
#
# 1 86.4438 30.8700 30.4927 0.0000 -3.7627 0.0000
# 2 30.8700 103.2254 41.7539 0.0000 3.7185 0.0000
# 3 30.4927 41.7539 126.3642 0.0000 25.4107 0.0000
# 4 0.0000 0.0000 0.0000 18.0214 0.0000 2.7791
# 5 -3.7627 3.7185 25.4107 0.0000 42.0537 0.0000
# 6 0.0000 0.0000 0.0000 2.7791 0.0000 9.0718
#
#
#
# Elastic Compliance Matrix: (Units=1/GPa)
#
#
# Indices 1 2 3 4 5 6 
#
# 1 0.013862 -0.003049 -0.003006 0.000000 0.003327 0.000000
# 2 -0.003049 0.011927 -0.003345 0.000000 0.000694 0.000000
# 3 -0.003006 -0.003345 0.011086 0.000000 -0.006672 0.000000
# 4 0.000000 0.000000 0.000000 0.058241 0.000000 -0.017842
# 5 0.003327 0.000694 -0.006672 0.000000 0.028047 0.000000
# 6 0.000000 0.000000 0.000000 -0.017842 0.000000 0.115698
#
#
# Mechanical properties :
#
#
# Convention : Reuss Voigt Hill
#
# Bulk Modulus (GPa) = 55.32611 58.02963 56.67787
# Shear Modulus (GPa) = 18.96178 28.02382 23.49280
#
# Velocity S-wave (km/s) = 2.93612 3.56943 3.26815
# Velocity P-wave (km/s) = 6.05376 6.58563 6.32529
#
# Compressibility (1/GPa) = 0.01807465
#
# Stress axis : x y z
#
# Youngs Moduli (GPa) = 72.13710 83.84048 90.20412
#
# Poissons Ratio (x) = 0.25566 0.27120
# Poissons Ratio (y) = 0.21997 0.30171
# Poissons Ratio (z) = 0.21688 0.28043
#
# Static dielectric constant tensor:
#      x y z
#    x 4.157270 0.000000 0.508060 
#    y 0.000000 3.671590 0.000000 
#    z 0.508060 0.000000 4.627460 
# 
# 
# High freq. dielectric constant tensor:
#      x y z
#    x 1.865430 0.000000 0.005200 
#    y 0.000000 1.830860 0.000000 
#    z 0.005200 0.000000 1.872070 
# 
# From -- ./inp_files/68326.got.cif
#   From: 2010.06.25/outbox.cif.g09.slc.cpg/sg13_35_cif.got.tgz:68326.got - 2010.06.28 04:50:58.
