data_PCOD8117780
_publ_section_title
;
Structure prediction by ZEFSAII (Michael W. Deem and Ramdas Pophale) SiO2 
 PCOD8117780
Probable space group: P 2/C
;
_chemical_formula_sum "Si O2"
_cell_formula_units_Z 24
_cell_length_a 23.376537
_cell_length_b 4.924856
_cell_length_c 24.766453
_cell_angle_alpha 90.000000
_cell_angle_beta 155.062870
_cell_angle_gamma 90.000000
_cell_volume 1202.160241
_symmetry_space_group_name_H-M "P 2/C"
_symmetry_group_IT_number 13
_symmetry_cell_setting 'monoclinic'
loop_
_space_group_symop_operation_xyz
x,y,z
-x,y,1/2-z
-x,-y,-z
x,-y,1/2+z
loop_
_atom_site_type_symbol
_atom_site_label
_atom_site_fract_x
_atom_site_fract_y
_atom_site_fract_z
Si Si1 0.806793 0.605803 0.242110
Si Si2 0.426741 0.295648 0.241800
Si Si3 0.591071 0.857789 0.136736
Si Si4 0.973523 0.914308 0.915367
Si Si5 0.733114 0.817308 0.364700
Si Si6 0.570998 0.345802 0.472639
O O1 0.680934 0.724207 0.167807
O O2 0.855431 0.314396 0.307360
O O3 0.931493 0.811689 0.348838
O O4 0.734227 0.612269 0.121090
O O5 0.500000 0.387771 0.250000
O O6 0.318781 0.517214 0.168656
O O7 0.541271 0.246137 0.386037
O O8 0.338375 0.024249 0.154456
O O9 0.696078 0.932595 0.274070
O O10 0.483087 0.645940 0.066018
O O11 0.505657 0.135235 0.050685
O O12 0.103979 0.807656 0.994640
O O13 0.000000 0.000000 0.000000
#
# Coordination Sequence:
#
# PCOD8117780 Si02
#       6
#     4   4   4   4   4   4
#     4  12  22  34  55  79 120 156 185 222 277 336
#     4  10  21  39  64  83 105 141 188 250 292 321
#     4  10  19  33  54  79 114 147 185 230 276 335
#     4  12  24  36  55  81 121 160 188 214 267 349
#     4  10  21  36  57  84 112 142 192 230 274 337
#     4  10  21  35  54  84 111 144 190 237 285 329
#
# _framework density 19.964061000000001
#
# number of rings (size 3 to 8) (size 9 to 14) (size 15 to 20)
#    0.000    1.333    1.667    5.000    4.667    0.000 
#    0.000    0.000    0.000    6.000    0.000    0.000 
#    0.000    0.000    0.000    0.000    0.000    0.000 
#
# Total GULP energy -297438.892847 kJ/mol
# GULP energy per Si atom -12393.287202 kJ/mol
# Density = 1.991862 g / cm^3
# Si number density = 19.964061 Si / 1000 Ang^3
#
#
#
# Elastic Constant Matrix: (Units=GPa)
#
#
# Indices 1 2 3 4 5 6 
#
# 1 55.9811 9.4937 35.5013 0.0000 1.7944 0.0000
# 2 9.4937 95.6604 31.6718 0.0000 -9.4553 0.0000
# 3 35.5013 31.6718 117.4318 0.0000 -5.5874 0.0000
# 4 0.0000 0.0000 0.0000 41.0059 0.0000 3.8321
# 5 1.7944 -9.4553 -5.5874 0.0000 13.0857 0.0000
# 6 0.0000 0.0000 0.0000 3.8321 0.0000 21.4551
#
#
#
# Elastic Compliance Matrix: (Units=1/GPa)
#
#
# Indices 1 2 3 4 5 6 
#
# 1 0.022599 -0.000572 -0.006987 0.000000 -0.006495 0.000000
# 2 -0.000572 0.012181 -0.002746 0.000000 0.007708 0.000000
# 3 -0.006987 -0.002746 0.011554 0.000000 0.003908 0.000000
# 4 0.000000 0.000000 0.000000 0.024801 0.000000 -0.004430
# 5 -0.006495 0.007708 0.003908 0.000000 0.084548 0.000000
# 6 0.000000 0.000000 0.000000 -0.004430 0.000000 0.047400
#
#
# Mechanical properties :
#
#
# Convention : Reuss Voigt Hill
#
# Bulk Modulus (GPa) = 38.87092 46.93410 42.90251
# Shear Modulus (GPa) = 21.52693 27.93646 24.73169
#
# Velocity S-wave (km/s) = 3.28729 3.74483 3.52349
# Velocity P-wave (km/s) = 5.82418 6.50067 6.17170
#
# Compressibility (1/GPa) = 0.02572617
#
# Stress axis : x y z
#
# Youngs Moduli (GPa) = 44.24934 82.09283 86.54777
#
# Poissons Ratio (x) = 0.04692 0.60470
# Poissons Ratio (y) = 0.02529 0.23764
# Poissons Ratio (z) = 0.30917 0.22541
#
# Static dielectric constant tensor:
#      x y z
#    x 3.274480 0.000000 -0.255960 
#    y 0.000000 3.799940 0.000000 
#    z -0.255960 0.000000 3.958870 
# 
# 
# High freq. dielectric constant tensor:
#      x y z
#    x 1.723860 0.000000 -0.008360 
#    y 0.000000 1.800340 0.000000 
#    z -0.008360 0.000000 1.791070 
# 
# From -- ./inp_files/89432.got.cif
#   From: 2010.06.25/outbox.cif.g09.slc.cpg/sg13_45_cif.got.tgz:89432.got - 2010.06.28 04:50:58.
