data_PCOD8117400
_publ_section_title
;
Structure prediction by ZEFSAII (Michael W. Deem and Ramdas Pophale) SiO2 
 PCOD8117400
Probable space group: P 2/C
;
_chemical_formula_sum "Si O2"
_cell_formula_units_Z 24
_cell_length_a 16.856201
_cell_length_b 10.154108
_cell_length_c 14.754246
_cell_angle_alpha 90.000000
_cell_angle_beta 151.902962
_cell_angle_gamma 90.000000
_cell_volume 1189.346261
_symmetry_space_group_name_H-M "P 2/C"
_symmetry_group_IT_number 13
_symmetry_cell_setting 'monoclinic'
loop_
_space_group_symop_operation_xyz
x,y,z
-x,y,1/2-z
-x,-y,-z
x,-y,1/2+z
loop_
_atom_site_type_symbol
_atom_site_label
_atom_site_fract_x
_atom_site_fract_y
_atom_site_fract_z
Si Si1 0.328637 0.345663 0.160415
Si Si2 0.872719 0.766507 0.308295
Si Si3 0.206548 0.285885 0.236538
Si Si4 0.646079 0.009850 0.074137
Si Si5 0.000000 0.679254 0.250000
Si Si6 0.500000 0.890736 0.750000
Si Si7 0.619854 0.468917 0.537938
O O1 0.292723 0.318616 0.228546
O O2 0.352320 0.203276 0.138213
O O3 0.499114 0.436095 0.328888
O O4 0.166391 0.409113 0.943674
O O5 0.962333 0.768522 0.300144
O O6 0.724347 0.661384 0.164491
O O7 0.006059 0.729652 0.521330
O O8 0.795039 0.909135 0.250349
O O9 0.279716 0.155266 0.354517
O O10 0.252681 0.408285 0.350343
O O11 0.500000 0.000000 0.000000
O O12 0.573570 0.982583 0.901898
O O13 0.500000 0.500000 0.500000
#
# Coordination Sequence:
#
# PCOD8117400 Si02
#       7
#     4   4   4   4   2   2   4
#     4  10  18  35  59  88 121 165 209 257 303 378
#     4  11  21  37  64  92 127 168 214 261 309 386
#     4  10  22  36  58  94 128 158 207 263 326 367
#     4  12  22  39  62  93 128 172 218 261 317 382
#     4  10  20  34  60 100 118 158 218 268 298 364
#     4  12  20  38  62  88 124 166 222 256 296 384
#     4  10  19  37  61  89 121 162 212 259 315 377
#
# _framework density 20.179152999999999
#
# number of rings (size 3 to 8) (size 9 to 14) (size 15 to 20)
#    0.000    1.333    5.000    2.000    0.000    0.000 
#    0.000    2.500    0.000    1.000    0.000    0.000 
#    0.000    0.000    0.000    0.000    0.000    0.000 
#
# Total GULP energy -297445.234267 kJ/mol
# GULP energy per Si atom -12393.551428 kJ/mol
# Density = 2.013322 g / cm^3
# Si number density = 20.179153 Si / 1000 Ang^3
#
#
#
# Elastic Constant Matrix: (Units=GPa)
#
#
# Indices 1 2 3 4 5 6 
#
# 1 33.0286 0.6233 26.3881 0.0000 -2.7202 0.0000
# 2 0.6233 103.1108 68.2387 0.0000 -9.0900 0.0000
# 3 26.3881 68.2387 211.4813 0.0000 -1.3477 0.0000
# 4 0.0000 0.0000 0.0000 37.2355 0.0000 3.5187
# 5 -2.7202 -9.0900 -1.3477 0.0000 29.3773 0.0000
# 6 0.0000 0.0000 0.0000 3.5187 0.0000 19.5101
#
#
#
# Elastic Compliance Matrix: (Units=1/GPa)
#
#
# Indices 1 2 3 4 5 6 
#
# 1 0.035010 0.003853 -0.005585 0.000000 0.004178 0.000000
# 2 0.003853 0.013156 -0.004699 0.000000 0.004212 0.000000
# 3 -0.005585 -0.004699 0.006931 0.000000 -0.001653 0.000000
# 4 0.000000 0.000000 0.000000 0.027322 0.000000 -0.004928
# 5 0.004178 0.004212 -0.001653 0.000000 0.035654 0.000000
# 6 0.000000 0.000000 0.000000 -0.004928 0.000000 0.052144
#
#
# Mechanical properties :
#
#
# Convention : Reuss Voigt Hill
#
# Bulk Modulus (GPa) = 23.67691 59.79120 41.73406
# Shear Modulus (GPa) = 25.36030 34.04929 29.70479
#
# Velocity S-wave (km/s) = 3.54892 4.11219 3.84090
# Velocity P-wave (km/s) = 5.34340 7.22782 6.35584
#
# Compressibility (1/GPa) = 0.04223524
#
# Stress axis : x y z
#
# Youngs Moduli (GPa) = 28.56295 76.01019 144.27650
#
# Poissons Ratio (x) = -0.29286 0.80580
# Poissons Ratio (y) = -0.11005 0.67796
# Poissons Ratio (z) = 0.15953 0.35717
#
# Static dielectric constant tensor:
#      x y z
#    x 3.662750 0.000000 0.111470 
#    y 0.000000 3.764680 0.000000 
#    z 0.111470 0.000000 4.216780 
# 
# 
# High freq. dielectric constant tensor:
#      x y z
#    x 1.779070 0.000000 0.010420 
#    y 0.000000 1.761750 0.000000 
#    z 0.010420 0.000000 1.817770 
# 
# From -- ./inp_files/46164.got.cif
#   From: 2010.06.25/outbox.cif.g09.slc.cpg/sg13_24_cif.got.tgz:46164.got - 2010.06.28 04:50:58.
