data_PCOD8117633
_publ_section_title
;
Structure prediction by ZEFSAII (Michael W. Deem and Ramdas Pophale) SiO2 
 PCOD8117633
Probable space group: P 2/C
;
_chemical_formula_sum "Si O2"
_cell_formula_units_Z 22
_cell_length_a 9.979701
_cell_length_b 21.197133
_cell_length_c 5.284272
_cell_angle_alpha 90.000000
_cell_angle_beta 95.538292
_cell_angle_gamma 90.000000
_cell_volume 1112.622276
_symmetry_space_group_name_H-M "P 2/C"
_symmetry_group_IT_number 13
_symmetry_cell_setting 'monoclinic'
loop_
_space_group_symop_operation_xyz
x,y,z
-x,y,1/2-z
-x,-y,-z
x,-y,1/2+z
loop_
_atom_site_type_symbol
_atom_site_label
_atom_site_fract_x
_atom_site_fract_y
_atom_site_fract_z
Si Si1 0.843976 0.961030 0.222916
Si Si2 0.000000 0.764024 0.250000
Si Si3 0.132054 0.334399 0.121705
Si Si4 0.847993 0.526663 0.987774
Si Si5 0.651186 0.240305 0.243442
Si Si6 0.742023 0.173153 0.776482
O O1 0.744128 0.901962 0.242232
O O2 0.000000 0.939770 0.250000
O O3 0.811401 0.008577 0.445366
O O4 0.894873 0.806921 0.384619
O O5 0.095190 0.721384 0.432294
O O6 0.169870 0.398231 0.981408
O O7 0.257110 0.303163 0.297552
O O8 0.000000 0.354231 0.250000
O O9 0.774562 0.504783 0.715945
O O10 0.000000 0.500000 0.000000
O O11 0.500000 0.265272 0.250000
O O12 0.694335 0.203009 0.503352
O O13 0.651612 0.194190 0.998616
#
# Coordination Sequence:
#
# PCOD8117633 Si02
#       6
#     4   2   4   4   4   4
#     4  10  20  34  56  90 124 150 184 241 300 345
#     4  10  20  32  54  94 110 146 190 248 286 342
#     4  11  20  34  58  85 117 146 193 243 289 343
#     4  10  19  30  50  80 115 143 180 231 289 333
#     4  11  25  40  59  85 119 158 194 241 295 347
#     4  11  21  38  62  82 122 149 197 235 296 348
#
# _framework density 19.773108000000001
#
# number of rings (size 3 to 8) (size 9 to 14) (size 15 to 20)
#    0.000    1.455    4.545    2.727    0.000    0.000 
#    0.000    0.000    0.000   12.000    0.000    0.000 
#    0.000    0.000    0.000    0.000    0.000    0.000 
#
# Total GULP energy -272584.688799 kJ/mol
# GULP energy per Si atom -12390.213127 kJ/mol
# Density = 1.972810 g / cm^3
# Si number density = 19.773108 Si / 1000 Ang^3
#
#
#
# Elastic Constant Matrix: (Units=GPa)
#
#
# Indices 1 2 3 4 5 6 
#
# 1 67.0618 24.8817 12.8096 0.0000 -5.2361 0.0000
# 2 24.8817 93.8557 23.3167 0.0000 6.7825 0.0000
# 3 12.8096 23.3167 121.7243 0.0000 -16.9356 0.0000
# 4 0.0000 0.0000 0.0000 24.2857 0.0000 0.2329
# 5 -5.2361 6.7825 -16.9356 0.0000 18.2053 0.0000
# 6 0.0000 0.0000 0.0000 0.2329 0.0000 10.6605
#
#
#
# Elastic Compliance Matrix: (Units=1/GPa)
#
#
# Indices 1 2 3 4 5 6 
#
# 1 0.017341 -0.005140 0.000138 0.000000 0.007031 0.000000
# 2 -0.005140 0.013565 -0.003407 0.000000 -0.009701 0.000000
# 3 0.000138 -0.003407 0.010379 0.000000 0.010964 0.000000
# 4 0.000000 0.000000 0.000000 0.041185 0.000000 -0.000900
# 5 0.007031 -0.009701 0.010964 0.000000 0.070765 0.000000
# 6 0.000000 0.000000 0.000000 -0.000900 0.000000 0.093824
#
#
# Mechanical properties :
#
#
# Convention : Reuss Voigt Hill
#
# Bulk Modulus (GPa) = 40.87189 44.96196 42.91692
# Shear Modulus (GPa) = 18.38014 25.40587 21.89301
#
# Velocity S-wave (km/s) = 3.05216 3.58840 3.33109
# Velocity P-wave (km/s) = 5.75641 6.32116 6.04538
#
# Compressibility (1/GPa) = 0.02446670
#
# Stress axis : x y z
#
# Youngs Moduli (GPa) = 57.66635 73.72060 96.34915
#
# Poissons Ratio (x) = 0.37889 -0.01327
# Poissons Ratio (y) = 0.29638 0.32829
# Poissons Ratio (z) = -0.00794 0.25119
#
# Static dielectric constant tensor:
#      x y z
#    x 3.662790 0.000000 -0.475830 
#    y 0.000000 3.581720 0.000000 
#    z -0.475830 0.000000 5.071600 
# 
# 
# High freq. dielectric constant tensor:
#      x y z
#    x 1.725540 0.000000 -0.008710 
#    y 0.000000 1.776700 0.000000 
#    z -0.008710 0.000000 1.778770 
# 
# From -- ./inp_files/2136.got.cif
#   From: 2010.06.25/outbox.cif.g09.slc.cpg/sg13_2_cif.got.tgz:2136.got - 2010.06.28 04:50:58.
