data_PCOD8117530
_publ_section_title
;
Structure prediction by ZEFSAII (Michael W. Deem and Ramdas Pophale) SiO2 
 PCOD8117530
Probable space group: P 2/C
;
_chemical_formula_sum "Si O2"
_cell_formula_units_Z 28
_cell_length_a 26.748444
_cell_length_b 10.607874
_cell_length_c 32.872232
_cell_angle_alpha 90.000000
_cell_angle_beta 8.959629
_cell_angle_gamma 90.000000
_cell_volume 1452.620072
_symmetry_space_group_name_H-M "P 2/C"
_symmetry_group_IT_number 13
_symmetry_cell_setting 'monoclinic'
loop_
_space_group_symop_operation_xyz
x,y,z
-x,y,1/2-z
-x,-y,-z
x,-y,1/2+z
loop_
_atom_site_type_symbol
_atom_site_label
_atom_site_fract_x
_atom_site_fract_y
_atom_site_fract_z
Si Si1 0.140913 0.100587 0.282976
Si Si2 0.861624 0.632963 0.200251
Si Si3 0.083839 0.737657 0.943063
Si Si4 0.854832 0.152572 0.979346
Si Si5 0.357417 0.039070 0.683677
Si Si6 0.139155 0.355547 0.309447
Si Si7 0.739907 0.145971 0.923285
O O1 0.970205 0.238567 0.420799
O O2 0.244647 0.081657 0.247095
O O3 0.446510 0.120234 0.007532
O O4 0.926711 0.983605 0.441390
O O5 0.987109 0.489147 0.106153
O O6 0.521189 0.652868 0.495077
O O7 0.117304 0.734806 0.010958
O O8 0.864441 0.654656 0.149496
O O9 0.065204 0.660775 0.916384
O O10 0.452009 0.754966 0.663204
O O11 0.929891 0.879646 0.065534
O O12 0.080807 0.191842 0.760945
O O13 0.500000 0.140163 0.250000
O O14 0.584628 0.991271 0.537966
O O15 0.000000 0.134815 0.750000
#
# Coordination Sequence:
#
# PCOD8117530 Si02
#       7
#     4   4   4   4   4   4   4
#     4  10  18  38  60  88 115 156 203 247 297 353
#     4  11  22  39  57  88 121 158 195 249 294 360
#     4  12  20  36  60  90 118 161 198 252 292 363
#     4  11  22  40  63  85 120 162 200 251 306 361
#     4  10  19  34  61  84 124 156 196 253 298 348
#     4  11  22  36  60  89 121 151 200 247 301 349
#     4  11  23  34  54  94 124 153 201 250 306 363
#
# _framework density 19.275514999999999
#
# number of rings (size 3 to 8) (size 9 to 14) (size 15 to 20)
#    0.000    1.143    5.714    2.571    0.000    0.000 
#    0.000    0.714    0.000    0.000    0.000    1.000 
#    0.000    0.000    0.000    0.000    0.000    0.000 
#
# Total GULP energy -346946.271139 kJ/mol
# GULP energy per Si atom -12390.938255 kJ/mol
# Density = 1.923164 g / cm^3
# Si number density = 19.275515 Si / 1000 Ang^3
#
#
#
# Elastic Constant Matrix: (Units=GPa)
#
#
# Indices 1 2 3 4 5 6 
#
# 1 82.5694 32.8648 30.6769 0.0000 14.4710 -0.0001
# 2 32.8648 141.9948 24.2298 0.0000 0.1806 0.0000
# 3 30.6769 24.2298 80.6681 -0.0001 4.1711 -0.0001
# 4 0.0000 0.0000 -0.0001 -13.3961 0.0000 80.9029
# 5 14.4710 0.1806 4.1711 0.0000 34.3065 0.0001
# 6 -0.0001 0.0000 -0.0001 80.9029 0.0001 -243.8470
#
#
#
# Elastic Compliance Matrix: (Units=1/GPa)
#
#
# Indices 1 2 3 4 5 6 
#
# 1 0.016198 -0.002893 -0.004970 0.000000 -0.006213 0.000000
# 2 -0.002893 0.007942 -0.001355 0.000000 0.001343 0.000000
# 3 -0.004970 -0.001355 0.014677 0.000000 0.000319 0.000000
# 4 0.000000 0.000000 0.000000 0.074374 0.000000 0.024676
# 5 -0.006213 0.001343 0.000319 0.000000 0.031724 0.000000
# 6 0.000000 0.000000 0.000000 0.024676 0.000000 0.004086
#
#
# Mechanical properties :
#
#
# Convention : Reuss Voigt Hill
#
# Bulk Modulus (GPa) = 49.06397 53.41946 51.24172
# Shear Modulus (GPa) = 28.69806 -30.08993 -0.69594
#
# Velocity S-wave (km/s) = 3.86273 -3.95529 -0.60152
# Velocity P-wave (km/s) = 6.73821 2.62958 5.11460
#
# Compressibility (1/GPa) = 0.02038155
#
# Stress axis : x y z
#
# Youngs Moduli (GPa) = 61.73690 125.91979 68.13523
#
# Poissons Ratio (x) = 0.36430 0.33860
# Poissons Ratio (y) = 0.17861 0.09230
# Poissons Ratio (z) = 0.30680 0.17057
#
# Static dielectric constant tensor:
#      x y z
#    x 3.582520 0.000000 0.415880 
#    y 0.000000 3.670170 0.000000 
#    z 0.415880 0.000000 2.968210 
# 
# 
# High freq. dielectric constant tensor:
#      x y z
#    x 1.749710 0.000000 0.044320 
#    y 0.000000 1.749000 0.000000 
#    z 0.044320 0.000000 1.732690 
# 
# From -- ./inp_files/97700.got.cif
#   From: 2010.06.25/outbox.cif.g09.slc.cpg/sg13_49_cif.got.tgz:97700.got - 2010.06.28 04:50:58.
