data_PCOD8117291
_publ_section_title
;
Structure prediction by ZEFSAII (Michael W. Deem and Ramdas Pophale) SiO2 
 PCOD8117291
Probable space group: P 2/C
;
_chemical_formula_sum "Si O2"
_cell_formula_units_Z 30
_cell_length_a 18.989049
_cell_length_b 8.597513
_cell_length_c 21.523906
_cell_angle_alpha 90.000000
_cell_angle_beta 28.868894
_cell_angle_gamma 90.000000
_cell_volume 1696.565845
_symmetry_space_group_name_H-M "P 2/C"
_symmetry_group_IT_number 13
_symmetry_cell_setting 'monoclinic'
loop_
_space_group_symop_operation_xyz
x,y,z
-x,y,1/2-z
-x,-y,-z
x,-y,1/2+z
loop_
_atom_site_type_symbol
_atom_site_label
_atom_site_fract_x
_atom_site_fract_y
_atom_site_fract_z
Si Si1 0.107395 0.928845 0.365605
Si Si2 0.336401 0.212094 0.977426
Si Si3 0.661626 0.951315 0.620722
Si Si4 0.000000 0.096595 0.750000
Si Si5 0.129255 0.851439 0.741206
Si Si6 0.321663 0.211674 0.791962
Si Si7 0.852982 0.371456 0.475491
Si Si8 0.903625 0.270917 0.936881
O O1 0.247820 0.841305 0.284957
O O2 0.027247 0.800309 0.385619
O O3 0.168637 0.072591 0.277112
O O4 0.000000 0.000000 0.500000
O O5 0.508347 0.252212 0.849355
O O6 0.308817 0.039668 0.968284
O O7 0.268335 0.228345 0.099617
O O8 0.261092 0.342615 0.992293
O O9 0.500000 0.890327 0.750000
O O10 0.747691 0.798534 0.575645
O O11 0.700060 0.076886 0.642071
O O12 0.906514 0.212153 0.863971
O O13 0.906979 0.989640 0.777077
O O14 0.993331 0.737280 0.856313
O O15 0.228477 0.351441 0.895029
O O16 0.912850 0.545154 0.430518
#
# Coordination Sequence:
#
# PCOD8117291 Si02
#       8
#     4   4   4   2   4   4   4   4
#     4  11  20  38  58  80 110 151 198 232 261 333
#     4  10  19  35  58  83 110 146 187 233 284 332
#     4   9  17  33  56  80 107 142 187 235 274 322
#     4  10  18  34  54  84 104 136 186 246 270 312
#     4  11  19  35  61  80 107 149 190 236 279 331
#     4  10  20  37  57  80 112 151 189 224 277 335
#     4  11  21  34  57  86 112 146 182 228 294 335
#     4  11  22  32  57  88 112 140 186 237 280 325
#
# _framework density 17.682780000000001
#
# number of rings (size 3 to 8) (size 9 to 14) (size 15 to 20)
#    0.000    1.600    5.333    2.800    1.867    2.133 
#    0.000    0.000    0.000    0.800    0.000    0.000 
#    0.000    0.000    0.000    0.000    0.000    0.000 
#
# Total GULP energy -371686.567472 kJ/mol
# GULP energy per Si atom -12389.552249 kJ/mol
# Density = 1.764253 g / cm^3
# Si number density = 17.682780 Si / 1000 Ang^3
#
#
#
# Elastic Constant Matrix: (Units=GPa)
#
#
# Indices 1 2 3 4 5 6 
#
# 1 64.1181 27.0600 29.1766 0.0000 -5.3215 0.0000
# 2 27.0600 83.0047 36.7716 0.0000 -7.5218 0.0000
# 3 29.1766 36.7716 112.4330 0.0000 0.2258 0.0000
# 4 0.0000 0.0000 0.0000 18.5686 0.0000 -4.3558
# 5 -5.3215 -7.5218 0.2258 0.0000 28.9723 0.0000
# 6 0.0000 0.0000 0.0000 -4.3558 0.0000 15.6880
#
#
#
# Elastic Compliance Matrix: (Units=1/GPa)
#
#
# Indices 1 2 3 4 5 6 
#
# 1 0.019310 -0.004509 -0.003541 0.000000 0.002404 0.000000
# 2 -0.004509 0.015548 -0.003922 0.000000 0.003239 0.000000
# 3 -0.003541 -0.003922 0.011099 0.000000 -0.001755 0.000000
# 4 0.000000 0.000000 0.000000 0.057606 0.000000 0.015995
# 5 0.002404 0.003239 -0.001755 0.000000 0.035812 0.000000
# 6 0.000000 0.000000 0.000000 0.015995 0.000000 0.068184
#
#
# Mechanical properties :
#
#
# Convention : Reuss Voigt Hill
#
# Bulk Modulus (GPa) = 45.42455 49.50802 47.46629
# Shear Modulus (GPa) = 20.93448 23.74894 22.34171
#
# Velocity S-wave (km/s) = 3.44450 3.66875 3.55839
# Velocity P-wave (km/s) = 6.44700 6.78269 6.61698
#
# Compressibility (1/GPa) = 0.02201453
#
# Stress axis : x y z
#
# Youngs Moduli (GPa) = 51.78693 64.31640 90.09613
#
# Poissons Ratio (x) = 0.28997 0.31905
# Poissons Ratio (y) = 0.23348 0.35332
# Poissons Ratio (z) = 0.18339 0.25222
#
# Static dielectric constant tensor:
#      x y z
#    x 3.444700 0.000000 0.350260 
#    y 0.000000 3.116720 0.000000 
#    z 0.350260 0.000000 3.741210 
# 
# 
# High freq. dielectric constant tensor:
#      x y z
#    x 1.674660 0.000000 0.006010 
#    y 0.000000 1.659860 0.000000 
#    z 0.006010 0.000000 1.693260 
# 
# From -- ./inp_files/80850.got.cif
#   From: 2010.06.25/outbox.cif.g09.slc.cpg/sg13_41_cif.got.tgz:80850.got - 2010.06.28 04:50:58.
