data_PCOD8117206
_publ_section_title
;
Structure prediction by ZEFSAII (Michael W. Deem and Ramdas Pophale) SiO2 
 PCOD8117206
Probable space group: P 2/C
;
_chemical_formula_sum "Si O2"
_cell_formula_units_Z 26
_cell_length_a 21.276297
_cell_length_b 14.634261
_cell_length_c 8.933634
_cell_angle_alpha 90.000000
_cell_angle_beta 150.635618
_cell_angle_gamma 90.000000
_cell_volume 1363.992128
_symmetry_space_group_name_H-M "P 2/C"
_symmetry_group_IT_number 13
_symmetry_cell_setting 'monoclinic'
loop_
_space_group_symop_operation_xyz
x,y,z
-x,y,1/2-z
-x,-y,-z
x,-y,1/2+z
loop_
_atom_site_type_symbol
_atom_site_label
_atom_site_fract_x
_atom_site_fract_y
_atom_site_fract_z
Si Si1 0.000000 0.242148 0.750000
Si Si2 0.532837 0.407281 0.987391
Si Si3 0.601782 0.228812 0.775512
Si Si4 0.743072 0.716903 0.856512
Si Si5 0.645630 0.881924 0.795427
Si Si6 0.754686 0.014485 0.785962
Si Si7 0.153949 0.124466 0.270934
O O1 0.877201 0.302607 0.548210
O O2 0.969178 0.182340 0.537530
O O3 0.684224 0.375824 0.307748
O O4 0.500000 0.427000 0.750000
O O5 0.500000 0.500000 0.000000
O O6 0.447376 0.327140 0.886547
O O7 0.499408 0.150435 0.528132
O O8 0.632262 0.242510 0.015450
O O9 0.730501 0.195970 0.961181
O O10 0.750247 0.799660 0.990512
O O11 0.664899 0.964508 0.719522
O O12 0.667008 0.916696 0.008613
O O13 0.822421 0.941992 0.820340
O O14 0.863856 0.069185 0.110576
#
# Coordination Sequence:
#
# PCOD8117206 Si02
#       7
#     2   4   4   4   4   4   4
#     4  10  18  36  58  70 102 152 188 216 256 316
#     4   9  18  35  59  85 106 132 165 217 274 344
#     4   9  18  33  54  71 109 134 174 213 281 333
#     4   9  18  35  55  76 104 145 182 211 269 323
#     4  10  18  33  46  73 103 140 174 230 270 318
#     4  10  21  31  47  75 104 141 191 226 269 303
#     4  10  21  34  47  75 101 146 188 227 261 304
#
# _framework density 19.061695
#
# number of rings (size 3 to 8) (size 9 to 14) (size 15 to 20)
#    0.000    2.462    3.077    1.385    0.000    4.923 
#    5.538    0.000    0.000    8.308    0.000    0.000 
#    0.000    0.000    0.000    0.000    0.000    0.000 
#
# Total GULP energy -322099.278794 kJ/mol
# GULP energy per Si atom -12388.433800 kJ/mol
# Density = 1.901831 g / cm^3
# Si number density = 19.061695 Si / 1000 Ang^3
#
#
#
# Elastic Constant Matrix: (Units=GPa)
#
#
# Indices 1 2 3 4 5 6 
#
# 1 67.9803 49.3633 42.9114 0.0000 -4.0831 0.0000
# 2 49.3633 108.1875 36.1515 0.0000 2.9966 0.0000
# 3 42.9114 36.1515 81.2924 0.0000 8.3602 0.0000
# 4 0.0000 0.0000 0.0000 15.6146 0.0000 -1.7141
# 5 -4.0831 2.9966 8.3602 0.0000 30.5258 0.0000
# 6 0.0000 0.0000 0.0000 -1.7141 0.0000 25.7538
#
#
#
# Elastic Compliance Matrix: (Units=1/GPa)
#
#
# Indices 1 2 3 4 5 6 
#
# 1 0.030235 -0.009873 -0.012435 0.000000 0.008419 0.000000
# 2 -0.009873 0.014083 -0.000795 0.000000 -0.002485 0.000000
# 3 -0.012435 -0.000795 0.019944 0.000000 -0.007047 0.000000
# 4 0.000000 0.000000 0.000000 0.064514 0.000000 0.004294
# 5 0.008419 -0.002485 -0.007047 0.000000 0.036059 0.000000
# 6 0.000000 0.000000 0.000000 0.004294 0.000000 0.039115
#
#
# Mechanical properties :
#
#
# Convention : Reuss Voigt Hill
#
# Bulk Modulus (GPa) = 55.38958 57.14585 56.26771
# Shear Modulus (GPa) = 19.51797 22.98110 21.24954
#
# Velocity S-wave (km/s) = 3.20337 3.47597 3.34245
# Velocity P-wave (km/s) = 6.54242 6.79369 6.66924
#
# Compressibility (1/GPa) = 0.01805394
#
# Stress axis : x y z
#
# Youngs Moduli (GPa) = 33.07479 71.00873 50.14129
#
# Poissons Ratio (x) = 0.70109 0.62350
# Poissons Ratio (y) = 0.32656 0.03988
# Poissons Ratio (z) = 0.41128 0.05648
#
# Static dielectric constant tensor:
#      x y z
#    x 3.356240 0.000000 -0.136160 
#    y 0.000000 3.483910 0.000000 
#    z -0.136160 0.000000 3.505160 
# 
# 
# High freq. dielectric constant tensor:
#      x y z
#    x 1.720770 0.000000 -0.001500 
#    y 0.000000 1.718540 0.000000 
#    z -0.001500 0.000000 1.732780 
# 
# From -- ./inp_files/19930.got.cif
#   From: 2010.06.25/outbox.cif.g09.slc.cpg/sg13_10_cif.got.tgz:19930.got - 2010.06.28 04:50:58.
