data_PCOD8117497
_publ_section_title
;
Structure prediction by ZEFSAII (Michael W. Deem and Ramdas Pophale) SiO2 
 PCOD8117497
Probable space group: P 2/C
;
_chemical_formula_sum "Si O2"
_cell_formula_units_Z 30
_cell_length_a 14.248966
_cell_length_b 10.906785
_cell_length_c 18.651012
_cell_angle_alpha 90.000000
_cell_angle_beta 32.504417
_cell_angle_gamma 90.000000
_cell_volume 1557.584357
_symmetry_space_group_name_H-M "P 2/C"
_symmetry_group_IT_number 13
_symmetry_cell_setting 'monoclinic'
loop_
_space_group_symop_operation_xyz
x,y,z
-x,y,1/2-z
-x,-y,-z
x,-y,1/2+z
loop_
_atom_site_type_symbol
_atom_site_label
_atom_site_fract_x
_atom_site_fract_y
_atom_site_fract_z
Si Si1 0.624181 0.244703 0.517314
Si Si2 0.649573 0.652403 0.710507
Si Si3 0.183936 0.961243 0.658494
Si Si4 0.039372 0.636783 0.089980
Si Si5 0.893797 0.361042 0.445145
Si Si6 0.000000 0.194796 0.750000
Si Si7 0.263503 0.762735 0.705598
Si Si8 0.706034 0.624036 0.212193
O O1 0.660511 0.095783 0.492207
O O2 0.794032 0.302341 0.443778
O O3 0.625173 0.291026 0.433643
O O4 0.448724 0.281091 0.670699
O O5 0.500000 0.680740 0.750000
O O6 0.836703 0.681414 0.554392
O O7 0.626081 0.745908 0.792587
O O8 0.632774 0.513363 0.750411
O O9 0.217043 0.906640 0.718021
O O10 0.000000 0.904467 0.750000
O O11 0.167456 0.109257 0.665593
O O12 0.057887 0.725749 0.145551
O O13 0.841701 0.629648 0.189937
O O14 0.106727 0.505048 0.070848
O O15 0.792564 0.329929 0.583579
O O16 0.089250 0.315583 0.327682
#
# Coordination Sequence:
#
# PCOD8117497 Si02
#       8
#     4   4   4   4   4   2   4   4
#     4  10  20  33  65  90 114 164 201 250 315 363
#     4  11  22  39  57  88 130 166 194 248 317 379
#     4   8  18  39  61  84 114 157 208 269 294 341
#     4  11  23  35  59  86 126 166 197 253 316 374
#     4  11  17  36  57  91 127 154 192 250 306 385
#     4  10  22  40  64  84 122 166 224 258 304 358
#     4  10  18  36  65  82 122 156 204 251 305 367
#     4  11  21  35  54  93 133 154 192 248 320 377
#
# _framework density 19.260594000000001
#
# number of rings (size 3 to 8) (size 9 to 14) (size 15 to 20)
#    1.200    0.533    4.000    3.200    1.867    1.600 
#    0.000    1.333    0.000    0.000    0.000    0.000 
#    0.000    0.000    0.000    0.000    0.000    0.000 
#
# Total GULP energy -371650.766842 kJ/mol
# GULP energy per Si atom -12388.358895 kJ/mol
# Density = 1.921676 g / cm^3
# Si number density = 19.260594 Si / 1000 Ang^3
#
#
#
# Elastic Constant Matrix: (Units=GPa)
#
#
# Indices 1 2 3 4 5 6 
#
# 1 111.3751 36.2652 19.4136 0.0000 7.8375 0.0000
# 2 36.2652 79.9483 45.5780 0.0000 19.0672 0.0000
# 3 19.4136 45.5780 94.2679 0.0000 8.0380 0.0000
# 4 0.0000 0.0000 0.0000 11.4829 0.0000 -5.8300
# 5 7.8375 19.0672 8.0380 0.0000 31.3680 0.0000
# 6 0.0000 0.0000 0.0000 -5.8300 0.0000 14.7609
#
#
#
# Elastic Compliance Matrix: (Units=1/GPa)
#
#
# Indices 1 2 3 4 5 6 
#
# 1 0.010540 -0.004982 0.000209 0.000000 0.000341 0.000000
# 2 -0.004982 0.022195 -0.008855 0.000000 -0.009978 0.000000
# 3 0.000209 -0.008855 0.014713 0.000000 0.001560 0.000000
# 4 0.000000 0.000000 0.000000 0.108929 0.000000 0.043023
# 5 0.000341 -0.009978 0.001560 0.000000 0.037460 0.000000
# 6 0.000000 0.000000 0.000000 0.043023 0.000000 0.084739
#
#
# Mechanical properties :
#
#
# Convention : Reuss Voigt Hill
#
# Bulk Modulus (GPa) = 49.51924 54.23386 51.87655
# Shear Modulus (GPa) = 15.99680 23.81132 19.90406
#
# Velocity S-wave (km/s) = 2.88505 3.51988 3.21815
# Velocity P-wave (km/s) = 6.07157 6.68868 6.38758
#
# Compressibility (1/GPa) = 0.02019417
#
# Stress axis : x y z
#
# Youngs Moduli (GPa) = 94.87373 45.05442 67.96600
#
# Poissons Ratio (x) = 0.22444 -0.01419
# Poissons Ratio (y) = 0.47262 0.60182
# Poissons Ratio (z) = -0.01981 0.39894
#
# Static dielectric constant tensor:
#      x y z
#    x 3.578780 0.000000 0.021630 
#    y 0.000000 3.253330 0.000000 
#    z 0.021630 0.000000 3.421890 
# 
# 
# High freq. dielectric constant tensor:
#      x y z
#    x 1.754650 0.000000 0.000130 
#    y 0.000000 1.721340 0.000000 
#    z 0.000130 0.000000 1.743000 
# 
# From -- ./inp_files/80101.got.cif
#   From: 2010.06.25/outbox.cif.g09.slc.cpg/sg13_41_cif.got.tgz:80101.got - 2010.06.28 04:50:58.
