data_PCOD8117137
_publ_section_title
;
Structure prediction by ZEFSAII (Michael W. Deem and Ramdas Pophale) SiO2 
 PCOD8117137
Probable space group: P 2/C
;
_chemical_formula_sum "Si O2"
_cell_formula_units_Z 28
_cell_length_a 35.733429
_cell_length_b 7.737018
_cell_length_c 5.269421
_cell_angle_alpha 90.000000
_cell_angle_beta 111.362549
_cell_angle_gamma 90.000000
_cell_volume 1356.744462
_symmetry_space_group_name_H-M "P 2/C"
_symmetry_group_IT_number 13
_symmetry_cell_setting 'monoclinic'
loop_
_space_group_symop_operation_xyz
x,y,z
-x,y,1/2-z
-x,-y,-z
x,-y,1/2+z
loop_
_atom_site_type_symbol
_atom_site_label
_atom_site_fract_x
_atom_site_fract_y
_atom_site_fract_z
Si Si1 0.340275 0.388483 0.343455
Si Si2 0.094804 0.887261 0.250852
Si Si3 0.453095 0.181949 0.141667
Si Si4 0.419057 0.801211 0.057573
Si Si5 0.749901 0.393077 0.398811
Si Si6 0.814937 0.106163 0.561798
Si Si7 0.017149 0.304394 0.542481
O O1 0.348028 0.509397 0.603579
O O2 0.371241 0.229108 0.431733
O O3 0.294947 0.313803 0.238007
O O4 0.140256 0.815080 0.354807
O O5 0.065497 0.719237 0.162924
O O6 0.086830 0.986311 0.494486
O O7 0.500000 0.139505 0.250000
O O8 0.440846 0.285425 0.366059
O O9 0.427967 0.004375 0.088090
O O10 0.438882 0.286908 0.857341
O O11 0.756126 0.462315 0.698769
O O12 0.782416 0.249407 0.421769
O O13 0.808738 0.039799 0.832744
O O14 0.000000 0.209455 0.750000
O O15 0.000000 0.500000 0.500000
O O16 0.000000 0.209674 0.250000
#
# Coordination Sequence:
#
# PCOD8117137 Si02
#       7
#     4   4   4   4   4   4   4
#     4  10  21  37  56  76 112 148 179 225 272 328
#     4  10  21  37  59  83 115 155 191 231 297 351
#     4  10  19  33  55  76 106 137 174 234 277 319
#     4  10  18  32  52  78 100 136 182 210 276 327
#     4  10  21  40  61  88 117 160 200 232 293 364
#     4  10  21  40  61  91 123 153 194 251 299 347
#     4  10  21  37  53  80 117 145 192 243 287 326
#
# _framework density 20.637637999999999
#
# number of rings (size 3 to 8) (size 9 to 14) (size 15 to 20)
#    0.000    2.000    0.000    4.714    0.000    1.714 
#   10.286    0.000    0.000   14.571    0.000    0.000 
#    0.000    0.000    0.000    0.000    0.000    0.000 
#
# Total GULP energy -346976.522683 kJ/mol
# GULP energy per Si atom -12392.018667 kJ/mol
# Density = 2.059067 g / cm^3
# Si number density = 20.637638 Si / 1000 Ang^3
#
#
#
# Elastic Constant Matrix: (Units=GPa)
#
#
# Indices 1 2 3 4 5 6 
#
# 1 165.3051 53.8472 78.1077 0.0000 18.8974 0.0000
# 2 53.8472 44.1006 25.5759 0.0000 26.8585 0.0000
# 3 78.1077 25.5759 161.2650 0.0000 -15.4369 0.0000
# 4 0.0000 0.0000 0.0000 9.9936 0.0000 4.4562
# 5 18.8974 26.8585 -15.4369 0.0000 63.1217 0.0000
# 6 0.0000 0.0000 0.0000 4.4562 0.0000 15.9077
#
#
#
# Elastic Compliance Matrix: (Units=1/GPa)
#
#
# Indices 1 2 3 4 5 6 
#
# 1 0.011883 -0.013161 -0.003556 0.000000 0.001173 0.000000
# 2 -0.013161 0.052874 -0.003878 0.000000 -0.019507 0.000000
# 3 -0.003556 -0.003878 0.009009 0.000000 0.004918 0.000000
# 4 0.000000 0.000000 0.000000 0.114347 0.000000 -0.032032
# 5 0.001173 -0.019507 0.004918 0.000000 0.024994 0.000000
# 6 0.000000 0.000000 0.000000 -0.032032 0.000000 0.071836
#
#
# Mechanical properties :
#
#
# Convention : Reuss Voigt Hill
#
# Bulk Modulus (GPa) = 30.69767 76.19250 53.44508
# Shear Modulus (GPa) = 14.83714 32.01391 23.42553
#
# Velocity S-wave (km/s) = 2.68421 3.94285 3.37276
# Velocity P-wave (km/s) = 4.95111 7.59786 6.41252
#
# Compressibility (1/GPa) = 0.03257576
#
# Stress axis : x y z
#
# Youngs Moduli (GPa) = 84.15734 18.91272 110.99998
#
# Poissons Ratio (x) = 0.24891 0.39468
# Poissons Ratio (y) = 1.10760 0.43051
# Poissons Ratio (z) = 0.29923 0.07335
#
# Static dielectric constant tensor:
#      x y z
#    x 4.499170 0.000000 -1.022540 
#    y 0.000000 3.043690 0.000000 
#    z -1.022540 0.000000 5.784840 
# 
# 
# High freq. dielectric constant tensor:
#      x y z
#    x 1.826070 0.000000 -0.014260 
#    y 0.000000 1.748850 0.000000 
#    z -0.014260 0.000000 1.844900 
# 
# From -- ./inp_files/8112.got.cif
#   From: 2010.06.25/outbox.cif.g09.slc.cpg/sg13_5_cif.got.tgz:8112.got - 2010.06.28 04:50:58.
