data_PCOD8117499
_publ_section_title
;
Structure prediction by ZEFSAII (Michael W. Deem and Ramdas Pophale) SiO2 
 PCOD8117499
Probable space group: P 2/C
;
_chemical_formula_sum "Si O2"
_cell_formula_units_Z 30
_cell_length_a 8.154935
_cell_length_b 17.287782
_cell_length_c 18.496452
_cell_angle_alpha 90.000000
_cell_angle_beta 33.412899
_cell_angle_gamma 90.000000
_cell_volume 1435.947572
_symmetry_space_group_name_H-M "P 2/C"
_symmetry_group_IT_number 13
_symmetry_cell_setting 'monoclinic'
loop_
_space_group_symop_operation_xyz
x,y,z
-x,y,1/2-z
-x,-y,-z
x,-y,1/2+z
loop_
_atom_site_type_symbol
_atom_site_label
_atom_site_fract_x
_atom_site_fract_y
_atom_site_fract_z
Si Si1 0.651741 0.997121 0.120118
Si Si2 0.000000 0.827809 0.250000
Si Si3 0.352269 0.283073 0.122637
Si Si4 0.341832 0.424448 0.883164
Si Si5 0.732438 0.172212 0.608146
Si Si6 0.667646 0.596643 0.612712
Si Si7 0.295737 0.867899 0.995888
Si Si8 0.499729 0.283437 0.593424
O O1 0.500000 0.027773 0.250000
O O2 0.571669 0.906751 0.136745
O O3 0.561892 0.050660 0.084312
O O4 0.000000 0.000000 0.000000
O O5 0.831631 0.877500 0.374910
O O6 0.781161 0.771288 0.286715
O O7 0.510313 0.342746 0.117982
O O8 0.000000 0.293029 0.250000
O O9 0.442712 0.195005 0.106824
O O10 0.469918 0.302463 0.000794
O O11 0.500000 0.434908 0.750000
O O12 0.339329 0.510104 0.919586
O O13 0.544605 0.367135 0.855144
O O14 0.015990 0.385255 0.996654
O O15 0.500000 0.210639 0.750000
O O16 0.775265 0.234029 0.527081
O O17 0.045615 0.156051 0.530182
O O18 0.500000 0.601742 0.750000
#
# Coordination Sequence:
#
# PCOD8117499 Si02
#       8
#     4   2   4   4   4   4   4   4
#     4   9  20  36  63  94 119 157 215 263 309 368
#     4  10  22  36  54  92 126 160 196 260 328 366
#     4  11  25  40  57  87 128 168 204 247 319 380
#     4  10  22  38  66  95 117 156 219 258 297 372
#     4  10  18  36  65  89 118 157 204 260 309 360
#     4  10  22  43  62  88 125 166 205 256 312 367
#     4  10  21  39  63  89 124 164 213 262 306 382
#     4  11  22  36  60  89 123 155 202 250 311 369
#
# _framework density 20.892129000000001
#
# number of rings (size 3 to 8) (size 9 to 14) (size 15 to 20)
#    0.000    1.867    1.333    2.000    3.733    3.200 
#    1.200    2.667    2.933    0.000    0.000    0.000 
#    0.000    0.000    0.000    0.000    0.000    0.000 
#
# Total GULP energy -371791.007390 kJ/mol
# GULP energy per Si atom -12393.033580 kJ/mol
# Density = 2.084458 g / cm^3
# Si number density = 20.892129 Si / 1000 Ang^3
#
#
#
# Elastic Constant Matrix: (Units=GPa)
#
#
# Indices 1 2 3 4 5 6 
#
# 1 82.2020 51.8196 20.6856 0.0000 18.0839 0.0000
# 2 51.8196 116.5518 25.0765 0.0000 21.7333 0.0000
# 3 20.6856 25.0765 97.6505 0.0000 5.0580 0.0000
# 4 0.0000 0.0000 0.0000 40.2535 0.0000 18.1932
# 5 18.0839 21.7333 5.0580 0.0000 28.7668 0.0000
# 6 0.0000 0.0000 0.0000 18.1932 0.0000 41.9944
#
#
#
# Elastic Compliance Matrix: (Units=1/GPa)
#
#
# Indices 1 2 3 4 5 6 
#
# 1 0.018072 -0.006496 -0.001843 0.000000 -0.006129 0.000000
# 2 -0.006496 0.012810 -0.001639 0.000000 -0.005306 0.000000
# 3 -0.001843 -0.001639 0.011028 0.000000 0.000457 0.000000
# 4 0.000000 0.000000 0.000000 0.030891 0.000000 -0.013383
# 5 -0.006129 -0.005306 0.000457 0.000000 0.042544 0.000000
# 6 0.000000 0.000000 0.000000 -0.013383 0.000000 0.029611
#
#
# Mechanical properties :
#
#
# Convention : Reuss Voigt Hill
#
# Bulk Modulus (GPa) = 45.54558 54.61864 50.08211
# Shear Modulus (GPa) = 29.03120 35.45778 32.24449
#
# Velocity S-wave (km/s) = 3.73175 4.12416 3.93285
# Velocity P-wave (km/s) = 6.35733 6.99129 6.68183
#
# Compressibility (1/GPa) = 0.02195603
#
# Stress axis : x y z
#
# Youngs Moduli (GPa) = 55.33419 78.06472 90.67758
#
# Poissons Ratio (x) = 0.50707 0.16709
# Poissons Ratio (y) = 0.35942 0.14860
# Poissons Ratio (z) = 0.10197 0.12793
#
# Static dielectric constant tensor:
#      x y z
#    x 3.642090 0.000000 0.381840 
#    y 0.000000 4.501120 0.000000 
#    z 0.381840 0.000000 2.833360 
# 
# 
# High freq. dielectric constant tensor:
#      x y z
#    x 1.809200 0.000000 0.003120 
#    y 0.000000 1.825920 0.000000 
#    z 0.003120 0.000000 1.814580 
# 
# From -- ./inp_files/76814.got.cif
#   From: 2010.06.25/outbox.cif.g09.slc.cpg/sg13_39_cif.got.tgz:76814.got - 2010.06.28 04:50:58.
