data_PCOD8117819
_publ_section_title
;
Structure prediction by ZEFSAII (Michael W. Deem and Ramdas Pophale) SiO2 
 PCOD8117819
Probable space group: P 2/C
;
_chemical_formula_sum "Si O2"
_cell_formula_units_Z 22
_cell_length_a 12.207233
_cell_length_b 12.964629
_cell_length_c 15.878560
_cell_angle_alpha 90.000000
_cell_angle_beta 155.194228
_cell_angle_gamma 90.000000
_cell_volume 1054.303067
_symmetry_space_group_name_H-M "P 2/C"
_symmetry_group_IT_number 13
_symmetry_cell_setting 'monoclinic'
loop_
_space_group_symop_operation_xyz
x,y,z
-x,y,1/2-z
-x,-y,-z
x,-y,1/2+z
loop_
_atom_site_type_symbol
_atom_site_label
_atom_site_fract_x
_atom_site_fract_y
_atom_site_fract_z
Si Si1 0.348785 0.933498 0.463180
Si Si2 0.354935 0.874283 0.062751
Si Si3 0.000000 0.285807 0.250000
Si Si4 0.647556 0.244493 0.265915
Si Si5 0.452198 0.619867 0.958757
Si Si6 0.186461 0.784541 0.226406
O O1 0.550287 0.857461 0.651006
O O2 0.123411 0.862614 0.261089
O O3 0.500000 0.000000 0.500000
O O4 0.232602 0.015129 0.449488
O O5 0.500000 0.891488 0.250000
O O6 0.561450 0.834565 0.139568
O O7 0.125771 0.789265 0.909260
O O8 0.212719 0.356226 0.353778
O O9 0.500000 0.267179 0.250000
O O10 0.617408 0.344459 0.184863
O O11 0.950763 0.226750 0.497996
O O12 0.500000 0.500000 0.000000
O O13 0.723426 0.673433 0.176022
#
# Coordination Sequence:
#
# PCOD8117819 Si02
#       6
#     4   4   2   4   4   4
#     4   9  20  35  55  85 121 164 204 245 299 361
#     4  10  19  33  57  85 116 156 198 244 297 356
#     4  10  22  40  62  90 122 154 202 258 308 370
#     4  11  23  39  59  88 125 163 206 255 308 369
#     4  10  23  43  66  90 119 159 205 259 318 372
#     4   9  21  39  55  83 122 155 199 251 300 360
#
# _framework density 20.866865000000001
#
# number of rings (size 3 to 8) (size 9 to 14) (size 15 to 20)
#    0.000    2.182    0.000    2.727    0.000   10.909 
#    0.000    3.636    0.000    0.000    0.000    0.000 
#    0.000    0.000    0.000    0.000    0.000    0.000 
#
# Total GULP energy -272696.025018 kJ/mol
# GULP energy per Si atom -12395.273864 kJ/mol
# Density = 2.081937 g / cm^3
# Si number density = 20.866865 Si / 1000 Ang^3
#
#
#
# Elastic Constant Matrix: (Units=GPa)
#
#
# Indices 1 2 3 4 5 6 
#
# 1 68.3400 53.1088 23.9291 0.0000 -19.9376 0.0000
# 2 53.1088 188.9166 68.9617 0.0000 -18.3952 0.0000
# 3 23.9291 68.9617 136.9832 0.0000 -21.6767 0.0000
# 4 0.0000 0.0000 0.0000 23.4353 0.0000 -5.8789
# 5 -19.9376 -18.3952 -21.6767 0.0000 36.5455 0.0000
# 6 0.0000 0.0000 0.0000 -5.8789 0.0000 26.0999
#
#
#
# Elastic Compliance Matrix: (Units=1/GPa)
#
#
# Indices 1 2 3 4 5 6 
#
# 1 0.021229 -0.005208 0.000366 0.000000 0.009177 0.000000
# 2 -0.005208 0.007835 -0.003156 0.000000 -0.000770 0.000000
# 3 0.000366 -0.003156 0.009497 0.000000 0.004244 0.000000
# 4 0.000000 0.000000 0.000000 0.045226 0.000000 0.010187
# 5 0.009177 -0.000770 0.004244 0.000000 0.034499 0.000000
# 6 0.000000 0.000000 0.000000 0.010187 0.000000 0.040609
#
#
# Mechanical properties :
#
#
# Convention : Reuss Voigt Hill
#
# Bulk Modulus (GPa) = 44.31921 76.24877 60.28399
# Shear Modulus (GPa) = 27.41024 33.76549 30.58787
#
# Velocity S-wave (km/s) = 3.62826 4.02697 3.83281
# Velocity P-wave (km/s) = 6.23198 7.63164 6.96705
#
# Compressibility (1/GPa) = 0.02256358
#
# Stress axis : x y z
#
# Youngs Moduli (GPa) = 47.10477 127.63899 105.29866
#
# Poissons Ratio (x) = 0.66473 -0.03850
# Poissons Ratio (y) = 0.24532 0.33235
# Poissons Ratio (z) = -0.01722 0.40286
#
# Static dielectric constant tensor:
#      x y z
#    x 3.487880 0.000000 0.016770 
#    y 0.000000 3.815780 0.000000 
#    z 0.016770 0.000000 3.762650 
# 
# 
# High freq. dielectric constant tensor:
#      x y z
#    x 1.819580 0.000000 -0.008580 
#    y 0.000000 1.812820 0.000000 
#    z -0.008580 0.000000 1.824920 
# 
# From -- ./inp_files/68621.got.cif
#   From: 2010.06.25/outbox.cif.g09.slc.cpg/sg13_35_cif.got.tgz:68621.got - 2010.06.28 04:50:58.
