data_PCOD8117454
_publ_section_title
;
Structure prediction by ZEFSAII (Michael W. Deem and Ramdas Pophale) SiO2 
 PCOD8117454
Probable space group: P 2/C
;
_chemical_formula_sum "Si O2"
_cell_formula_units_Z 30
_cell_length_a 20.766017
_cell_length_b 8.731983
_cell_length_c 17.820240
_cell_angle_alpha 90.000000
_cell_angle_beta 29.216745
_cell_angle_gamma 90.000000
_cell_volume 1577.253758
_symmetry_space_group_name_H-M "P 2/C"
_symmetry_group_IT_number 13
_symmetry_cell_setting 'monoclinic'
loop_
_space_group_symop_operation_xyz
x,y,z
-x,y,1/2-z
-x,-y,-z
x,-y,1/2+z
loop_
_atom_site_type_symbol
_atom_site_label
_atom_site_fract_x
_atom_site_fract_y
_atom_site_fract_z
Si Si1 0.500000 0.255556 0.750000
Si Si2 0.892420 0.369275 0.687585
Si Si3 0.648850 0.317940 0.025881
Si Si4 0.145753 0.567605 0.444767
Si Si5 0.619543 0.534565 0.709245
Si Si6 0.704849 0.964513 0.976299
Si Si7 0.884566 0.850272 0.921099
Si Si8 0.949469 0.024400 0.635163
O O1 0.594543 0.362017 0.704408
O O2 0.582372 0.153977 0.604997
O O3 0.852369 0.373573 0.641568
O O4 0.936820 0.201538 0.665014
O O5 0.006274 0.484220 0.597839
O O6 0.761895 0.407306 0.866094
O O7 0.514797 0.385211 0.126140
O O8 0.672089 0.361969 0.088082
O O9 0.648275 0.134357 0.021668
O O10 0.272431 0.460165 0.333609
O O11 0.166342 0.703732 0.482405
O O12 0.811650 0.936678 0.799229
O O13 0.774123 0.940108 0.986338
O O14 0.000000 0.790470 0.750000
O O15 0.933451 0.972843 0.930970
O O16 0.000000 0.000000 0.500000
#
# Coordination Sequence:
#
# PCOD8117454 Si02
#       8
#     2   4   4   4   4   4   4   4
#     4  10  18  36  58  88 110 148 196 244 290 340
#     4  10  23  38  59  83 119 158 190 241 295 354
#     4   9  21  39  58  84 117 153 192 238 295 346
#     4  11  22  38  57  89 115 153 196 238 293 345
#     4  10  22  37  59  85 117 154 194 245 285 347
#     4  10  20  36  62  85 113 152 196 238 292 350
#     4  10  21  34  59  87 112 150 192 243 290 343
#     4  10  20  39  58  84 120 150 191 243 297 347
#
# _framework density 19.020402000000001
#
# number of rings (size 3 to 8) (size 9 to 14) (size 15 to 20)
#    0.000    2.133    2.667    0.800    3.733    1.600 
#    0.000    0.000    0.000    2.400    0.000    0.000 
#    0.000    0.000    0.000    0.000    0.000    0.000 
#
# Total GULP energy -371757.421544 kJ/mol
# GULP energy per Si atom -12391.914051 kJ/mol
# Density = 1.897711 g / cm^3
# Si number density = 19.020402 Si / 1000 Ang^3
#
#
#
# Elastic Constant Matrix: (Units=GPa)
#
#
# Indices 1 2 3 4 5 6 
#
# 1 91.0201 18.9500 37.0960 0.0000 -13.6861 0.0000
# 2 18.9500 68.1769 38.5261 0.0000 -4.3040 0.0000
# 3 37.0960 38.5261 126.2262 0.0000 2.1365 0.0000
# 4 0.0000 0.0000 0.0000 30.7883 0.0000 -3.7786
# 5 -13.6861 -4.3040 2.1365 0.0000 23.0349 0.0000
# 6 0.0000 0.0000 0.0000 -3.7786 0.0000 32.3375
#
#
#
# Elastic Compliance Matrix: (Units=1/GPa)
#
#
# Indices 1 2 3 4 5 6 
#
# 1 0.014117 -0.001159 -0.003940 0.000000 0.008536 0.000000
# 2 -0.001159 0.018162 -0.005257 0.000000 0.003193 0.000000
# 3 -0.003940 -0.005257 0.010758 0.000000 -0.004321 0.000000
# 4 0.000000 0.000000 0.000000 0.032952 0.000000 0.003851
# 5 0.008536 0.003193 -0.004321 0.000000 0.049482 0.000000
# 6 0.000000 0.000000 0.000000 0.003851 0.000000 0.031374
#
#
# Mechanical properties :
#
#
# Convention : Reuss Voigt Hill
#
# Bulk Modulus (GPa) = 44.79017 52.72971 48.75994
# Shear Modulus (GPa) = 27.02749 29.95553 28.49151
#
# Velocity S-wave (km/s) = 3.77367 3.97283 3.87453
# Velocity P-wave (km/s) = 6.52588 6.98766 6.76071
#
# Compressibility (1/GPa) = 0.02232633
#
# Stress axis : x y z
#
# Youngs Moduli (GPa) = 70.83656 55.06033 92.95713
#
# Poissons Ratio (x) = 0.06380 0.36621
# Poissons Ratio (y) = 0.08208 0.48865
# Poissons Ratio (z) = 0.27907 0.28944
#
# Static dielectric constant tensor:
#      x y z
#    x 2.654090 0.000000 0.368330 
#    y 0.000000 3.513110 0.000000 
#    z 0.368330 0.000000 3.566740 
# 
# 
# High freq. dielectric constant tensor:
#      x y z
#    x 1.723560 0.000000 -0.006260 
#    y 0.000000 1.742220 0.000000 
#    z -0.006260 0.000000 1.750430 
# 
# From -- ./inp_files/70556.got.cif
#   From: 2010.06.25/outbox.cif.g09.slc.cpg/sg13_36_cif.got.tgz:70556.got - 2010.06.28 04:50:58.
