data_PCOD8117136
_publ_section_title
;
Structure prediction by ZEFSAII (Michael W. Deem and Ramdas Pophale) SiO2 
 PCOD8117136
Probable space group: P 2/C
;
_chemical_formula_sum "Si O2"
_cell_formula_units_Z 20
_cell_length_a 23.791322
_cell_length_b 8.312836
_cell_length_c 5.272481
_cell_angle_alpha 90.000000
_cell_angle_beta 76.983285
_cell_angle_gamma 90.000000
_cell_volume 1015.962022
_symmetry_space_group_name_H-M "P 2/C"
_symmetry_group_IT_number 13
_symmetry_cell_setting 'monoclinic'
loop_
_space_group_symop_operation_xyz
x,y,z
-x,y,1/2-z
-x,-y,-z
x,-y,1/2+z
loop_
_atom_site_type_symbol
_atom_site_label
_atom_site_fract_x
_atom_site_fract_y
_atom_site_fract_z
Si Si1 0.278463 0.602192 0.956943
Si Si2 0.566573 0.161463 0.675715
Si Si3 0.933517 0.901523 0.305173
Si Si4 0.146957 0.600071 0.114950
Si Si5 0.614515 0.809577 0.626969
O O1 0.291783 0.485516 0.178665
O O2 0.212654 0.662633 0.032094
O O3 0.318467 0.760232 0.935039
O O4 0.500000 0.109626 0.750000
O O5 0.581563 0.262449 0.407633
O O6 0.606582 0.002073 0.629610
O O7 0.583925 0.264132 0.906386
O O8 0.895127 0.746750 0.387943
O O9 0.000000 0.848179 0.250000
O O10 0.918889 0.024635 0.546135
O O11 0.134618 0.526829 0.404017
#
# Coordination Sequence:
#
# PCOD8117136 Si02
#       5
#     4   4   4   4   4
#     4  10  21  37  54  74 107 144 175 220 268 314
#     4  10  19  33  55  76 101 130 165 225 270 311
#     4  10  21  38  58  87 123 155 187 240 300 333
#     4  10  21  38  59  83 113 156 202 234 277 340
#     4  10  18  32  52  76  98 131 171 207 265 324
#
# _framework density 19.685773999999999
#
# number of rings (size 3 to 8) (size 9 to 14) (size 15 to 20)
#    0.000    2.000    0.000    5.400    0.000    0.800 
#    7.200    0.000    0.000   20.400    0.000    0.000 
#    0.000    0.000    0.000    0.000    0.000    0.000 
#
# Total GULP energy -247913.695242 kJ/mol
# GULP energy per Si atom -12395.684762 kJ/mol
# Density = 1.964097 g / cm^3
# Si number density = 19.685774 Si / 1000 Ang^3
#
#
#
# Elastic Constant Matrix: (Units=GPa)
#
#
# Indices 1 2 3 4 5 6 
#
# 1 115.4119 58.5534 43.0522 0.0000 -4.4960 0.0000
# 2 58.5534 50.5308 9.2909 0.0000 -14.8306 0.0000
# 3 43.0522 9.2909 140.5362 0.0000 24.5717 0.0000
# 4 0.0000 0.0000 0.0000 13.8614 0.0000 -0.6904
# 5 -4.4960 -14.8306 24.5717 0.0000 36.0036 0.0000
# 6 0.0000 0.0000 0.0000 -0.6904 0.0000 13.8157
#
#
#
# Elastic Compliance Matrix: (Units=1/GPa)
#
#
# Indices 1 2 3 4 5 6 
#
# 1 0.025958 -0.031033 -0.004805 0.000000 -0.006262 0.000000
# 2 -0.031033 0.061269 0.001954 0.000000 0.020029 0.000000
# 3 -0.004805 0.001954 0.009564 0.000000 -0.006322 0.000000
# 4 0.000000 0.000000 0.000000 0.072323 0.000000 0.003614
# 5 -0.006262 0.020029 -0.006322 0.000000 0.039558 0.000000
# 6 0.000000 0.000000 0.000000 0.003614 0.000000 0.072562
#
#
# Mechanical properties :
#
#
# Convention : Reuss Voigt Hill
#
# Bulk Modulus (GPa) = 34.45636 58.69688 46.57662
# Shear Modulus (GPa) = 13.94011 25.77496 19.85753
#
# Velocity S-wave (km/s) = 2.66396 3.62238 3.17949
# Velocity P-wave (km/s) = 5.19648 6.88310 6.09838
#
# Compressibility (1/GPa) = 0.02902222
#
# Stress axis : x y z
#
# Youngs Moduli (GPa) = 38.52395 16.32134 104.55969
#
# Poissons Ratio (x) = 0.50651 0.50246
# Poissons Ratio (y) = 1.19553 -0.20435
# Poissons Ratio (z) = 0.18513 -0.03190
#
# Static dielectric constant tensor:
#      x y z
#    x 3.756280 0.000000 0.447720 
#    y 0.000000 3.003340 0.000000 
#    z 0.447720 0.000000 4.940590 
# 
# 
# High freq. dielectric constant tensor:
#      x y z
#    x 1.771780 0.000000 0.013920 
#    y 0.000000 1.719740 0.000000 
#    z 0.013920 0.000000 1.806080 
# 
# From -- ./inp_files/6666.got.cif
#   From: 2010.06.25/outbox.cif.g09.slc.cpg/sg13_4_cif.got.tgz:6666.got - 2010.06.28 04:50:58.
