data_PCOD8117817
_publ_section_title
;
Structure prediction by ZEFSAII (Michael W. Deem and Ramdas Pophale) SiO2 
 PCOD8117817
Probable space group: P 2/C
;
_chemical_formula_sum "Si O2"
_cell_formula_units_Z 22
_cell_length_a 21.464663
_cell_length_b 9.516168
_cell_length_c 12.965882
_cell_angle_alpha 90.000000
_cell_angle_beta 23.258521
_cell_angle_gamma 90.000000
_cell_volume 1045.812724
_symmetry_space_group_name_H-M "P 2/C"
_symmetry_group_IT_number 13
_symmetry_cell_setting 'monoclinic'
loop_
_space_group_symop_operation_xyz
x,y,z
-x,y,1/2-z
-x,-y,-z
x,-y,1/2+z
loop_
_atom_site_type_symbol
_atom_site_label
_atom_site_fract_x
_atom_site_fract_y
_atom_site_fract_z
Si Si1 0.000000 0.511517 0.250000
Si Si2 0.077415 0.035257 0.275033
Si Si3 0.855165 0.274657 0.603976
Si Si4 0.431542 0.885262 0.246297
Si Si5 0.514360 0.806182 0.557758
Si Si6 0.173781 0.734595 0.116333
O O1 0.123219 0.608986 0.120764
O O2 0.907574 0.418168 0.472307
O O3 0.952979 0.140428 0.407474
O O4 0.113201 0.886446 0.162963
O O5 0.242403 0.115278 0.040562
O O6 0.000000 0.000000 0.500000
O O7 0.893395 0.286750 0.666864
O O8 0.670310 0.259732 0.868092
O O9 0.500000 0.824268 0.250000
O O10 0.509157 0.035664 0.107383
O O11 0.482155 0.790296 0.072004
O O12 0.363016 0.725675 0.831064
#
# Coordination Sequence:
#
# PCOD8117817 Si02
#       6
#     2   4   4   4   4   4
#     4  12  26  38  60  90 122 162 206 254 314 368
#     4   9  19  36  64  89 118 159 199 247 303 355
#     4  11  22  42  64  88 122 161 205 252 305 371
#     4  10  19  33  56  94 126 151 197 257 307 360
#     4  10  21  37  61  85 119 165 205 245 307 369
#     4  10  23  42  62  89 122 161 204 253 306 370
#
# _framework density 21.036270999999999
#
# number of rings (size 3 to 8) (size 9 to 14) (size 15 to 20)
#    0.000    1.818    0.000    5.455    0.000    8.727 
#    0.000    1.818    0.000    0.000    0.000    0.000 
#    0.000    0.000    0.000    0.000    0.000    0.000 
#
# Total GULP energy -272739.248800 kJ/mol
# GULP energy per Si atom -12397.238582 kJ/mol
# Density = 2.098839 g / cm^3
# Si number density = 21.036271 Si / 1000 Ang^3
#
#
#
# Elastic Constant Matrix: (Units=GPa)
#
#
# Indices 1 2 3 4 5 6 
#
# 1 96.7610 36.4036 20.9874 0.0000 3.8209 0.0000
# 2 36.4036 113.1499 48.4590 0.0000 -16.8304 0.0000
# 3 20.9874 48.4590 122.6836 0.0000 -10.2454 0.0000
# 4 0.0000 0.0000 0.0000 12.7083 0.0000 -0.0531
# 5 3.8209 -16.8304 -10.2454 0.0000 38.2659 0.0000
# 6 0.0000 0.0000 0.0000 -0.0531 0.0000 34.4512
#
#
#
# Elastic Compliance Matrix: (Units=1/GPa)
#
#
# Indices 1 2 3 4 5 6 
#
# 1 0.012152 -0.004070 -0.000739 0.000000 -0.003201 0.000000
# 2 -0.004070 0.012518 -0.003841 0.000000 0.004884 0.000000
# 3 -0.000739 -0.003841 0.009880 0.000000 0.001030 0.000000
# 4 0.000000 0.000000 0.000000 0.078689 0.000000 0.000121
# 5 -0.003201 0.004884 0.001030 0.000000 0.028876 0.000000
# 6 0.000000 0.000000 0.000000 0.000121 0.000000 0.029027
#
#
# Mechanical properties :
#
#
# Convention : Reuss Voigt Hill
#
# Bulk Modulus (GPa) = 57.95965 60.47718 59.21842
# Shear Modulus (GPa) = 25.74760 32.20136 28.97448
#
# Velocity S-wave (km/s) = 3.50231 3.91673 3.71530
# Velocity P-wave (km/s) = 6.63076 7.01896 6.82762
#
# Compressibility (1/GPa) = 0.01725338
#
# Stress axis : x y z
#
# Youngs Moduli (GPa) = 82.28790 79.88217 101.20975
#
# Poissons Ratio (x) = 0.32508 0.07477
# Poissons Ratio (y) = 0.33487 0.38871
# Poissons Ratio (z) = 0.06080 0.30680
#
# Static dielectric constant tensor:
#      x y z
#    x 3.743770 0.000000 0.664770 
#    y 0.000000 3.848580 0.000000 
#    z 0.664770 0.000000 1.209310 
# 
# 
# High freq. dielectric constant tensor:
#      x y z
#    x 1.827230 0.000000 0.009720 
#    y 0.000000 1.789350 0.000000 
#    z 0.009720 0.000000 1.844730 
# 
# From -- ./inp_files/58646.got.cif
#   From: 2010.06.25/outbox.cif.g09.slc.cpg/sg13_30_cif.got.tgz:58646.got - 2010.06.28 04:50:58.
