data_PCOD8117326
_publ_section_title
;
Structure prediction by ZEFSAII (Michael W. Deem and Ramdas Pophale) SiO2 
 PCOD8117326
Probable space group: P 2/C
;
_chemical_formula_sum "Si O2"
_cell_formula_units_Z 30
_cell_length_a 8.917552
_cell_length_b 10.799521
_cell_length_c 31.158577
_cell_angle_alpha 90.000000
_cell_angle_beta 30.571338
_cell_angle_gamma 90.000000
_cell_volume 1526.206541
_symmetry_space_group_name_H-M "P 2/C"
_symmetry_group_IT_number 13
_symmetry_cell_setting 'monoclinic'
loop_
_space_group_symop_operation_xyz
x,y,z
-x,y,1/2-z
-x,-y,-z
x,-y,1/2+z
loop_
_atom_site_type_symbol
_atom_site_label
_atom_site_fract_x
_atom_site_fract_y
_atom_site_fract_z
Si Si1 0.211709 0.029627 0.346201
Si Si2 0.555977 0.276438 0.071281
Si Si3 0.957731 0.781710 0.681448
Si Si4 0.000000 0.853829 0.250000
Si Si5 0.723928 0.307137 0.751115
Si Si6 0.101239 0.764257 0.381976
Si Si7 0.710566 0.425237 0.292409
Si Si8 0.415381 0.062655 0.165305
O O1 0.500000 0.986493 0.250000
O O2 0.073757 0.151987 0.357336
O O3 0.304259 0.057423 0.371989
O O4 0.004244 0.907078 0.395535
O O5 0.544672 0.380107 0.111773
O O6 0.543939 0.140692 0.094659
O O7 0.282673 0.276831 0.105285
O O8 0.854937 0.300406 0.971724
O O9 0.731256 0.667476 0.746048
O O10 0.875934 0.880833 0.739026
O O11 0.022124 0.765190 0.285796
O O12 0.303138 0.932693 0.173503
O O13 0.856069 0.320012 0.670811
O O14 0.416349 0.231775 0.828642
O O15 0.651442 0.439367 0.789495
O O16 0.000000 0.415464 0.250000
#
# Coordination Sequence:
#
# PCOD8117326 Si02
#       8
#     4   4   4   2   4   4   4   4
#     4  10  18  35  56  84 122 150 192 246 287 350
#     4  10  21  37  59  86 116 153 192 248 295 344
#     4   9  18  36  60  84 113 152 196 242 291 345
#     4  12  18  36  66  86 106 160 208 230 290 362
#     4  11  22  40  60  81 115 165 198 240 289 353
#     4  11  23  38  55  87 124 150 191 246 304 348
#     4   9  19  40  65  84 109 155 212 240 281 348
#     4  10  18  34  58  86 114 148 199 240 291 347
#
# _framework density 19.656580999999999
#
# number of rings (size 3 to 8) (size 9 to 14) (size 15 to 20)
#    0.000    1.867    4.667    1.600    0.000    1.600 
#   12.000    2.667    0.000    0.000    0.000    0.000 
#    0.000    0.000    0.000    0.000    0.000    0.000 
#
# Total GULP energy -371765.185661 kJ/mol
# GULP energy per Si atom -12392.172855 kJ/mol
# Density = 1.961184 g / cm^3
# Si number density = 19.656581 Si / 1000 Ang^3
#
#
#
# Elastic Constant Matrix: (Units=GPa)
#
#
# Indices 1 2 3 4 5 6 
#
# 1 100.3866 48.1468 35.7161 0.0000 6.7418 0.0000
# 2 48.1468 117.3629 28.4286 0.0000 11.1566 0.0000
# 3 35.7161 28.4286 110.3269 0.0000 9.9806 0.0000
# 4 0.0000 0.0000 0.0000 15.2620 0.0000 4.8215
# 5 6.7418 11.1566 9.9806 0.0000 13.6531 0.0000
# 6 0.0000 0.0000 0.0000 4.8215 0.0000 32.7025
#
#
#
# Elastic Compliance Matrix: (Units=1/GPa)
#
#
# Indices 1 2 3 4 5 6 
#
# 1 0.013329 -0.004677 -0.003063 0.000000 -0.000521 0.000000
# 2 -0.004677 0.011233 -0.000813 0.000000 -0.006275 0.000000
# 3 -0.003063 -0.000813 0.010781 0.000000 -0.005705 0.000000
# 4 0.000000 0.000000 0.000000 0.068723 0.000000 -0.010132
# 5 -0.000521 -0.006275 -0.005705 0.000000 0.082799 0.000000
# 6 0.000000 0.000000 0.000000 -0.010132 0.000000 0.032073
#
#
# Mechanical properties :
#
#
# Convention : Reuss Voigt Hill
#
# Bulk Modulus (GPa) = 54.82968 61.40659 58.11813
# Shear Modulus (GPa) = 20.65081 26.70917 23.67999
#
# Velocity S-wave (km/s) = 3.24478 3.69018 3.47462
# Velocity P-wave (km/s) = 6.48016 7.03307 6.76227
#
# Compressibility (1/GPa) = 0.01823830
#
# Stress axis : x y z
#
# Youngs Moduli (GPa) = 75.02310 89.02718 92.75605
#
# Poissons Ratio (x) = 0.41635 0.28410
# Poissons Ratio (y) = 0.35086 0.07538
# Poissons Ratio (z) = 0.22978 0.07235
#
# Static dielectric constant tensor:
#      x y z
#    x 3.697430 0.000000 0.066310 
#    y 0.000000 3.608100 0.000000 
#    z 0.066310 0.000000 3.154730 
# 
# 
# High freq. dielectric constant tensor:
#      x y z
#    x 1.766810 0.000000 0.005750 
#    y 0.000000 1.762620 0.000000 
#    z 0.005750 0.000000 1.722610 
# 
# From -- ./inp_files/96068.got.cif
#   From: 2010.06.25/outbox.cif.g09.slc.cpg/sg13_49_cif.got.tgz:96068.got - 2010.06.28 04:50:58.
