data_PCOD8117927
_publ_section_title
;
Structure prediction by ZEFSAII (Michael W. Deem and Ramdas Pophale) SiO2 
 PCOD8117927
Probable space group: P 2/C
;
_chemical_formula_sum "Si O2"
_cell_formula_units_Z 28
_cell_length_a 20.176881
_cell_length_b 8.894480
_cell_length_c 24.074107
_cell_angle_alpha 90.000000
_cell_angle_beta 19.848908
_cell_angle_gamma 90.000000
_cell_volume 1466.955453
_symmetry_space_group_name_H-M "P 2/C"
_symmetry_group_IT_number 13
_symmetry_cell_setting 'monoclinic'
loop_
_space_group_symop_operation_xyz
x,y,z
-x,y,1/2-z
-x,-y,-z
x,-y,1/2+z
loop_
_atom_site_type_symbol
_atom_site_label
_atom_site_fract_x
_atom_site_fract_y
_atom_site_fract_z
Si Si1 0.709356 0.040949 0.075700
Si Si2 0.210416 0.809009 0.098216
Si Si3 0.571157 0.301556 0.488923
Si Si4 0.538685 0.612898 0.888760
Si Si5 0.808783 0.177517 0.110977
Si Si6 0.226754 0.075048 0.777382
Si Si7 0.113674 0.078393 0.254570
O O1 0.500000 0.960658 0.250000
O O2 0.764414 0.158321 0.080972
O O3 0.681961 0.143809 0.042978
O O4 0.876835 0.913009 0.937432
O O5 0.000000 0.736576 0.250000
O O6 0.184682 0.955254 0.155641
O O7 0.334811 0.689924 0.034284
O O8 0.499210 0.434021 0.586676
O O9 0.598548 0.355973 0.404592
O O10 0.415883 0.168482 0.613315
O O11 0.782083 0.236573 0.342522
O O12 0.710812 0.669844 0.712046
O O13 0.722105 0.031023 0.210691
O O14 0.043239 0.184553 0.935429
O O15 0.175380 0.963790 0.767952
#
# Coordination Sequence:
#
# PCOD8117927 Si02
#       7
#     4   4   4   4   4   4   4
#     4  10  20  33  58  87 107 146 195 244 277 339
#     4  10  20  36  59  81 108 149 200 235 276 342
#     4  11  22  34  56  85 118 146 183 237 295 343
#     4  11  21  36  55  82 116 153 186 230 286 352
#     4  10  20  34  58  84 112 145 190 235 290 339
#     4  10  19  34  58  85 114 143 180 248 292 331
#     4  10  19  35  57  86 111 144 190 245 292 328
#
# _framework density 19.087150000000001
#
# number of rings (size 3 to 8) (size 9 to 14) (size 15 to 20)
#    0.000    1.714    4.286    1.286    0.000    0.571 
#    0.000    2.143    0.000    3.429    0.000    0.000 
#    0.000    0.000    0.000    0.000    0.000    0.000 
#
# Total GULP energy -347140.437926 kJ/mol
# GULP energy per Si atom -12397.872783 kJ/mol
# Density = 1.904371 g / cm^3
# Si number density = 19.087150 Si / 1000 Ang^3
#
#
#
# Elastic Constant Matrix: (Units=GPa)
#
#
# Indices 1 2 3 4 5 6 
#
# 1 56.0122 7.8231 0.4916 0.0000 2.3572 0.0000
# 2 7.8231 65.9817 29.6806 0.0000 -12.0235 0.0000
# 3 0.4916 29.6806 95.4946 0.0000 -11.5485 0.0000
# 4 0.0000 0.0000 0.0000 29.0832 0.0000 6.0420
# 5 2.3572 -12.0235 -11.5485 0.0000 34.5759 0.0000
# 6 0.0000 0.0000 0.0000 6.0420 0.0000 14.5502
#
#
#
# Elastic Compliance Matrix: (Units=1/GPa)
#
#
# Indices 1 2 3 4 5 6 
#
# 1 0.018323 -0.002780 0.000523 0.000000 -0.002041 0.000000
# 2 -0.002780 0.018732 -0.005208 0.000000 0.004964 0.000000
# 3 0.000523 -0.005208 0.012364 0.000000 0.002283 0.000000
# 4 0.000000 0.000000 0.000000 0.037630 0.000000 -0.015626
# 5 -0.002041 0.004964 0.002283 0.000000 0.031550 0.000000
# 6 0.000000 0.000000 0.000000 -0.015626 0.000000 0.075216
#
#
# Mechanical properties :
#
#
# Convention : Reuss Voigt Hill
#
# Bulk Modulus (GPa) = 28.99373 32.60881 30.80127
# Shear Modulus (GPa) = 22.70241 27.60807 25.15524
#
# Velocity S-wave (km/s) = 3.45252 3.80731 3.63425
# Velocity P-wave (km/s) = 5.57820 6.03728 5.81228
#
# Compressibility (1/GPa) = 0.03449021
#
# Stress axis : x y z
#
# Youngs Moduli (GPa) = 54.57683 53.38351 80.88158
#
# Poissons Ratio (x) = 0.14838 -0.04228
# Poissons Ratio (y) = 0.15170 0.42120
# Poissons Ratio (z) = -0.02853 0.27800
#
# Static dielectric constant tensor:
#      x y z
#    x 3.775540 0.000000 -0.086730 
#    y 0.000000 3.216900 0.000000 
#    z -0.086730 0.000000 3.858760 
# 
# 
# High freq. dielectric constant tensor:
#      x y z
#    x 1.748920 0.000000 0.000880 
#    y 0.000000 1.692810 0.000000 
#    z 0.000880 0.000000 1.761800 
# 
# From -- ./inp_files/75292.got.cif
#   From: 2010.06.25/outbox.cif.g09.slc.cpg/sg13_38_cif.got.tgz:75292.got - 2010.06.28 04:50:58.
