data_PCOD8117761
_publ_section_title
;
Structure prediction by ZEFSAII (Michael W. Deem and Ramdas Pophale) SiO2 
 PCOD8117761
Probable space group: P 2/C
;
_chemical_formula_sum "Si O2"
_cell_formula_units_Z 24
_cell_length_a 18.919000
_cell_length_b 11.857050
_cell_length_c 13.050287
_cell_angle_alpha 90.000000
_cell_angle_beta 24.177752
_cell_angle_gamma 90.000000
_cell_volume 1199.007182
_symmetry_space_group_name_H-M "P 2/C"
_symmetry_group_IT_number 13
_symmetry_cell_setting 'monoclinic'
loop_
_space_group_symop_operation_xyz
x,y,z
-x,y,1/2-z
-x,-y,-z
x,-y,1/2+z
loop_
_atom_site_type_symbol
_atom_site_label
_atom_site_fract_x
_atom_site_fract_y
_atom_site_fract_z
Si Si1 0.289306 0.205992 0.719111
Si Si2 0.193733 0.171234 0.633855
Si Si3 0.929209 0.998244 0.955782
Si Si4 0.061177 0.402768 0.055927
Si Si5 0.661107 0.174400 0.283617
Si Si6 0.901293 0.346373 0.059153
O O1 0.330644 0.191209 0.543667
O O2 0.453685 0.169427 0.569341
O O3 0.240771 0.335814 0.802986
O O4 0.114906 0.133455 0.975049
O O5 0.295265 0.173601 0.394192
O O6 0.089261 0.054591 0.807390
O O7 0.056380 0.272361 0.808584
O O8 0.000000 0.027256 0.750000
O O9 0.749524 0.064496 0.216400
O O10 0.000000 0.372994 0.250000
O O11 0.920440 0.362870 0.156764
O O12 0.099592 0.534180 0.995821
O O13 0.723256 0.284895 0.263638
#
# Coordination Sequence:
#
# PCOD8117761 Si02
#       6
#     4   4   4   4   4   4
#     4  11  20  30  49  79 108 131 164 213 265 302
#     4   9  18  33  54  73  97 138 179 210 241 299
#     4   9  18  33  51  70  99 140 177 208 248 303
#     4  10  20  35  55  76 102 135 170 205 247 310
#     4  10  19  33  52  75 103 132 170 217 256 293
#     4   9  19  36  56  75  97 135 175 206 247 298
#
# _framework density 20.016560999999999
#
# number of rings (size 3 to 8) (size 9 to 14) (size 15 to 20)
#    0.000    2.333    0.000    4.500    0.000    0.667 
#    0.000    0.833    0.000    0.000    0.000    0.000 
#    0.000    0.000    0.000    0.000    0.000    0.000 
#
# Total GULP energy -297400.317400 kJ/mol
# GULP energy per Si atom -12391.679892 kJ/mol
# Density = 1.997100 g / cm^3
# Si number density = 20.016561 Si / 1000 Ang^3
#
#
#
# Elastic Constant Matrix: (Units=GPa)
#
#
# Indices 1 2 3 4 5 6 
#
# 1 63.6191 2.6326 23.7557 0.0000 -8.6714 0.0000
# 2 2.6326 94.8321 20.5096 0.0000 -7.3922 0.0000
# 3 23.7557 20.5096 51.6911 0.0000 -12.0393 0.0000
# 4 0.0000 0.0000 0.0000 15.4151 0.0000 -0.8392
# 5 -8.6714 -7.3922 -12.0393 0.0000 30.5610 0.0000
# 6 0.0000 0.0000 0.0000 -0.8392 0.0000 12.1301
#
#
#
# Elastic Compliance Matrix: (Units=1/GPa)
#
#
# Indices 1 2 3 4 5 6 
#
# 1 0.019318 0.001584 -0.008963 0.000000 0.002334 0.000000
# 2 0.001584 0.011698 -0.005071 0.000000 0.001281 0.000000
# 3 -0.008963 -0.005071 0.027084 0.000000 0.006900 0.000000
# 4 0.000000 0.000000 0.000000 0.065117 0.000000 0.004505
# 5 0.002334 0.001281 0.006900 0.000000 0.036412 0.000000
# 6 0.000000 0.000000 0.000000 0.004505 0.000000 0.082751
#
#
# Mechanical properties :
#
#
# Convention : Reuss Voigt Hill
#
# Bulk Modulus (GPa) = 30.12067 33.77089 31.94578
# Shear Modulus (GPa) = 17.96333 22.50418 20.23376
#
# Velocity S-wave (km/s) = 2.99895 3.35666 3.18284
# Velocity P-wave (km/s) = 5.20309 5.65075 5.43154
#
# Compressibility (1/GPa) = 0.03319979
#
# Stress axis : x y z
#
# Youngs Moduli (GPa) = 51.76549 85.48809 36.92250
#
# Poissons Ratio (x) = -0.13542 0.33093
# Poissons Ratio (y) = -0.08200 0.18723
# Poissons Ratio (z) = 0.46397 0.43349
#
# Static dielectric constant tensor:
#      x y z
#    x 3.832320 0.000000 -0.095030 
#    y 0.000000 3.708640 0.000000 
#    z -0.095030 0.000000 3.219790 
# 
# 
# High freq. dielectric constant tensor:
#      x y z
#    x 1.794810 0.000000 -0.003190 
#    y 0.000000 1.787990 0.000000 
#    z -0.003190 0.000000 1.742360 
# 
# From -- ./inp_files/50795.got.cif
#   From: 2010.06.25/outbox.cif.g09.slc.cpg/sg13_26_cif.got.tgz:50795.got - 2010.06.28 04:50:58.
