data_PCOD8117439
_publ_section_title
;
Structure prediction by ZEFSAII (Michael W. Deem and Ramdas Pophale) SiO2 
 PCOD8117439
Probable space group: P 2/C
;
_chemical_formula_sum "Si O2"
_cell_formula_units_Z 24
_cell_length_a 20.684081
_cell_length_b 11.324771
_cell_length_c 9.042617
_cell_angle_alpha 90.000000
_cell_angle_beta 143.149870
_cell_angle_gamma 90.000000
_cell_volume 1270.314316
_symmetry_space_group_name_H-M "P 2/C"
_symmetry_group_IT_number 13
_symmetry_cell_setting 'monoclinic'
loop_
_space_group_symop_operation_xyz
x,y,z
-x,y,1/2-z
-x,-y,-z
x,-y,1/2+z
loop_
_atom_site_type_symbol
_atom_site_label
_atom_site_fract_x
_atom_site_fract_y
_atom_site_fract_z
Si Si1 0.755600 0.096642 0.157134
Si Si2 0.851793 0.494374 0.975914
Si Si3 0.572418 0.940656 0.756253
Si Si4 0.057705 0.340739 0.610263
Si Si5 0.191689 0.339738 0.347702
Si Si6 0.791529 0.125292 0.555134
O O1 0.743590 0.217914 0.042827
O O2 0.812185 0.119636 0.417680
O O3 0.825310 0.000083 0.191242
O O4 0.634811 0.046966 0.956261
O O5 0.919821 0.579593 0.206316
O O6 0.780312 0.406375 0.947259
O O7 0.930292 0.418010 0.015419
O O8 0.776401 0.574781 0.731741
O O9 0.500000 0.876317 0.750000
O O10 0.500000 0.000000 0.500000
O O11 0.663246 0.851614 0.854873
O O12 0.136325 0.228508 0.744563
O O13 0.934029 0.302374 0.392091
#
# Coordination Sequence:
#
# PCOD8117439 Si02
#       6
#     4   4   4   4   4   4
#     4  10  22  35  54  83 110 137 183 214 280 327
#     4  10  21  34  54  78 106 155 196 214 250 302
#     4  10  18  36  57  78 105 133 175 226 272 328
#     4  11  20  35  54  79 115 147 183 224 253 313
#     4  11  20  35  54  79 115 148 183 221 257 312
#     4  10  22  35  54  83 110 136 184 213 281 328
#
# _framework density 18.892962000000001
#
# number of rings (size 3 to 8) (size 9 to 14) (size 15 to 20)
#    1.000    0.667    3.333    4.000    2.333    0.667 
#    0.000    0.000    0.000    0.000    0.000   23.333 
#    0.000    0.000    0.000    0.000    0.000    0.000 
#
# Total GULP energy -297380.002711 kJ/mol
# GULP energy per Si atom -12390.833446 kJ/mol
# Density = 1.884996 g / cm^3
# Si number density = 18.892962 Si / 1000 Ang^3
#
#
#
# Elastic Constant Matrix: (Units=GPa)
#
#
# Indices 1 2 3 4 5 6 
#
# 1 82.4739 42.6811 14.7996 0.0000 -21.7152 0.0000
# 2 42.6811 110.8511 16.9135 0.0000 -2.0952 0.0000
# 3 14.7996 16.9135 33.7079 0.0000 -6.3340 0.0000
# 4 0.0000 0.0000 0.0000-1124.0664 0.0000 1136.3798
# 5 -21.7152 -2.0952 -6.3340 0.0000 30.3776 0.0000
# 6 0.0000 0.0000 0.0000 1136.3798 0.0000-1115.0711
#
#
#
# Elastic Compliance Matrix: (Units=1/GPa)
#
#
# Indices 1 2 3 4 5 6 
#
# 1 0.019586 -0.006883 -0.002710 0.000000 0.012961 0.000000
# 2 -0.006883 0.012191 -0.004019 0.000000 -0.004917 0.000000
# 3 -0.002710 -0.004019 0.033781 0.000000 0.004829 0.000000
# 4 0.000000 0.000000 0.000000 0.029387 0.000000 0.029948
# 5 0.012961 -0.004917 0.004829 0.000000 0.042852 0.000000
# 6 0.000000 0.000000 0.000000 0.029948 0.000000 0.029624
#
#
# Mechanical properties :
#
#
# Convention : Reuss Voigt Hill
#
# Bulk Modulus (GPa) = 26.08690 41.75793 33.92241
# Shear Modulus (GPa) = 24.10539 -431.57606 -203.73533
#
# Velocity S-wave (km/s) = 3.57584 -15.13037 -10.39571
# Velocity P-wave (km/s) = 5.55757 16.82519 11.22944
#
# Compressibility (1/GPa) = 0.03833341
#
# Stress axis : x y z
#
# Youngs Moduli (GPa) = 51.05728 82.02444 29.60265
#
# Poissons Ratio (x) = 0.56455 0.08023
# Poissons Ratio (y) = 0.35141 0.11899
# Poissons Ratio (z) = 0.13838 0.32969
#
# Static dielectric constant tensor:
#      x y z
#    x 3.573130 0.000000 -0.318060 
#    y 0.000000 3.461540 0.000000 
#    z -0.318060 0.000000 3.216050 
# 
# 
# High freq. dielectric constant tensor:
#      x y z
#    x 1.735320 0.000000 -0.035670 
#    y 0.000000 1.723400 0.000000 
#    z -0.035670 0.000000 1.708050 
# 
# From -- ./inp_files/23280.got.cif
#   From: 2010.06.25/outbox.cif.g09.slc.cpg/sg13_12_cif.got.tgz:23280.got - 2010.06.28 04:50:58.
