data_PCOD8117369
_publ_section_title
;
Structure prediction by ZEFSAII (Michael W. Deem and Ramdas Pophale) SiO2 
 PCOD8117369
Probable space group: P 2/C
;
_chemical_formula_sum "Si O2"
_cell_formula_units_Z 20
_cell_length_a 10.206595
_cell_length_b 8.738604
_cell_length_c 13.255605
_cell_angle_alpha 90.000000
_cell_angle_beta 128.271758
_cell_angle_gamma 90.000000
_cell_volume 928.191081
_symmetry_space_group_name_H-M "P 2/C"
_symmetry_group_IT_number 13
_symmetry_cell_setting 'monoclinic'
loop_
_space_group_symop_operation_xyz
x,y,z
-x,y,1/2-z
-x,-y,-z
x,-y,1/2+z
loop_
_atom_site_type_symbol
_atom_site_label
_atom_site_fract_x
_atom_site_fract_y
_atom_site_fract_z
Si Si1 0.500000 0.467062 0.250000
Si Si2 0.832769 0.302865 0.123349
Si Si3 0.252898 0.717608 0.128776
Si Si4 0.508960 0.769032 0.583743
Si Si5 0.500000 0.984814 0.250000
Si Si6 0.180710 0.652373 0.317450
O O1 0.365929 0.580910 0.137943
O O2 0.439657 0.367487 0.316009
O O3 0.664536 0.214669 0.080727
O O4 0.815665 0.481789 0.138341
O O5 0.000000 0.232013 0.250000
O O6 0.872601 0.266206 0.024587
O O7 0.339026 0.879934 0.188995
O O8 0.181459 0.651773 0.197290
O O9 0.336593 0.743141 0.440429
O O10 0.482089 0.918797 0.638791
O O11 0.000000 0.730900 0.250000
#
# Coordination Sequence:
#
# PCOD8117369 Si02
#       6
#     2   4   4   4   2   4
#     4  10  18  34  70  86 120 168 214 258 316 364
#     4  11  24  40  69 100 129 167 219 276 324 379
#     4  11  22  41  62  98 129 169 218 267 310 395
#     4  11  21  43  63  96 130 174 208 269 320 383
#     4  10  26  40  70  96 134 174 220 254 330 392
#     4  11  24  40  69 100 129 167 219 276 324 379
#
# _framework density 21.547288999999999
#
# number of rings (size 3 to 8) (size 9 to 14) (size 15 to 20)
#    0.000    1.200    4.000    3.000    0.000    9.600 
#    0.000    6.000    0.000    0.000    0.000    0.000 
#    0.000    0.000    0.000    0.000    0.000    0.000 
#
# Total GULP energy -247807.526830 kJ/mol
# GULP energy per Si atom -12390.376341 kJ/mol
# Density = 2.149825 g / cm^3
# Si number density = 21.547289 Si / 1000 Ang^3
#
#
#
# Elastic Constant Matrix: (Units=GPa)
#
#
# Indices 1 2 3 4 5 6 
#
# 1 97.4736 27.9077 66.6250 0.0000 9.5821 0.0000
# 2 27.9077 73.2795 23.0593 0.0000 -5.0648 0.0000
# 3 66.6250 23.0593 170.2547 0.0000 -5.3790 0.0000
# 4 0.0000 0.0000 0.0000 20.7217 0.0000 -10.8401
# 5 9.5821 -5.0648 -5.3790 0.0000 48.4133 0.0000
# 6 0.0000 0.0000 0.0000 -10.8401 0.0000 11.6385
#
#
#
# Elastic Compliance Matrix: (Units=1/GPa)
#
#
# Indices 1 2 3 4 5 6 
#
# 1 0.015905 -0.004544 -0.005743 0.000000 -0.004261 0.000000
# 2 -0.004544 0.015632 -0.000260 0.000000 0.002506 0.000000
# 3 -0.005743 -0.000260 0.008220 0.000000 0.002023 0.000000
# 4 0.000000 0.000000 0.000000 0.094115 0.000000 0.087659
# 5 -0.004261 0.002506 0.002023 0.000000 0.021986 0.000000
# 6 0.000000 0.000000 0.000000 0.087659 0.000000 0.167567
#
#
# Mechanical properties :
#
#
# Convention : Reuss Voigt Hill
#
# Bulk Modulus (GPa) = 53.58371 64.02132 58.80251
# Shear Modulus (GPa) = 14.25558 31.04909 22.65234
#
# Velocity S-wave (km/s) = 2.57494 3.80013 3.24587
# Velocity P-wave (km/s) = 5.81054 7.00223 6.43403
#
# Compressibility (1/GPa) = 0.01866239
#
# Stress axis : x y z
#
# Youngs Moduli (GPa) = 62.87441 63.97126 121.65408
#
# Poissons Ratio (x) = 0.29072 0.69867
# Poissons Ratio (y) = 0.28573 0.03159
# Poissons Ratio (z) = 0.36109 0.01661
#
# Static dielectric constant tensor:
#      x y z
#    x 4.291690 0.000000 0.282920 
#    y 0.000000 3.703450 0.000000 
#    z 0.282920 0.000000 4.304320 
# 
# 
# High freq. dielectric constant tensor:
#      x y z
#    x 1.835440 0.000000 -0.014590 
#    y 0.000000 1.830470 0.000000 
#    z -0.014590 0.000000 1.868810 
# 
# From -- ./inp_files/32787.got.cif
#   From: 2010.06.25/outbox.cif.g09.slc.cpg/sg13_17_cif.got.tgz:32787.got - 2010.06.28 04:50:58.
