data_PCOD8117966
_publ_section_title
;
Structure prediction by ZEFSAII (Michael W. Deem and Ramdas Pophale) SiO2 
 PCOD8117966
Probable space group: P 2/C
;
_chemical_formula_sum "Si O2"
_cell_formula_units_Z 32
_cell_length_a 13.100268
_cell_length_b 15.133160
_cell_length_c 18.660881
_cell_angle_alpha 90.000000
_cell_angle_beta 24.106384
_cell_angle_gamma 90.000000
_cell_volume 1510.991032
_symmetry_space_group_name_H-M "P 2/C"
_symmetry_group_IT_number 13
_symmetry_cell_setting 'monoclinic'
loop_
_space_group_symop_operation_xyz
x,y,z
-x,y,1/2-z
-x,-y,-z
x,-y,1/2+z
loop_
_atom_site_type_symbol
_atom_site_label
_atom_site_fract_x
_atom_site_fract_y
_atom_site_fract_z
Si Si1 0.669304 0.136735 0.521595
Si Si2 0.418745 0.249846 0.184037
Si Si3 0.892401 0.767281 0.472507
Si Si4 0.167617 0.597470 0.327742
Si Si5 0.204639 0.102271 0.220180
Si Si6 0.890836 0.406286 0.152911
Si Si7 0.628488 0.324832 0.593921
Si Si8 0.165685 0.943156 0.338591
O O1 0.714245 0.101318 0.413507
O O2 0.640104 0.241745 0.534171
O O3 0.416817 0.093550 0.716358
O O4 0.905668 0.117211 0.421118
O O5 0.242986 0.239818 0.365067
O O6 0.358693 0.174538 0.165464
O O7 0.360017 0.345569 0.185337
O O8 0.705336 0.239939 0.024906
O O9 0.088325 0.686354 0.335847
O O10 0.024121 0.862596 0.389928
O O11 0.155725 0.506609 0.289366
O O12 0.454764 0.601579 0.168958
O O13 0.981838 0.589047 0.513295
O O14 0.262708 0.006026 0.213452
O O15 0.095830 0.363063 0.073079
O O16 0.500000 0.293245 0.750000
O O17 0.000000 0.000000 0.500000
#
# Coordination Sequence:
#
# PCOD8117966 Si02
#       8
#     4   4   4   4   4   4   4   4
#     4  11  25  43  64  89 126 166 213 259 312 378
#     4  10  20  37  57  87 125 159 200 252 311 375
#     4  10  21  36  57  90 123 158 198 256 317 369
#     4   9  18  32  53  90 126 154 200 255 318 370
#     4  11  25  43  62  90 124 169 210 258 316 373
#     4   9  18  31  55  90 123 159 196 253 320 371
#     4  10  19  34  63  90 124 162 208 263 312 369
#     4  12  25  41  66  92 123 162 208 266 317 374
#
# _framework density 21.178152999999998
#
# number of rings (size 3 to 8) (size 9 to 14) (size 15 to 20)
#    0.000    1.750    3.750    0.375    5.250    0.000 
#    0.000    0.000    0.000    0.750    3.250    0.000 
#    0.000    0.000    0.000    0.000    0.000    0.000 
#
# Total GULP energy -396683.905243 kJ/mol
# GULP energy per Si atom -12396.372039 kJ/mol
# Density = 2.112995 g / cm^3
# Si number density = 21.178153 Si / 1000 Ang^3
#
#
#
# Elastic Constant Matrix: (Units=GPa)
#
#
# Indices 1 2 3 4 5 6 
#
# 1 81.4183 46.4741 26.5118 0.0000 -28.2039 0.0000
# 2 46.4741 185.6623 32.4034 0.0000 -19.1575 0.0000
# 3 26.5118 32.4034 56.7754 0.0000 -24.9682 0.0000
# 4 0.0000 0.0000 0.0000 12.8908 0.0000 -8.1470
# 5 -28.2039 -19.1575 -24.9682 0.0000 31.9789 0.0000
# 6 0.0000 0.0000 0.0000 -8.1470 0.0000 30.8318
#
#
#
# Elastic Compliance Matrix: (Units=1/GPa)
#
#
# Indices 1 2 3 4 5 6 
#
# 1 0.019434 -0.003216 -0.000836 0.000000 0.014561 0.000000
# 2 -0.003216 0.006556 -0.002680 0.000000 -0.001002 0.000000
# 3 -0.000836 -0.002680 0.028178 0.000000 0.019658 0.000000
# 4 0.000000 0.000000 0.000000 0.093127 0.000000 0.024608
# 5 0.014561 -0.001002 0.019658 0.000000 0.058860 0.000000
# 6 0.000000 0.000000 0.000000 0.024608 0.000000 0.038936
#
#
# Mechanical properties :
#
#
# Convention : Reuss Voigt Hill
#
# Bulk Modulus (GPa) = 24.56828 59.40385 41.98606
# Shear Modulus (GPa) = 18.37394 29.70475 24.03934
#
# Velocity S-wave (km/s) = 2.94868 3.74921 3.37278
# Velocity P-wave (km/s) = 4.81860 6.84489 5.91910
#
# Compressibility (1/GPa) = 0.04070290
#
# Stress axis : x y z
#
# Youngs Moduli (GPa) = 51.45534 152.54113 35.48837
#
# Poissons Ratio (x) = 0.49063 0.02967
# Poissons Ratio (y) = 0.16550 0.09512
# Poissons Ratio (z) = 0.04302 0.40885
#
# Static dielectric constant tensor:
#      x y z
#    x 3.688720 0.000000 -0.379190 
#    y 0.000000 4.096050 0.000000 
#    z -0.379190 0.000000 3.675610 
# 
# 
# High freq. dielectric constant tensor:
#      x y z
#    x 1.814700 0.000000 -0.031030 
#    y 0.000000 1.845520 0.000000 
#    z -0.031030 0.000000 1.807570 
# 
# From -- ./inp_files/80346.got.cif
#   From: 2010.06.25/outbox.cif.g09.slc.cpg/sg13_41_cif.got.tgz:80346.got - 2010.06.28 04:50:58.
