data_PCOD8117823
_publ_section_title
;
Structure prediction by ZEFSAII (Michael W. Deem and Ramdas Pophale) SiO2 
 PCOD8117823
Probable space group: P 2/C
;
_chemical_formula_sum "Si O2"
_cell_formula_units_Z 24
_cell_length_a 11.527864
_cell_length_b 12.121359
_cell_length_c 10.475112
_cell_angle_alpha 90.000000
_cell_angle_beta 47.547039
_cell_angle_gamma 90.000000
_cell_volume 1079.981127
_symmetry_space_group_name_H-M "P 2/C"
_symmetry_group_IT_number 13
_symmetry_cell_setting 'monoclinic'
loop_
_space_group_symop_operation_xyz
x,y,z
-x,y,1/2-z
-x,-y,-z
x,-y,1/2+z
loop_
_atom_site_type_symbol
_atom_site_label
_atom_site_fract_x
_atom_site_fract_y
_atom_site_fract_z
Si Si1 0.834716 0.941556 0.636106
Si Si2 0.007680 0.732137 0.895325
Si Si3 0.189158 0.907821 0.122337
Si Si4 0.865670 0.516169 0.757219
Si Si5 0.452621 0.420588 0.921486
Si Si6 0.728657 0.711873 0.274619
O O1 0.858947 0.813556 0.651578
O O2 0.743381 0.944436 0.567108
O O3 0.748060 0.005426 0.816955
O O4 0.000000 0.000000 0.500000
O O5 0.058162 0.606511 0.896685
O O6 0.000000 0.744940 0.750000
O O7 0.838850 0.764489 0.082690
O O8 0.256809 0.787183 0.109882
O O9 0.000000 0.902067 0.250000
O O10 0.787539 0.412974 0.748619
O O11 0.000000 0.470223 0.750000
O O12 0.736644 0.589390 0.933345
O O13 0.500000 0.473148 0.750000
O O14 0.545707 0.302642 0.868355
O O15 0.500000 0.500000 0.000000
#
# Coordination Sequence:
#
# PCOD8117823 Si02
#       6
#     4   4   4   4   4   4
#     4  10  19  33  57  87 126 153 210 250 305 356
#     4  11  20  32  54  90 119 158 205 254 299 356
#     4  10  19  35  57  92 122 163 204 255 301 366
#     4  10  22  37  59  90 125 158 205 256 304 368
#     4  10  22  42  60  85 122 168 206 247 310 368
#     4  11  21  37  61  86 127 164 203 248 312 364
#
# _framework density 22.222611000000001
#
# number of rings (size 3 to 8) (size 9 to 14) (size 15 to 20)
#    0.000    1.667    3.333    4.500    0.000    1.333 
#    6.000    0.000    0.000    1.000    0.000    0.000 
#    0.000    0.000    0.000    0.000    0.000    0.000 
#
# Total GULP energy -297347.863186 kJ/mol
# GULP energy per Si atom -12389.494299 kJ/mol
# Density = 2.217203 g / cm^3
# Si number density = 22.222611 Si / 1000 Ang^3
#
#
#
# Elastic Constant Matrix: (Units=GPa)
#
#
# Indices 1 2 3 4 5 6 
#
# 1 102.2188 30.0398 56.9027 0.0000 26.8832 0.0000
# 2 30.0398 97.1426 13.7004 0.0000 27.1436 0.0000
# 3 56.9027 13.7004 81.7387 0.0000 17.5607 0.0000
# 4 0.0000 0.0000 0.0000 16.4161 0.0000 11.8276
# 5 26.8832 27.1436 17.5607 0.0000 50.7013 0.0000
# 6 0.0000 0.0000 0.0000 11.8276 0.0000 40.6858
#
#
#
# Elastic Compliance Matrix: (Units=1/GPa)
#
#
# Indices 1 2 3 4 5 6 
#
# 1 0.017859 -0.002806 -0.011075 0.000000 -0.004131 0.000000
# 2 -0.002806 0.012582 0.001050 0.000000 -0.005612 0.000000
# 3 -0.011075 0.001050 0.020125 0.000000 -0.001660 0.000000
# 4 0.000000 0.000000 0.000000 0.077055 0.000000 -0.022400
# 5 -0.004131 -0.005612 -0.001660 0.000000 0.025493 0.000000
# 6 0.000000 0.000000 0.000000 -0.022400 0.000000 0.031090
#
#
# Mechanical properties :
#
#
# Convention : Reuss Voigt Hill
#
# Bulk Modulus (GPa) = 40.15427 53.59846 46.87636
# Shear Modulus (GPa) = 22.91819 33.59111 28.25465
#
# Velocity S-wave (km/s) = 3.21487 3.89211 3.56959
# Velocity P-wave (km/s) = 5.64702 6.66103 6.17488
#
# Compressibility (1/GPa) = 0.02490395
#
# Stress axis : x y z
#
# Youngs Moduli (GPa) = 55.99325 79.47961 49.69045
#
# Poissons Ratio (x) = 0.22305 0.55032
# Poissons Ratio (y) = 0.15714 -0.05220
# Poissons Ratio (z) = 0.62012 -0.08349
#
# Static dielectric constant tensor:
#      x y z
#    x 4.293820 0.000000 0.035420 
#    y 0.000000 4.229680 0.000000 
#    z 0.035420 0.000000 4.708390 
# 
# 
# High freq. dielectric constant tensor:
#      x y z
#    x 1.858630 0.000000 0.023950 
#    y 0.000000 1.866340 0.000000 
#    z 0.023950 0.000000 1.861950 
# 
# From -- ./inp_files/33713.got.cif
#   From: 2010.06.25/outbox.cif.g09.slc.cpg/sg13_17_cif.got.tgz:33713.got - 2010.06.28 04:50:58.
