data_PCOD8117178
_publ_section_title
;
Structure prediction by ZEFSAII (Michael W. Deem and Ramdas Pophale) SiO2 
 PCOD8117178
Probable space group: P 2/C
;
_chemical_formula_sum "Si O2"
_cell_formula_units_Z 28
_cell_length_a 19.130779
_cell_length_b 9.603096
_cell_length_c 16.658902
_cell_angle_alpha 90.000000
_cell_angle_beta 27.663486
_cell_angle_gamma 90.000000
_cell_volume 1420.915076
_symmetry_space_group_name_H-M "P 2/C"
_symmetry_group_IT_number 13
_symmetry_cell_setting 'monoclinic'
loop_
_space_group_symop_operation_xyz
x,y,z
-x,y,1/2-z
-x,-y,-z
x,-y,1/2+z
loop_
_atom_site_type_symbol
_atom_site_label
_atom_site_fract_x
_atom_site_fract_y
_atom_site_fract_z
Si Si1 0.092962 0.441229 0.536057
Si Si2 0.399737 0.419802 0.013950
Si Si3 0.226825 0.561477 0.073027
Si Si4 0.666396 0.945320 0.350233
Si Si5 0.566425 0.821713 0.601785
Si Si6 0.294081 0.637507 0.242874
Si Si7 0.292628 0.780252 0.758526
O O1 0.167369 0.470320 0.545845
O O2 0.136522 0.571119 0.433417
O O3 0.151354 0.296050 0.440977
O O4 0.914487 0.422217 0.722505
O O5 0.321141 0.425162 0.006598
O O6 0.351684 0.570294 0.100801
O O7 0.345255 0.293334 0.123524
O O8 0.579629 0.408372 0.819929
O O9 0.335263 0.694677 0.964268
O O10 0.674076 0.924760 0.439633
O O11 0.715719 0.803268 0.255905
O O12 0.500000 0.000000 0.500000
O O13 0.768572 0.067847 0.208183
O O14 0.500000 0.895948 0.750000
O O15 0.431292 0.776859 0.679831
#
# Coordination Sequence:
#
# PCOD8117178 Si02
#       7
#     4   4   4   4   4   4   4
#     4  10  23  36  56  82 111 157 187 236 279 334
#     4  10  18  32  57  84 107 139 183 241 270 331
#     4  11  21  36  56  82 118 142 198 231 283 335
#     4  10  19  36  57  86 116 140 182 239 273 336
#     4  11  19  34  60  84 109 146 184 232 283 333
#     4  10  18  33  57  82 112 139 183 230 287 319
#     4  10  20  37  60  86 114 145 190 231 283 331
#
# _framework density 19.705608999999999
#
# number of rings (size 3 to 8) (size 9 to 14) (size 15 to 20)
#    0.000    1.714    5.714    1.714    0.000    2.286 
#    0.000    3.571    0.000    1.714    0.000    0.000 
#    0.000    0.000    0.000    0.000    0.000    0.000 
#
# Total GULP energy -346922.239031 kJ/mol
# GULP energy per Si atom -12390.079965 kJ/mol
# Density = 1.966076 g / cm^3
# Si number density = 19.705609 Si / 1000 Ang^3
#
#
#
# Elastic Constant Matrix: (Units=GPa)
#
#
# Indices 1 2 3 4 5 6 
#
# 1 65.7629 20.7701 8.0977 0.0000 7.7628 0.0000
# 2 20.7701 121.1399 27.7466 0.0000 10.1844 0.0000
# 3 8.0977 27.7466 80.8000 0.0000 10.1908 0.0000
# 4 0.0000 0.0000 0.0000 21.4032 0.0000 8.0842
# 5 7.7628 10.1844 10.1908 0.0000 24.3206 0.0000
# 6 0.0000 0.0000 0.0000 8.0842 0.0000 13.3644
#
#
#
# Elastic Compliance Matrix: (Units=1/GPa)
#
#
# Indices 1 2 3 4 5 6 
#
# 1 0.016492 -0.002411 -0.000304 0.000000 -0.004127 0.000000
# 2 -0.002411 0.009471 -0.002753 0.000000 -0.002043 0.000000
# 3 -0.000304 -0.002753 0.013931 0.000000 -0.004587 0.000000
# 4 0.000000 0.000000 0.000000 0.060558 0.000000 -0.036632
# 5 -0.004127 -0.002043 -0.004587 0.000000 0.045212 0.000000
# 6 0.000000 0.000000 0.000000 -0.036632 0.000000 0.096984
#
#
# Mechanical properties :
#
#
# Convention : Reuss Voigt Hill
#
# Bulk Modulus (GPa) = 34.53413 42.32573 38.42993
# Shear Modulus (GPa) = 18.99433 25.89021 22.44227
#
# Velocity S-wave (km/s) = 3.10805 3.62864 3.37839
# Velocity P-wave (km/s) = 5.51752 6.25153 5.89596
#
# Compressibility (1/GPa) = 0.02895687
#
# Stress axis : x y z
#
# Youngs Moduli (GPa) = 60.63452 105.59015 71.78412
#
# Poissons Ratio (x) = 0.25458 0.02185
# Poissons Ratio (y) = 0.14619 0.19762
# Poissons Ratio (z) = 0.01846 0.29068
#
# Static dielectric constant tensor:
#      x y z
#    x 3.756740 0.000000 0.133720 
#    y 0.000000 3.816070 0.000000 
#    z 0.133720 0.000000 3.732750 
# 
# 
# High freq. dielectric constant tensor:
#      x y z
#    x 1.763530 0.000000 0.009550 
#    y 0.000000 1.746310 0.000000 
#    z 0.009550 0.000000 1.760040 
# 
# From -- ./inp_files/70465.got.cif
#   From: 2010.06.25/outbox.cif.g09.slc.cpg/sg13_36_cif.got.tgz:70465.got - 2010.06.28 04:50:58.
