data_PCOD8117863
_publ_section_title
;
Structure prediction by ZEFSAII (Michael W. Deem and Ramdas Pophale) SiO2 
 PCOD8117863
Probable space group: P 2/C
;
_chemical_formula_sum "Si O2"
_cell_formula_units_Z 18
_cell_length_a 19.453232
_cell_length_b 10.865989
_cell_length_c 8.784123
_cell_angle_alpha 90.000000
_cell_angle_beta 150.020087
_cell_angle_gamma 90.000000
_cell_volume 927.824031
_symmetry_space_group_name_H-M "P 2/C"
_symmetry_group_IT_number 13
_symmetry_cell_setting 'monoclinic'
loop_
_space_group_symop_operation_xyz
x,y,z
-x,y,1/2-z
-x,-y,-z
x,-y,1/2+z
loop_
_atom_site_type_symbol
_atom_site_label
_atom_site_fract_x
_atom_site_fract_y
_atom_site_fract_z
Si Si1 0.131295 0.344763 0.302172
Si Si2 0.500000 0.011281 0.250000
Si Si3 0.834937 0.408339 0.797242
Si Si4 0.456912 0.625380 0.841835
Si Si5 0.366143 0.159853 0.732143
O O1 0.192418 0.400501 0.575134
O O2 0.151601 0.445755 0.209133
O O3 0.210629 0.215817 0.421386
O O4 0.966920 0.326015 0.002938
O O5 0.605495 0.932130 0.351608
O O6 0.604464 0.093057 0.550681
O O7 0.706513 0.352781 0.459993
O O8 0.500000 0.629712 0.750000
O O9 0.500000 0.500000 0.000000
O O10 0.526629 0.729325 0.077397
#
# Coordination Sequence:
#
# PCOD8117863 Si02
#       5
#     4   2   4   4   4
#     4  10  20  34  58  80 126 154 184 230 305 358
#     4  10  24  38  62  80 116 160 222 240 278 330
#     4  10  19  34  53  90 120 153 177 233 308 377
#     4  12  21  33  58  91 122 147 187 245 309 357
#     4  11  21  40  58  85 112 161 198 252 286 345
#
# _framework density 19.400230000000001
#
# number of rings (size 3 to 8) (size 9 to 14) (size 15 to 20)
#    0.000    1.333    5.556    0.000    1.556    1.778 
#    0.000    0.000    0.000   24.000    0.000    0.000 
#    0.000    0.000    0.000    0.000    0.000    0.000 
#
# Total GULP energy -223143.637775 kJ/mol
# GULP energy per Si atom -12396.868765 kJ/mol
# Density = 1.935607 g / cm^3
# Si number density = 19.400230 Si / 1000 Ang^3
#
#
#
# Elastic Constant Matrix: (Units=GPa)
#
#
# Indices 1 2 3 4 5 6 
#
# 1 63.5632 39.6537 28.4675 0.0000 4.6731 0.0000
# 2 39.6537 111.9386 44.4304 0.0000 7.3314 0.0000
# 3 28.4675 44.4304 121.8446 0.0000 30.9405 0.0000
# 4 0.0000 0.0000 0.0000 38.8935 0.0000 4.8374
# 5 4.6731 7.3314 30.9405 0.0000 30.7308 0.0000
# 6 0.0000 0.0000 0.0000 4.8374 0.0000 30.9948
#
#
#
# Elastic Compliance Matrix: (Units=1/GPa)
#
#
# Indices 1 2 3 4 5 6 
#
# 1 0.020885 -0.006335 -0.002884 0.000000 0.001239 0.000000
# 2 -0.006335 0.012442 -0.003423 0.000000 0.001441 0.000000
# 3 -0.002884 -0.003423 0.013180 0.000000 -0.012015 0.000000
# 4 0.000000 0.000000 0.000000 0.026220 0.000000 -0.004092
# 5 0.001239 0.001441 -0.012015 0.000000 0.044105 0.000000
# 6 0.000000 0.000000 0.000000 -0.004092 0.000000 0.032902
#
#
# Mechanical properties :
#
#
# Convention : Reuss Voigt Hill
#
# Bulk Modulus (GPa) = 47.11827 58.04995 52.58411
# Shear Modulus (GPa) = 27.45857 32.44346 29.95102
#
# Velocity S-wave (km/s) = 3.76623 4.09384 3.93345
# Velocity P-wave (km/s) = 6.57669 7.23418 6.91325
#
# Compressibility (1/GPa) = 0.02122319
#
# Stress axis : x y z
#
# Youngs Moduli (GPa) = 47.88141 80.37496 75.87152
#
# Poissons Ratio (x) = 0.50915 0.21884
# Poissons Ratio (y) = 0.30332 0.25969
# Poissons Ratio (z) = 0.13810 0.27511
#
# Static dielectric constant tensor:
#      x y z
#    x 3.993240 0.000000 0.241100 
#    y 0.000000 3.147700 0.000000 
#    z 0.241100 0.000000 3.956940 
# 
# 
# High freq. dielectric constant tensor:
#      x y z
#    x 1.755140 0.000000 0.000950 
#    y 0.000000 1.734490 0.000000 
#    z 0.000950 0.000000 1.763420 
# 
# From -- ./inp_files/15381.got.cif
#   From: 2010.06.25/outbox.cif.g09.slc.cpg/sg13_8_cif.got.tgz:15381.got - 2010.06.28 04:50:58.
