data_PCOD8117389
_publ_section_title
;
Structure prediction by ZEFSAII (Michael W. Deem and Ramdas Pophale) SiO2 
 PCOD8117389
Probable space group: P 2/C
;
_chemical_formula_sum "Si O2"
_cell_formula_units_Z 24
_cell_length_a 11.502883
_cell_length_b 10.211144
_cell_length_c 13.869352
_cell_angle_alpha 90.000000
_cell_angle_beta 129.920887
_cell_angle_gamma 90.000000
_cell_volume 1249.377599
_symmetry_space_group_name_H-M "P 2/C"
_symmetry_group_IT_number 13
_symmetry_cell_setting 'monoclinic'
loop_
_space_group_symop_operation_xyz
x,y,z
-x,y,1/2-z
-x,-y,-z
x,-y,1/2+z
loop_
_atom_site_type_symbol
_atom_site_label
_atom_site_fract_x
_atom_site_fract_y
_atom_site_fract_z
Si Si1 0.311155 0.879258 0.458476
Si Si2 0.674103 0.640875 0.550522
Si Si3 0.314326 0.625058 0.352813
Si Si4 0.679849 0.272237 0.846952
Si Si5 0.824916 0.011212 0.428826
Si Si6 0.655100 0.885558 0.665597
O O1 0.249558 0.741124 0.385347
O O2 0.477712 0.864505 0.594265
O O3 0.192997 0.930939 0.473847
O O4 0.319651 0.976583 0.373022
O O5 0.494535 0.629245 0.453798
O O6 0.747820 0.512859 0.639591
O O7 0.734311 0.653942 0.472961
O O8 0.722365 0.768706 0.636302
O O9 0.263027 0.643530 0.214374
O O10 0.500000 0.254292 0.750000
O O11 0.747936 0.128748 0.879452
O O12 0.746313 0.112902 0.313825
O O13 0.000000 0.000000 0.500000
#
# Coordination Sequence:
#
# PCOD8117389 Si02
#       6
#     4   4   4   4   4   4
#     4  10  19  35  59  84 108 142 189 233 278 328
#     4   9  18  32  56  88 114 141 181 234 286 332
#     4   9  18  32  56  88 114 141 181 234 286 332
#     4  10  18  35  58  81 114 148 185 231 288 332
#     4  12  24  35  54  84 116 150 192 232 277 333
#     4  10  19  35  59  84 108 142 189 233 278 328
#
# _framework density 19.209565000000001
#
# number of rings (size 3 to 8) (size 9 to 14) (size 15 to 20)
#    0.000    2.000    3.333    1.500    0.000    2.000 
#    0.000    5.000    0.000    6.000    0.000    0.000 
#    0.000    0.000    0.000    0.000    0.000    0.000 
#
# Total GULP energy -297626.262039 kJ/mol
# GULP energy per Si atom -12401.094252 kJ/mol
# Density = 1.916584 g / cm^3
# Si number density = 19.209565 Si / 1000 Ang^3
#
#
#
# Elastic Constant Matrix: (Units=GPa)
#
#
# Indices 1 2 3 4 5 6 
#
# 1 85.4834 25.9005 37.8936 0.0000 -19.7844 0.0000
# 2 25.9005 133.4965 37.1337 0.0000 -20.2017 0.0000
# 3 37.8936 37.1337 61.6957 0.0000 -28.1391 0.0000
# 4 0.0000 0.0000 0.0000 23.1046 0.0000 -15.0812
# 5 -19.7844 -20.2017 -28.1391 0.0000 26.8945 0.0000
# 6 0.0000 0.0000 0.0000 -15.0812 0.0000 18.2508
#
#
#
# Elastic Compliance Matrix: (Units=1/GPa)
#
#
# Indices 1 2 3 4 5 6 
#
# 1 0.016206 -0.000369 -0.008456 0.000000 0.002797 0.000000
# 2 -0.000369 0.009067 -0.004301 0.000000 0.002040 0.000000
# 3 -0.008456 -0.004301 0.037644 0.000000 0.029935 0.000000
# 4 0.000000 0.000000 0.000000 0.093962 0.000000 0.077643
# 5 0.002797 0.002040 0.029935 0.000000 0.072093 0.000000
# 6 0.000000 0.000000 0.000000 0.077643 0.000000 0.118951
#
#
# Mechanical properties :
#
#
# Convention : Reuss Voigt Hill
#
# Bulk Modulus (GPa) = 27.27259 53.61457 40.44358
# Shear Modulus (GPa) = 12.94011 25.63317 19.28664
#
# Velocity S-wave (km/s) = 2.59825 3.65690 3.17205
# Velocity P-wave (km/s) = 4.81969 6.76768 5.87499
#
# Compressibility (1/GPa) = 0.03666685
#
# Stress axis : x y z
#
# Youngs Moduli (GPa) = 61.70696 110.28586 26.56470
#
# Poissons Ratio (x) = 0.04067 0.22462
# Poissons Ratio (y) = 0.02276 0.11424
# Poissons Ratio (z) = 0.52178 0.47429
#
# Static dielectric constant tensor:
#      x y z
#    x 3.316220 0.000000 -0.331540 
#    y 0.000000 3.688740 0.000000 
#    z -0.331540 0.000000 3.536060 
# 
# 
# High freq. dielectric constant tensor:
#      x y z
#    x 1.718510 0.000000 -0.033610 
#    y 0.000000 1.748340 0.000000 
#    z -0.033610 0.000000 1.737250 
# 
# From -- ./inp_files/33961.got.cif
#   From: 2010.06.25/outbox.cif.g09.slc.cpg/sg13_17_cif.got.tgz:33961.got - 2010.06.28 04:50:58.
