data_PCOD8117059
_publ_section_title
;
Structure prediction by ZEFSAII (Michael W. Deem and Ramdas Pophale) SiO2 
 PCOD8117059
Probable space group: P 2/C
;
_chemical_formula_sum "Si O2"
_cell_formula_units_Z 22
_cell_length_a 20.608861
_cell_length_b 8.939287
_cell_length_c 20.602355
_cell_angle_alpha 90.000000
_cell_angle_beta 160.881100
_cell_angle_gamma 90.000000
_cell_volume 1243.152126
_symmetry_space_group_name_H-M "P 2/C"
_symmetry_group_IT_number 13
_symmetry_cell_setting 'monoclinic'
loop_
_space_group_symop_operation_xyz
x,y,z
-x,y,1/2-z
-x,-y,-z
x,-y,1/2+z
loop_
_atom_site_type_symbol
_atom_site_label
_atom_site_fract_x
_atom_site_fract_y
_atom_site_fract_z
Si Si1 0.687498 0.659607 0.128337
Si Si2 0.500000 0.399897 0.750000
Si Si3 0.851116 0.536352 0.160178
Si Si4 0.064981 0.832518 0.050228
Si Si5 0.745143 0.409672 0.286080
Si Si6 0.156832 0.342582 0.516449
O O1 0.815892 0.654888 0.184089
O O2 0.738842 0.802941 0.221326
O O3 0.732099 0.504774 0.207902
O O4 0.458987 0.675244 0.893709
O O5 0.360917 0.499490 0.572055
O O6 0.349240 0.304028 0.653219
O O7 0.000000 0.615997 0.250000
O O8 0.964271 0.384550 0.291433
O O9 0.108511 0.801869 0.015276
O O10 0.909151 0.715520 0.931677
O O11 0.000000 0.000000 0.000000
O O12 0.794918 0.513935 0.393740
#
# Coordination Sequence:
#
# PCOD8117059 Si02
#       6
#     4   2   4   4   4   4
#     4  10  18  33  55  78 105 137 171 232 268 306
#     4  10  20  30  54  88 100 132 180 234 266 312
#     4  10  18  30  53  82 105 132 171 224 273 312
#     4  11  22  34  53  80 113 147 177 213 266 328
#     4  10  18  32  56  79 104 132 179 225 273 308
#     4  10  18  34  55  81 107 133 179 227 270 313
#
# _framework density 17.696949
#
# number of rings (size 3 to 8) (size 9 to 14) (size 15 to 20)
#    0.000    1.818    5.455    1.091    0.000    0.727 
#    0.000    0.000    0.000    6.545    0.000    0.000 
#    0.000    0.000    0.000    0.000    0.000    0.000 
#
# Total GULP energy -272676.301351 kJ/mol
# GULP energy per Si atom -12394.377334 kJ/mol
# Density = 1.765667 g / cm^3
# Si number density = 17.696949 Si / 1000 Ang^3
#
#
#
# Elastic Constant Matrix: (Units=GPa)
#
#
# Indices 1 2 3 4 5 6 
#
# 1 124.4193 20.7145 22.2893 0.0000 12.1409 0.0000
# 2 20.7145 62.0315 13.7121 0.0000 7.3190 0.0000
# 3 22.2893 13.7121 100.2548 0.0000 -0.8384 0.0000
# 4 0.0000 0.0000 0.0000 10.7926 0.0000 1.7900
# 5 12.1409 7.3190 -0.8384 0.0000 30.4864 0.0000
# 6 0.0000 0.0000 0.0000 1.7900 0.0000 15.8819
#
#
#
# Elastic Compliance Matrix: (Units=1/GPa)
#
#
# Indices 1 2 3 4 5 6 
#
# 1 0.009026 -0.002268 -0.001722 0.000000 -0.003097 0.000000
# 2 -0.002268 0.017710 -0.001946 0.000000 -0.003402 0.000000
# 3 -0.001722 -0.001946 0.010636 0.000000 0.001446 0.000000
# 4 0.000000 0.000000 0.000000 0.094421 0.000000 -0.010642
# 5 -0.003097 -0.003402 0.001446 0.000000 0.034891 0.000000
# 6 0.000000 0.000000 0.000000 -0.010642 0.000000 0.064164
#
#
# Mechanical properties :
#
#
# Convention : Reuss Voigt Hill
#
# Bulk Modulus (GPa) = 39.21874 44.45971 41.83922
# Shear Modulus (GPa) = 19.90283 26.76483 23.33383
#
# Velocity S-wave (km/s) = 3.35721 3.89318 3.63509
# Velocity P-wave (km/s) = 6.10223 6.73695 6.42743
#
# Compressibility (1/GPa) = 0.02549801
#
# Stress axis : x y z
#
# Youngs Moduli (GPa) = 110.79464 56.46588 94.02182
#
# Poissons Ratio (x) = 0.12805 0.16194
# Poissons Ratio (y) = 0.25126 0.18301
# Poissons Ratio (z) = 0.19083 0.10991
#
# Static dielectric constant tensor:
#      x y z
#    x 3.647150 0.000000 0.019030 
#    y 0.000000 2.685810 0.000000 
#    z 0.019030 0.000000 3.758120 
# 
# 
# High freq. dielectric constant tensor:
#      x y z
#    x 1.705880 0.000000 0.002930 
#    y 0.000000 1.606230 0.000000 
#    z 0.002930 0.000000 1.709600 
# 
# From -- ./inp_files/81496.got.cif
#   From: 2010.06.25/outbox.cif.g09.slc.cpg/sg13_41_cif.got.tgz:81496.got - 2010.06.28 04:50:58.
