data_PCOD8117207
_publ_section_title
;
Structure prediction by ZEFSAII (Michael W. Deem and Ramdas Pophale) SiO2 
 PCOD8117207
Probable space group: P 2/C
;
_chemical_formula_sum "Si O2"
_cell_formula_units_Z 28
_cell_length_a 14.360706
_cell_length_b 6.042964
_cell_length_c 20.635992
_cell_angle_alpha 90.000000
_cell_angle_beta 126.131469
_cell_angle_gamma 90.000000
_cell_volume 1446.382080
_symmetry_space_group_name_H-M "P 2/C"
_symmetry_group_IT_number 13
_symmetry_cell_setting 'monoclinic'
loop_
_space_group_symop_operation_xyz
x,y,z
-x,y,1/2-z
-x,-y,-z
x,-y,1/2+z
loop_
_atom_site_type_symbol
_atom_site_label
_atom_site_fract_x
_atom_site_fract_y
_atom_site_fract_z
Si Si1 0.839387 0.557246 0.260286
Si Si2 0.380892 0.395647 0.137665
Si Si3 0.000000 0.162435 0.750000
Si Si4 0.145245 0.537131 0.999453
Si Si5 0.992651 0.828018 0.859797
Si Si6 0.055005 0.788311 0.074277
Si Si7 0.609244 0.379293 0.725629
Si Si8 0.500000 0.991274 0.750000
O O1 0.890548 0.675268 0.217125
O O2 0.880912 0.301791 0.285377
O O3 0.885960 0.698751 0.337995
O O4 0.700744 0.586352 0.204904
O O5 0.346444 0.479850 0.194975
O O6 0.486433 0.531792 0.149927
O O7 0.422279 0.144603 0.166389
O O8 0.273115 0.433445 0.044972
O O9 0.966413 0.010766 0.674847
O O10 0.095991 0.649316 0.913062
O O11 0.066200 0.332499 0.988998
O O12 0.142492 0.734910 0.051653
O O13 0.964647 0.948129 0.918518
O O14 0.589440 0.129810 0.742460
#
# Coordination Sequence:
#
# PCOD8117207 Si02
#       8
#     4   4   2   4   4   4   4   2
#     4  10  19  36  53  76 111 132 184 232 260 320
#     4   9  18  30  49  76 109 145 177 213 258 313
#     4  10  22  36  54  80  98 140 184 230 280 318
#     4  10  18  33  48  80 116 138 176 221 258 334
#     4  10  21  35  55  77 103 147 178 220 281 319
#     4   9  19  30  49  80 108 146 173 208 276 325
#     4   9  18  33  49  76 106 146 178 219 256 312
#     4   8  18  32  48  74 106 148 184 200 266 324
#
# _framework density 19.358644999999999
#
# number of rings (size 3 to 8) (size 9 to 14) (size 15 to 20)
#    0.000    2.857    1.429    0.857    0.000    6.857 
#    0.000    0.000    0.000    0.857    0.000   15.000 
#    0.000    0.000    0.000    0.000    0.000    0.000 
#
# Total GULP energy -346897.535082 kJ/mol
# GULP energy per Si atom -12389.197682 kJ/mol
# Density = 1.931458 g / cm^3
# Si number density = 19.358645 Si / 1000 Ang^3
#
#
#
# Elastic Constant Matrix: (Units=GPa)
#
#
# Indices 1 2 3 4 5 6 
#
# 1 123.6159 40.6717 28.9291 0.0000 20.0328 0.0000
# 2 40.6717 111.1670 21.0806 0.0000 3.3979 0.0000
# 3 28.9291 21.0806 51.1855 0.0000 20.1588 0.0000
# 4 0.0000 0.0000 0.0000 23.8261 0.0000 -3.6455
# 5 20.0328 3.3979 20.1588 0.0000 25.6373 0.0000
# 6 0.0000 0.0000 0.0000 -3.6455 0.0000 20.3638
#
#
#
# Elastic Compliance Matrix: (Units=1/GPa)
#
#
# Indices 1 2 3 4 5 6 
#
# 1 0.010701 -0.003296 -0.002273 0.000000 -0.006137 0.000000
# 2 -0.003296 0.010904 -0.004452 0.000000 0.004631 0.000000
# 3 -0.002273 -0.004452 0.031468 0.000000 -0.022377 0.000000
# 4 0.000000 0.000000 0.000000 0.043153 0.000000 0.007725
# 5 -0.006137 0.004631 -0.022377 0.000000 0.060783 0.000000
# 6 0.000000 0.000000 0.000000 0.007725 0.000000 0.050490
#
#
# Mechanical properties :
#
#
# Convention : Reuss Voigt Hill
#
# Bulk Modulus (GPa) = 30.27511 51.92568 41.10040
# Shear Modulus (GPa) = 20.95994 26.98457 23.97226
#
# Velocity S-wave (km/s) = 3.29404 3.73759 3.52280
# Velocity P-wave (km/s) = 5.49004 6.74591 6.15012
#
# Compressibility (1/GPa) = 0.03303043
#
# Stress axis : x y z
#
# Youngs Moduli (GPa) = 93.45219 91.70883 31.77838
#
# Poissons Ratio (x) = 0.30230 0.07224
# Poissons Ratio (y) = 0.30805 0.14146
# Poissons Ratio (z) = 0.21244 0.40825
#
# Static dielectric constant tensor:
#      x y z
#    x 3.714630 0.000000 0.097790 
#    y 0.000000 3.904210 0.000000 
#    z 0.097790 0.000000 3.268070 
# 
# 
# High freq. dielectric constant tensor:
#      x y z
#    x 1.723460 0.000000 0.015620 
#    y 0.000000 1.770290 0.000000 
#    z 0.015620 0.000000 1.718050 
# 
# From -- ./inp_files/79300.got.cif
#   From: 2010.06.25/outbox.cif.g09.slc.cpg/sg13_40_cif.got.tgz:79300.got - 2010.06.28 04:50:58.
