data_PCOD8117122
_publ_section_title
;
Structure prediction by ZEFSAII (Michael W. Deem and Ramdas Pophale) SiO2 
 PCOD8117122
Probable space group: P 2/C
;
_chemical_formula_sum "Si O2"
_cell_formula_units_Z 20
_cell_length_a 24.603116
_cell_length_b 7.466004
_cell_length_c 5.293151
_cell_angle_alpha 90.000000
_cell_angle_beta 78.335716
_cell_angle_gamma 90.000000
_cell_volume 952.204246
_symmetry_space_group_name_H-M "P 2/C"
_symmetry_group_IT_number 13
_symmetry_cell_setting 'monoclinic'
loop_
_space_group_symop_operation_xyz
x,y,z
-x,y,1/2-z
-x,-y,-z
x,-y,1/2+z
loop_
_atom_site_type_symbol
_atom_site_label
_atom_site_fract_x
_atom_site_fract_y
_atom_site_fract_z
Si Si1 0.000000 0.615569 0.750000
Si Si2 0.722770 0.885640 0.541189
Si Si3 0.877923 0.708079 0.847858
Si Si4 0.831179 0.697644 0.392081
Si Si5 0.597613 0.888189 0.625813
Si Si6 0.500000 0.614991 0.750000
O O1 0.055853 0.731262 0.696691
O O2 0.000000 0.500000 0.500000
O O3 0.764388 0.715784 0.474321
O O4 0.660115 0.811173 0.585720
O O5 0.733342 0.023850 0.302937
O O6 0.857992 0.800656 0.607430
O O7 0.854181 0.504255 0.856645
O O8 0.851445 0.800609 0.119596
O O9 0.555730 0.728376 0.704786
O O10 0.587019 0.969320 0.358551
O O11 0.500000 0.500000 0.500000
#
# Coordination Sequence:
#
# PCOD8117122 Si02
#       6
#     2   4   4   4   4   2
#     4  12  16  30  48  74 106 130 178 216 260 338
#     4  10  21  37  57  79 104 144 194 226 256 318
#     4  10  19  30  50  79 103 134 170 215 283 335
#     4  10  18  32  47  76 106 130 170 216 272 322
#     4  10  21  41  65  85 113 165 211 233 275 357
#     4  12  24  40  60  96 130 148 192 252 314 332
#
# _framework density 21.003896999999998
#
# number of rings (size 3 to 8) (size 9 to 14) (size 15 to 20)
#    0.000    1.600    4.000    3.000    0.000    0.000 
#    7.200    0.000    0.000    0.000    0.000   23.800 
#    0.000    0.000    0.000    0.000    0.000    0.000 
#
# Total GULP energy -247844.155244 kJ/mol
# GULP energy per Si atom -12392.207762 kJ/mol
# Density = 2.095609 g / cm^3
# Si number density = 21.003897 Si / 1000 Ang^3
#
#
#
# Elastic Constant Matrix: (Units=GPa)
#
#
# Indices 1 2 3 4 5 6 
#
# 1 157.4230 40.4109 41.0429 0.0000 -27.5847 0.0000
# 2 40.4109 31.3681 3.4654 0.0000 -14.3911 0.0000
# 3 41.0429 3.4654 183.9881 0.0000 5.9279 0.0000
# 4 0.0000 0.0000 0.0000 18.4794 0.0000 -9.8112
# 5 -27.5847 -14.3911 5.9279 0.0000 42.3986 0.0000
# 6 0.0000 0.0000 0.0000 -9.8112 0.0000 31.5083
#
#
#
# Elastic Compliance Matrix: (Units=1/GPa)
#
#
# Indices 1 2 3 4 5 6 
#
# 1 0.010533 -0.011887 -0.002226 0.000000 0.003129 0.000000
# 2 -0.011887 0.051411 0.001377 0.000000 0.009524 0.000000
# 3 -0.002226 0.001377 0.005964 0.000000 -0.001815 0.000000
# 4 0.000000 0.000000 0.000000 0.064833 0.000000 0.020188
# 5 0.003129 0.009524 -0.001815 0.000000 0.029108 0.000000
# 6 0.000000 0.000000 0.000000 0.020188 0.000000 0.038024
#
#
# Mechanical properties :
#
#
# Convention : Reuss Voigt Hill
#
# Bulk Modulus (GPa) = 23.56633 60.29084 41.92859
# Shear Modulus (GPa) = 20.87757 37.66792 29.27274
#
# Velocity S-wave (km/s) = 3.15617 4.23942 3.73725
# Velocity P-wave (km/s) = 4.95240 7.26158 6.21517
#
# Compressibility (1/GPa) = 0.04243342
#
# Stress axis : x y z
#
# Youngs Moduli (GPa) = 94.94322 19.45105 167.66277
#
# Poissons Ratio (x) = 0.23122 0.37329
# Poissons Ratio (y) = 1.12864 -0.23081
# Poissons Ratio (z) = 0.21139 -0.02678
#
# Static dielectric constant tensor:
#      x y z
#    x 4.355610 0.000000 0.268900 
#    y 0.000000 3.111830 0.000000 
#    z 0.268900 0.000000 5.505950 
# 
# 
# High freq. dielectric constant tensor:
#      x y z
#    x 1.841620 0.000000 0.003340 
#    y 0.000000 1.759820 0.000000 
#    z 0.003340 0.000000 1.868890 
# 
# From -- ./inp_files/6685.got.cif
#   From: 2010.06.25/outbox.cif.g09.slc.cpg/sg13_4_cif.got.tgz:6685.got - 2010.06.28 04:50:58.
