data_PCOD8117566
_publ_section_title
;
Structure prediction by ZEFSAII (Michael W. Deem and Ramdas Pophale) SiO2 
 PCOD8117566
Probable space group: P 2/C
;
_chemical_formula_sum "Si O2"
_cell_formula_units_Z 30
_cell_length_a 11.368734
_cell_length_b 7.657643
_cell_length_c 27.903770
_cell_angle_alpha 90.000000
_cell_angle_beta 31.333754
_cell_angle_gamma 90.000000
_cell_volume 1263.258284
_symmetry_space_group_name_H-M "P 2/C"
_symmetry_group_IT_number 13
_symmetry_cell_setting 'monoclinic'
loop_
_space_group_symop_operation_xyz
x,y,z
-x,y,1/2-z
-x,-y,-z
x,-y,1/2+z
loop_
_atom_site_type_symbol
_atom_site_label
_atom_site_fract_x
_atom_site_fract_y
_atom_site_fract_z
Si Si1 0.500000 0.748864 0.750000
Si Si2 0.523807 0.789255 0.491870
Si Si3 0.048280 0.968110 0.927853
Si Si4 0.233261 0.631995 0.674116
Si Si5 0.007995 0.767396 0.365400
Si Si6 0.404403 0.208769 0.929789
Si Si7 0.591406 0.469247 0.798896
Si Si8 0.828231 0.996511 0.770763
O O1 0.285933 0.874584 0.832583
O O2 0.503318 0.619788 0.794788
O O3 0.328591 0.704366 0.591574
O O4 0.489931 0.703592 0.450646
O O5 0.758539 0.723425 0.433247
O O6 0.500000 0.000000 0.500000
O O7 0.023488 0.163358 0.914430
O O8 0.853995 0.845362 0.973273
O O9 0.000000 0.000000 0.000000
O O10 0.407111 0.528793 0.646110
O O11 0.000000 0.519444 0.750000
O O12 0.147166 0.790248 0.738224
O O13 0.166950 0.597462 0.304695
O O14 0.104731 0.933932 0.304029
O O15 0.423058 0.308985 0.871141
O O16 0.565598 0.039202 0.871662
O O17 0.000000 0.083329 0.750000
#
# Coordination Sequence:
#
# PCOD8117566 Si02
#       8
#     2   4   4   4   4   4   4   4
#     4  12  32  54  76 102 152 204 260 314 382 428
#     4  12  21  41  75 112 144 184 244 305 368 448
#     4  12  30  50  82 106 137 198 270 317 350 440
#     4  11  24  39  64 101 152 191 237 292 380 440
#     4  11  24  44  76 105 145 185 247 303 382 442
#     4  11  25  45  73 112 145 192 248 305 374 443
#     4  11  30  47  71 105 158 196 238 308 382 456
#     4  10  18  38  71 104 146 188 241 293 358 449
#
# _framework density 23.748111999999999
#
# number of rings (size 3 to 8) (size 9 to 14) (size 15 to 20)
#    0.000    0.800    4.000    1.600   13.067    2.133 
#    0.000    0.000    0.000    0.000    0.000    0.000 
#    0.000    0.000    0.000    0.000    0.000    0.000 
#
# Total GULP energy -371660.426767 kJ/mol
# GULP energy per Si atom -12388.680892 kJ/mol
# Density = 2.369406 g / cm^3
# Si number density = 23.748112 Si / 1000 Ang^3
#
#
#
# Elastic Constant Matrix: (Units=GPa)
#
#
# Indices 1 2 3 4 5 6 
#
# 1 125.6532 23.9207 46.4646 0.0000 7.0239 0.0000
# 2 23.9207 42.0920 20.5954 0.0000 -1.8855 0.0000
# 3 46.4646 20.5954 134.5027 0.0000 -16.6670 0.0000
# 4 0.0000 0.0000 0.0000 25.3115 0.0000 10.7595
# 5 7.0239 -1.8855 -16.6670 0.0000 50.9680 0.0000
# 6 0.0000 0.0000 0.0000 10.7595 0.0000 35.8842
#
#
#
# Elastic Compliance Matrix: (Units=1/GPa)
#
#
# Indices 1 2 3 4 5 6 
#
# 1 0.010085 -0.004309 -0.003144 0.000000 -0.002577 0.000000
# 2 -0.004309 0.027528 -0.002634 0.000000 0.000751 0.000000
# 3 -0.003144 -0.002634 0.009344 0.000000 0.003391 0.000000
# 4 0.000000 0.000000 0.000000 0.045279 0.000000 -0.013576
# 5 -0.002577 0.000751 0.003391 0.000000 0.021112 0.000000
# 6 0.000000 0.000000 0.000000 -0.013576 0.000000 0.031938
#
#
# Mechanical properties :
#
#
# Convention : Reuss Voigt Hill
#
# Bulk Modulus (GPa) = 37.33302 53.80104 45.56703
# Shear Modulus (GPa) = 28.67177 36.51722 32.59449
#
# Velocity S-wave (km/s) = 3.47843 3.92559 3.70876
# Velocity P-wave (km/s) = 5.64688 6.57656 6.12937
#
# Compressibility (1/GPa) = 0.02678594
#
# Stress axis : x y z
#
# Youngs Moduli (GPa) = 99.15556 36.32611 107.01725
#
# Poissons Ratio (x) = 0.15652 0.33642
# Poissons Ratio (y) = 0.42723 0.28185
# Poissons Ratio (z) = 0.31170 0.09567
#
# Static dielectric constant tensor:
#      x y z
#    x 4.489410 0.000000 -0.070650 
#    y 0.000000 4.124830 0.000000 
#    z -0.070650 0.000000 4.537380 
# 
# 
# High freq. dielectric constant tensor:
#      x y z
#    x 1.941150 0.000000 0.007420 
#    y 0.000000 1.928690 0.000000 
#    z 0.007420 0.000000 1.955880 
# 
# From -- ./inp_files/96599.got.cif
#   From: 2010.06.25/outbox.cif.g09.slc.cpg/sg13_49_cif.got.tgz:96599.got - 2010.06.28 04:50:58.
