data_PCOD8117498
_publ_section_title
;
Structure prediction by ZEFSAII (Michael W. Deem and Ramdas Pophale) SiO2 
 PCOD8117498
Probable space group: P 2/C
;
_chemical_formula_sum "Si O2"
_cell_formula_units_Z 32
_cell_length_a 9.066824
_cell_length_b 11.953811
_cell_length_c 31.445719
_cell_angle_alpha 90.000000
_cell_angle_beta 28.580367
_cell_angle_gamma 90.000000
_cell_volume 1630.444733
_symmetry_space_group_name_H-M "P 2/C"
_symmetry_group_IT_number 13
_symmetry_cell_setting 'monoclinic'
loop_
_space_group_symop_operation_xyz
x,y,z
-x,y,1/2-z
-x,-y,-z
x,-y,1/2+z
loop_
_atom_site_type_symbol
_atom_site_label
_atom_site_fract_x
_atom_site_fract_y
_atom_site_fract_z
Si Si1 0.724521 0.987775 0.402914
Si Si2 0.122185 0.994433 0.016319
Si Si3 0.866333 0.597841 0.657362
Si Si4 0.187825 0.226273 0.878484
Si Si5 0.125171 0.465220 0.763515
Si Si6 0.865192 0.853884 0.653734
Si Si7 0.854343 0.540024 0.079951
Si Si8 0.125736 0.769563 0.297967
O O1 0.877781 0.867436 0.357103
O O2 0.500000 0.000000 0.500000
O O3 0.497531 0.004149 0.419993
O O4 0.989094 0.081005 0.342445
O O5 0.029821 0.879466 0.061972
O O6 0.981026 0.095792 0.079615
O O7 0.000000 0.000000 0.000000
O O8 0.500000 0.591064 0.750000
O O9 0.002719 0.544194 0.666199
O O10 0.976822 0.726054 0.626923
O O11 0.994156 0.530714 0.583993
O O12 0.062917 0.328839 0.938025
O O13 0.535922 0.190875 0.803696
O O14 0.169493 0.270572 0.835102
O O15 0.490306 0.474133 0.670833
O O16 0.012445 0.337610 0.799791
O O17 0.000000 0.508357 0.750000
O O18 0.500000 0.866885 0.750000
O O19 0.000000 0.500000 0.000000
#
# Coordination Sequence:
#
# PCOD8117498 Si02
#       8
#     4   4   4   4   4   4   4   4
#     4  10  20  36  57  86 120 151 193 247 295 352
#     4  11  24  38  56  88 125 151 194 257 304 348
#     4   9  19  38  61  83 117 160 194 238 301 366
#     4  10  19  36  63  86 116 162 201 243 301 371
#     4  10  21  40  60  90 119 153 206 254 298 363
#     4  10  20  39  62  82 112 165 202 231 295 377
#     4  10  21  38  60  89 120 156 201 252 303 359
#     4  10  18  36  65  85 112 159 207 243 298 364
#
# _framework density 19.626546999999999
#
# number of rings (size 3 to 8) (size 9 to 14) (size 15 to 20)
#    0.000    2.000    3.750    0.750    1.750    2.000 
#    4.500    2.500    0.000    0.000    0.000    0.000 
#    0.000    0.000    0.000    0.000    0.000    0.000 
#
# Total GULP energy -396694.590093 kJ/mol
# GULP energy per Si atom -12396.705940 kJ/mol
# Density = 1.958188 g / cm^3
# Si number density = 19.626547 Si / 1000 Ang^3
#
#
#
# Elastic Constant Matrix: (Units=GPa)
#
#
# Indices 1 2 3 4 5 6 
#
# 1 138.3493 61.4551 34.0066 0.0000 7.5090 0.0000
# 2 61.4551 154.7824 62.3191 0.0000 4.3950 0.0000
# 3 34.0066 62.3191 69.0759 0.0000 3.8273 0.0000
# 4 0.0000 0.0000 0.0000 27.6634 0.0000 4.5023
# 5 7.5090 4.3950 3.8273 0.0000 34.8960 0.0000
# 6 0.0000 0.0000 0.0000 4.5023 0.0000 19.8850
#
#
#
# Elastic Compliance Matrix: (Units=1/GPa)
#
#
# Indices 1 2 3 4 5 6 
#
# 1 0.008995 -0.002795 -0.001830 0.000000 -0.001383 0.000000
# 2 -0.002795 0.011018 -0.008572 0.000000 0.000154 0.000000
# 3 -0.001830 -0.008572 0.023170 0.000000 -0.001068 0.000000
# 4 0.000000 0.000000 0.000000 0.037532 0.000000 -0.008498
# 5 -0.001383 0.000154 -0.001068 0.000000 0.029052 0.000000
# 6 0.000000 0.000000 0.000000 -0.008498 0.000000 0.052213
#
#
# Mechanical properties :
#
#
# Convention : Reuss Voigt Hill
#
# Bulk Modulus (GPa) = 59.56538 75.30769 67.43653
# Shear Modulus (GPa) = 25.77720 30.11732 27.94726
#
# Velocity S-wave (km/s) = 3.62800 3.92154 3.77762
# Velocity P-wave (km/s) = 6.92568 7.67843 7.31175
#
# Compressibility (1/GPa) = 0.01678828
#
# Stress axis : x y z
#
# Youngs Moduli (GPa) = 111.17865 90.76435 43.15845
#
# Poissons Ratio (x) = 0.25371 0.07896
# Poissons Ratio (y) = 0.31078 0.36996
# Poissons Ratio (z) = 0.20341 0.77805
#
# Static dielectric constant tensor:
#      x y z
#    x 4.295800 0.000000 0.728880 
#    y 0.000000 3.662450 0.000000 
#    z 0.728880 0.000000 5.008530 
# 
# 
# High freq. dielectric constant tensor:
#      x y z
#    x 1.761720 0.000000 -0.002680 
#    y 0.000000 1.771610 0.000000 
#    z -0.002680 0.000000 1.746300 
# 
# From -- ./inp_files/96104.got.cif
#   From: 2010.06.25/outbox.cif.g09.slc.cpg/sg13_49_cif.got.tgz:96104.got - 2010.06.28 04:50:58.
