data_PCOD8117732
_publ_section_title
;
Structure prediction by ZEFSAII (Michael W. Deem and Ramdas Pophale) SiO2 
 PCOD8117732
Probable space group: P 2/C
;
_chemical_formula_sum "Si O2"
_cell_formula_units_Z 24
_cell_length_a 15.108063
_cell_length_b 9.405928
_cell_length_c 14.127198
_cell_angle_alpha 90.000000
_cell_angle_beta 37.727095
_cell_angle_gamma 90.000000
_cell_volume 1228.422411
_symmetry_space_group_name_H-M "P 2/C"
_symmetry_group_IT_number 13
_symmetry_cell_setting 'monoclinic'
loop_
_space_group_symop_operation_xyz
x,y,z
-x,y,1/2-z
-x,-y,-z
x,-y,1/2+z
loop_
_atom_site_type_symbol
_atom_site_label
_atom_site_fract_x
_atom_site_fract_y
_atom_site_fract_z
Si Si1 0.548195 0.393231 0.601096
Si Si2 0.839659 0.980316 0.525818
Si Si3 0.632349 0.344636 0.920405
Si Si4 0.326614 0.086670 0.011964
Si Si5 0.551801 0.150664 0.304086
Si Si6 0.148630 0.893876 0.289240
O O1 0.500000 0.416491 0.750000
O O2 0.404382 0.389275 0.656387
O O3 0.647718 0.522365 0.478578
O O4 0.644241 0.253048 0.507700
O O5 0.724461 0.862755 0.658250
O O6 0.990215 0.900771 0.375994
O O7 0.782358 0.058820 0.481991
O O8 0.864826 0.097999 0.585958
O O9 0.780638 0.255847 0.800828
O O10 0.497050 0.246512 0.067006
O O11 0.479757 0.006707 0.869698
O O12 0.248280 0.026551 0.171817
O O13 0.500000 0.224784 0.250000
#
# Coordination Sequence:
#
# PCOD8117732 Si02
#       6
#     4   4   4   4   4   4
#     4  11  21  34  55  80 109 143 184 225 266 318
#     4  10  19  32  56  82 107 139 177 223 270 320
#     4  10  21  35  54  81 110 142 180 224 270 318
#     4  10  19  33  55  79 106 139 181 225 267 315
#     4   9  17  32  55  80 103 135 181 225 266 315
#     4  10  20  34  54  81 111 139 176 221 272 323
#
# _framework density 19.537254000000001
#
# number of rings (size 3 to 8) (size 9 to 14) (size 15 to 20)
#    0.000    2.000    0.000    5.500    0.000    2.667 
#    0.000    0.000    0.000   34.000    0.000    0.000 
#    0.000    0.000    0.000    0.000    0.000    0.000 
#
# Total GULP energy -297577.997032 kJ/mol
# GULP energy per Si atom -12399.083210 kJ/mol
# Density = 1.949279 g / cm^3
# Si number density = 19.537254 Si / 1000 Ang^3
#
#
#
# Elastic Constant Matrix: (Units=GPa)
#
#
# Indices 1 2 3 4 5 6 
#
# 1 85.7308 41.8197 40.5154 0.0000 8.5629 0.0000
# 2 41.8197 132.4088 52.7493 0.0000 -2.8185 0.0000
# 3 40.5154 52.7493 103.7972 0.0000 -9.6442 0.0000
# 4 0.0000 0.0000 0.0000 15.7366 0.0000 -1.3151
# 5 8.5629 -2.8185 -9.6442 0.0000 41.5187 0.0000
# 6 0.0000 0.0000 0.0000 -1.3151 0.0000 19.6877
#
#
#
# Elastic Compliance Matrix: (Units=1/GPa)
#
#
# Indices 1 2 3 4 5 6 
#
# 1 0.016089 -0.003141 -0.005122 0.000000 -0.004721 0.000000
# 2 -0.003141 0.010092 -0.003862 0.000000 0.000436 0.000000
# 3 -0.005122 -0.003862 0.013972 0.000000 0.004040 0.000000
# 4 0.000000 0.000000 0.000000 0.063903 0.000000 0.004268
# 5 -0.004721 0.000436 0.004040 0.000000 0.026027 0.000000
# 6 0.000000 0.000000 0.000000 0.004268 0.000000 0.051078
#
#
# Mechanical properties :
#
#
# Convention : Reuss Voigt Hill
#
# Bulk Modulus (GPa) = 62.88788 65.78949 64.33868
# Shear Modulus (GPa) = 23.72885 27.84544 25.78714
#
# Velocity S-wave (km/s) = 3.48881 3.77934 3.63698
# Velocity P-wave (km/s) = 6.96331 7.26578 7.11615
#
# Compressibility (1/GPa) = 0.01590132
#
# Stress axis : x y z
#
# Youngs Moduli (GPa) = 62.15372 99.08371 71.57321
#
# Poissons Ratio (x) = 0.31126 0.36662
# Poissons Ratio (y) = 0.19525 0.27643
# Poissons Ratio (z) = 0.31837 0.38269
#
# Static dielectric constant tensor:
#      x y z
#    x 3.638390 0.000000 0.199180 
#    y 0.000000 3.379970 0.000000 
#    z 0.199180 0.000000 3.619970 
# 
# 
# High freq. dielectric constant tensor:
#      x y z
#    x 1.770550 0.000000 0.021520 
#    y 0.000000 1.735680 0.000000 
#    z 0.021520 0.000000 1.757890 
# 
# From -- ./inp_files/52880.got.cif
#   From: 2010.06.25/outbox.cif.g09.slc.cpg/sg13_27_cif.got.tgz:52880.got - 2010.06.28 04:50:58.
