data_PCOD8117666
_publ_section_title
;
Structure prediction by ZEFSAII (Michael W. Deem and Ramdas Pophale) SiO2 
 PCOD8117666
Probable space group: P 2/C
;
_chemical_formula_sum "Si O2"
_cell_formula_units_Z 26
_cell_length_a 5.081898
_cell_length_b 18.388009
_cell_length_c 14.400088
_cell_angle_alpha 90.000000
_cell_angle_beta 111.276524
_cell_angle_gamma 90.000000
_cell_volume 1253.912235
_symmetry_space_group_name_H-M "P 2/C"
_symmetry_group_IT_number 13
_symmetry_cell_setting 'monoclinic'
loop_
_space_group_symop_operation_xyz
x,y,z
-x,y,1/2-z
-x,-y,-z
x,-y,1/2+z
loop_
_atom_site_type_symbol
_atom_site_label
_atom_site_fract_x
_atom_site_fract_y
_atom_site_fract_z
Si Si1 0.253175 0.498872 0.836498
Si Si2 0.787814 0.163666 0.476421
Si Si3 0.274415 0.584259 0.016527
Si Si4 0.730352 0.327646 0.464686
Si Si5 0.186449 0.978573 0.438178
Si Si6 0.500000 0.622761 0.750000
Si Si7 0.164312 0.878607 0.857142
O O1 0.173758 0.519955 0.933113
O O2 0.291560 0.572309 0.782349
O O3 0.000000 0.456459 0.750000
O O4 0.539438 0.450622 0.875948
O O5 0.784309 0.246651 0.509069
O O6 0.837730 0.109906 0.573242
O O7 0.492899 0.141712 0.389914
O O8 0.042982 0.154722 0.436601
O O9 0.461888 0.642211 0.984723
O O10 0.001989 0.623294 0.024866
O O11 0.675867 0.327770 0.345874
O O12 0.500000 0.000000 0.500000
O O13 0.105699 0.033025 0.343771
O O14 0.000000 0.000000 0.500000
O O15 0.000000 0.842802 0.750000
#
# Coordination Sequence:
#
# PCOD8117666 Si02
#       7
#     4   4   4   4   4   2   4
#     4  10  20  37  57  80 104 143 184 233 280 323
#     4  10  20  34  52  73 113 148 170 213 273 330
#     4  10  23  36  57  78 111 139 188 224 274 336
#     4  11  22  37  50  83 112 147 175 223 278 347
#     4   8  16  31  49  71  99 139 179 207 246 302
#     4  10  22  32  56  78 112 138 178 224 292 324
#     4  10  19  31  51  81 105 137 184 224 258 309
#
# _framework density 20.735104
#
# number of rings (size 3 to 8) (size 9 to 14) (size 15 to 20)
#    0.000    2.154    1.538    1.385    4.308    1.846 
#    0.000    0.000    0.000    0.923    0.000    4.308 
#    0.000    0.000    0.000    0.000    0.000    0.000 
#
# Total GULP energy -322094.440067 kJ/mol
# GULP energy per Si atom -12388.247695 kJ/mol
# Density = 2.068791 g / cm^3
# Si number density = 20.735104 Si / 1000 Ang^3
#
#
#
# Elastic Constant Matrix: (Units=GPa)
#
#
# Indices 1 2 3 4 5 6 
#
# 1 73.2278 2.5776 8.5674 0.0000 14.5626 0.0000
# 2 2.5776 111.4802 14.8668 0.0000 11.3717 0.0000
# 3 8.5674 14.8668 56.2585 0.0000 21.2911 0.0000
# 4 0.0000 0.0000 0.0000 16.5071 0.0000 3.0141
# 5 14.5626 11.3717 21.2911 0.0000 25.6921 0.0000
# 6 0.0000 0.0000 0.0000 3.0141 0.0000 25.9364
#
#
#
# Elastic Compliance Matrix: (Units=1/GPa)
#
#
# Indices 1 2 3 4 5 6 
#
# 1 0.015492 0.000495 0.001335 0.000000 -0.010106 0.000000
# 2 0.000495 0.009478 -0.001291 0.000000 -0.003406 0.000000
# 3 0.001335 -0.001291 0.026200 0.000000 -0.021897 0.000000
# 4 0.000000 0.000000 0.000000 0.061893 0.000000 -0.007193
# 5 -0.010106 -0.003406 -0.021897 0.000000 0.064304 0.000000
# 6 0.000000 0.000000 0.000000 -0.007193 0.000000 0.039392
#
#
# Mechanical properties :
#
#
# Convention : Reuss Voigt Hill
#
# Bulk Modulus (GPa) = 19.13982 32.55446 25.84714
# Shear Modulus (GPa) = 21.45008 27.95742 24.70375
#
# Velocity S-wave (km/s) = 3.21982 3.67592 3.45541
# Velocity P-wave (km/s) = 4.80351 5.80954 5.33031
#
# Compressibility (1/GPa) = 0.05224710
#
# Stress axis : x y z
#
# Youngs Moduli (GPa) = 64.54839 105.50348 38.16793
#
# Poissons Ratio (x) = -0.05219 -0.05094
# Poissons Ratio (y) = -0.03193 0.04928
# Poissons Ratio (z) = -0.08616 0.13623
#
# Static dielectric constant tensor:
#      x y z
#    x 3.773510 0.000000 0.104590 
#    y 0.000000 4.032670 0.000000 
#    z 0.104590 0.000000 3.774720 
# 
# 
# High freq. dielectric constant tensor:
#      x y z
#    x 1.830350 0.000000 0.012090 
#    y 0.000000 1.801020 0.000000 
#    z 0.012090 0.000000 1.767110 
# 
# From -- ./inp_files/44348.got.cif
#   From: 2010.06.25/outbox.cif.g09.slc.cpg/sg13_23_cif.got.tgz:44348.got - 2010.06.28 04:50:58.
