data_PCOD8117813
_publ_section_title
;
Structure prediction by ZEFSAII (Michael W. Deem and Ramdas Pophale) SiO2 
 PCOD8117813
Probable space group: P 2/C
;
_chemical_formula_sum "Si O2"
_cell_formula_units_Z 30
_cell_length_a 28.667890
_cell_length_b 9.057347
_cell_length_c 16.820249
_cell_angle_alpha 90.000000
_cell_angle_beta 159.200993
_cell_angle_gamma 90.000000
_cell_volume 1550.845481
_symmetry_space_group_name_H-M "P 2/C"
_symmetry_group_IT_number 13
_symmetry_cell_setting 'monoclinic'
loop_
_space_group_symop_operation_xyz
x,y,z
-x,y,1/2-z
-x,-y,-z
x,-y,1/2+z
loop_
_atom_site_type_symbol
_atom_site_label
_atom_site_fract_x
_atom_site_fract_y
_atom_site_fract_z
Si Si1 0.691670 0.029421 0.281117
Si Si2 0.158760 0.055798 0.331375
Si Si3 0.352886 0.710315 0.129867
Si Si4 0.915767 0.898854 0.545649
Si Si5 0.739029 0.859576 0.132627
Si Si6 0.591796 0.612491 0.821499
Si Si7 0.500000 0.929410 0.250000
Si Si8 0.513886 0.239651 0.501090
O O1 0.620401 0.188323 0.167684
O O2 0.724061 0.000616 0.425023
O O3 0.826038 0.027551 0.443038
O O4 0.591022 0.903031 0.089754
O O5 0.203216 0.226623 0.386168
O O6 0.018745 0.032326 0.148727
O O7 0.157275 0.963498 0.248099
O O8 0.352402 0.552389 0.086641
O O9 0.453279 0.825456 0.247877
O O10 0.396223 0.679842 0.290096
O O11 0.814955 0.798489 0.333044
O O12 0.000000 0.815023 0.750000
O O13 0.709376 0.726847 0.024929
O O14 0.616574 0.961971 0.964378
O O15 0.500000 0.637861 0.750000
O O16 0.516094 0.648922 0.618984
#
# Coordination Sequence:
#
# PCOD8117813 Si02
#       8
#     4   4   4   4   4   4   2   4
#     4   9  17  32  56  89 110 142 187 238 281 336
#     4   9  19  35  54  79 111 148 189 232 281 330
#     4  10  21  36  54  81 121 153 190 228 292 351
#     4  10  20  34  56  85 109 147 195 238 276 329
#     4  11  20  34  57  85 113 145 189 241 282 338
#     4  12  22  34  53  87 118 150 191 234 293 348
#     4  10  20  36  58  88 118 148 182 240 300 336
#     4  10  19  33  56  84 120 150 181 238 297 338
#
# _framework density 19.344286
#
# number of rings (size 3 to 8) (size 9 to 14) (size 15 to 20)
#    0.000    1.867    2.667    2.400    1.867    0.000 
#    0.000    0.667    0.000    0.000   17.333    0.000 
#    0.000    0.000    0.000    0.000    0.000    0.000 
#
# Total GULP energy -371666.018719 kJ/mol
# GULP energy per Si atom -12388.867291 kJ/mol
# Density = 1.930026 g / cm^3
# Si number density = 19.344286 Si / 1000 Ang^3
#
#
#
# Elastic Constant Matrix: (Units=GPa)
#
#
# Indices 1 2 3 4 5 6 
#
# 1 92.4630 24.5770 40.8235 0.0000 7.6904 0.0000
# 2 24.5770 87.3390 25.6890 0.0000 -0.9099 0.0000
# 3 40.8235 25.6890 84.8225 0.0000 -6.9838 0.0000
# 4 0.0000 0.0000 0.0000 8.8996 0.0000 -6.0885
# 5 7.6904 -0.9099 -6.9838 0.0000 48.6667 0.0000
# 6 0.0000 0.0000 0.0000 -6.0885 0.0000 13.7971
#
#
#
# Elastic Compliance Matrix: (Units=1/GPa)
#
#
# Indices 1 2 3 4 5 6 
#
# 1 0.014602 -0.002192 -0.006636 0.000000 -0.003301 0.000000
# 2 -0.002192 0.012903 -0.002838 0.000000 0.000180 0.000000
# 3 -0.006636 -0.002838 0.016115 0.000000 0.003308 0.000000
# 4 0.000000 0.000000 0.000000 0.160957 0.000000 0.071029
# 5 -0.003301 0.000180 0.003308 0.000000 0.021548 0.000000
# 6 0.000000 0.000000 0.000000 0.071029 0.000000 0.103824
#
#
# Mechanical properties :
#
#
# Convention : Reuss Voigt Hill
#
# Bulk Modulus (GPa) = 49.28775 49.64483 49.46629
# Shear Modulus (GPa) = 13.88726 25.84167 19.86447
#
# Velocity S-wave (km/s) = 2.68227 3.65894 3.20799
# Velocity P-wave (km/s) = 5.92683 6.60075 6.27285
#
# Compressibility (1/GPa) = 0.02028902
#
# Stress axis : x y z
#
# Youngs Moduli (GPa) = 68.48418 77.50128 62.05455
#
# Poissons Ratio (x) = 0.16985 0.41177
# Poissons Ratio (y) = 0.15009 0.17612
# Poissons Ratio (z) = 0.45444 0.21996
#
# Static dielectric constant tensor:
#      x y z
#    x 3.711320 0.000000 -0.084440 
#    y 0.000000 3.188920 0.000000 
#    z -0.084440 0.000000 3.633160 
# 
# 
# High freq. dielectric constant tensor:
#      x y z
#    x 1.774010 0.000000 -0.009050 
#    y 0.000000 1.698910 0.000000 
#    z -0.009050 0.000000 1.751720 
# 
# From -- ./inp_files/72393.got.cif
#   From: 2010.06.25/outbox.cif.g09.slc.cpg/sg13_37_cif.got.tgz:72393.got - 2010.06.28 04:50:58.
