data_PCOD8117529
_publ_section_title
;
Structure prediction by ZEFSAII (Michael W. Deem and Ramdas Pophale) SiO2 
 PCOD8117529
Probable space group: P 2/C
;
_chemical_formula_sum "Si O2"
_cell_formula_units_Z 28
_cell_length_a 27.046294
_cell_length_b 9.006548
_cell_length_c 10.082816
_cell_angle_alpha 90.000000
_cell_angle_beta 147.669548
_cell_angle_gamma 90.000000
_cell_volume 1313.531849
_symmetry_space_group_name_H-M "P 2/C"
_symmetry_group_IT_number 13
_symmetry_cell_setting 'monoclinic'
loop_
_space_group_symop_operation_xyz
x,y,z
-x,y,1/2-z
-x,-y,-z
x,-y,1/2+z
loop_
_atom_site_type_symbol
_atom_site_label
_atom_site_fract_x
_atom_site_fract_y
_atom_site_fract_z
Si Si1 0.697053 0.392150 0.953823
Si Si2 0.464413 0.205501 0.811381
Si Si3 0.000000 0.016636 0.250000
Si Si4 0.264175 0.654123 0.256741
Si Si5 0.058996 0.725698 0.718098
Si Si6 0.000000 0.480947 0.750000
Si Si7 0.873527 0.758761 0.914923
Si Si8 0.577453 0.875197 0.815527
O O1 0.720428 0.540216 0.087749
O O2 0.764322 0.254479 0.147813
O O3 0.595885 0.336355 0.761630
O O4 0.707556 0.421854 0.820082
O O5 0.500000 0.263917 0.750000
O O6 0.407712 0.052735 0.660117
O O7 0.548810 0.181573 0.104508
O O8 0.094450 0.919204 0.462366
O O9 0.990890 0.119910 0.357838
O O10 0.327318 0.799076 0.424804
O O11 0.158423 0.708179 0.016713
O O12 0.067538 0.725594 0.582448
O O13 0.990023 0.591996 0.601838
O O14 0.910019 0.380654 0.583472
O O15 0.500000 0.837630 0.750000
#
# Coordination Sequence:
#
# PCOD8117529 Si02
#       8
#     4   4   2   4   4   2   4   4
#     4  11  24  42  61  94 125 162 205 254 304 366
#     4  10  23  41  66  90 123 163 207 249 310 364
#     4  10  22  38  60  90 118 158 206 246 310 356
#     4  11  24  41  63  92 127 162 205 253 305 360
#     4  10  21  38  59  88 121 159 199 250 299 361
#     4  10  18  38  60  82 120 160 202 236 302 362
#     4  10  21  38  60  86 121 159 201 250 298 360
#     4  10  21  43  64  89 122 164 202 254 304 364
#
# _framework density 21.316573999999999
#
# number of rings (size 3 to 8) (size 9 to 14) (size 15 to 20)
#    0.000    1.714    2.857    0.857    4.000    1.143 
#    0.000    1.429    0.000    0.000    0.000    0.000 
#    0.000    0.000    0.000    0.000    0.000    0.000 
#
# Total GULP energy -347044.396792 kJ/mol
# GULP energy per Si atom -12394.442743 kJ/mol
# Density = 2.126806 g / cm^3
# Si number density = 21.316574 Si / 1000 Ang^3
#
#
#
# Elastic Constant Matrix: (Units=GPa)
#
#
# Indices 1 2 3 4 5 6 
#
# 1 68.8129 9.6091 1.8252 0.0000 -12.5461 0.0000
# 2 9.6091 94.7012 14.3571 0.0000 -0.7214 0.0000
# 3 1.8252 14.3571 58.9872 0.0000 -6.6742 0.0000
# 4 0.0000 0.0000 0.0000 34.3961 0.0000 2.6556
# 5 -12.5461 -0.7214 -6.6742 0.0000 35.3559 0.0000
# 6 0.0000 0.0000 0.0000 2.6556 0.0000 26.9534
#
#
#
# Elastic Compliance Matrix: (Units=1/GPa)
#
#
# Indices 1 2 3 4 5 6 
#
# 1 0.015781 -0.001642 0.000553 0.000000 0.005671 0.000000
# 2 -0.001642 0.011138 -0.002759 0.000000 -0.000876 0.000000
# 3 0.000553 -0.002759 0.018008 0.000000 0.003539 0.000000
# 4 0.000000 0.000000 0.000000 0.029296 0.000000 -0.002886
# 5 0.005671 -0.000876 0.003539 0.000000 0.030946 0.000000
# 6 0.000000 0.000000 0.000000 -0.002886 0.000000 0.037385
#
#
# Mechanical properties :
#
#
# Convention : Reuss Voigt Hill
#
# Bulk Modulus (GPa) = 26.86010 30.45379 28.65694
# Shear Modulus (GPa) = 30.73896 32.45507 31.59702
#
# Velocity S-wave (km/s) = 3.80152 3.90619 3.85421
# Velocity P-wave (km/s) = 5.64771 5.88743 5.76882
#
# Compressibility (1/GPa) = 0.03722994
#
# Stress axis : x y z
#
# Youngs Moduli (GPa) = 63.36875 89.78473 55.53167
#
# Poissons Ratio (x) = 0.14741 -0.03071
# Poissons Ratio (y) = 0.10404 0.15322
# Poissons Ratio (z) = -0.03504 0.24773
#
# Static dielectric constant tensor:
#      x y z
#    x 3.827390 0.000000 -0.107250 
#    y 0.000000 3.763980 0.000000 
#    z -0.107250 0.000000 3.799280 
# 
# 
# High freq. dielectric constant tensor:
#      x y z
#    x 1.833220 0.000000 -0.010330 
#    y 0.000000 1.838340 0.000000 
#    z -0.010330 0.000000 1.829830 
# 
# From -- ./inp_files/24488.got.cif
#   From: 2010.06.25/outbox.cif.g09.slc.cpg/sg13_13_cif.got.tgz:24488.got - 2010.06.28 04:50:58.
