data_PCOD8117647
_publ_section_title
;
Structure prediction by ZEFSAII (Michael W. Deem and Ramdas Pophale) SiO2 
 PCOD8117647
Probable space group: P 2/C
;
_chemical_formula_sum "Si O2"
_cell_formula_units_Z 32
_cell_length_a 14.107771
_cell_length_b 5.052467
_cell_length_c 25.055036
_cell_angle_alpha 90.000000
_cell_angle_beta 68.923595
_cell_angle_gamma 90.000000
_cell_volume 1666.425496
_symmetry_space_group_name_H-M "P 2/C"
_symmetry_group_IT_number 13
_symmetry_cell_setting 'monoclinic'
loop_
_space_group_symop_operation_xyz
x,y,z
-x,y,1/2-z
-x,-y,-z
x,-y,1/2+z
loop_
_atom_site_type_symbol
_atom_site_label
_atom_site_fract_x
_atom_site_fract_y
_atom_site_fract_z
Si Si1 0.675468 0.682044 0.129938
Si Si2 0.394781 0.816042 0.796351
Si Si3 0.947323 0.221911 0.820392
Si Si4 0.412523 0.252895 0.073308
Si Si5 0.818279 0.268174 0.342053
Si Si6 0.789731 0.861855 0.728421
Si Si7 0.859855 0.362371 0.661175
Si Si8 0.542938 0.244674 0.558863
O O1 0.636650 0.390348 0.151836
O O2 0.798618 0.697176 0.117295
O O3 0.644453 0.734916 0.074871
O O4 0.613514 0.891198 0.178081
O O5 0.500000 0.744434 0.750000
O O6 0.326166 0.785819 0.757629
O O7 0.858305 0.437072 0.842174
O O8 0.000000 0.216868 0.750000
O O9 0.022992 0.279410 0.855206
O O10 0.896988 0.946442 0.849404
O O11 0.295056 0.237466 0.113030
O O12 0.464687 0.517028 0.084750
O O13 0.477354 0.015012 0.085742
O O14 0.414505 0.240063 0.009200
O O15 0.824249 0.205678 0.279274
O O16 0.854481 0.674324 0.675192
O O17 0.804037 0.174251 0.715798
#
# Coordination Sequence:
#
# PCOD8117647 Si02
#       8
#     4   4   4   4   4   4   4   4
#     4  10  21  35  55  76 104 147 182 215 273 328
#     4  10  21  33  46  78 111 144 176 218 259 330
#     4  12  21  35  55  76 112 153 180 221 274 322
#     4  10  23  39  59  87 109 138 192 232 275 333
#     4  12  22  34  55  81 109 145 181 232 272 318
#     4  10  19  31  48  72 110 141 176 215 255 316
#     4  10  20  35  49  76 107 141 185 209 255 327
#     4  10  21  41  62  80 110 147 180 233 286 326
#
# _framework density 19.202777999999999
#
# number of rings (size 3 to 8) (size 9 to 14) (size 15 to 20)
#    0.000    1.500    2.500    3.000    3.500    0.000 
#    0.000    0.000    0.000    1.500    0.000    0.000 
#    0.000    0.000    0.000    0.000    0.000    0.000 
#
# Total GULP energy -396424.363199 kJ/mol
# GULP energy per Si atom -12388.261350 kJ/mol
# Density = 1.915907 g / cm^3
# Si number density = 19.202778 Si / 1000 Ang^3
#
#
#
# Elastic Constant Matrix: (Units=GPa)
#
#
# Indices 1 2 3 4 5 6 
#
# 1 107.7440 1.6852 34.2924 0.0000 6.2321 0.0000
# 2 1.6852 83.4505 10.1275 0.0000 -10.5906 0.0000
# 3 34.2924 10.1275 24.9200 0.0000 8.9398 0.0000
# 4 0.0000 0.0000 0.0000 13.7168 0.0000 -0.6473
# 5 6.2321 -10.5906 8.9398 0.0000 22.7334 0.0000
# 6 0.0000 0.0000 0.0000 -0.6473 0.0000 33.1581
#
#
#
# Elastic Compliance Matrix: (Units=1/GPa)
#
#
# Indices 1 2 3 4 5 6 
#
# 1 0.018303 0.004424 -0.030182 0.000000 0.008912 0.000000
# 2 0.004424 0.015568 -0.016977 0.000000 0.012716 0.000000
# 3 -0.030182 -0.016977 0.102954 0.000000 -0.040121 0.000000
# 4 0.000000 0.000000 0.000000 0.072970 0.000000 0.001424
# 5 0.008912 0.012716 -0.040121 0.000000 0.063246 0.000000
# 6 0.000000 0.000000 0.000000 0.001424 0.000000 0.030186
#
#
# Mechanical properties :
#
#
# Convention : Reuss Voigt Hill
#
# Bulk Modulus (GPa) = 19.47180 34.25831 26.86506
# Shear Modulus (GPa) = 12.32093 25.25563 18.78828
#
# Velocity S-wave (km/s) = 2.53577 3.63051 3.13136
# Velocity P-wave (km/s) = 4.32847 5.95426 5.20523
#
# Compressibility (1/GPa) = 0.05135631
#
# Stress axis : x y z
#
# Youngs Moduli (GPa) = 54.63681 64.23512 9.71309
#
# Poissons Ratio (x) = -0.28419 0.29316
# Poissons Ratio (y) = -0.24173 0.16490
# Poissons Ratio (z) = 1.64903 1.09050
#
# Static dielectric constant tensor:
#      x y z
#    x 3.949290 0.000000 0.241590 
#    y 0.000000 3.980570 0.000000 
#    z 0.241590 0.000000 3.020360 
# 
# 
# High freq. dielectric constant tensor:
#      x y z
#    x 1.771700 0.000000 0.016820 
#    y 0.000000 1.773350 0.000000 
#    z 0.016820 0.000000 1.680650 
# 
# From -- ./inp_files/85971.got.cif
#   From: 2010.06.25/outbox.cif.g09.slc.cpg/sg13_43_cif.got.tgz:85971.got - 2010.06.28 04:50:58.
