data_PCOD8117723
_publ_section_title
;
Structure prediction by ZEFSAII (Michael W. Deem and Ramdas Pophale) SiO2 
 PCOD8117723
Probable space group: P 2/C
;
_chemical_formula_sum "Si O2"
_cell_formula_units_Z 32
_cell_length_a 16.093131
_cell_length_b 11.098297
_cell_length_c 9.969072
_cell_angle_alpha 90.000000
_cell_angle_beta 85.904913
_cell_angle_gamma 90.000000
_cell_volume 1775.993660
_symmetry_space_group_name_H-M "P 2/C"
_symmetry_group_IT_number 13
_symmetry_cell_setting 'monoclinic'
loop_
_space_group_symop_operation_xyz
x,y,z
-x,y,1/2-z
-x,-y,-z
x,-y,1/2+z
loop_
_atom_site_type_symbol
_atom_site_label
_atom_site_fract_x
_atom_site_fract_y
_atom_site_fract_z
Si Si1 0.808319 0.159670 0.508097
Si Si2 0.090621 0.132060 0.747691
Si Si3 0.358651 0.261761 0.539886
Si Si4 0.202233 0.880338 0.996612
Si Si5 0.487343 0.106269 0.898346
Si Si6 0.559044 0.474930 0.115222
Si Si7 0.907632 0.854309 0.749189
Si Si8 0.657224 0.282174 0.652600
O O1 0.882509 0.156642 0.605288
O O2 0.846191 0.207381 0.364167
O O3 0.741505 0.259271 0.560697
O O4 0.774843 0.022249 0.499696
O O5 0.159770 0.177092 0.634178
O O6 0.000000 0.195164 0.750000
O O7 0.081073 0.992394 0.709901
O O8 0.292768 0.179731 0.467053
O O9 0.447001 0.204754 0.563834
O O10 0.376697 0.370437 0.435014
O O11 0.321251 0.287440 0.691720
O O12 0.137012 0.843937 0.888672
O O13 0.500000 0.049510 0.750000
O O14 0.399078 0.172888 0.897752
O O15 0.500000 0.000000 0.000000
O O16 0.500000 0.443570 0.250000
O O17 0.615604 0.590792 0.129820
O O18 0.500000 0.500000 0.000000
O O19 0.000000 0.793761 0.750000
#
# Coordination Sequence:
#
# PCOD8117723 Si02
#       8
#     4   4   4   4   4   4   4   4
#     4  10  19  32  54  83 118 151 184 225 280 334
#     4   9  16  29  52  79 113 156 187 215 271 341
#     4  11  22  39  58  81 112 147 187 236 284 326
#     4  10  19  33  53  84 119 149 185 228 273 338
#     4  10  21  37  55  79 114 151 180 218 279 344
#     4  12  23  42  63  82 104 145 196 247 283 327
#     4   9  18  31  49  81 121 151 182 226 270 326
#     4  11  21  39  59  79 113 147 185 237 285 324
#
# _framework density 18.018082
#
# number of rings (size 3 to 8) (size 9 to 14) (size 15 to 20)
#    0.000    1.750    3.750    1.875    0.000    4.500 
#    2.250    0.000    0.000    0.000    0.000    5.250 
#    0.000    0.000    0.000    0.000    0.000    0.000 
#
# Total GULP energy -396444.043697 kJ/mol
# GULP energy per Si atom -12388.876366 kJ/mol
# Density = 1.797707 g / cm^3
# Si number density = 18.018082 Si / 1000 Ang^3
#
#
#
# Elastic Constant Matrix: (Units=GPa)
#
#
# Indices 1 2 3 4 5 6 
#
# 1 90.7273 27.4130 24.1267 0.0000 -4.8718 0.0000
# 2 27.4130 60.5902 31.7089 0.0000 -3.6330 0.0000
# 3 24.1267 31.7089 90.5475 0.0000 -6.6432 0.0000
# 4 0.0000 0.0000 0.0000 68.4175 0.0000 -30.8227
# 5 -4.8718 -3.6330 -6.6432 0.0000 32.5257 0.0000
# 6 0.0000 0.0000 0.0000 -30.8227 0.0000 31.1936
#
#
#
# Elastic Compliance Matrix: (Units=1/GPa)
#
#
# Indices 1 2 3 4 5 6 
#
# 1 0.013017 -0.004961 -0.001654 0.000000 0.001058 0.000000
# 2 -0.004961 0.022120 -0.006393 0.000000 0.000422 0.000000
# 3 -0.001654 -0.006393 0.013861 0.000000 0.001869 0.000000
# 4 0.000000 0.000000 0.000000 0.026343 0.000000 0.026029
# 5 0.001058 0.000422 0.001869 0.000000 0.031332 0.000000
# 6 0.000000 0.000000 0.000000 0.026029 0.000000 0.057778
#
#
# Mechanical properties :
#
#
# Convention : Reuss Voigt Hill
#
# Bulk Modulus (GPa) = 43.51177 45.37360 44.44269
# Shear Modulus (GPa) = 25.23631 37.00177 31.11904
#
# Velocity S-wave (km/s) = 3.74653 4.53657 4.16035
# Velocity P-wave (km/s) = 6.55109 7.25793 6.91355
#
# Compressibility (1/GPa) = 0.02298229
#
# Stress axis : x y z
#
# Youngs Moduli (GPa) = 76.81984 45.20826 72.14680
#
# Poissons Ratio (x) = 0.22426 0.11931
# Poissons Ratio (y) = 0.38107 0.46127
# Poissons Ratio (z) = 0.12704 0.28904
#
# Static dielectric constant tensor:
#      x y z
#    x 3.389910 0.000000 -0.044790 
#    y 0.000000 3.317610 0.000000 
#    z -0.044790 0.000000 3.484250 
# 
# 
# High freq. dielectric constant tensor:
#      x y z
#    x 1.710480 0.000000 0.002910 
#    y 0.000000 1.645430 0.000000 
#    z 0.002910 0.000000 1.712800 
# 
# From -- ./inp_files/19040.got.cif
#   From: 2010.06.25/outbox.cif.g09.slc.cpg/sg13_10_cif.got.tgz:19040.got - 2010.06.28 04:50:58.
