data_PCOD8117563
_publ_section_title
;
Structure prediction by ZEFSAII (Michael W. Deem and Ramdas Pophale) SiO2 
 PCOD8117563
Probable space group: P 2/C
;
_chemical_formula_sum "Si O2"
_cell_formula_units_Z 16
_cell_length_a 12.623105
_cell_length_b 7.518610
_cell_length_c 23.582728
_cell_angle_alpha 90.000000
_cell_angle_beta 157.658068
_cell_angle_gamma 90.000000
_cell_volume 850.811921
_symmetry_space_group_name_H-M "P 2/C"
_symmetry_group_IT_number 13
_symmetry_cell_setting 'monoclinic'
loop_
_space_group_symop_operation_xyz
x,y,z
-x,y,1/2-z
-x,-y,-z
x,-y,1/2+z
loop_
_atom_site_type_symbol
_atom_site_label
_atom_site_fract_x
_atom_site_fract_y
_atom_site_fract_z
Si Si1 0.761079 0.048675 0.591596
Si Si2 0.556346 0.373693 0.421750
Si Si3 0.255612 0.562200 0.089328
Si Si4 0.916997 0.689315 0.608125
O O1 0.880907 0.873419 0.621603
O O2 0.000000 0.130176 0.750000
O O3 0.500000 0.000000 0.500000
O O4 0.684503 0.187959 0.505201
O O5 0.622848 0.395259 0.387304
O O6 0.705495 0.539166 0.528641
O O7 0.228934 0.381878 0.271691
O O8 0.500000 0.640802 0.250000
O O9 0.150726 0.712978 0.992840
O O10 0.000000 0.500000 0.000000
#
# Coordination Sequence:
#
# PCOD8117563 Si02
#       4
#     4   4   4   4
#     4  12  26  42  62  92 132 167 207 260 311 366
#     4  10  23  41  65  93 128 161 216 251 308 383
#     4  10  18  38  68  91 123 162 201 261 316 363
#     4  10  23  41  65  94 126 162 216 251 310 380
#
# _framework density 18.805565999999999
#
# number of rings (size 3 to 8) (size 9 to 14) (size 15 to 20)
#    1.500    0.000    5.000    0.000    3.500    2.000 
#    0.000    2.500    0.000    0.000    0.000    0.000 
#    0.000    0.000    0.000    0.000    0.000    0.000 
#
# Total GULP energy -198276.361257 kJ/mol
# GULP energy per Si atom -12392.272579 kJ/mol
# Density = 1.876276 g / cm^3
# Si number density = 18.805566 Si / 1000 Ang^3
#
#
#
# Elastic Constant Matrix: (Units=GPa)
#
#
# Indices 1 2 3 4 5 6 
#
# 1 73.3904 20.7595 35.3576 0.0000 -3.3981 0.0000
# 2 20.7595 75.8063 37.2950 0.0000 -3.7990 0.0000
# 3 35.3576 37.2950 158.7183 0.0000 8.3439 0.0000
# 4 0.0000 0.0000 0.0000 33.6036 0.0000 -3.1340
# 5 -3.3981 -3.7990 8.3439 0.0000 24.3911 0.0000
# 6 0.0000 0.0000 0.0000 -3.1340 0.0000 28.4862
#
#
#
# Elastic Compliance Matrix: (Units=1/GPa)
#
#
# Indices 1 2 3 4 5 6 
#
# 1 0.016012 -0.002728 -0.003076 0.000000 0.002858 0.000000
# 2 -0.002728 0.015695 -0.003247 0.000000 0.003175 0.000000
# 3 -0.003076 -0.003247 0.007941 0.000000 -0.003651 0.000000
# 4 0.000000 0.000000 0.000000 0.030067 0.000000 0.003308
# 5 0.002858 0.003175 -0.003651 0.000000 0.043140 0.000000
# 6 0.000000 0.000000 0.000000 0.003308 0.000000 0.035469
#
#
# Mechanical properties :
#
#
# Convention : Reuss Voigt Hill
#
# Bulk Modulus (GPa) = 46.41504 54.97102 50.69303
# Shear Modulus (GPa) = 28.80043 31.59636 30.19839
#
# Velocity S-wave (km/s) = 3.91766 4.10342 4.01162
# Velocity P-wave (km/s) = 6.72304 7.19343 6.96221
#
# Compressibility (1/GPa) = 0.02154474
#
# Stress axis : x y z
#
# Youngs Moduli (GPa) = 62.45391 63.71332 125.93394
#
# Poissons Ratio (x) = 0.17382 0.38739
# Poissons Ratio (y) = 0.17039 0.40893
# Poissons Ratio (z) = 0.19212 0.20689
#
# Static dielectric constant tensor:
#      x y z
#    x 3.663280 0.000000 -0.066560 
#    y 0.000000 3.207400 0.000000 
#    z -0.066560 0.000000 3.976800 
# 
# 
# High freq. dielectric constant tensor:
#      x y z
#    x 1.731650 0.000000 0.004680 
#    y 0.000000 1.697940 0.000000 
#    z 0.004680 0.000000 1.757910 
# 
# From -- ./inp_files/14391.got.cif
#   From: 2010.06.25/outbox.cif.g09.slc.cpg/sg13_8_cif.got.tgz:14391.got - 2010.06.28 04:50:58.
