data_PCOD8117183
_publ_section_title
;
Structure prediction by ZEFSAII (Michael W. Deem and Ramdas Pophale) SiO2 
 PCOD8117183
Probable space group: P 2/C
;
_chemical_formula_sum "Si O2"
_cell_formula_units_Z 32
_cell_length_a 10.782675
_cell_length_b 21.131798
_cell_length_c 9.355720
_cell_angle_alpha 90.000000
_cell_angle_beta 125.982587
_cell_angle_gamma 90.000000
_cell_volume 1725.018236
_symmetry_space_group_name_H-M "P 2/C"
_symmetry_group_IT_number 13
_symmetry_cell_setting 'monoclinic'
loop_
_space_group_symop_operation_xyz
x,y,z
-x,y,1/2-z
-x,-y,-z
x,-y,1/2+z
loop_
_atom_site_type_symbol
_atom_site_label
_atom_site_fract_x
_atom_site_fract_y
_atom_site_fract_z
Si Si1 0.649795 0.623159 0.258912
Si Si2 0.403851 0.545044 0.541591
Si Si3 0.827033 0.136850 0.095822
Si Si4 0.348669 0.133509 0.952748
Si Si5 0.659320 0.229190 0.785928
Si Si6 0.316212 0.105925 0.223729
Si Si7 0.673184 0.037026 0.810085
Si Si8 0.109997 0.471233 0.452819
O O1 0.500000 0.602870 0.250000
O O2 0.686543 0.696566 0.300339
O O3 0.798848 0.587716 0.419689
O O4 0.623656 0.607699 0.073276
O O5 0.500000 0.560761 0.750000
O O6 0.500000 0.500000 0.500000
O O7 0.237286 0.519561 0.476515
O O8 0.750095 0.148653 0.195732
O O9 0.000000 0.134256 0.250000
O O10 0.791935 0.195255 0.966290
O O11 0.775456 0.068566 0.002309
O O12 0.346021 0.202492 0.878826
O O13 0.299219 0.079802 0.809754
O O14 0.247196 0.135546 0.028856
O O15 0.504274 0.110399 0.129161
O O16 0.500000 0.209835 0.750000
O O17 0.267750 0.032162 0.190631
O O18 0.500000 0.037681 0.750000
O O19 0.000000 0.448246 0.250000
O O20 0.000000 0.500000 0.500000
#
# Coordination Sequence:
#
# PCOD8117183 Si02
#       8
#     4   4   4   4   4   4   4   4
#     4  11  23  40  64  91 120 162 205 249 293 355
#     4  12  20  39  63  93 127 160 192 241 299 356
#     4  11  23  38  57  80 118 160 191 240 307 364
#     4  10  18  32  58  85 108 142 191 257 287 326
#     4  10  21  42  61  81 112 157 209 242 282 348
#     4  11  19  31  58  89 109 141 200 247 296 345
#     4  11  18  33  57  87 113 147 191 245 298 357
#     4  12  22  36  64  94 129 159 193 239 299 361
#
# _framework density 18.550529000000001
#
# number of rings (size 3 to 8) (size 9 to 14) (size 15 to 20)
#    0.000    1.000    7.500    1.875    0.000    1.000 
#    2.250    2.500    5.500    0.000    0.000    0.000 
#    0.000    0.000    0.000    0.000    0.000    0.000 
#
# Total GULP energy -396532.667917 kJ/mol
# GULP energy per Si atom -12391.645872 kJ/mol
# Density = 1.850831 g / cm^3
# Si number density = 18.550529 Si / 1000 Ang^3
#
#
#
# Elastic Constant Matrix: (Units=GPa)
#
#
# Indices 1 2 3 4 5 6 
#
# 1 72.9068 38.5455 55.0287 0.0000 -8.6043 0.0000
# 2 38.5455 91.4593 52.2284 0.0000 -3.6002 0.0000
# 3 55.0287 52.2284 151.9375 0.0000 -11.1764 0.0000
# 4 0.0000 0.0000 0.0000 22.1092 0.0000 -3.4719
# 5 -8.6043 -3.6002 -11.1764 0.0000 41.8112 0.0000
# 6 0.0000 0.0000 0.0000 -3.4719 0.0000 6.3225
#
#
#
# Elastic Compliance Matrix: (Units=1/GPa)
#
#
# Indices 1 2 3 4 5 6 
#
# 1 0.021180 -0.005664 -0.005548 0.000000 0.002388 0.000000
# 2 -0.005664 0.015119 -0.003199 0.000000 -0.000719 0.000000
# 3 -0.005548 -0.003199 0.009779 0.000000 0.001197 0.000000
# 4 0.000000 0.000000 0.000000 0.049499 0.000000 0.027182
# 5 0.002388 -0.000719 0.001197 0.000000 0.024666 0.000000
# 6 0.000000 0.000000 0.000000 0.027182 0.000000 0.173091
#
#
# Mechanical properties :
#
#
# Convention : Reuss Voigt Hill
#
# Bulk Modulus (GPa) = 57.95061 67.54542 62.74802
# Shear Modulus (GPa) = 15.24813 25.41531 20.33172
#
# Velocity S-wave (km/s) = 2.87013 3.70545 3.31421
# Velocity P-wave (km/s) = 6.50313 7.40255 6.96737
#
# Compressibility (1/GPa) = 0.01725607
#
# Stress axis : x y z
#
# Youngs Moduli (GPa) = 47.21358 66.14082 102.26221
#
# Poissons Ratio (x) = 0.37462 0.56740
# Poissons Ratio (y) = 0.26742 0.32711
# Poissons Ratio (z) = 0.26196 0.21157
#
# Static dielectric constant tensor:
#      x y z
#    x 3.707220 0.000000 -0.482240 
#    y 0.000000 3.241260 0.000000 
#    z -0.482240 0.000000 3.907970 
# 
# 
# High freq. dielectric constant tensor:
#      x y z
#    x 1.713480 0.000000 -0.020640 
#    y 0.000000 1.696570 0.000000 
#    z -0.020640 0.000000 1.739430 
# 
# From -- ./inp_files/17292.got.cif
#   From: 2010.06.25/outbox.cif.g09.slc.cpg/sg13_9_cif.got.tgz:17292.got - 2010.06.28 04:50:58.
