data_PCOD8117889
_publ_section_title
;
Structure prediction by ZEFSAII (Michael W. Deem and Ramdas Pophale) SiO2 
 PCOD8117889
Probable space group: P 2/C
;
_chemical_formula_sum "Si O2"
_cell_formula_units_Z 28
_cell_length_a 6.044177
_cell_length_b 10.846210
_cell_length_c 21.928416
_cell_angle_alpha 90.000000
_cell_angle_beta 99.306282
_cell_angle_gamma 90.000000
_cell_volume 1418.627274
_symmetry_space_group_name_H-M "P 2/C"
_symmetry_group_IT_number 13
_symmetry_cell_setting 'monoclinic'
loop_
_space_group_symop_operation_xyz
x,y,z
-x,y,1/2-z
-x,-y,-z
x,-y,1/2+z
loop_
_atom_site_type_symbol
_atom_site_label
_atom_site_fract_x
_atom_site_fract_y
_atom_site_fract_z
Si Si1 0.053713 0.643462 0.091497
Si Si2 0.014460 0.120208 0.426468
Si Si3 0.048090 0.711298 0.683278
Si Si4 0.691670 0.450951 0.100328
Si Si5 0.361473 0.515355 0.186012
Si Si6 0.211351 0.128195 0.960415
Si Si7 0.635120 0.287769 0.995177
O O1 0.157696 0.611441 0.163076
O O2 0.850689 0.547750 0.070888
O O3 0.966071 0.782032 0.080281
O O4 0.261901 0.629173 0.054149
O O5 0.156647 0.227978 0.461814
O O6 0.909467 0.168163 0.357735
O O7 0.821290 0.097885 0.468790
O O8 0.171954 0.000126 0.422805
O O9 0.265320 0.622593 0.691445
O O10 0.000000 0.756038 0.750000
O O11 0.831516 0.640211 0.649471
O O12 0.524859 0.523636 0.135966
O O13 0.539383 0.380028 0.042776
O O14 0.500000 0.562075 0.250000
O O15 0.458351 0.186042 0.963376
#
# Coordination Sequence:
#
# PCOD8117889 Si02
#       7
#     4   4   4   4   4   4   4
#     4  10  22  33  53  80 113 143 180 225 270 333
#     4   9  20  34  57  80 108 143 184 228 281 321
#     4  10  19  35  56  80 107 134 183 235 277 324
#     4  10  20  34  54  83 109 141 175 227 276 330
#     4  11  21  35  56  78 106 148 181 222 280 336
#     4  10  19  36  54  80 112 147 179 226 274 338
#     4  10  19  34  56  83 109 141 181 223 279 330
#
# _framework density 19.737389
#
# number of rings (size 3 to 8) (size 9 to 14) (size 15 to 20)
#    0.000    2.000    1.429    2.571    0.000    4.571 
#    0.000    0.000    6.286    0.000    0.000    0.000 
#    0.000    0.000    0.000    0.000    0.000    0.000 
#
# Total GULP energy -346942.100683 kJ/mol
# GULP energy per Si atom -12390.789310 kJ/mol
# Density = 1.969247 g / cm^3
# Si number density = 19.737389 Si / 1000 Ang^3
#
#
#
# Elastic Constant Matrix: (Units=GPa)
#
#
# Indices 1 2 3 4 5 6 
#
# 1 62.6079 7.8896 27.5599 0.0000 -6.1916 0.0000
# 2 7.8896 69.1655 51.3109 0.0000 2.5453 0.0000
# 3 27.5599 51.3109 98.9086 0.0000 2.1339 0.0000
# 4 0.0000 0.0000 0.0000 26.0203 0.0000 0.4385
# 5 -6.1916 2.5453 2.1339 0.0000 31.9145 0.0000
# 6 0.0000 0.0000 0.0000 0.4385 0.0000 30.2308
#
#
#
# Elastic Compliance Matrix: (Units=1/GPa)
#
#
# Indices 1 2 3 4 5 6 
#
# 1 0.019009 0.002730 -0.006798 0.000000 0.003925 0.000000
# 2 0.002730 0.023931 -0.013165 0.000000 -0.000499 0.000000
# 3 -0.006798 -0.013165 0.018867 0.000000 -0.001530 0.000000
# 4 0.000000 0.000000 0.000000 0.038441 0.000000 -0.000558
# 5 0.003925 -0.000499 -0.001530 0.000000 0.032237 0.000000
# 6 0.000000 0.000000 0.000000 -0.000558 0.000000 0.033087
#
#
# Mechanical properties :
#
#
# Convention : Reuss Voigt Hill
#
# Bulk Modulus (GPa) = 36.57308 44.91142 40.74225
# Shear Modulus (GPa) = 23.90613 27.22789 25.56701
#
# Velocity S-wave (km/s) = 3.48402 3.71820 3.60301
# Velocity P-wave (km/s) = 5.89530 6.42162 6.16408
#
# Compressibility (1/GPa) = 0.02734252
#
# Stress axis : x y z
#
# Youngs Moduli (GPa) = 52.60716 41.78598 53.00256
#
# Poissons Ratio (x) = -0.11408 0.36029
# Poissons Ratio (y) = -0.14362 0.69777
# Poissons Ratio (z) = 0.35760 0.55011
#
# Static dielectric constant tensor:
#      x y z
#    x 3.578640 0.000000 0.033880 
#    y 0.000000 3.534250 0.000000 
#    z 0.033880 0.000000 3.717050 
# 
# 
# High freq. dielectric constant tensor:
#      x y z
#    x 1.770560 0.000000 0.006350 
#    y 0.000000 1.754390 0.000000 
#    z 0.006350 0.000000 1.755780 
# 
# From -- ./inp_files/73408.got.cif
#   From: 2010.06.25/outbox.cif.g09.slc.cpg/sg13_37_cif.got.tgz:73408.got - 2010.06.28 04:50:58.
