data_PCOD8117923
_publ_section_title
;
Structure prediction by ZEFSAII (Michael W. Deem and Ramdas Pophale) SiO2 
 PCOD8117923
Probable space group: P 2/C
;
_chemical_formula_sum "Si O2"
_cell_formula_units_Z 28
_cell_length_a 15.991259
_cell_length_b 5.077187
_cell_length_c 19.732418
_cell_angle_alpha 90.000000
_cell_angle_beta 56.884528
_cell_angle_gamma 90.000000
_cell_volume 1341.862044
_symmetry_space_group_name_H-M "P 2/C"
_symmetry_group_IT_number 13
_symmetry_cell_setting 'monoclinic'
loop_
_space_group_symop_operation_xyz
x,y,z
-x,y,1/2-z
-x,-y,-z
x,-y,1/2+z
loop_
_atom_site_type_symbol
_atom_site_label
_atom_site_fract_x
_atom_site_fract_y
_atom_site_fract_z
Si Si1 0.696246 0.033893 0.169381
Si Si2 0.100232 0.975284 0.997182
Si Si3 0.723462 0.333888 0.892907
Si Si4 0.327062 0.148705 0.165247
Si Si5 0.470359 0.344409 0.447156
Si Si6 0.365194 0.450410 0.876475
Si Si7 0.837806 0.461154 0.458951
O O1 0.808458 0.978957 0.094738
O O2 0.703149 0.107862 0.244433
O O3 0.642721 0.269675 0.155198
O O4 0.626946 0.778557 0.183740
O O5 0.104182 0.685020 0.026045
O O6 0.099981 0.190635 0.058773
O O7 0.000000 0.000000 0.000000
O O8 0.692786 0.554046 0.851504
O O9 0.822360 0.440181 0.888015
O O10 0.740251 0.061070 0.845824
O O11 0.641329 0.243520 0.986156
O O12 0.447917 0.112222 0.102271
O O13 0.500000 0.500000 0.500000
O O14 0.461803 0.530851 0.383647
O O15 0.270198 0.388530 0.964621
#
# Coordination Sequence:
#
# PCOD8117923 Si02
#       7
#     4   4   4   4   4   4   4
#     4  10  21  36  53  78 107 140 174 212 276 324
#     4  10  19  34  58  82 105 134 174 223 266 320
#     4  10  20  35  55  76 105 141 178 216 257 309
#     4  11  21  34  53  76 106 141 176 218 260 311
#     4   9  20  35  53  77 102 137 184 221 253 299
#     4   9  19  35  53  73 105 138 172 219 261 315
#     4   9  18  33  55  81 103 133 175 216 264 312
#
# _framework density 20.866526
#
# number of rings (size 3 to 8) (size 9 to 14) (size 15 to 20)
#    0.000    2.286    0.000    2.571    0.000    9.714 
#    0.000    1.429    0.000    5.143    0.000    0.000 
#    0.000    0.000    0.000    0.000    0.000    0.000 
#
# Total GULP energy -346939.368075 kJ/mol
# GULP energy per Si atom -12390.691717 kJ/mol
# Density = 2.081903 g / cm^3
# Si number density = 20.866526 Si / 1000 Ang^3
#
#
#
# Elastic Constant Matrix: (Units=GPa)
#
#
# Indices 1 2 3 4 5 6 
#
# 1 99.9472 42.0903 36.1413 0.0000 27.2646 0.0000
# 2 42.0903 101.2202 22.9974 0.0000 2.2083 0.0000
# 3 36.1413 22.9974 77.0177 0.0000 21.3660 0.0000
# 4 0.0000 0.0000 0.0000 18.3408 0.0000 6.6246
# 5 27.2646 2.2083 21.3660 0.0000 19.0452 0.0000
# 6 0.0000 0.0000 0.0000 6.6246 0.0000 22.1814
#
#
#
# Elastic Compliance Matrix: (Units=1/GPa)
#
#
# Indices 1 2 3 4 5 6 
#
# 1 0.021838 -0.008634 0.001053 0.000000 -0.031443 0.000000
# 2 -0.008634 0.014163 -0.004575 0.000000 0.015850 0.000000
# 3 0.001053 -0.004575 0.020510 0.000000 -0.023987 0.000000
# 4 0.000000 0.000000 0.000000 0.061116 0.000000 -0.018253
# 5 -0.031443 0.015850 -0.023987 0.000000 0.122592 0.000000
# 6 0.000000 0.000000 0.000000 -0.018253 0.000000 0.050534
#
#
# Mechanical properties :
#
#
# Convention : Reuss Voigt Hill
#
# Bulk Modulus (GPa) = 31.05551 53.40479 42.23015
# Shear Modulus (GPa) = 15.34695 23.71054 19.52875
#
# Velocity S-wave (km/s) = 2.71492 3.37456 3.06255
# Velocity P-wave (km/s) = 4.97423 6.39004 5.72606
#
# Compressibility (1/GPa) = 0.03220040
#
# Stress axis : x y z
#
# Youngs Moduli (GPa) = 45.79218 70.60470 48.75649
#
# Poissons Ratio (x) = 0.60961 -0.05136
# Poissons Ratio (y) = 0.39538 0.22304
# Poissons Ratio (z) = -0.04824 0.32299
#
# Static dielectric constant tensor:
#      x y z
#    x 3.920950 0.000000 0.310590 
#    y 0.000000 3.931090 0.000000 
#    z 0.310590 0.000000 4.320730 
# 
# 
# High freq. dielectric constant tensor:
#      x y z
#    x 1.807770 0.000000 0.038800 
#    y 0.000000 1.824570 0.000000 
#    z 0.038800 0.000000 1.785040 
# 
# From -- ./inp_files/67322.got.cif
#   From: 2010.06.25/outbox.cif.g09.slc.cpg/sg13_34_cif.got.tgz:67322.got - 2010.06.28 04:50:58.
