data_PCOD8117180
_publ_section_title
;
Structure prediction by ZEFSAII (Michael W. Deem and Ramdas Pophale) SiO2 
 PCOD8117180
Probable space group: P 2/C
;
_chemical_formula_sum "Si O2"
_cell_formula_units_Z 30
_cell_length_a 6.722890
_cell_length_b 8.192402
_cell_length_c 29.849253
_cell_angle_alpha 90.000000
_cell_angle_beta 103.430834
_cell_angle_gamma 90.000000
_cell_volume 1599.034281
_symmetry_space_group_name_H-M "P 2/C"
_symmetry_group_IT_number 13
_symmetry_cell_setting 'monoclinic'
loop_
_space_group_symop_operation_xyz
x,y,z
-x,y,1/2-z
-x,-y,-z
x,-y,1/2+z
loop_
_atom_site_type_symbol
_atom_site_label
_atom_site_fract_x
_atom_site_fract_y
_atom_site_fract_z
Si Si1 0.602713 0.865377 0.474746
Si Si2 0.473531 0.058735 0.390635
Si Si3 0.336949 0.537687 0.207602
Si Si4 0.430226 0.569665 0.417481
Si Si5 0.733489 0.358923 0.384984
Si Si6 0.180099 0.740854 0.934345
Si Si7 0.000000 0.683975 0.250000
Si Si8 0.637937 0.764584 0.172497
O O1 0.455403 0.711443 0.455836
O O2 0.797696 0.794500 0.512015
O O3 0.500000 0.000000 0.500000
O O4 0.641862 0.959333 0.429806
O O5 0.568757 0.217143 0.374348
O O6 0.274449 0.114410 0.408791
O O7 0.410563 0.945274 0.346431
O O8 0.500000 0.451907 0.250000
O O9 0.255245 0.419749 0.164944
O O10 0.131726 0.574522 0.223548
O O11 0.450907 0.697267 0.192998
O O12 0.653632 0.498901 0.414926
O O13 0.293109 0.430266 0.432187
O O14 0.321997 0.641763 0.367179
O O15 0.944226 0.284063 0.412530
O O16 0.156020 0.789385 0.287988
#
# Coordination Sequence:
#
# PCOD8117180 Si02
#       8
#     4   4   4   4   4   4   2   4
#     4   9  18  34  53  74 105 140 170 211 259 297
#     4   9  20  36  50  72 107 137 165 207 255 301
#     4   9  19  35  54  75  99 130 166 208 254 302
#     4   9  18  34  53  75 105 137 171 213 254 296
#     4  10  20  34  53  76 103 136 173 209 252 305
#     4  10  19  32  53  77 101 135 176 211 247 295
#     4  10  18  32  58  80  96 124 172 212 248 304
#     4   9  18  34  54  75 102 134 167 206 253 303
#
# _framework density 18.761323999999998
#
# number of rings (size 3 to 8) (size 9 to 14) (size 15 to 20)
#    0.000    2.667    0.000    1.200    0.000    3.200 
#    0.000   11.333    0.000    2.400    0.000    0.000 
#    0.000    0.000    0.000    0.000    0.000    0.000 
#
# Total GULP energy -371741.873105 kJ/mol
# GULP energy per Si atom -12391.395770 kJ/mol
# Density = 1.871862 g / cm^3
# Si number density = 18.761324 Si / 1000 Ang^3
#
#
#
# Elastic Constant Matrix: (Units=GPa)
#
#
# Indices 1 2 3 4 5 6 
#
# 1 81.6707 25.1596 46.0293 0.0000 9.5049 0.0000
# 2 25.1596 88.5626 48.3253 0.0000 3.3968 0.0000
# 3 46.0293 48.3253 126.6161 0.0000 17.8126 0.0000
# 4 0.0000 0.0000 0.0000 16.9338 0.0000 -1.3815
# 5 9.5049 3.3968 17.8126 0.0000 26.1031 0.0000
# 6 0.0000 0.0000 0.0000 -1.3815 0.0000 9.8454
#
#
#
# Elastic Compliance Matrix: (Units=1/GPa)
#
#
# Indices 1 2 3 4 5 6 
#
# 1 0.015718 -0.001812 -0.004702 0.000000 -0.002279 0.000000
# 2 -0.001812 0.014571 -0.005231 0.000000 0.002333 0.000000
# 3 -0.004702 -0.005231 0.012463 0.000000 -0.006112 0.000000
# 4 0.000000 0.000000 0.000000 0.059737 0.000000 0.008382
# 5 -0.002279 0.002333 -0.006112 0.000000 0.043007 0.000000
# 6 0.000000 0.000000 0.000000 0.008382 0.000000 0.102746
#
#
# Mechanical properties :
#
#
# Convention : Reuss Voigt Hill
#
# Bulk Modulus (GPa) = 51.91342 59.54199 55.72771
# Shear Modulus (GPa) = 17.97575 22.39881 20.18728
#
# Velocity S-wave (km/s) = 3.09872 3.45901 3.28381
# Velocity P-wave (km/s) = 6.36658 6.91075 6.64424
#
# Compressibility (1/GPa) = 0.01926284
#
# Stress axis : x y z
#
# Youngs Moduli (GPa) = 63.62283 68.62940 80.23524
#
# Poissons Ratio (x) = 0.12438 0.37723
# Poissons Ratio (y) = 0.11530 0.41969
# Poissons Ratio (z) = 0.29913 0.35898
#
# Static dielectric constant tensor:
#      x y z
#    x 3.229190 0.000000 -0.006230 
#    y 0.000000 3.491600 0.000000 
#    z -0.006230 0.000000 3.862640 
# 
# 
# High freq. dielectric constant tensor:
#      x y z
#    x 1.702360 0.000000 -0.000830 
#    y 0.000000 1.726320 0.000000 
#    z -0.000830 0.000000 1.746540 
# 
# From -- ./inp_files/95014.got.cif
#   From: 2010.06.25/outbox.cif.g09.slc.cpg/sg13_48_cif.got.tgz:95014.got - 2010.06.28 04:50:58.
