data_PCOD8117877
_publ_section_title
;
Structure prediction by ZEFSAII (Michael W. Deem and Ramdas Pophale) SiO2 
 PCOD8117877
Probable space group: P 2/C
;
_chemical_formula_sum "Si O2"
_cell_formula_units_Z 30
_cell_length_a 11.650450
_cell_length_b 10.471562
_cell_length_c 15.266640
_cell_angle_alpha 90.000000
_cell_angle_beta 55.335980
_cell_angle_gamma 90.000000
_cell_volume 1531.913569
_symmetry_space_group_name_H-M "P 2/C"
_symmetry_group_IT_number 13
_symmetry_cell_setting 'monoclinic'
loop_
_space_group_symop_operation_xyz
x,y,z
-x,y,1/2-z
-x,-y,-z
x,-y,1/2+z
loop_
_atom_site_type_symbol
_atom_site_label
_atom_site_fract_x
_atom_site_fract_y
_atom_site_fract_z
Si Si1 0.158467 0.178114 0.664895
Si Si2 0.943984 0.407210 0.097727
Si Si3 0.481096 0.697537 0.355128
Si Si4 0.500000 0.878503 0.750000
Si Si5 0.419545 0.048764 0.618349
Si Si6 0.235139 0.452545 0.023407
Si Si7 0.735693 0.443317 0.808057
Si Si8 0.763431 0.268013 0.056737
O O1 0.255540 0.069646 0.667516
O O2 0.181717 0.315278 0.700457
O O3 0.188188 0.184535 0.547538
O O4 0.000000 0.135407 0.750000
O O5 0.821886 0.476990 0.201588
O O6 0.883941 0.275394 0.080464
O O7 0.079976 0.390720 0.099817
O O8 0.000000 0.500000 0.000000
O O9 0.500000 0.750289 0.250000
O O10 0.511358 0.813199 0.405568
O O11 0.323402 0.653152 0.434773
O O12 0.586626 0.582108 0.329166
O O13 0.377902 0.789670 0.841677
O O14 0.437837 0.963933 0.697771
O O15 0.500000 0.000000 0.500000
O O16 0.293091 0.468615 0.095792
O O17 0.254792 0.585074 0.963356
#
# Coordination Sequence:
#
# PCOD8117877 Si02
#       8
#     4   4   4   2   4   4   4   4
#     4  10  20  40  66  90 119 167 219 260 316 378
#     4  10  19  34  55  90 127 159 194 250 312 379
#     4  11  22  36  60  90 119 163 215 261 307 376
#     4  12  24  44  64  94 128 168 222 258 328 370
#     4  11  24  45  64  87 127 170 215 275 315 366
#     4  10  21  36  57  93 127 161 199 249 325 378
#     4  10  20  34  57  87 132 162 199 251 316 384
#     4  10  22  36  64  92 125 165 201 263 317 388
#
# _framework density 19.583349999999999
#
# number of rings (size 3 to 8) (size 9 to 14) (size 15 to 20)
#    0.000    1.600    2.000    4.800    2.800    2.133 
#    0.000    2.000    0.000    0.000    0.000    0.000 
#    0.000    0.000    0.000    0.000    0.000    0.000 
#
# Total GULP energy -371865.438043 kJ/mol
# GULP energy per Si atom -12395.514601 kJ/mol
# Density = 1.953878 g / cm^3
# Si number density = 19.583350 Si / 1000 Ang^3
#
#
#
# Elastic Constant Matrix: (Units=GPa)
#
#
# Indices 1 2 3 4 5 6 
#
# 1 118.7617 49.3072 49.6247 0.0000 -6.2983 0.0000
# 2 49.3072 61.1253 47.3692 0.0000 -8.1071 0.0000
# 3 49.6247 47.3692 130.9938 0.0000 -0.5988 0.0000
# 4 0.0000 0.0000 0.0000 25.2084 0.0000 3.3197
# 5 -6.2983 -8.1071 -0.5988 0.0000 34.7639 0.0000
# 6 0.0000 0.0000 0.0000 3.3197 0.0000 35.2529
#
#
#
# Elastic Compliance Matrix: (Units=1/GPa)
#
#
# Indices 1 2 3 4 5 6 
#
# 1 0.012887 -0.009155 -0.001570 0.000000 0.000173 0.000000
# 2 -0.009155 0.030198 -0.007428 0.000000 0.005256 0.000000
# 3 -0.001570 -0.007428 0.010907 0.000000 -0.001829 0.000000
# 4 0.000000 0.000000 0.000000 0.040167 0.000000 -0.003783
# 5 0.000173 0.005256 -0.001829 0.000000 0.029991 0.000000
# 6 0.000000 0.000000 0.000000 -0.003783 0.000000 0.028723
#
#
# Mechanical properties :
#
#
# Convention : Reuss Voigt Hill
#
# Bulk Modulus (GPa) = 56.54666 67.05365 61.80015
# Shear Modulus (GPa) = 25.63133 30.01703 27.82418
#
# Velocity S-wave (km/s) = 3.62170 3.91932 3.77345
# Velocity P-wave (km/s) = 6.81370 7.40243 7.11416
#
# Compressibility (1/GPa) = 0.01768451
#
# Stress axis : x y z
#
# Youngs Moduli (GPa) = 77.59998 33.11464 91.68840
#
# Poissons Ratio (x) = 0.30317 0.14399
# Poissons Ratio (y) = 0.71044 0.68104
# Poissons Ratio (z) = 0.12187 0.24597
#
# Static dielectric constant tensor:
#      x y z
#    x 4.396880 0.000000 0.199920 
#    y 0.000000 3.303860 0.000000 
#    z 0.199920 0.000000 3.588740 
# 
# 
# High freq. dielectric constant tensor:
#      x y z
#    x 1.779180 0.000000 0.005770 
#    y 0.000000 1.728040 0.000000 
#    z 0.005770 0.000000 1.775910 
# 
# From -- ./inp_files/51156.got.cif
#   From: 2010.06.25/outbox.cif.g09.slc.cpg/sg13_26_cif.got.tgz:51156.got - 2010.06.28 04:50:58.
