data_PCOD8117745
_publ_section_title
;
Structure prediction by ZEFSAII (Michael W. Deem and Ramdas Pophale) SiO2 
 PCOD8117745
Probable space group: P 2/C
;
_chemical_formula_sum "Si O2"
_cell_formula_units_Z 32
_cell_length_a 6.642749
_cell_length_b 12.818496
_cell_length_c 23.791227
_cell_angle_alpha 90.000000
_cell_angle_beta 110.672783
_cell_angle_gamma 90.000000
_cell_volume 1895.385101
_symmetry_space_group_name_H-M "P 2/C"
_symmetry_group_IT_number 13
_symmetry_cell_setting 'monoclinic'
loop_
_space_group_symop_operation_xyz
x,y,z
-x,y,1/2-z
-x,-y,-z
x,-y,1/2+z
loop_
_atom_site_type_symbol
_atom_site_label
_atom_site_fract_x
_atom_site_fract_y
_atom_site_fract_z
Si Si1 0.920473 0.331791 0.477105
Si Si2 0.972925 0.067994 0.918795
Si Si3 0.384968 0.797259 0.484458
Si Si4 0.980120 0.631526 0.309947
Si Si5 0.169148 0.866201 0.975187
Si Si6 0.678713 0.184270 0.810062
Si Si7 0.831399 0.459996 0.905907
Si Si8 0.539782 0.317701 0.616715
O O1 0.701222 0.273043 0.472848
O O2 0.865471 0.422269 0.428061
O O3 0.073711 0.250188 0.460464
O O4 0.027764 0.377611 0.544319
O O5 0.193010 0.134046 0.939995
O O6 0.834383 0.093688 0.849362
O O7 0.028777 0.945299 0.923323
O O8 0.835707 0.095349 0.960663
O O9 0.585554 0.868796 0.524275
O O10 0.496494 0.723197 0.449499
O O11 0.816428 0.728837 0.290533
O O12 0.898132 0.547021 0.347065
O O13 0.000000 0.579888 0.250000
O O14 0.209444 0.672353 0.350627
O O15 0.500000 0.136804 0.750000
O O16 0.560402 0.235539 0.850713
O O17 0.581254 0.428888 0.888698
#
# Coordination Sequence:
#
# PCOD8117745 Si02
#       8
#     4   4   4   4   4   4   4   4
#     4  10  20  33  48  74 106 135 170 204 251 306
#     4  10  20  31  48  77 102 133 173 207 253 311
#     4  11  17  31  51  73 104 139 168 198 254 317
#     4  11  20  33  51  75 102 132 167 208 254 309
#     4  10  19  33  50  70 107 138 166 213 252 301
#     4  11  20  31  49  75 104 130 165 210 259 305
#     4  10  21  32  48  76 105 133 168 210 250 304
#     4  11  18  31  49  74 105 132 164 206 253 303
#
# _framework density 16.883111
#
# number of rings (size 3 to 8) (size 9 to 14) (size 15 to 20)
#    0.000    1.500    6.250    1.875    0.000    1.500 
#    0.000    0.000    0.000    0.000    3.250    0.875 
#    0.000    0.000    0.000    0.000    0.000    0.000 
#
# Total GULP energy -396753.187603 kJ/mol
# GULP energy per Si atom -12398.537113 kJ/mol
# Density = 1.684468 g / cm^3
# Si number density = 16.883111 Si / 1000 Ang^3
#
#
#
# Elastic Constant Matrix: (Units=GPa)
#
#
# Indices 1 2 3 4 5 6 
#
# 1 107.6721 36.5492 32.3917 0.0000 7.9417 0.0000
# 2 36.5492 98.3832 47.4476 0.0000 9.3150 0.0000
# 3 32.3917 47.4476 86.8565 0.0000 3.6605 0.0000
# 4 0.0000 0.0000 0.0000 7.7784 0.0000 2.7810
# 5 7.9417 9.3150 3.6605 0.0000 25.5933 0.0000
# 6 0.0000 0.0000 0.0000 2.7810 0.0000 12.7715
#
#
#
# Elastic Compliance Matrix: (Units=1/GPa)
#
#
# Indices 1 2 3 4 5 6 
#
# 1 0.011136 -0.002685 -0.002597 0.000000 -0.002107 0.000000
# 2 -0.002685 0.014860 -0.006966 0.000000 -0.003579 0.000000
# 3 -0.002597 -0.006966 0.016244 0.000000 0.001018 0.000000
# 4 0.000000 0.000000 0.000000 0.139415 0.000000 -0.030357
# 5 -0.002107 -0.003579 0.001018 0.000000 0.040884 0.000000
# 6 0.000000 0.000000 0.000000 -0.030357 0.000000 0.084909
#
#
# Mechanical properties :
#
#
# Convention : Reuss Voigt Hill
#
# Bulk Modulus (GPa) = 56.35644 58.40985 57.38314
# Shear Modulus (GPa) = 14.79913 20.99686 17.89800
#
# Velocity S-wave (km/s) = 2.96389 3.53038 3.25947
# Velocity P-wave (km/s) = 6.72054 7.16169 6.94462
#
# Compressibility (1/GPa) = 0.01774420
#
# Stress axis : x y z
#
# Youngs Moduli (GPa) = 89.80223 67.29535 61.56074
#
# Poissons Ratio (x) = 0.18067 0.15990
# Poissons Ratio (y) = 0.24109 0.42880
# Poissons Ratio (z) = 0.23326 0.46875
#
# Static dielectric constant tensor:
#      x y z
#    x 3.435870 0.000000 0.042100 
#    y 0.000000 3.010570 0.000000 
#    z 0.042100 0.000000 3.101250 
# 
# 
# High freq. dielectric constant tensor:
#      x y z
#    x 1.674070 0.000000 0.004140 
#    y 0.000000 1.624360 0.000000 
#    z 0.004140 0.000000 1.620280 
# 
# From -- ./inp_files/83811.got.cif
#   From: 2010.06.25/outbox.cif.g09.slc.cpg/sg13_42_cif.got.tgz:83811.got - 2010.06.28 04:50:58.
