data_PCOD8117528
_publ_section_title
;
Structure prediction by ZEFSAII (Michael W. Deem and Ramdas Pophale) SiO2 
 PCOD8117528
Probable space group: P 2/C
;
_chemical_formula_sum "Si O2"
_cell_formula_units_Z 26
_cell_length_a 18.632474
_cell_length_b 9.185124
_cell_length_c 26.379226
_cell_angle_alpha 90.000000
_cell_angle_beta 15.820729
_cell_angle_gamma 90.000000
_cell_volume 1230.803182
_symmetry_space_group_name_H-M "P 2/C"
_symmetry_group_IT_number 13
_symmetry_cell_setting 'monoclinic'
loop_
_space_group_symop_operation_xyz
x,y,z
-x,y,1/2-z
-x,-y,-z
x,-y,1/2+z
loop_
_atom_site_type_symbol
_atom_site_label
_atom_site_fract_x
_atom_site_fract_y
_atom_site_fract_z
Si Si1 0.000000 0.525819 0.750000
Si Si2 0.767057 0.330392 0.642927
Si Si3 0.500000 0.558786 0.750000
Si Si4 0.000000 0.029288 0.750000
Si Si5 0.877576 0.285544 0.187701
Si Si6 0.753211 0.214017 0.476820
Si Si7 0.058806 0.614736 0.362377
Si Si8 0.283911 0.729188 0.115038
O O1 0.805889 0.630546 0.913639
O O2 0.818156 0.422287 0.839208
O O3 0.621849 0.461348 0.712186
O O4 0.877919 0.384701 0.621174
O O5 0.007135 0.261585 0.447361
O O6 0.547572 0.207373 0.800320
O O7 0.748959 0.656643 0.562425
O O8 0.885090 0.131070 0.784542
O O9 0.776376 0.923511 0.924136
O O10 0.901069 0.453641 0.186624
O O11 0.577139 0.236531 0.397159
O O12 0.048663 0.192419 0.110943
O O13 0.251815 0.717682 0.198179
#
# Coordination Sequence:
#
# PCOD8117528 Si02
#       8
#     2   4   2   2   4   4   4   4
#     4  10  20  36  66  90 126 162 208 270 310 380
#     4  11  21  38  63  97 129 166 210 263 321 380
#     4  10  18  38  60 102 138 160 204 264 322 374
#     4  10  28  42  64  88 130 172 212 274 316 378
#     4  11  21  37  66  95 126 162 211 268 313 386
#     4  11  21  41  64  91 121 173 220 255 312 378
#     4  11  22  35  67 102 130 165 204 269 325 379
#     4  11  23  42  60  98 128 162 211 267 328 369
#
# _framework density 21.124417999999999
#
# number of rings (size 3 to 8) (size 9 to 14) (size 15 to 20)
#    0.000    1.231    4.615    3.231    4.308    4.308 
#    0.000    0.769    6.769    0.000    0.000    0.000 
#    0.000    0.000    0.000    0.000    0.000    0.000 
#
# Total GULP energy -322293.448775 kJ/mol
# GULP energy per Si atom -12395.901876 kJ/mol
# Density = 2.107634 g / cm^3
# Si number density = 21.124418 Si / 1000 Ang^3
#
#
#
# Elastic Constant Matrix: (Units=GPa)
#
#
# Indices 1 2 3 4 5 6 
#
# 1 116.4873 22.1529 38.4223 0.0000 13.0094 0.0000
# 2 22.1529 77.2587 28.7125 0.0000 8.8284 0.0000
# 3 38.4223 28.7125 168.7054 0.0000 9.0913 0.0000
# 4 0.0000 0.0000 0.0000 11.1737 0.0000 2.5775
# 5 13.0094 8.8284 9.0913 0.0000 38.8404 0.0000
# 6 0.0000 0.0000 0.0000 2.5775 0.0000 12.2483
#
#
#
# Elastic Compliance Matrix: (Units=1/GPa)
#
#
# Indices 1 2 3 4 5 6 
#
# 1 0.009801 -0.001869 -0.001782 0.000000 -0.002441 0.000000
# 2 -0.001869 0.014443 -0.001913 0.000000 -0.002209 0.000000
# 3 -0.001782 -0.001913 0.006688 0.000000 -0.000533 0.000000
# 4 0.000000 0.000000 0.000000 0.094062 0.000000 -0.019794
# 5 -0.002441 -0.002209 -0.000533 0.000000 0.027191 0.000000
# 6 0.000000 0.000000 0.000000 -0.019794 0.000000 0.085810
#
#
# Mechanical properties :
#
#
# Convention : Reuss Voigt Hill
#
# Bulk Modulus (GPa) = 50.50032 60.11407 55.30720
# Shear Modulus (GPa) = 19.55232 30.66337 25.10785
#
# Velocity S-wave (km/s) = 3.04563 3.81407 3.45130
# Velocity P-wave (km/s) = 6.02710 6.92207 6.49003
#
# Compressibility (1/GPa) = 0.01980185
#
# Stress axis : x y z
#
# Youngs Moduli (GPa) = 102.03521 69.23805 149.52498
#
# Poissons Ratio (x) = 0.12939 0.26652
# Poissons Ratio (y) = 0.19069 0.28611
# Poissons Ratio (z) = 0.18187 0.13248
#
# Static dielectric constant tensor:
#      x y z
#    x 3.837490 0.000000 0.081620 
#    y 0.000000 3.395370 0.000000 
#    z 0.081620 0.000000 4.340640 
# 
# 
# High freq. dielectric constant tensor:
#      x y z
#    x 1.835940 0.000000 0.006500 
#    y 0.000000 1.776490 0.000000 
#    z 0.006500 0.000000 1.846810 
# 
# From -- ./inp_files/88027.got.cif
#   From: 2010.06.25/outbox.cif.g09.slc.cpg/sg13_45_cif.got.tgz:88027.got - 2010.06.28 04:50:58.
