data_PCOD8117284
_publ_section_title
;
Structure prediction by ZEFSAII (Michael W. Deem and Ramdas Pophale) SiO2 
 PCOD8117284
Probable space group: P 2/C
;
_chemical_formula_sum "Si O2"
_cell_formula_units_Z 32
_cell_length_a 10.951895
_cell_length_b 10.026991
_cell_length_c 19.855475
_cell_angle_alpha 90.000000
_cell_angle_beta 44.427897
_cell_angle_gamma 90.000000
_cell_volume 1526.318342
_symmetry_space_group_name_H-M "P 2/C"
_symmetry_group_IT_number 13
_symmetry_cell_setting 'monoclinic'
loop_
_space_group_symop_operation_xyz
x,y,z
-x,y,1/2-z
-x,-y,-z
x,-y,1/2+z
loop_
_atom_site_type_symbol
_atom_site_label
_atom_site_fract_x
_atom_site_fract_y
_atom_site_fract_z
Si Si1 0.740253 0.660912 0.951259
Si Si2 0.357377 0.357571 0.157349
Si Si3 0.205894 0.112408 0.976734
Si Si4 0.243104 0.363062 0.540527
Si Si5 0.936751 0.164848 0.982895
Si Si6 0.582239 0.878017 0.285717
Si Si7 0.686832 0.163012 0.207040
Si Si8 0.342505 0.656402 0.149066
O O1 0.738086 0.690428 0.872927
O O2 0.847019 0.777006 0.946882
O O3 0.820893 0.516102 0.935855
O O4 0.546383 0.657505 0.055634
O O5 0.566504 0.343192 0.067639
O O6 0.279276 0.265708 0.246186
O O7 0.298687 0.509809 0.195188
O O8 0.411861 0.082353 0.896963
O O9 0.109547 0.975358 0.034230
O O10 0.139138 0.162173 0.928294
O O11 0.098357 0.281558 0.556294
O O12 0.242211 0.314183 0.618641
O O13 0.829415 0.185266 0.093905
O O14 0.500000 0.816136 0.250000
O O15 0.701647 0.769643 0.277929
O O16 0.695928 0.010526 0.229473
O O17 0.500000 0.194918 0.250000
#
# Coordination Sequence:
#
# PCOD8117284 Si02
#       8
#     4   4   4   4   4   4   4   4
#     4   8  17  32  52  74 100 129 168 211 248 293
#     4   9  16  31  52  76 101 128 167 214 252 290
#     4  10  20  35  51  74 102 135 168 202 252 303
#     4   9  16  32  52  76 102 127 171 212 245 292
#     4  11  21  33  51  75 105 136 167 205 252 305
#     4  10  18  34  53  76 104 128 165 212 254 293
#     4  11  19  32  49  77 105 131 166 210 254 295
#     4   8  17  30  52  79  99 127 166 215 250 288
#
# _framework density 20.965482999999999
#
# number of rings (size 3 to 8) (size 9 to 14) (size 15 to 20)
#    0.000    2.500    3.750    1.500    0.000    2.000 
#    2.250    4.375    0.000    0.750    0.000    0.000 
#    0.000    0.000    0.000    0.000    0.000    0.000 
#
# Total GULP energy -396657.644333 kJ/mol
# GULP energy per Si atom -12395.551385 kJ/mol
# Density = 2.091776 g / cm^3
# Si number density = 20.965483 Si / 1000 Ang^3
#
#
#
# Elastic Constant Matrix: (Units=GPa)
#
#
# Indices 1 2 3 4 5 6 
#
# 1 72.1398 67.7639 17.4698 0.0000 25.4528 0.0000
# 2 67.7639 129.2857 37.3700 0.0000 42.3453 0.0000
# 3 17.4698 37.3700 39.8966 0.0000 20.3880 0.0000
# 4 0.0000 0.0000 0.0000 24.6805 0.0000 19.5609
# 5 25.4528 42.3453 20.3880 0.0000 34.2581 0.0000
# 6 0.0000 0.0000 0.0000 19.5609 0.0000 41.4842
#
#
#
# Elastic Compliance Matrix: (Units=1/GPa)
#
#
# Indices 1 2 3 4 5 6 
#
# 1 0.028051 -0.013822 0.003712 0.000000 -0.005966 0.000000
# 2 -0.013822 0.020775 -0.007950 0.000000 -0.010679 0.000000
# 3 0.003712 -0.007950 0.039193 0.000000 -0.016256 0.000000
# 4 0.000000 0.000000 0.000000 0.064696 0.000000 -0.030506
# 5 -0.005966 -0.010679 -0.016256 0.000000 0.056497 0.000000
# 6 0.000000 0.000000 0.000000 -0.030506 0.000000 0.038490
#
#
# Mechanical properties :
#
#
# Convention : Reuss Voigt Hill
#
# Bulk Modulus (GPa) = 19.26778 54.05882 36.66330
# Shear Modulus (GPa) = 16.60459 27.99911 22.30185
#
# Velocity S-wave (km/s) = 2.81730 3.65839 3.26504
# Velocity P-wave (km/s) = 4.44894 6.60952 5.63378
#
# Compressibility (1/GPa) = 0.05190011
#
# Stress axis : x y z
#
# Youngs Moduli (GPa) = 35.64885 48.13476 25.51470
#
# Poissons Ratio (x) = 0.66531 -0.09471
# Poissons Ratio (y) = 0.49273 0.20284
# Poissons Ratio (z) = -0.13233 0.38267
#
# Static dielectric constant tensor:
#      x y z
#    x 3.981400 0.000000 0.188150 
#    y 0.000000 4.098810 0.000000 
#    z 0.188150 0.000000 3.650290 
# 
# 
# High freq. dielectric constant tensor:
#      x y z
#    x 1.811100 0.000000 0.007340 
#    y 0.000000 1.819170 0.000000 
#    z 0.007340 0.000000 1.801660 
# 
# From -- ./inp_files/78264.got.cif
#   From: 2010.06.25/outbox.cif.g09.slc.cpg/sg13_40_cif.got.tgz:78264.got - 2010.06.28 04:50:58.
