data_PCOD8117895
_publ_section_title
;
Structure prediction by ZEFSAII (Michael W. Deem and Ramdas Pophale) SiO2 
 PCOD8117895
Probable space group: P 2/C
;
_chemical_formula_sum "Si O2"
_cell_formula_units_Z 28
_cell_length_a 9.237895
_cell_length_b 14.691236
_cell_length_c 22.395306
_cell_angle_alpha 90.000000
_cell_angle_beta 26.275416
_cell_angle_gamma 90.000000
_cell_volume 1345.502872
_symmetry_space_group_name_H-M "P 2/C"
_symmetry_group_IT_number 13
_symmetry_cell_setting 'monoclinic'
loop_
_space_group_symop_operation_xyz
x,y,z
-x,y,1/2-z
-x,-y,-z
x,-y,1/2+z
loop_
_atom_site_type_symbol
_atom_site_label
_atom_site_fract_x
_atom_site_fract_y
_atom_site_fract_z
Si Si1 0.386435 0.503777 0.355045
Si Si2 0.303641 0.816399 0.493747
Si Si3 0.372254 0.373138 0.132421
Si Si4 0.251953 0.179572 0.210369
Si Si5 0.806734 0.696213 0.377591
Si Si6 0.553312 0.286707 0.796599
Si Si7 0.382865 0.002164 0.610929
O O1 0.500000 0.460832 0.250000
O O2 0.540935 0.449488 0.352480
O O3 0.521495 0.605106 0.310395
O O4 0.000000 0.500000 0.500000
O O5 0.553066 0.773639 0.450302
O O6 0.285343 0.755046 0.440973
O O7 0.432790 0.914759 0.425277
O O8 0.941166 0.824403 0.655364
O O9 0.451435 0.274120 0.132834
O O10 0.000000 0.384131 0.250000
O O11 0.606479 0.381601 0.987498
O O12 0.000000 0.180057 0.250000
O O13 0.469467 0.088918 0.117869
O O14 0.000000 0.651024 0.250000
O O15 0.081497 0.741939 0.318225
O O16 0.500000 0.248191 0.750000
O O17 0.000000 0.020861 0.750000
O O18 0.500000 0.000000 0.500000
#
# Coordination Sequence:
#
# PCOD8117895 Si02
#       7
#     4   4   4   4   4   4   4
#     4  11  26  45  65  92 125 170 219 259 316 389
#     4  11  20  37  62  94 123 164 207 259 315 366
#     4  11  21  39  65  93 129 166 204 269 321 365
#     4  10  19  34  56  94 135 154 202 256 314 374
#     4  10  20  37  60  89 124 155 207 258 311 369
#     4  10  23  42  62  85 123 166 217 260 307 378
#     4  11  18  31  55  91 132 159 197 251 311 371
#
# _framework density 20.810061999999999
#
# number of rings (size 3 to 8) (size 9 to 14) (size 15 to 20)
#    0.000    1.429    5.714    3.000    2.000    1.714 
#    0.000    4.286    0.000    1.714    0.000    0.000 
#    0.000    0.000    0.000    0.000    0.000    0.000 
#
# Total GULP energy -347099.654711 kJ/mol
# GULP energy per Si atom -12396.416240 kJ/mol
# Density = 2.076270 g / cm^3
# Si number density = 20.810062 Si / 1000 Ang^3
#
#
#
# Elastic Constant Matrix: (Units=GPa)
#
#
# Indices 1 2 3 4 5 6 
#
# 1 105.9168 35.7662 50.4901 0.0000 23.9947 0.0000
# 2 35.7662 95.7906 29.7066 0.0000 19.1786 0.0000
# 3 50.4901 29.7066 163.5044 0.0000 33.7202 0.0000
# 4 0.0000 0.0000 0.0000 29.5029 0.0000 11.7491
# 5 23.9947 19.1786 33.7202 0.0000 32.8797 0.0000
# 6 0.0000 0.0000 0.0000 11.7491 0.0000 5.5791
#
#
#
# Elastic Compliance Matrix: (Units=1/GPa)
#
#
# Indices 1 2 3 4 5 6 
#
# 1 0.012730 -0.003000 -0.002322 0.000000 -0.005159 0.000000
# 2 -0.003000 0.012637 -0.000382 0.000000 -0.004790 0.000000
# 3 -0.002322 -0.000382 0.008252 0.000000 -0.006546 0.000000
# 4 0.000000 0.000000 0.000000 0.210084 0.000000 -0.442423
# 5 -0.005159 -0.004790 -0.006546 0.000000 0.043686 0.000000
# 6 0.000000 0.000000 0.000000 -0.442423 0.000000 1.110955
#
#
# Mechanical properties :
#
#
# Convention : Reuss Voigt Hill
#
# Bulk Modulus (GPa) = 45.02084 66.34860 55.68472
# Shear Modulus (GPa) = 3.52819 30.20893 16.86856
#
# Velocity S-wave (km/s) = 1.30350 3.81419 2.85019
# Velocity P-wave (km/s) = 4.89353 7.16586 6.13580
#
# Compressibility (1/GPa) = 0.02221194
#
# Stress axis : x y z
#
# Youngs Moduli (GPa) = 78.55436 79.13227 121.17542
#
# Poissons Ratio (x) = 0.23741 0.28138
# Poissons Ratio (y) = 0.23568 0.04624
# Poissons Ratio (z) = 0.18241 0.03020
#
# Static dielectric constant tensor:
#      x y z
#    x 3.559240 0.000000 0.282690 
#    y 0.000000 4.367220 0.000000 
#    z 0.282690 0.000000 4.034470 
# 
# 
# High freq. dielectric constant tensor:
#      x y z
#    x 1.778190 0.000000 0.021550 
#    y 0.000000 1.808480 0.000000 
#    z 0.021550 0.000000 1.834380 
# 
# From -- ./inp_files/76697.got.cif
#   From: 2010.06.25/outbox.cif.g09.slc.cpg/sg13_39_cif.got.tgz:76697.got - 2010.06.28 04:50:58.
