data_PCOD8117631
_publ_section_title
;
Structure prediction by ZEFSAII (Michael W. Deem and Ramdas Pophale) SiO2 
 PCOD8117631
Probable space group: P 2/C
;
_chemical_formula_sum "Si O2"
_cell_formula_units_Z 28
_cell_length_a 5.197962
_cell_length_b 13.799777
_cell_length_c 25.896385
_cell_angle_alpha 90.000000
_cell_angle_beta 57.291068
_cell_angle_gamma 90.000000
_cell_volume 1563.005565
_symmetry_space_group_name_H-M "P 2/C"
_symmetry_group_IT_number 13
_symmetry_cell_setting 'monoclinic'
loop_
_space_group_symop_operation_xyz
x,y,z
-x,y,1/2-z
-x,-y,-z
x,-y,1/2+z
loop_
_atom_site_type_symbol
_atom_site_label
_atom_site_fract_x
_atom_site_fract_y
_atom_site_fract_z
Si Si1 0.195038 0.547161 0.177138
Si Si2 0.709115 0.112821 0.535368
Si Si3 0.875184 0.962955 0.593694
Si Si4 0.952020 0.163963 0.907653
Si Si5 0.197720 0.669992 0.677089
Si Si6 0.699304 0.661543 0.177289
Si Si7 0.307497 0.783753 0.822732
O O1 0.270353 0.438654 0.149638
O O2 0.499070 0.610943 0.154122
O O3 0.000000 0.541992 0.250000
O O4 0.993382 0.594499 0.154253
O O5 0.408127 0.180075 0.562791
O O6 0.836468 0.089948 0.464756
O O7 0.959510 0.174630 0.541119
O O8 0.656421 0.009952 0.572277
O O9 0.711893 0.889033 0.649544
O O10 0.988104 0.052779 0.616847
O O11 0.172576 0.233831 0.851736
O O12 0.523046 0.717127 0.653930
O O13 0.000000 0.664794 0.750000
O O14 0.018629 0.733521 0.653716
O O15 0.500000 0.676281 0.250000
O O16 0.500000 0.796334 0.750000
#
# Coordination Sequence:
#
# PCOD8117631 Si02
#       7
#     4   4   4   4   4   4   4
#     4   9  17  31  49  70  99 134 167 204 239 293
#     4   9  20  34  52  72  95 133 175 212 229 279
#     4   9  21  33  55  70 106 125 176 200 244 287
#     4  10  19  33  50  74 102 125 170 207 245 281
#     4   9  18  32  48  72 102 130 168 203 240 296
#     4  10  19  30  50  76 103 132 163 198 256 306
#     4  10  20  31  50  77 104 131 157 199 258 303
#
# _framework density 17.914203000000001
#
# number of rings (size 3 to 8) (size 9 to 14) (size 15 to 20)
#    0.857    1.714    0.000    2.143    2.000    4.000 
#    0.000    0.000    0.000    0.000    0.000   20.000 
#    0.000    0.000    0.000    0.000    0.000    0.000 
#
# Total GULP energy -346902.762643 kJ/mol
# GULP energy per Si atom -12389.384380 kJ/mol
# Density = 1.787343 g / cm^3
# Si number density = 17.914203 Si / 1000 Ang^3
#
#
#
# Elastic Constant Matrix: (Units=GPa)
#
#
# Indices 1 2 3 4 5 6 
#
# 1 130.7235 35.2930 27.1847 0.0000 -17.3154 0.0000
# 2 35.2930 67.3020 32.3052 0.0000 2.3243 0.0000
# 3 27.1847 32.3052 36.9838 0.0000 -2.7971 0.0000
# 4 0.0000 0.0000 0.0000 5.0931 0.0000 -2.1802
# 5 -17.3154 2.3243 -2.7971 0.0000 15.7824 0.0000
# 6 0.0000 0.0000 0.0000 -2.1802 0.0000 23.3779
#
#
#
# Elastic Compliance Matrix: (Units=1/GPa)
#
#
# Indices 1 2 3 4 5 6 
#
# 1 0.011262 -0.004855 -0.003090 0.000000 0.012523 0.000000
# 2 -0.004855 0.028672 -0.022500 0.000000 -0.013537 0.000000
# 3 -0.003090 -0.022500 0.049623 0.000000 0.008718 0.000000
# 4 0.000000 0.000000 0.000000 0.204507 0.000000 0.019072
# 5 0.012523 -0.013537 0.008718 0.000000 0.080640 0.000000
# 6 0.000000 0.000000 0.000000 0.019072 0.000000 0.044554
#
#
# Mechanical properties :
#
#
# Convention : Reuss Voigt Hill
#
# Bulk Modulus (GPa) = 34.88334 47.17501 41.02917
# Shear Modulus (GPa) = 10.21026 18.19911 14.20469
#
# Velocity S-wave (km/s) = 2.38996 3.19078 2.81895
# Velocity P-wave (km/s) = 5.20870 6.32185 5.79208
#
# Compressibility (1/GPa) = 0.02866698
#
# Stress axis : x y z
#
# Youngs Moduli (GPa) = 88.79518 34.87740 20.15187
#
# Poissons Ratio (x) = 0.16933 0.06227
# Poissons Ratio (y) = 0.43110 0.45342
# Poissons Ratio (z) = 0.27438 0.78474
#
# Static dielectric constant tensor:
#      x y z
#    x 3.502020 0.000000 -0.068700 
#    y 0.000000 3.307040 0.000000 
#    z -0.068700 0.000000 2.807570 
# 
# 
# High freq. dielectric constant tensor:
#      x y z
#    x 1.707040 0.000000 -0.008850 
#    y 0.000000 1.689380 0.000000 
#    z -0.008850 0.000000 1.640580 
# 
# From -- ./inp_files/95257.got.cif
#   From: 2010.06.25/outbox.cif.g09.slc.cpg/sg13_48_cif.got.tgz:95257.got - 2010.06.28 04:50:58.
