data_PCOD8117849
_publ_section_title
;
Structure prediction by ZEFSAII (Michael W. Deem and Ramdas Pophale) SiO2 
 PCOD8117849
Probable space group: P 2/C
;
_chemical_formula_sum "Si O2"
_cell_formula_units_Z 32
_cell_length_a 10.847601
_cell_length_b 9.296633
_cell_length_c 20.860784
_cell_angle_alpha 90.000000
_cell_angle_beta 56.996133
_cell_angle_gamma 90.000000
_cell_volume 1764.259162
_symmetry_space_group_name_H-M "P 2/C"
_symmetry_group_IT_number 13
_symmetry_cell_setting 'monoclinic'
loop_
_space_group_symop_operation_xyz
x,y,z
-x,y,1/2-z
-x,-y,-z
x,-y,1/2+z
loop_
_atom_site_type_symbol
_atom_site_label
_atom_site_fract_x
_atom_site_fract_y
_atom_site_fract_z
Si Si1 0.083642 0.120839 0.162387
Si Si2 0.472349 0.480507 0.582070
Si Si3 0.813371 0.239337 0.178290
Si Si4 0.495862 0.156961 0.578555
Si Si5 0.347464 0.732047 0.903714
Si Si6 0.424829 0.034320 0.209609
Si Si7 0.828292 0.397559 0.297186
Si Si8 0.707786 0.933303 0.473761
O O1 0.190945 0.249616 0.156084
O O2 0.161708 0.982415 0.109746
O O3 0.000000 0.066978 0.250000
O O4 0.982736 0.190171 0.135071
O O5 0.500000 0.500000 0.500000
O O6 0.522107 0.321855 0.589296
O O7 0.574265 0.587247 0.594261
O O8 0.295130 0.492792 0.642669
O O9 0.765866 0.298316 0.122163
O O10 0.729562 0.095522 0.223726
O O11 0.785610 0.369084 0.235527
O O12 0.651235 0.074492 0.528011
O O13 0.399056 0.083087 0.661823
O O14 0.417855 0.142846 0.532285
O O15 0.477803 0.833907 0.843472
O O16 0.249829 0.810769 0.986515
O O17 0.500000 0.959521 0.250000
O O18 0.000000 0.452541 0.250000
#
# Coordination Sequence:
#
# PCOD8117849 Si02
#       8
#     4   4   4   4   4   4   4   4
#     4   9  18  31  56  80 104 139 186 220 273 335
#     4  12  21  34  54  85 106 145 186 235 268 337
#     4   9  17  34  56  80 103 144 179 222 266 343
#     4  10  20  32  54  76 110 136 181 230 273 313
#     4  10  20  32  56  79 110 137 179 223 277 317
#     4   9  17  33  52  77 105 133 171 224 270 315
#     4   9  19  35  55  79 108 142 182 223 276 329
#     4  10  19  34  52  81 105 144 173 230 276 320
#
# _framework density 18.137924000000002
#
# number of rings (size 3 to 8) (size 9 to 14) (size 15 to 20)
#    0.000    2.500    2.500    2.250    1.750    0.500 
#    2.250    1.875    0.000    6.750    0.000    0.000 
#    0.000    0.000    0.000    0.000    0.000    0.000 
#
# Total GULP energy -396543.505403 kJ/mol
# GULP energy per Si atom -12391.984544 kJ/mol
# Density = 1.809664 g / cm^3
# Si number density = 18.137924 Si / 1000 Ang^3
#
#
#
# Elastic Constant Matrix: (Units=GPa)
#
#
# Indices 1 2 3 4 5 6 
#
# 1 91.4438 33.3477 39.8275 0.0000 21.4828 0.0000
# 2 33.3477 97.6918 41.2197 0.0000 6.7200 0.0000
# 3 39.8275 41.2197 82.9956 0.0000 10.9038 0.0000
# 4 0.0000 0.0000 0.0000 24.7147 0.0000 0.7365
# 5 21.4828 6.7200 10.9038 0.0000 34.3579 0.0000
# 6 0.0000 0.0000 0.0000 0.7365 0.0000 18.9569
#
#
#
# Elastic Compliance Matrix: (Units=1/GPa)
#
#
# Indices 1 2 3 4 5 6 
#
# 1 0.016091 -0.002695 -0.005354 0.000000 -0.007835 0.000000
# 2 -0.002695 0.013410 -0.005472 0.000000 0.000799 0.000000
# 3 -0.005354 -0.005472 0.017484 0.000000 -0.001131 0.000000
# 4 0.000000 0.000000 0.000000 0.040509 0.000000 -0.001574
# 5 -0.007835 0.000799 -0.001131 0.000000 0.034207 0.000000
# 6 0.000000 0.000000 0.000000 -0.001574 0.000000 0.052813
#
#
# Mechanical properties :
#
#
# Convention : Reuss Voigt Hill
#
# Bulk Modulus (GPa) = 50.14031 55.65789 52.89910
# Shear Modulus (GPa) = 24.01510 26.12163 25.06836
#
# Velocity S-wave (km/s) = 3.64267 3.79907 3.72169
# Velocity P-wave (km/s) = 6.73765 7.07082 6.90624
#
# Compressibility (1/GPa) = 0.01994403
#
# Stress axis : x y z
#
# Youngs Moduli (GPa) = 62.14700 74.57128 57.19444
#
# Poissons Ratio (x) = 0.20095 0.30621
# Poissons Ratio (y) = 0.16747 0.31296
# Poissons Ratio (z) = 0.33273 0.40804
#
# Static dielectric constant tensor:
#      x y z
#    x 3.360730 0.000000 0.169290 
#    y 0.000000 3.212170 0.000000 
#    z 0.169290 0.000000 3.437440 
# 
# 
# High freq. dielectric constant tensor:
#      x y z
#    x 1.693590 0.000000 0.013260 
#    y 0.000000 1.673240 0.000000 
#    z 0.013260 0.000000 1.703140 
# 
# From -- ./inp_files/78055.got.cif
#   From: 2010.06.25/outbox.cif.g09.slc.cpg/sg13_40_cif.got.tgz:78055.got - 2010.06.28 04:50:58.
