data_PCOD8117056
_publ_section_title
;
Structure prediction by ZEFSAII (Michael W. Deem and Ramdas Pophale) SiO2 
 PCOD8117056
Probable space group: P 2/C
;
_chemical_formula_sum "Si O2"
_cell_formula_units_Z 26
_cell_length_a 5.377923
_cell_length_b 13.076270
_cell_length_c 22.071816
_cell_angle_alpha 90.000000
_cell_angle_beta 61.198406
_cell_angle_gamma 90.000000
_cell_volume 1360.147495
_symmetry_space_group_name_H-M "P 2/C"
_symmetry_group_IT_number 13
_symmetry_cell_setting 'monoclinic'
loop_
_space_group_symop_operation_xyz
x,y,z
-x,y,1/2-z
-x,-y,-z
x,-y,1/2+z
loop_
_atom_site_type_symbol
_atom_site_label
_atom_site_fract_x
_atom_site_fract_y
_atom_site_fract_z
Si Si1 0.951039 0.378212 0.363240
Si Si2 0.318974 0.580294 0.154473
Si Si3 0.500000 0.882778 0.250000
Si Si4 0.260818 0.436201 0.993336
Si Si5 0.000000 0.248644 0.750000
Si Si6 0.343778 0.078722 0.326621
Si Si7 0.500000 0.462552 0.250000
Si Si8 0.835718 0.166859 0.330030
O O1 0.283807 0.384734 0.308663
O O2 0.836015 0.490293 0.362627
O O3 0.877184 0.355356 0.442685
O O4 0.808804 0.289389 0.339833
O O5 0.597547 0.613965 0.083276
O O6 0.372388 0.539475 0.215713
O O7 0.125916 0.681001 0.181557
O O8 0.748882 0.817355 0.250556
O O9 0.359501 0.955018 0.318760
O O10 0.500000 0.500000 0.000000
O O11 0.000000 0.500000 0.000000
O O12 0.500000 0.130019 0.250000
O O13 0.518543 0.118127 0.365282
O O14 0.017802 0.119483 0.365059
O O15 0.000000 0.134016 0.250000
#
# Coordination Sequence:
#
# PCOD8117056 Si02
#       8
#     4   4   2   4   2   4   2   4
#     4  11  23  33  54  84 119 158 184 223 281 343
#     4  11  23  36  52  84 118 155 193 234 266 330
#     4  10  21  37  54  80 110 142 183 239 310 332
#     4  10  22  39  54  71 116 166 196 217 268 329
#     4  12  22  34  58  82 106 146 196 244 280 318
#     4   8  18  33  50  75 111 132 173 228 293 346
#     4  12  19  33  54  76 126 144 195 231 276 306
#     4  10  18  30  52  81 111 139 171 224 285 342
#
# _framework density 19.115576000000001
#
# number of rings (size 3 to 8) (size 9 to 14) (size 15 to 20)
#    0.462    1.231    3.077    2.308    5.385    0.000 
#    0.000    0.000    0.000    0.000    0.000    6.462 
#    0.000    0.000    0.000    0.000    0.000    0.000 
#
# Total GULP energy -322093.926334 kJ/mol
# GULP energy per Si atom -12388.227936 kJ/mol
# Density = 1.907207 g / cm^3
# Si number density = 19.115576 Si / 1000 Ang^3
#
#
#
# Elastic Constant Matrix: (Units=GPa)
#
#
# Indices 1 2 3 4 5 6 
#
# 1 149.3099 54.8627 20.0095 0.0000 -5.4741 0.0000
# 2 54.8627 112.5473 22.1609 0.0000 -6.6019 0.0000
# 3 20.0095 22.1609 97.2153 0.0000 -17.8286 0.0000
# 4 0.0000 0.0000 0.0000 0.0679 0.0000 2.2905
# 5 -5.4741 -6.6019 -17.8286 0.0000 18.7643 0.0000
# 6 0.0000 0.0000 0.0000 2.2905 0.0000 37.2211
#
#
#
# Elastic Compliance Matrix: (Units=1/GPa)
#
#
# Indices 1 2 3 4 5 6 
#
# 1 0.008222 -0.003840 -0.000757 0.000000 0.000329 0.000000
# 2 -0.003840 0.011132 -0.001495 0.000000 0.001376 0.000000
# 3 -0.000757 -0.001495 0.012893 0.000000 0.011503 0.000000
# 4 0.000000 0.000000 0.000000-13.696719 0.000000 0.842859
# 5 0.000329 0.001376 0.011503 0.000000 0.064802 0.000000
# 6 0.000000 0.000000 0.000000 0.842859 0.000000 -0.025001
#
#
# Mechanical properties :
#
#
# Convention : Reuss Voigt Hill
#
# Bulk Modulus (GPa) = 49.84116 61.45987 55.65052
# Shear Modulus (GPa) = -0.36749 28.67995 14.15623
#
# Velocity S-wave (km/s) = -0.43893 3.87763 2.72428
# Velocity P-wave (km/s) = 5.08658 7.22977 6.25071
#
# Compressibility (1/GPa) = 0.02006374
#
# Stress axis : x y z
#
# Youngs Moduli (GPa) = 121.62874 89.83228 77.56424
#
# Poissons Ratio (x) = 0.34491 0.05870
# Poissons Ratio (y) = 0.46700 0.11595
# Poissons Ratio (z) = 0.09204 0.13429
#
# Static dielectric constant tensor:
#      x y z
#    x 3.936610 0.000000 -0.030210 
#    y 0.000000 3.271430 0.000000 
#    z -0.030210 0.000000 3.984570 
# 
# 
# High freq. dielectric constant tensor:
#      x y z
#    x 1.763450 0.000000 -0.005310 
#    y 0.000000 1.716980 0.000000 
#    z -0.005310 0.000000 1.704980 
# 
# From -- ./inp_files/83497.got.cif
#   From: 2010.06.25/outbox.cif.g09.slc.cpg/sg13_42_cif.got.tgz:83497.got - 2010.06.28 04:50:58.
