data_PCOD8117297
_publ_section_title
;
Structure prediction by ZEFSAII (Michael W. Deem and Ramdas Pophale) SiO2 
 PCOD8117297
Probable space group: P 2/C
;
_chemical_formula_sum "Si O2"
_cell_formula_units_Z 20
_cell_length_a 12.671921
_cell_length_b 12.022666
_cell_length_c 9.046407
_cell_angle_alpha 90.000000
_cell_angle_beta 45.984079
_cell_angle_gamma 90.000000
_cell_volume 991.144285
_symmetry_space_group_name_H-M "P 2/C"
_symmetry_group_IT_number 13
_symmetry_cell_setting 'monoclinic'
loop_
_space_group_symop_operation_xyz
x,y,z
-x,y,1/2-z
-x,-y,-z
x,-y,1/2+z
loop_
_atom_site_type_symbol
_atom_site_label
_atom_site_fract_x
_atom_site_fract_y
_atom_site_fract_z
Si Si1 0.859536 0.252203 0.591783
Si Si2 0.892196 0.541098 0.226312
Si Si3 0.311633 0.083886 0.566057
Si Si4 0.363426 0.133385 0.184344
Si Si5 0.190887 0.300712 0.179377
O O1 0.800324 0.354328 0.752643
O O2 0.823673 0.139903 0.715565
O O3 0.779294 0.249122 0.511453
O O4 0.032572 0.265287 0.396191
O O5 0.790397 0.434292 0.362668
O O6 0.000000 0.582323 0.250000
O O7 0.000000 0.500000 0.000000
O O8 0.290709 0.097105 0.410628
O O9 0.461915 0.142489 0.471707
O O10 0.315984 0.954285 0.604257
O O11 0.308303 0.253964 0.182652
#
# Coordination Sequence:
#
# PCOD8117297 Si02
#       5
#     4   4   4   4   4
#     4  10  21  34  58  86 112 145 185 225 275 324
#     4  10  18  34  55  82 115 148 179 220 275 329
#     4  10  22  39  58  82 107 150 185 226 278 329
#     4  10  22  39  59  79 112 145 187 227 276 331
#     4  10  20  36  56  86 113 145 183 229 270 327
#
# _framework density 20.178698000000001
#
# number of rings (size 3 to 8) (size 9 to 14) (size 15 to 20)
#    0.000    2.000    4.000    1.200    5.600    3.200 
#    0.000    1.000    0.000    0.000    0.000    0.000 
#    0.000    0.000    0.000    0.000    0.000    0.000 
#
# Total GULP energy -247884.416925 kJ/mol
# GULP energy per Si atom -12394.220846 kJ/mol
# Density = 2.013277 g / cm^3
# Si number density = 20.178698 Si / 1000 Ang^3
#
#
#
# Elastic Constant Matrix: (Units=GPa)
#
#
# Indices 1 2 3 4 5 6 
#
# 1 90.8053 38.2697 20.3234 0.0000 26.1592 0.0000
# 2 38.2697 74.3974 13.7263 0.0000 2.8463 0.0000
# 3 20.3234 13.7263 66.2855 0.0000 18.9665 0.0000
# 4 0.0000 0.0000 0.0000 25.5699 0.0000 8.2258
# 5 26.1592 2.8463 18.9665 0.0000 30.3316 0.0000
# 6 0.0000 0.0000 0.0000 8.2258 0.0000 39.3453
#
#
#
# Elastic Compliance Matrix: (Units=1/GPa)
#
#
# Indices 1 2 3 4 5 6 
#
# 1 0.019654 -0.009605 0.000676 0.000000 -0.016472 0.000000
# 2 -0.009605 0.018678 -0.003400 0.000000 0.008657 0.000000
# 3 0.000676 -0.003400 0.019071 0.000000 -0.012189 0.000000
# 4 0.000000 0.000000 0.000000 0.041928 0.000000 -0.008766
# 5 -0.016472 0.008657 -0.012189 0.000000 0.053985 0.000000
# 6 0.000000 0.000000 0.000000 -0.008766 0.000000 0.027249
#
#
# Mechanical properties :
#
#
# Convention : Reuss Voigt Hill
#
# Bulk Modulus (GPa) = 30.53813 41.79189 36.16501
# Shear Modulus (GPa) = 23.13341 29.66061 26.39701
#
# Velocity S-wave (km/s) = 3.38957 3.83808 3.62078
# Velocity P-wave (km/s) = 5.52137 6.35587 5.95326
#
# Compressibility (1/GPa) = 0.03274595
#
# Stress axis : x y z
#
# Youngs Moduli (GPa) = 50.87906 53.53874 52.43644
#
# Poissons Ratio (x) = 0.51422 -0.03545
# Poissons Ratio (y) = 0.48868 0.17828
# Poissons Ratio (z) = -0.03440 0.18203
#
# Static dielectric constant tensor:
#      x y z
#    x 4.062920 0.000000 0.803010 
#    y 0.000000 -1.679470 0.000000 
#    z 0.803010 0.000000 3.978590 
# 
# 
# High freq. dielectric constant tensor:
#      x y z
#    x 1.774370 0.000000 0.036650 
#    y 0.000000 1.786480 0.000000 
#    z 0.036650 0.000000 1.776440 
# 
# From -- ./inp_files/15729.got.cif
#   From: 2010.06.25/outbox.cif.g09.slc.cpg/sg13_8_cif.got.tgz:15729.got - 2010.06.28 04:50:58.
