data_PCOD8117532
_publ_section_title
;
Structure prediction by ZEFSAII (Michael W. Deem and Ramdas Pophale) SiO2 
 PCOD8117532
Probable space group: P 2/C
;
_chemical_formula_sum "Si O2"
_cell_formula_units_Z 18
_cell_length_a 20.551342
_cell_length_b 5.343111
_cell_length_c 16.026835
_cell_angle_alpha 90.000000
_cell_angle_beta 28.097118
_cell_angle_gamma 90.000000
_cell_volume 828.844569
_symmetry_space_group_name_H-M "P 2/C"
_symmetry_group_IT_number 13
_symmetry_cell_setting 'monoclinic'
loop_
_space_group_symop_operation_xyz
x,y,z
-x,y,1/2-z
-x,-y,-z
x,-y,1/2+z
loop_
_atom_site_type_symbol
_atom_site_label
_atom_site_fract_x
_atom_site_fract_y
_atom_site_fract_z
Si Si1 0.000000 0.554887 0.250000
Si Si2 0.098070 0.937770 0.265739
Si Si3 0.904708 0.304792 0.562842
Si Si4 0.636383 0.942459 0.648725
Si Si5 0.723023 0.569270 0.127114
O O1 0.859337 0.396710 0.414725
O O2 0.004536 0.722219 0.329323
O O3 0.996582 0.177854 0.384983
O O4 0.144015 0.884138 0.309443
O O5 0.235190 0.979113 0.057941
O O6 0.768204 0.420036 0.673523
O O7 0.000000 0.500000 0.500000
O O8 0.500000 0.906379 0.750000
O O9 0.624029 0.194540 0.718544
O O10 0.650801 0.696950 0.690709
#
# Coordination Sequence:
#
# PCOD8117532 Si02
#       5
#     2   4   4   4   4
#     4  10  18  38  60  96 116 160 200 260 310 360
#     4  10  22  36  62  91 130 157 202 252 316 361
#     4  11  21  37  61  98 128 152 194 261 328 367
#     4  11  25  44  63  87 123 171 217 247 287 364
#     4  11  22  39  64  90 124 160 206 255 308 359
#
# _framework density 21.71698
#
# number of rings (size 3 to 8) (size 9 to 14) (size 15 to 20)
#    0.000    1.333    2.222    4.667    6.222    0.889 
#    0.000    2.222    0.000    0.000    0.000    0.000 
#    0.000    0.000    0.000    0.000    0.000    0.000 
#
# Total GULP energy -223145.777488 kJ/mol
# GULP energy per Si atom -12396.987638 kJ/mol
# Density = 2.166755 g / cm^3
# Si number density = 21.716980 Si / 1000 Ang^3
#
#
#
# Elastic Constant Matrix: (Units=GPa)
#
#
# Indices 1 2 3 4 5 6 
#
# 1 158.1361 60.5788 25.8065 0.0000 -21.5287 0.0000
# 2 60.5788 142.1834 17.8543 0.0000 -19.0755 0.0000
# 3 25.8065 17.8543 28.9005 0.0000 -9.8122 0.0000
# 4 0.0000 0.0000 0.0000 19.4853 0.0000 -3.7790
# 5 -21.5287 -19.0755 -9.8122 0.0000 34.8162 0.0000
# 6 0.0000 0.0000 0.0000 -3.7790 0.0000 47.9184
#
#
#
# Elastic Compliance Matrix: (Units=1/GPa)
#
#
# Indices 1 2 3 4 5 6 
#
# 1 0.008503 -0.002661 -0.005152 0.000000 0.002348 0.000000
# 2 -0.002661 0.008783 -0.002184 0.000000 0.002551 0.000000
# 3 -0.005152 -0.002184 0.043196 0.000000 0.007792 0.000000
# 4 0.000000 0.000000 0.000000 0.052118 0.000000 0.004110
# 5 0.002348 0.002551 0.007792 0.000000 0.033768 0.000000
# 6 0.000000 0.000000 0.000000 0.004110 0.000000 0.021193
#
#
# Mechanical properties :
#
#
# Convention : Reuss Voigt Hill
#
# Bulk Modulus (GPa) = 24.69763 59.74436 42.22100
# Shear Modulus (GPa) = 24.86908 35.44266 30.15587
#
# Velocity S-wave (km/s) = 3.38767 4.04422 3.73041
# Velocity P-wave (km/s) = 5.16710 7.02693 6.16752
#
# Compressibility (1/GPa) = 0.04048972
#
# Stress axis : x y z
#
# Youngs Moduli (GPa) = 117.59873 113.85020 23.15003
#
# Poissons Ratio (x) = 0.30296 0.11927
# Poissons Ratio (y) = 0.31293 0.05056
# Poissons Ratio (z) = 0.60586 0.24864
#
# Static dielectric constant tensor:
#      x y z
#    x 4.494930 0.000000 0.079950 
#    y 0.000000 4.063680 0.000000 
#    z 0.079950 0.000000 3.537050 
# 
# 
# High freq. dielectric constant tensor:
#      x y z
#    x 1.875190 0.000000 0.000710 
#    y 0.000000 1.868710 0.000000 
#    z 0.000710 0.000000 1.801560 
# 
# From -- ./inp_files/48437.got.cif
#   From: 2010.06.25/outbox.cif.g09.slc.cpg/sg13_25_cif.got.tgz:48437.got - 2010.06.28 04:50:58.
