data_PCOD8117792
_publ_section_title
;
Structure prediction by ZEFSAII (Michael W. Deem and Ramdas Pophale) SiO2 
 PCOD8117792
Probable space group: P 2/C
;
_chemical_formula_sum "Si O2"
_cell_formula_units_Z 32
_cell_length_a 21.088372
_cell_length_b 14.598129
_cell_length_c 8.656560
_cell_angle_alpha 90.000000
_cell_angle_beta 139.278823
_cell_angle_gamma 90.000000
_cell_volume 1738.542382
_symmetry_space_group_name_H-M "P 2/C"
_symmetry_group_IT_number 13
_symmetry_cell_setting 'monoclinic'
loop_
_space_group_symop_operation_xyz
x,y,z
-x,y,1/2-z
-x,-y,-z
x,-y,1/2+z
loop_
_atom_site_type_symbol
_atom_site_label
_atom_site_fract_x
_atom_site_fract_y
_atom_site_fract_z
Si Si1 0.598381 0.054720 0.692625
Si Si2 0.599077 0.603639 0.136144
Si Si3 0.090566 0.044902 0.522118
Si Si4 0.597383 0.759411 0.354855
Si Si5 0.698576 0.093764 0.565099
Si Si6 0.092775 0.868208 0.349199
Si Si7 0.721706 0.755770 0.877885
Si Si8 0.625815 0.414125 0.332171
O O1 0.572218 0.141478 0.745890
O O2 0.627499 0.088424 0.577491
O O3 0.500000 0.000000 0.500000
O O4 0.684194 0.994275 0.926706
O O5 0.637797 0.694136 0.293539
O O6 0.641086 0.518891 0.311716
O O7 0.482543 0.612358 0.919632
O O8 0.641770 0.596397 0.043960
O O9 0.189596 0.102401 0.673625
O O10 0.063520 0.063678 0.652430
O O11 0.122258 0.939880 0.539827
O O12 0.000000 0.079553 0.250000
O O13 0.500000 0.715782 0.250000
O O14 0.679723 0.772583 0.632579
O O15 0.668531 0.183370 0.410481
O O16 0.167406 0.790176 0.434218
O O17 0.000000 0.814873 0.250000
O O18 0.706297 0.649717 0.896683
#
# Coordination Sequence:
#
# PCOD8117792 Si02
#       8
#     4   4   4   4   4   4   4   4
#     4  12  24  36  50  70 109 157 203 232 269 331
#     4  10  21  35  60  80 112 138 182 230 283 337
#     4  10  19  33  55  77 105 141 192 244 294 335
#     4  12  22  35  51  78 107 147 187 228 277 329
#     4  11  22  37  52  76 107 153 194 237 281 335
#     4  10  20  34  54  81 108 149 191 239 288 336
#     4  11  22  36  56  78 115 145 187 232 281 341
#     4  10  20  37  56  85 107 142 176 231 289 336
#
# _framework density 18.406224000000002
#
# number of rings (size 3 to 8) (size 9 to 14) (size 15 to 20)
#    0.000    1.250    1.250    7.875    1.750    1.000 
#    0.000    0.000    0.000    0.000    0.000    3.500 
#    0.000    1.000    0.000    1.500    0.000    0.000 
#
# Total GULP energy -396672.230591 kJ/mol
# GULP energy per Si atom -12396.007206 kJ/mol
# Density = 1.836433 g / cm^3
# Si number density = 18.406224 Si / 1000 Ang^3
#
#
#
# Elastic Constant Matrix: (Units=GPa)
#
#
# Indices 1 2 3 4 5 6 
#
# 1 94.4021 25.1238 36.2894 0.0000 -5.6884 0.0000
# 2 25.1238 96.5745 40.5685 0.0000 -2.8773 0.0000
# 3 36.2894 40.5685 95.5349 0.0000 -7.6025 0.0000
# 4 0.0000 0.0000 0.0000 27.2769 0.0000 -6.3082
# 5 -5.6884 -2.8773 -7.6025 0.0000 26.7670 0.0000
# 6 0.0000 0.0000 0.0000 -6.3082 0.0000 35.1930
#
#
#
# Elastic Compliance Matrix: (Units=1/GPa)
#
#
# Indices 1 2 3 4 5 6 
#
# 1 0.012639 -0.001553 -0.004032 0.000000 0.001374 0.000000
# 2 -0.001553 0.012794 -0.004870 0.000000 -0.000338 0.000000
# 3 -0.004032 -0.004870 0.014280 0.000000 0.002675 0.000000
# 4 0.000000 0.000000 0.000000 0.038247 0.000000 0.006856
# 5 0.001374 -0.000338 0.002675 0.000000 0.038375 0.000000
# 6 0.000000 0.000000 0.000000 0.006856 0.000000 0.029644
#
#
# Mechanical properties :
#
#
# Convention : Reuss Voigt Hill
#
# Bulk Modulus (GPa) = 53.18381 54.49720 53.84051
# Shear Modulus (GPa) = 28.87552 30.14936 29.51244
#
# Velocity S-wave (km/s) = 3.96509 4.05161 4.00859
# Velocity P-wave (km/s) = 7.06540 7.18051 7.12318
#
# Compressibility (1/GPa) = 0.01880271
#
# Stress axis : x y z
#
# Youngs Moduli (GPa) = 79.11919 78.15867 70.02843
#
# Poissons Ratio (x) = 0.12141 0.28236
# Poissons Ratio (y) = 0.12290 0.34104
# Poissons Ratio (z) = 0.31902 0.38063
#
# Static dielectric constant tensor:
#      x y z
#    x 3.490950 0.000000 -0.257800 
#    y 0.000000 3.269900 0.000000 
#    z -0.257800 0.000000 3.434270 
# 
# 
# High freq. dielectric constant tensor:
#      x y z
#    x 1.722400 0.000000 -0.024920 
#    y 0.000000 1.692620 0.000000 
#    z -0.024920 0.000000 1.704930 
# 
# From -- ./inp_files/23568.got.cif
#   From: 2010.06.25/outbox.cif.g09.slc.cpg/sg13_12_cif.got.tgz:23568.got - 2010.06.28 04:50:58.
