data_PCOD8117047
_publ_section_title
;
Structure prediction by ZEFSAII (Michael W. Deem and Ramdas Pophale) SiO2 
 PCOD8117047
Probable space group: P 2/C
;
_chemical_formula_sum "Si O2"
_cell_formula_units_Z 30
_cell_length_a 21.372043
_cell_length_b 9.119695
_cell_length_c 14.096506
_cell_angle_alpha 90.000000
_cell_angle_beta 147.050708
_cell_angle_gamma 90.000000
_cell_volume 1494.356311
_symmetry_space_group_name_H-M "P 2/C"
_symmetry_group_IT_number 13
_symmetry_cell_setting 'monoclinic'
loop_
_space_group_symop_operation_xyz
x,y,z
-x,y,1/2-z
-x,-y,-z
x,-y,1/2+z
loop_
_atom_site_type_symbol
_atom_site_label
_atom_site_fract_x
_atom_site_fract_y
_atom_site_fract_z
Si Si1 0.872943 0.643409 0.576049
Si Si2 0.066102 0.252275 0.032759
Si Si3 0.182651 0.702538 0.200196
Si Si4 0.749285 0.015279 0.257928
Si Si5 0.763248 0.566132 0.623189
Si Si6 0.000000 0.190393 0.750000
Si Si7 0.374488 0.156752 0.551082
Si Si8 0.192037 0.965837 0.963084
O O1 0.824850 0.616711 0.409617
O O2 0.797142 0.556648 0.556110
O O3 0.875070 0.816497 0.600699
O O4 0.000000 0.580622 0.750000
O O5 0.052900 0.289507 0.902614
O O6 0.943233 0.249945 0.925916
O O7 0.137636 0.373641 0.180672
O O8 0.131949 0.096065 0.123947
O O9 0.255443 0.849436 0.284156
O O10 0.254932 0.600046 0.364688
O O11 0.735480 0.018907 0.353486
O O12 0.638398 0.097994 0.072726
O O13 0.650289 0.668710 0.482723
O O14 0.903683 0.089618 0.680653
O O15 0.500000 0.126528 0.750000
O O16 0.279862 0.062808 0.489113
#
# Coordination Sequence:
#
# PCOD8117047 Si02
#       8
#     4   4   4   4   4   2   4   4
#     4  10  18  30  51  73 109 147 178 202 259 331
#     4  10  19  30  49  80 113 146 172 210 264 328
#     4  11  20  33  53  77 112 147 177 222 265 329
#     4   9  20  34  54  80 107 138 183 223 271 321
#     4  10  22  36  50  79 110 144 186 219 272 322
#     4  10  18  30  52  84 118 142 170 222 270 322
#     4  10  21  39  60  77 104 144 189 233 272 318
#     4   9  18  32  53  83 111 142 174 217 275 330
#
# _framework density 20.075534000000001
#
# number of rings (size 3 to 8) (size 9 to 14) (size 15 to 20)
#    0.000    2.133    2.000    1.600    0.000    1.600 
#    0.000    2.000    0.000    7.200    0.000    0.000 
#    0.000    0.000    0.000    0.000    0.000    0.000 
#
# Total GULP energy -371838.867807 kJ/mol
# GULP energy per Si atom -12394.628927 kJ/mol
# Density = 2.002984 g / cm^3
# Si number density = 20.075534 Si / 1000 Ang^3
#
#
#
# Elastic Constant Matrix: (Units=GPa)
#
#
# Indices 1 2 3 4 5 6 
#
# 1 56.7951 16.6079 27.7431 0.0000 -23.6098 0.0000
# 2 16.6079 49.6601 18.0338 0.0000 -13.7058 0.0000
# 3 27.7431 18.0338 92.9786 0.0000 -9.2604 0.0000
# 4 0.0000 0.0000 0.0000 24.9707 0.0000 -14.7569
# 5 -23.6098 -13.7058 -9.2604 0.0000 30.7980 0.0000
# 6 0.0000 0.0000 0.0000 -14.7569 0.0000 20.3157
#
#
#
# Elastic Compliance Matrix: (Units=1/GPa)
#
#
# Indices 1 2 3 4 5 6 
#
# 1 0.029616 -0.002086 -0.006457 0.000000 0.019834 0.000000
# 2 -0.002086 0.024293 -0.003270 0.000000 0.008229 0.000000
# 3 -0.006457 -0.003270 0.013069 0.000000 -0.002475 0.000000
# 4 0.000000 0.000000 0.000000 0.070168 0.000000 0.050968
# 5 0.019834 0.008229 -0.002475 0.000000 0.050592 0.000000
# 6 0.000000 0.000000 0.000000 0.050968 0.000000 0.086245
#
#
# Mechanical properties :
#
#
# Convention : Reuss Voigt Hill
#
# Bulk Modulus (GPa) = 23.06615 36.02260 29.54437
# Shear Modulus (GPa) = 16.02254 24.35348 20.18801
#
# Velocity S-wave (km/s) = 2.82815 3.48673 3.17456
# Velocity P-wave (km/s) = 4.70948 5.84741 5.30902
#
# Compressibility (1/GPa) = 0.04335358
#
# Stress axis : x y z
#
# Youngs Moduli (GPa) = 33.76530 41.16415 76.51417
#
# Poissons Ratio (x) = 0.08586 0.49405
# Poissons Ratio (y) = 0.07042 0.25019
# Poissons Ratio (z) = 0.21802 0.13460
#
# Static dielectric constant tensor:
#      x y z
#    x 3.621710 0.000000 -0.483760 
#    y 0.000000 3.582520 0.000000 
#    z -0.483760 0.000000 3.482780 
# 
# 
# High freq. dielectric constant tensor:
#      x y z
#    x 1.767190 0.000000 -0.043290 
#    y 0.000000 1.778640 0.000000 
#    z -0.043290 0.000000 1.758900 
# 
# From -- ./inp_files/58713.got.cif
#   From: 2010.06.25/outbox.cif.g09.slc.cpg/sg13_30_cif.got.tgz:58713.got - 2010.06.28 04:50:58.
