data_PCOD8117118
_publ_section_title
;
Structure prediction by ZEFSAII (Michael W. Deem and Ramdas Pophale) SiO2 
 PCOD8117118
Probable space group: P 2/C
;
_chemical_formula_sum "Si O2"
_cell_formula_units_Z 20
_cell_length_a 12.075276
_cell_length_b 8.810383
_cell_length_c 12.110330
_cell_angle_alpha 90.000000
_cell_angle_beta 50.075091
_cell_angle_gamma 90.000000
_cell_volume 988.049635
_symmetry_space_group_name_H-M "P 2/C"
_symmetry_group_IT_number 13
_symmetry_cell_setting 'monoclinic'
loop_
_space_group_symop_operation_xyz
x,y,z
-x,y,1/2-z
-x,-y,-z
x,-y,1/2+z
loop_
_atom_site_type_symbol
_atom_site_label
_atom_site_fract_x
_atom_site_fract_y
_atom_site_fract_z
Si Si1 0.838045 0.255681 0.837045
Si Si2 0.379558 0.552097 0.162032
Si Si3 0.664509 0.253440 0.174510
Si Si4 0.483483 0.846110 0.377964
Si Si5 0.281385 0.032350 0.166455
O O1 0.760965 0.377809 0.807357
O O2 0.000000 0.314982 0.750000
O O3 0.849306 0.083344 0.778029
O O4 0.756785 0.249504 0.005367
O O5 0.327392 0.418404 0.275113
O O6 0.464165 0.675928 0.180440
O O7 0.500000 0.500000 0.000000
O O8 0.500000 0.210242 0.250000
O O9 0.738687 0.133698 0.211746
O O10 0.500000 0.933670 0.250000
O O11 0.322317 0.861316 0.533777
O O12 0.588270 0.913157 0.403389
#
# Coordination Sequence:
#
# PCOD8117118 Si02
#       5
#     4   4   4   4   4
#     4  11  26  43  59  90 133 169 206 258 315 371
#     4  11  21  38  62  93 119 155 215 256 305 375
#     4  12  21  38  69  92 123 164 209 266 312 359
#     4  10  18  31  57  90 119 146 196 261 308 347
#     4  10  20  36  57  87 122 160 207 246 303 376
#
# _framework density 20.241897999999999
#
# number of rings (size 3 to 8) (size 9 to 14) (size 15 to 20)
#    0.000    1.200    4.000    4.800    0.000    1.600 
#    0.000    1.000    0.000    0.000    0.000    0.000 
#    0.000    0.000    0.000    0.000    0.000    0.000 
#
# Total GULP energy -247798.289083 kJ/mol
# GULP energy per Si atom -12389.914454 kJ/mol
# Density = 2.019583 g / cm^3
# Si number density = 20.241898 Si / 1000 Ang^3
#
#
#
# Elastic Constant Matrix: (Units=GPa)
#
#
# Indices 1 2 3 4 5 6 
#
# 1 89.6463 39.2555 37.3454 0.0000 -2.1813 0.0000
# 2 39.2555 122.2781 19.1199 0.0000 5.9111 0.0000
# 3 37.3454 19.1199 89.3760 0.0000 12.8069 0.0000
# 4 0.0000 0.0000 0.0000 31.1052 0.0000 -2.2120
# 5 -2.1813 5.9111 12.8069 0.0000 36.6915 0.0000
# 6 0.0000 0.0000 0.0000 -2.2120 0.0000 71.1950
#
#
#
# Elastic Compliance Matrix: (Units=1/GPa)
#
#
# Indices 1 2 3 4 5 6 
#
# 1 0.015685 -0.004251 -0.006186 0.000000 0.003776 0.000000
# 2 -0.004251 0.009634 -0.000028 0.000000 -0.001795 0.000000
# 3 -0.006186 -0.000028 0.014560 0.000000 -0.005445 0.000000
# 4 0.000000 0.000000 0.000000 0.032220 0.000000 0.001001
# 5 0.003776 -0.001795 -0.005445 0.000000 0.029669 0.000000
# 6 0.000000 0.000000 0.000000 0.001001 0.000000 0.014077
#
#
# Mechanical properties :
#
#
# Convention : Reuss Voigt Hill
#
# Bulk Modulus (GPa) = 52.76948 54.74912 53.75930
# Shear Modulus (GPa) = 34.94325 41.50363 38.22344
#
# Velocity S-wave (km/s) = 4.15936 4.53303 4.35021
# Velocity P-wave (km/s) = 7.01378 7.38268 7.20059
#
# Compressibility (1/GPa) = 0.01895035
#
# Stress axis : x y z
#
# Youngs Moduli (GPa) = 63.75461 103.80095 68.68365
#
# Poissons Ratio (x) = 0.44124 0.42486
# Poissons Ratio (y) = 0.27101 0.00189
# Poissons Ratio (z) = 0.39437 0.00286
#
# Static dielectric constant tensor:
#      x y z
#    x 4.033760 0.000000 0.089470 
#    y 0.000000 8.255960 0.000000 
#    z 0.089470 0.000000 3.527470 
# 
# 
# High freq. dielectric constant tensor:
#      x y z
#    x 1.771190 0.000000 0.035890 
#    y 0.000000 1.807580 0.000000 
#    z 0.035890 0.000000 1.776470 
# 
# From -- ./inp_files/28269.got.cif
#   From: 2010.06.25/outbox.cif.g09.slc.cpg/sg13_15_cif.got.tgz:28269.got - 2010.06.28 04:50:58.
