data_PCOD8117005
_publ_section_title
;
Structure prediction by ZEFSAII (Michael W. Deem and Ramdas Pophale) SiO2 
 PCOD8117005
Probable space group: P 2/C
;
_chemical_formula_sum "Si O2"
_cell_formula_units_Z 30
_cell_length_a 9.178815
_cell_length_b 12.696058
_cell_length_c 24.711838
_cell_angle_alpha 90.000000
_cell_angle_beta 36.966628
_cell_angle_gamma 90.000000
_cell_volume 1731.759987
_symmetry_space_group_name_H-M "P 2/C"
_symmetry_group_IT_number 13
_symmetry_cell_setting 'monoclinic'
loop_
_space_group_symop_operation_xyz
x,y,z
-x,y,1/2-z
-x,-y,-z
x,-y,1/2+z
loop_
_atom_site_type_symbol
_atom_site_label
_atom_site_fract_x
_atom_site_fract_y
_atom_site_fract_z
Si Si1 0.843097 0.416004 0.407340
Si Si2 0.691903 0.173105 0.276310
Si Si3 0.500000 0.983188 0.750000
Si Si4 0.010786 0.014240 0.560341
Si Si5 0.178270 0.177668 0.079609
Si Si6 0.409666 0.815530 0.965329
Si Si7 0.618429 0.407718 0.270670
Si Si8 0.430926 0.419967 0.442846
O O1 0.844158 0.298991 0.433294
O O2 0.681878 0.422556 0.401315
O O3 0.755140 0.493976 0.480194
O O4 0.108305 0.450879 0.309344
O O5 0.621530 0.165066 0.359338
O O6 0.611219 0.282102 0.273508
O O7 0.980800 0.157831 0.185639
O O8 0.538198 0.084900 0.291981
O O9 0.747593 0.046764 0.663422
O O10 0.182789 0.108637 0.527225
O O11 0.000000 0.000000 0.500000
O O12 0.114977 0.902559 0.550364
O O13 0.453713 0.160716 0.018541
O O14 0.314709 0.695753 0.986884
O O15 0.500000 0.448995 0.250000
O O16 0.478395 0.448191 0.365839
#
# Coordination Sequence:
#
# PCOD8117005 Si02
#       8
#     4   4   2   4   4   4   4   4
#     4   9  18  35  53  76 103 133 174 211 255 300
#     4   9  16  29  50  75 103 126 164 208 260 296
#     4  10  18  32  48  74  96 136 166 200 246 302
#     4  11  21  33  53  74 103 137 166 205 255 311
#     4   9  19  31  53  78 102 127 168 222 252 290
#     4  10  18  32  52  78 102 131 171 208 253 298
#     4  10  18  28  50  79 106 129 164 215 257 299
#     4   9  19  33  55  75 101 139 171 209 252 305
#
# _framework density 17.323416000000002
#
# number of rings (size 3 to 8) (size 9 to 14) (size 15 to 20)
#    0.000    2.400    2.000    1.200    0.000    3.733 
#    0.000    0.000    4.400    0.000    0.000    0.000 
#    0.000    0.000    0.000    0.000    0.000    0.000 
#
# Total GULP energy -371839.982311 kJ/mol
# GULP energy per Si atom -12394.666077 kJ/mol
# Density = 1.728399 g / cm^3
# Si number density = 17.323416 Si / 1000 Ang^3
#
#
#
# Elastic Constant Matrix: (Units=GPa)
#
#
# Indices 1 2 3 4 5 6 
#
# 1 74.7497 40.2848 46.3158 0.0000 3.9258 0.0000
# 2 40.2848 89.3675 59.4846 0.0000 -3.7172 0.0000
# 3 46.3158 59.4846 103.0295 0.0000 -2.0682 0.0000
# 4 0.0000 0.0000 0.0000 24.9144 0.0000 7.5465
# 5 3.9258 -3.7172 -2.0682 0.0000 30.4505 0.0000
# 6 0.0000 0.0000 0.0000 7.5465 0.0000 8.0645
#
#
#
# Elastic Compliance Matrix: (Units=1/GPa)
#
#
# Indices 1 2 3 4 5 6 
#
# 1 0.020159 -0.005129 -0.006174 0.000000 -0.003644 0.000000
# 2 -0.005129 0.019548 -0.008932 0.000000 0.002441 0.000000
# 3 -0.006174 -0.008932 0.017656 0.000000 0.000905 0.000000
# 4 0.000000 0.000000 0.000000 0.056014 0.000000 -0.052416
# 5 -0.003644 0.002441 0.000905 0.000000 0.033669 0.000000
# 6 0.000000 0.000000 0.000000 -0.052416 0.000000 0.173048
#
#
# Mechanical properties :
#
#
# Convention : Reuss Voigt Hill
#
# Bulk Modulus (GPa) = 59.19242 62.14636 60.66939
# Shear Modulus (GPa) = 13.65384 20.75666 17.20525
#
# Velocity S-wave (km/s) = 2.81049 3.46524 3.15489
# Velocity P-wave (km/s) = 6.69141 7.20851 6.95477
#
# Compressibility (1/GPa) = 0.01689406
#
# Stress axis : x y z
#
# Youngs Moduli (GPa) = 49.60491 51.15491 56.63689
#
# Poissons Ratio (x) = 0.26239 0.34968
# Poissons Ratio (y) = 0.25444 0.50586
# Poissons Ratio (z) = 0.30627 0.45689
#
# Static dielectric constant tensor:
#      x y z
#    x 3.470490 0.000000 -0.194920 
#    y 0.000000 3.130210 0.000000 
#    z -0.194920 0.000000 3.279770 
# 
# 
# High freq. dielectric constant tensor:
#      x y z
#    x 1.675990 0.000000 -0.004980 
#    y 0.000000 1.644550 0.000000 
#    z -0.004980 0.000000 1.661830 
# 
# From -- ./inp_files/55665.got.cif
#   From: 2010.06.25/outbox.cif.g09.slc.cpg/sg13_28_cif.got.tgz:55665.got - 2010.06.28 04:50:58.
