data_PCOD8117094
_publ_section_title
;
Structure prediction by ZEFSAII (Michael W. Deem and Ramdas Pophale) SiO2 
 PCOD8117094
Probable space group: P 2/C
;
_chemical_formula_sum "Si O2"
_cell_formula_units_Z 30
_cell_length_a 16.353823
_cell_length_b 5.244208
_cell_length_c 19.698657
_cell_angle_alpha 90.000000
_cell_angle_beta 53.521536
_cell_angle_gamma 90.000000
_cell_volume 1358.423814
_symmetry_space_group_name_H-M "P 2/C"
_symmetry_group_IT_number 13
_symmetry_cell_setting 'monoclinic'
loop_
_space_group_symop_operation_xyz
x,y,z
-x,y,1/2-z
-x,-y,-z
x,-y,1/2+z
loop_
_atom_site_type_symbol
_atom_site_label
_atom_site_fract_x
_atom_site_fract_y
_atom_site_fract_z
Si Si1 0.277347 0.684651 0.644885
Si Si2 0.460512 0.252070 0.981794
Si Si3 0.890329 0.255471 0.503636
Si Si4 0.815398 0.832591 0.255973
Si Si5 0.500000 0.894636 0.750000
Si Si6 0.013001 0.246229 0.582454
Si Si7 0.434110 0.443844 0.173939
Si Si8 0.696321 0.219081 0.680308
O O1 0.335640 0.729690 0.543656
O O2 0.231005 0.403172 0.678296
O O3 0.374130 0.721307 0.647573
O O4 0.193842 0.906520 0.696077
O O5 0.508683 0.297499 0.882492
O O6 0.500000 0.500000 0.000000
O O7 0.500000 0.000000 0.000000
O O8 0.919382 0.498675 0.442748
O O9 0.771318 0.266296 0.580208
O O10 0.955244 0.259104 0.539993
O O11 0.914038 0.999328 0.449956
O O12 0.758096 0.895837 0.213893
O O13 0.933139 0.770104 0.183775
O O14 0.485195 0.730178 0.826350
O O15 0.603822 0.048733 0.701580
O O16 0.349213 0.514044 0.272063
#
# Coordination Sequence:
#
# PCOD8117094 Si02
#       8
#     4   4   4   4   2   4   4   4
#     4  10  18  32  51  76 101 138 174 219 268 331
#     4  10  20  34  54  75 102 139 185 225 268 320
#     4   9  18  29  47  67  98 134 177 205 261 313
#     4  10  18  31  52  75 105 133 175 214 277 330
#     4  12  22  36  50  72 106 154 194 228 266 322
#     4   9  17  29  46  72  96 131 166 217 257 324
#     4  10  22  34  51  72 106 147 189 223 269 318
#     4  10  21  33  48  69 103 148 184 218 258 325
#
# _framework density 22.084417999999999
#
# number of rings (size 3 to 8) (size 9 to 14) (size 15 to 20)
#    0.000    2.133    1.333    3.600    3.733    3.200 
#    0.000    0.000    0.000    0.000    0.000    0.000 
#    0.000    1.067    1.333    0.133    1.867    0.000 
#
# Total GULP energy -371706.501148 kJ/mol
# GULP energy per Si atom -12390.216705 kJ/mol
# Density = 2.203415 g / cm^3
# Si number density = 22.084418 Si / 1000 Ang^3
#
#
#
# Elastic Constant Matrix: (Units=GPa)
#
#
# Indices 1 2 3 4 5 6 
#
# 1 38.2116 24.8628 34.6774 0.0000 -21.2560 0.0000
# 2 24.8628 159.6208 58.6309 0.0000 -28.1065 0.0000
# 3 34.6774 58.6309 132.6596 0.0000 -59.0228 0.0000
# 4 0.0000 0.0000 0.0000 41.3786 0.0000 -9.1149
# 5 -21.2560 -28.1065 -59.0228 0.0000 35.5917 0.0000
# 6 0.0000 0.0000 0.0000 -9.1149 0.0000 17.0559
#
#
#
# Elastic Compliance Matrix: (Units=1/GPa)
#
#
# Indices 1 2 3 4 5 6 
#
# 1 0.040010 -0.002484 0.001517 0.000000 0.024448 0.000000
# 2 -0.002484 0.007658 -0.002688 0.000000 0.000107 0.000000
# 3 0.001517 -0.002688 0.029706 0.000000 0.048045 0.000000
# 4 0.000000 0.000000 0.000000 0.027392 0.000000 0.014638
# 5 0.024448 0.000107 0.048045 0.000000 0.122456 0.000000
# 6 0.000000 0.000000 0.000000 0.014638 0.000000 0.066454
#
#
# Mechanical properties :
#
#
# Convention : Reuss Voigt Hill
#
# Bulk Modulus (GPa) = 14.27293 62.98159 38.62726
# Shear Modulus (GPa) = 15.41596 32.95997 24.18796
#
# Velocity S-wave (km/s) = 2.64492 3.86742 3.31305
# Velocity P-wave (km/s) = 3.97548 6.96585 5.67131
#
# Compressibility (1/GPa) = 0.07006270
#
# Stress axis : x y z
#
# Youngs Moduli (GPa) = 24.99398 130.58612 33.66360
#
# Poissons Ratio (x) = 0.32440 -0.05105
# Poissons Ratio (y) = 0.06209 0.09047
# Poissons Ratio (z) = -0.03791 0.35096
#
# Static dielectric constant tensor:
#      x y z
#    x 3.487610 0.000000 -0.281440 
#    y 0.000000 3.960530 0.000000 
#    z -0.281440 0.000000 5.224500 
# 
# 
# High freq. dielectric constant tensor:
#      x y z
#    x 1.806720 0.000000 -0.033130 
#    y 0.000000 1.878580 0.000000 
#    z -0.033130 0.000000 1.876580 
# 
# From -- ./inp_files/67520.got.cif
#   From: 2010.06.25/outbox.cif.g09.slc.cpg/sg13_34_cif.got.tgz:67520.got - 2010.06.28 04:50:58.
