data_PCOD8117859
_publ_section_title
;
Structure prediction by ZEFSAII (Michael W. Deem and Ramdas Pophale) SiO2 
 PCOD8117859
Probable space group: P 2/C
;
_chemical_formula_sum "Si O2"
_cell_formula_units_Z 28
_cell_length_a 5.195799
_cell_length_b 10.877514
_cell_length_c 27.374255
_cell_angle_alpha 90.000000
_cell_angle_beta 104.555132
_cell_angle_gamma 90.000000
_cell_volume 1497.468183
_symmetry_space_group_name_H-M "P 2/C"
_symmetry_group_IT_number 13
_symmetry_cell_setting 'monoclinic'
loop_
_space_group_symop_operation_xyz
x,y,z
-x,y,1/2-z
-x,-y,-z
x,-y,1/2+z
loop_
_atom_site_type_symbol
_atom_site_label
_atom_site_fract_x
_atom_site_fract_y
_atom_site_fract_z
Si Si1 0.731363 0.738825 0.423694
Si Si2 0.943224 0.375053 0.025441
Si Si3 0.953168 0.103308 0.691122
Si Si4 0.622101 0.021865 0.864729
Si Si5 0.840327 0.614734 0.627227
Si Si6 0.314670 0.741984 0.613556
Si Si7 0.842850 0.342856 0.632168
O O1 0.781096 0.719542 0.483525
O O2 0.466433 0.668742 0.395197
O O3 0.979979 0.680199 0.407153
O O4 0.705430 0.883516 0.411365
O O5 0.771875 0.404189 0.066067
O O6 0.217133 0.308931 0.056056
O O7 0.000000 0.500000 0.000000
O O8 0.926397 0.248528 0.678687
O O9 0.000000 0.083675 0.750000
O O10 0.688469 0.032786 0.662139
O O11 0.206067 0.047292 0.675387
O O12 0.678187 0.888189 0.888517
O O13 0.600452 0.686824 0.641410
O O14 0.885777 0.481345 0.653898
O O15 0.107909 0.696502 0.645627
#
# Coordination Sequence:
#
# PCOD8117859 Si02
#       7
#     4   4   4   4   4   4   4
#     4  10  20  31  52  77 110 150 180 225 265 304
#     4  10  20  32  52  80 110 152 200 217 253 311
#     4  10  21  38  65  84  99 133 178 230 282 340
#     4  10  21  39  55  81 116 140 178 225 280 325
#     4  10  20  33  52  78 111 151 183 225 259 313
#     4  10  22  34  52  78 110 153 185 219 259 317
#     4  10  19  34  53  82 108 134 178 229 278 315
#
# _framework density 18.698229000000001
#
# number of rings (size 3 to 8) (size 9 to 14) (size 15 to 20)
#    0.857    1.143    1.429    3.000    2.000    1.714 
#    0.000    0.714    0.000    5.143    0.000    0.000 
#    0.000    0.000    0.000    0.000    0.000    0.000 
#
# Total GULP energy -347109.066153 kJ/mol
# GULP energy per Si atom -12396.752363 kJ/mol
# Density = 1.865567 g / cm^3
# Si number density = 18.698229 Si / 1000 Ang^3
#
#
#
# Elastic Constant Matrix: (Units=GPa)
#
#
# Indices 1 2 3 4 5 6 
#
# 1 86.6094 39.1182 -2.1802 0.0000 1.0491 0.0000
# 2 39.1182 148.6803 16.5167 0.0000 8.5489 0.0000
# 3 -2.1802 16.5167 40.4521 0.0000 -1.9623 0.0000
# 4 0.0000 0.0000 0.0000 14.3669 0.0000 1.9312
# 5 1.0491 8.5489 -1.9623 0.0000 13.4485 0.0000
# 6 0.0000 0.0000 0.0000 1.9312 0.0000 23.8076
#
#
#
# Elastic Compliance Matrix: (Units=1/GPa)
#
#
# Indices 1 2 3 4 5 6 
#
# 1 0.013335 -0.003876 0.002387 0.000000 0.001772 0.000000
# 2 -0.003876 0.008512 -0.003960 0.000000 -0.005687 0.000000
# 3 0.002387 -0.003960 0.026769 0.000000 0.006237 0.000000
# 4 0.000000 0.000000 0.000000 0.070372 0.000000 -0.005708
# 5 0.001772 -0.005687 0.006237 0.000000 0.078745 0.000000
# 6 0.000000 0.000000 0.000000 -0.005708 0.000000 0.042466
#
#
# Mechanical properties :
#
#
# Convention : Reuss Voigt Hill
#
# Bulk Modulus (GPa) = 26.51205 42.51679 34.51442
# Shear Modulus (GPa) = 18.96311 25.14374 22.05343
#
# Velocity S-wave (km/s) = 3.18805 3.67101 3.43802
# Velocity P-wave (km/s) = 5.26890 6.38406 5.85310
#
# Compressibility (1/GPa) = 0.03771870
#
# Stress axis : x y z
#
# Youngs Moduli (GPa) = 74.98972 117.47512 37.35682
#
# Poissons Ratio (x) = 0.45528 -0.08917
# Poissons Ratio (y) = 0.29063 0.14795
# Poissons Ratio (z) = -0.17901 0.46525
#
# Static dielectric constant tensor:
#      x y z
#    x 3.579010 0.000000 0.011810 
#    y 0.000000 3.454940 0.000000 
#    z 0.011810 0.000000 3.043180 
# 
# 
# High freq. dielectric constant tensor:
#      x y z
#    x 1.742430 0.000000 0.003760 
#    y 0.000000 1.732850 0.000000 
#    z 0.003760 0.000000 1.679570 
# 
# From -- ./inp_files/94899.got.cif
#   From: 2010.06.25/outbox.cif.g09.slc.cpg/sg13_48_cif.got.tgz:94899.got - 2010.06.28 04:50:58.
