data_PCOD8117409
_publ_section_title
;
Structure prediction by ZEFSAII (Michael W. Deem and Ramdas Pophale) SiO2 
 PCOD8117409
Probable space group: P 2/C
;
_chemical_formula_sum "Si O2"
_cell_formula_units_Z 32
_cell_length_a 14.358873
_cell_length_b 8.722268
_cell_length_c 24.045339
_cell_angle_alpha 90.000000
_cell_angle_beta 32.275929
_cell_angle_gamma 90.000000
_cell_volume 1608.124464
_symmetry_space_group_name_H-M "P 2/C"
_symmetry_group_IT_number 13
_symmetry_cell_setting 'monoclinic'
loop_
_space_group_symop_operation_xyz
x,y,z
-x,y,1/2-z
-x,-y,-z
x,-y,1/2+z
loop_
_atom_site_type_symbol
_atom_site_label
_atom_site_fract_x
_atom_site_fract_y
_atom_site_fract_z
Si Si1 0.808384 0.069998 0.208434
Si Si2 0.199537 0.428077 0.020122
Si Si3 0.800448 0.071946 0.479889
Si Si4 0.497303 0.930670 0.940755
Si Si5 0.705973 0.924619 0.640900
Si Si6 0.191632 0.570003 0.791561
Si Si7 0.705973 0.575412 0.640898
Si Si8 0.497288 0.430662 0.440764
O O1 0.661174 0.000066 0.323491
O O2 0.788232 0.005547 0.155951
O O3 0.774576 0.249996 0.220850
O O4 0.999013 0.032291 0.136395
O O5 0.239745 0.250012 0.010039
O O6 0.998992 0.467719 0.136405
O O7 0.231202 0.466385 0.939977
O O8 0.318244 0.528670 0.000424
O O9 0.681718 0.971351 0.499606
O O10 0.768805 0.033654 0.560026
O O11 0.512896 0.750004 0.938133
O O12 0.500000 0.000000 0.000000
O O13 0.500000 0.930546 0.750000
O O14 0.767515 0.750016 0.598130
O O15 0.211766 0.505567 0.844055
O O16 0.338859 0.500072 0.676500
O O17 0.500000 0.569484 0.750000
O O18 0.500000 0.500000 0.500000
#
# Coordination Sequence:
#
# PCOD8117409 Si02
#       8
#     4   4   4   4   4   4   4   4
#     4   9  20  38  60  84 118 158 191 228 291 353
#     4  11  22  37  59  90 119 150 192 240 288 340
#     4  11  22  37  59  90 119 150 192 240 288 340
#     4  11  23  43  63  83 113 154 197 240 288 344
#     4  10  18  35  61  86 117 159 193 227 285 350
#     4   9  20  38  60  84 118 158 191 228 291 353
#     4  10  18  35  61  86 117 159 193 227 285 350
#     4  11  23  43  63  83 113 154 197 240 288 344
#
# _framework density 19.898956999999999
#
# number of rings (size 3 to 8) (size 9 to 14) (size 15 to 20)
#    0.000    1.750    2.500    2.250    0.000    1.500 
#    0.000   11.250    0.000    0.000    0.000    0.000 
#    0.000    0.000    0.000    0.000    0.000    0.000 
#
# Total GULP energy -396862.687201 kJ/mol
# GULP energy per Si atom -12401.958975 kJ/mol
# Density = 1.985367 g / cm^3
# Si number density = 19.898957 Si / 1000 Ang^3
#
#
#
# Elastic Constant Matrix: (Units=GPa)
#
#
# Indices 1 2 3 4 5 6 
#
# 1 135.6274 25.5486 81.3421 0.0000 12.3454 0.0000
# 2 25.5486 47.2491 25.5991 0.0000 -1.3566 0.0000
# 3 81.3421 25.5991 93.0313 0.0000 -4.8697 0.0000
# 4 0.0000 0.0000 0.0000 25.5568 0.0000 3.0427
# 5 12.3454 -1.3566 -4.8697 0.0000 34.7656 0.0000
# 6 0.0000 0.0000 0.0000 3.0427 0.0000 36.3146
#
#
#
# Elastic Compliance Matrix: (Units=1/GPa)
#
#
# Indices 1 2 3 4 5 6 
#
# 1 0.017772 -0.001403 -0.015601 0.000000 -0.008551 0.000000
# 2 -0.001403 0.024983 -0.005612 0.000000 0.000687 0.000000
# 3 -0.015601 -0.005612 0.026406 0.000000 0.009020 0.000000
# 4 0.000000 0.000000 0.000000 0.039523 0.000000 -0.003311
# 5 -0.008551 0.000687 0.009020 0.000000 0.033091 0.000000
# 6 0.000000 0.000000 0.000000 -0.003311 0.000000 0.027815
#
#
# Mechanical properties :
#
#
# Convention : Reuss Voigt Hill
#
# Bulk Modulus (GPa) = 41.78823 60.09862 50.94342
# Shear Modulus (GPa) = 22.44188 28.88860 25.66524
#
# Velocity S-wave (km/s) = 3.36190 3.81434 3.59524
# Velocity P-wave (km/s) = 6.00963 7.04744 6.54912
#
# Compressibility (1/GPa) = 0.02393018
#
# Stress axis : x y z
#
# Youngs Moduli (GPa) = 56.26725 40.02688 37.87019
#
# Poissons Ratio (x) = 0.05616 0.59081
# Poissons Ratio (y) = 0.07895 0.21252
# Poissons Ratio (z) = 0.87781 0.22462
#
# Static dielectric constant tensor:
#      x y z
#    x 3.795230 0.000000 -0.144750 
#    y 0.000000 3.428960 0.000000 
#    z -0.144750 0.000000 4.008520 
# 
# 
# High freq. dielectric constant tensor:
#      x y z
#    x 1.785110 0.000000 -0.007080 
#    y 0.000000 1.752870 0.000000 
#    z -0.007080 0.000000 1.783690 
# 
# From -- ./inp_files/53061.got.cif
#   From: 2010.06.25/outbox.cif.g09.slc.cpg/sg13_27_cif.got.tgz:53061.got - 2010.06.28 04:50:58.
