data_PCOD8117027
_publ_section_title
;
Structure prediction by ZEFSAII (Michael W. Deem and Ramdas Pophale) SiO2 
 PCOD8117027
Probable space group: P 2/C
;
_chemical_formula_sum "Si O2"
_cell_formula_units_Z 26
_cell_length_a 19.313360
_cell_length_b 8.809695
_cell_length_c 11.531544
_cell_angle_alpha 90.000000
_cell_angle_beta 138.732824
_cell_angle_gamma 90.000000
_cell_volume 1294.099990
_symmetry_space_group_name_H-M "P 2/C"
_symmetry_group_IT_number 13
_symmetry_cell_setting 'monoclinic'
loop_
_space_group_symop_operation_xyz
x,y,z
-x,y,1/2-z
-x,-y,-z
x,-y,1/2+z
loop_
_atom_site_type_symbol
_atom_site_label
_atom_site_fract_x
_atom_site_fract_y
_atom_site_fract_z
Si Si1 0.500000 0.395113 0.750000
Si Si2 0.316147 0.643134 0.155544
Si Si3 0.852892 0.233536 0.460896
Si Si4 0.415177 0.675836 0.514125
Si Si5 0.114346 0.729910 0.766325
Si Si6 0.000000 0.013285 0.250000
Si Si7 0.000000 0.481254 0.750000
Si Si8 0.645061 0.288110 0.314823
O O1 0.585770 0.289293 0.794989
O O2 0.440848 0.501253 0.580460
O O3 0.329158 0.689825 0.305682
O O4 0.320979 0.462925 0.149971
O O5 0.210005 0.713688 0.975704
O O6 0.847391 0.265647 0.317309
O O7 0.735478 0.197375 0.360473
O O8 0.902062 0.380414 0.585482
O O9 0.920902 0.086920 0.575069
O O10 0.362643 0.759293 0.558851
O O11 0.528466 0.745297 0.616397
O O12 0.036475 0.587262 0.688504
O O13 0.058091 0.886561 0.726836
#
# Coordination Sequence:
#
# PCOD8117027 Si02
#       8
#     2   4   4   4   4   2   2   4
#     4   8  16  26  48  82 128 156 182 220 294 362
#     4  10  18  29  54  88 123 149 183 240 302 345
#     4  11  22  40  65  84 115 158 205 242 297 358
#     4   8  17  31  47  87 130 149 174 233 295 364
#     4  11  23  39  61  88 120 152 200 251 301 344
#     4  10  26  48  54  80 114 170 206 248 296 340
#     4  10  22  38  58  96 116 142 196 262 302 342
#     4   9  18  31  56  88 118 156 187 229 297 357
#
# _framework density 20.091183999999998
#
# number of rings (size 3 to 8) (size 9 to 14) (size 15 to 20)
#    0.000    2.769    1.538    2.769    6.462    0.000 
#   13.846    0.000    0.000    2.769    0.000    0.000 
#    0.000    0.000    0.000    0.000    0.000    0.000 
#
# Total GULP energy -322214.948666 kJ/mol
# GULP energy per Si atom -12392.882641 kJ/mol
# Density = 2.004546 g / cm^3
# Si number density = 20.091184 Si / 1000 Ang^3
#
#
#
# Elastic Constant Matrix: (Units=GPa)
#
#
# Indices 1 2 3 4 5 6 
#
# 1 140.7103 27.1590 53.5556 0.0000 7.4126 0.0000
# 2 27.1590 62.1285 27.6640 0.0000 1.8466 0.0000
# 3 53.5556 27.6640 119.3046 0.0000 -7.1071 0.0000
# 4 0.0000 0.0000 0.0000 10.1681 0.0000 3.6058
# 5 7.4126 1.8466 -7.1071 0.0000 28.1971 0.0000
# 6 0.0000 0.0000 0.0000 3.6058 0.0000 12.4066
#
#
#
# Elastic Compliance Matrix: (Units=1/GPa)
#
#
# Indices 1 2 3 4 5 6 
#
# 1 0.009143 -0.002218 -0.003781 0.000000 -0.003212 0.000000
# 2 -0.002218 0.018630 -0.003413 0.000000 -0.001497 0.000000
# 3 -0.003781 -0.003413 0.011110 0.000000 0.004018 0.000000
# 4 0.000000 0.000000 0.000000 0.109648 0.000000 -0.031868
# 5 -0.003212 -0.001497 0.004018 0.000000 0.037420 0.000000
# 6 0.000000 0.000000 0.000000 -0.031868 0.000000 0.089864
#
#
# Mechanical properties :
#
#
# Convention : Reuss Voigt Hill
#
# Bulk Modulus (GPa) = 49.85582 59.87786 54.86684
# Shear Modulus (GPa) = 16.59328 24.40533 20.49931
#
# Velocity S-wave (km/s) = 2.87696 3.48908 3.19770
# Velocity P-wave (km/s) = 5.99204 6.78965 6.40327
#
# Compressibility (1/GPa) = 0.02005784
#
# Stress axis : x y z
#
# Youngs Moduli (GPa) = 109.36967 53.67821 90.00675
#
# Poissons Ratio (x) = 0.11904 0.34036
# Poissons Ratio (y) = 0.24255 0.30723
# Poissons Ratio (z) = 0.41358 0.18323
#
# Static dielectric constant tensor:
#      x y z
#    x 4.140130 0.000000 0.167520 
#    y 0.000000 3.179330 0.000000 
#    z 0.167520 0.000000 3.561850 
# 
# 
# High freq. dielectric constant tensor:
#      x y z
#    x 1.804320 0.000000 0.006200 
#    y 0.000000 1.727490 0.000000 
#    z 0.006200 0.000000 1.782660 
# 
# From -- ./inp_files/40561.got.cif
#   From: 2010.06.25/outbox.cif.g09.slc.cpg/sg13_21_cif.got.tgz:40561.got - 2010.06.28 04:50:58.
