data_PCOD8117908
_publ_section_title
;
Structure prediction by ZEFSAII (Michael W. Deem and Ramdas Pophale) SiO2 
 PCOD8117908
Probable space group: P 2/C
;
_chemical_formula_sum "Si O2"
_cell_formula_units_Z 28
_cell_length_a 28.507881
_cell_length_b 9.387512
_cell_length_c 8.821967
_cell_angle_alpha 90.000000
_cell_angle_beta 140.683674
_cell_angle_gamma 90.000000
_cell_volume 1495.880714
_symmetry_space_group_name_H-M "P 2/C"
_symmetry_group_IT_number 13
_symmetry_cell_setting 'monoclinic'
loop_
_space_group_symop_operation_xyz
x,y,z
-x,y,1/2-z
-x,-y,-z
x,-y,1/2+z
loop_
_atom_site_type_symbol
_atom_site_label
_atom_site_fract_x
_atom_site_fract_y
_atom_site_fract_z
Si Si1 0.839385 0.343576 0.169527
Si Si2 0.000005 0.649584 0.075733
Si Si3 0.423169 0.350466 0.486051
Si Si4 0.286087 0.153605 0.787365
Si Si5 0.839375 0.656344 0.027286
Si Si6 0.423165 0.350375 0.129740
Si Si7 0.286096 0.153692 0.143168
O O1 0.824790 0.355599 0.311928
O O2 0.921545 0.275418 0.338392
O O3 0.782586 0.235815 0.954435
O O4 0.829877 0.499937 0.074594
O O5 0.078478 0.724537 0.230750
O O6 0.000000 0.614095 0.250000
O O7 0.000000 0.500000 0.000000
O O8 0.433675 0.371734 0.334160
O O9 0.398319 0.500065 0.495726
O O10 0.361453 0.235155 0.371382
O O11 0.500000 0.296674 0.750000
O O12 0.292290 0.999931 0.730826
O O13 0.361439 0.235062 0.935862
O O14 0.273417 0.140106 0.933583
O O15 0.782562 0.764026 0.958418
O O16 0.500000 0.296542 0.250000
#
# Coordination Sequence:
#
# PCOD8117908 Si02
#       7
#     4   4   4   4   4   4   4
#     4  10  19  34  57  83 111 143 181 225 270 321
#     4   8  16  30  51  80 109 138 176 222 270 316
#     4  10  21  37  59  84 109 138 176 220 267 318
#     4  11  24  39  55  79 110 146 184 224 271 323
#     4  10  19  34  57  83 111 143 181 225 270 321
#     4  10  21  37  59  84 109 138 176 220 267 318
#     4  11  24  39  55  79 110 146 184 224 271 323
#
# _framework density 18.718070999999998
#
# number of rings (size 3 to 8) (size 9 to 14) (size 15 to 20)
#    0.000    2.000    0.000    4.286    0.000    8.571 
#    0.000    3.571    0.000    0.000    0.000    0.000 
#    0.000    0.000    0.000    0.000    0.000    0.000 
#
# Total GULP energy -347042.548255 kJ/mol
# GULP energy per Si atom -12394.376723 kJ/mol
# Density = 1.867547 g / cm^3
# Si number density = 18.718071 Si / 1000 Ang^3
#
#
#
# Elastic Constant Matrix: (Units=GPa)
#
#
# Indices 1 2 3 4 5 6 
#
# 1 135.5486 83.1442 97.6040 0.0000 16.3303 0.0000
# 2 83.1442 131.1472 92.6595 0.0000 17.4092 0.0000
# 3 97.6040 92.6595 153.9146 0.0000 17.2244 0.0000
# 4 0.0000 0.0000 0.0000 0.0860 0.0000 -23.9237
# 5 16.3303 17.4092 17.2244 0.0000 25.0559 0.0000
# 6 0.0000 0.0000 0.0000 -23.9237 0.0000 13.6183
#
#
#
# Elastic Compliance Matrix: (Units=1/GPa)
#
#
# Indices 1 2 3 4 5 6 
#
# 1 0.015307 -0.004754 -0.006607 0.000000 -0.002132 0.000000
# 2 -0.004754 0.015133 -0.005705 0.000000 -0.003495 0.000000
# 3 -0.006607 -0.005705 0.014296 0.000000 -0.001557 0.000000
# 4 0.000000 0.000000 0.000000 -0.023843 0.000000 -0.041885
# 5 -0.002132 -0.003495 -0.001557 0.000000 0.044799 0.000000
# 6 0.000000 0.000000 0.000000 -0.041885 0.000000 -0.000151
#
#
# Mechanical properties :
#
#
# Convention : Reuss Voigt Hill
#
# Bulk Modulus (GPa) = 94.28968 107.49174 100.89071
# Shear Modulus (GPa) = 48.44570 17.56555 33.00562
#
# Velocity S-wave (km/s) = 5.09293 3.06670 4.20373
# Velocity P-wave (km/s) = 9.22317 8.37203 8.80789
#
# Compressibility (1/GPa) = 0.01060561
#
# Stress axis : x y z
#
# Youngs Moduli (GPa) = 65.32785 66.07904 69.95204
#
# Poissons Ratio (x) = 0.31412 0.46215
# Poissons Ratio (y) = 0.31055 0.39907
# Poissons Ratio (z) = 0.43160 0.37698
#
# Static dielectric constant tensor:
#      x y z
#    x 3.706390 0.000000 0.096420 
#    y 0.000000 3.192610 0.000000 
#    z 0.096420 0.000000 3.760330 
# 
# 
# High freq. dielectric constant tensor:
#      x y z
#    x 1.748570 0.000000 0.003630 
#    y 0.000000 1.700460 0.000000 
#    z 0.003630 0.000000 1.750610 
# 
# From -- ./inp_files/24585.got.cif
#   From: 2010.06.25/outbox.cif.g09.slc.cpg/sg13_13_cif.got.tgz:24585.got - 2010.06.28 04:50:58.
