data_PCOD8117401
_publ_section_title
;
Structure prediction by ZEFSAII (Michael W. Deem and Ramdas Pophale) SiO2 
 PCOD8117401
Probable space group: P 2/C
;
_chemical_formula_sum "Si O2"
_cell_formula_units_Z 32
_cell_length_a 18.521571
_cell_length_b 8.807322
_cell_length_c 24.966040
_cell_angle_alpha 90.000000
_cell_angle_beta 156.776290
_cell_angle_gamma 90.000000
_cell_volume 1605.915237
_symmetry_space_group_name_H-M "P 2/C"
_symmetry_group_IT_number 13
_symmetry_cell_setting 'monoclinic'
loop_
_space_group_symop_operation_xyz
x,y,z
-x,y,1/2-z
-x,-y,-z
x,-y,1/2+z
loop_
_atom_site_type_symbol
_atom_site_label
_atom_site_fract_x
_atom_site_fract_y
_atom_site_fract_z
Si Si1 0.850766 0.237354 0.106498
Si Si2 0.202184 0.214691 0.235811
Si Si3 0.225799 0.248984 0.816874
Si Si4 0.589934 0.843898 0.510416
Si Si5 0.942132 0.016085 0.588206
Si Si6 0.419653 0.821020 0.547454
Si Si7 0.689988 0.264418 0.408098
Si Si8 0.980267 0.515042 0.619472
O O1 0.833545 0.109664 0.048840
O O2 0.905895 0.400703 0.121390
O O3 0.000000 0.175939 0.250000
O O4 0.659185 0.258171 0.007764
O O5 0.280380 0.188845 0.349701
O O6 0.365590 0.225042 0.304407
O O7 0.074840 0.068719 0.136422
O O8 0.068236 0.360750 0.139130
O O9 0.380862 0.193053 0.880947
O O10 0.152130 0.409950 0.748164
O O11 0.307878 0.286908 0.931190
O O12 0.061157 0.127773 0.707327
O O13 0.604579 0.016124 0.498627
O O14 0.799052 0.120824 0.457086
O O15 0.336438 0.794093 0.548882
O O16 0.500000 0.294266 0.250000
O O17 0.807936 0.417810 0.480076
#
# Coordination Sequence:
#
# PCOD8117401 Si02
#       8
#     4   4   4   4   4   4   4   4
#     4  11  19  32  55  91 122 145 178 223 290 352
#     4  10  19  35  57  92 119 146 177 225 298 355
#     4  10  20  32  55  91 119 151 175 220 296 355
#     4  11  18  32  58  92 129 138 175 234 287 351
#     4  10  18  35  60  80 118 144 184 231 288 339
#     4  11  20  34  62  87 115 151 189 230 284 342
#     4  11  26  42  56  77 112 155 206 247 273 316
#     4  10  24  36  55  84 122 152 183 232 288 348
#
# _framework density 19.926333
#
# number of rings (size 3 to 8) (size 9 to 14) (size 15 to 20)
#    0.000    1.500    6.250    0.750    1.750    4.000 
#    0.000    3.750    0.000    0.000    0.000    0.000 
#    0.000    0.000    0.000    0.000    0.000    0.000 
#
# Total GULP energy -396472.423155 kJ/mol
# GULP energy per Si atom -12389.763224 kJ/mol
# Density = 1.988098 g / cm^3
# Si number density = 19.926333 Si / 1000 Ang^3
#
#
#
# Elastic Constant Matrix: (Units=GPa)
#
#
# Indices 1 2 3 4 5 6 
#
# 1 39.4855 6.1124 10.9409 0.0000 20.2380 0.0000
# 2 6.1124 100.9391 40.3730 0.0000 10.9645 0.0000
# 3 10.9409 40.3730 98.2043 0.0000 19.1173 0.0000
# 4 0.0000 0.0000 0.0000 27.6305 0.0000 13.5350
# 5 20.2380 10.9645 19.1173 0.0000 22.5055 0.0000
# 6 0.0000 0.0000 0.0000 13.5350 0.0000 24.0403
#
#
#
# Elastic Compliance Matrix: (Units=1/GPa)
#
#
# Indices 1 2 3 4 5 6 
#
# 1 0.048107 0.000791 0.003369 0.000000 -0.046507 0.000000
# 2 0.000791 0.011942 -0.004465 0.000000 -0.002737 0.000000
# 3 0.003369 -0.004465 0.014149 0.000000 -0.012873 0.000000
# 4 0.000000 0.000000 0.000000 0.049975 0.000000 -0.028136
# 5 -0.046507 -0.002737 -0.012873 0.000000 0.098523 0.000000
# 6 0.000000 0.000000 0.000000 -0.028136 0.000000 0.057438
#
#
# Mechanical properties :
#
#
# Convention : Reuss Voigt Hill
#
# Bulk Modulus (GPa) = 13.58923 39.27573 26.43248
# Shear Modulus (GPa) = 16.37880 26.91544 21.64712
#
# Velocity S-wave (km/s) = 2.87011 3.67924 3.29957
# Velocity P-wave (km/s) = 4.22113 6.14836 5.27353
#
# Compressibility (1/GPa) = 0.07358771
#
# Stress axis : x y z
#
# Youngs Moduli (GPa) = 20.78719 83.73665 70.67587
#
# Poissons Ratio (x) = -0.06626 -0.23807
# Poissons Ratio (y) = -0.01645 0.31556
# Poissons Ratio (z) = -0.07002 0.37388
#
# Static dielectric constant tensor:
#      x y z
#    x 3.633950 0.000000 0.563360 
#    y 0.000000 3.740460 0.000000 
#    z 0.563360 0.000000 3.510210 
# 
# 
# High freq. dielectric constant tensor:
#      x y z
#    x 1.757240 0.000000 0.049960 
#    y 0.000000 1.784080 0.000000 
#    z 0.049960 0.000000 1.751720 
# 
# From -- ./inp_files/93604.got.cif
#   From: 2010.06.25/outbox.cif.g09.slc.cpg/sg13_47_cif.got.tgz:93604.got - 2010.06.28 04:50:58.
