data_PCOD8117599
_publ_section_title
;
Structure prediction by ZEFSAII (Michael W. Deem and Ramdas Pophale) SiO2 
 PCOD8117599
Probable space group: P 2/C
;
_chemical_formula_sum "Si O2"
_cell_formula_units_Z 32
_cell_length_a 12.973646
_cell_length_b 25.781615
_cell_length_c 5.229456
_cell_angle_alpha 90.000000
_cell_angle_beta 90.028783
_cell_angle_gamma 90.000000
_cell_volume 1749.156309
_symmetry_space_group_name_H-M "P 2/C"
_symmetry_group_IT_number 13
_symmetry_cell_setting 'monoclinic'
loop_
_space_group_symop_operation_xyz
x,y,z
-x,y,1/2-z
-x,-y,-z
x,-y,1/2+z
loop_
_atom_site_type_symbol
_atom_site_label
_atom_site_fract_x
_atom_site_fract_y
_atom_site_fract_z
Si Si1 0.191763 0.144990 0.245917
Si Si2 0.115900 0.199109 0.743185
Si Si3 0.119459 0.032763 0.256336
Si Si4 0.616643 0.215030 0.259515
Si Si5 0.191744 0.518143 0.282671
Si Si6 0.322319 0.390185 0.787972
Si Si7 0.388199 0.557269 0.794770
Si Si8 0.306624 0.731111 0.238263
O O1 0.130075 0.163882 0.493768
O O2 0.192260 0.082934 0.242722
O O3 0.309452 0.165014 0.256732
O O4 0.135954 0.164652 0.991898
O O5 0.189555 0.248837 0.735956
O O6 0.000000 0.220559 0.750000
O O7 0.000000 0.050069 0.250000
O O8 0.146225 0.003328 0.517022
O O9 0.500000 0.194365 0.250000
O O10 0.631851 0.245539 0.523385
O O11 0.636844 0.253715 0.023782
O O12 0.128753 0.503515 0.539064
O O13 0.212365 0.579340 0.263007
O O14 0.303015 0.488088 0.312148
O O15 0.393860 0.409182 0.555017
O O16 0.300570 0.330059 0.762974
O O17 0.368574 0.402399 0.065068
O O18 0.500000 0.530838 0.750000
#
# Coordination Sequence:
#
# PCOD8117599 Si02
#       8
#     4   4   4   4   4   4   4   4
#     4  10  20  34  53  75 101 135 166 192 232 286
#     4  10  19  33  53  74  98 127 161 199 239 290
#     4  10  19  30  48  76 106 129 152 191 242 289
#     4  10  21  36  51  68  95 131 170 205 232 269
#     4   8  16  27  38  52  75 106 143 178 219 273
#     4  10  19  29  40  57  84 111 141 184 232 276
#     4  10  19  28  39  56  79 112 151 185 223 276
#     4  10  21  33  48  72  95 121 161 204 245 285
#
# _framework density 18.294532
#
# number of rings (size 3 to 8) (size 9 to 14) (size 15 to 20)
#    0.000    2.250    0.000    3.375    0.000    8.500 
#    0.000    0.000    0.000    0.750    0.000    0.000 
#    0.000    9.000    0.000    0.000    0.000   13.750 
#
# Total GULP energy -396698.679674 kJ/mol
# GULP energy per Si atom -12396.833740 kJ/mol
# Density = 1.825289 g / cm^3
# Si number density = 18.294532 Si / 1000 Ang^3
#
#
#
# Elastic Constant Matrix: (Units=GPa)
#
#
# Indices 1 2 3 4 5 6 
#
# 1 79.6504 23.4677 10.9474 0.0000 5.0155 0.0000
# 2 23.4677 97.7445 -0.5712 0.0000 2.4450 0.0000
# 3 10.9474 -0.5712 106.7755 0.0000 5.1242 0.0000
# 4 0.0000 0.0000 0.0000 29.3435 0.0000 0.2708
# 5 5.0155 2.4450 5.1242 0.0000 10.4847 0.0000
# 6 0.0000 0.0000 0.0000 0.2708 0.0000 11.2228
#
#
#
# Elastic Compliance Matrix: (Units=1/GPa)
#
#
# Indices 1 2 3 4 5 6 
#
# 1 0.014011 -0.003237 -0.001196 0.000000 -0.005363 0.000000
# 2 -0.003237 0.011042 0.000451 0.000000 -0.001247 0.000000
# 3 -0.001196 0.000451 0.009696 0.000000 -0.004271 0.000000
# 4 0.000000 0.000000 0.000000 0.034087 0.000000 -0.000822
# 5 -0.005363 -0.001247 -0.004271 0.000000 0.100321 0.000000
# 6 0.000000 0.000000 0.000000 -0.000822 0.000000 0.089124
#
#
# Mechanical properties :
#
#
# Convention : Reuss Voigt Hill
#
# Bulk Modulus (GPa) = 37.33698 39.09535 38.21617
# Shear Modulus (GPa) = 18.17047 26.89863 22.53455
#
# Velocity S-wave (km/s) = 3.15496 3.83862 3.51346
# Velocity P-wave (km/s) = 5.80730 6.40805 6.11506
#
# Compressibility (1/GPa) = 0.02678310
#
# Stress axis : x y z
#
# Youngs Moduli (GPa) = 71.37438 90.56587 103.14055
#
# Poissons Ratio (x) = 0.29313 0.12340
# Poissons Ratio (y) = 0.23102 -0.04649
# Poissons Ratio (z) = 0.08539 -0.04082
#
# Static dielectric constant tensor:
#      x y z
#    x 3.045200 0.000000 -0.070280 
#    y 0.000000 3.183670 0.000000 
#    z -0.070280 0.000000 4.328540 
# 
# 
# High freq. dielectric constant tensor:
#      x y z
#    x 1.669110 0.000000 -0.001530 
#    y 0.000000 1.694790 0.000000 
#    z -0.001530 0.000000 1.749300 
# 
# From -- ./inp_files/4363.got.cif
#   From: 2010.06.25/outbox.cif.g09.slc.cpg/sg13_3_cif.got.tgz:4363.got - 2010.06.28 04:50:58.
