data_PCOD8117512
_publ_section_title
;
Structure prediction by ZEFSAII (Michael W. Deem and Ramdas Pophale) SiO2 
 PCOD8117512
Probable space group: P 2/C
;
_chemical_formula_sum "Si O2"
_cell_formula_units_Z 32
_cell_length_a 16.241530
_cell_length_b 16.734486
_cell_length_c 10.425650
_cell_angle_alpha 90.000000
_cell_angle_beta 34.181970
_cell_angle_gamma 90.000000
_cell_volume 1591.996231
_symmetry_space_group_name_H-M "P 2/C"
_symmetry_group_IT_number 13
_symmetry_cell_setting 'monoclinic'
loop_
_space_group_symop_operation_xyz
x,y,z
-x,y,1/2-z
-x,-y,-z
x,-y,1/2+z
loop_
_atom_site_type_symbol
_atom_site_label
_atom_site_fract_x
_atom_site_fract_y
_atom_site_fract_z
Si Si1 0.633706 0.400587 0.654693
Si Si2 0.832789 0.459757 0.964036
Si Si3 0.832193 0.669315 0.685185
Si Si4 0.723999 0.222003 0.125129
Si Si5 0.389857 0.063372 0.271423
Si Si6 0.425999 0.892335 0.211202
Si Si7 0.407887 0.734021 0.104802
Si Si8 0.836816 0.328368 0.766977
O O1 0.500000 0.441923 0.750000
O O2 0.721042 0.466870 0.623253
O O3 0.749154 0.352237 0.420924
O O4 0.551348 0.336393 0.850154
O O5 0.803600 0.417258 0.863920
O O6 0.000000 0.491232 0.750000
O O7 0.802478 0.399397 0.118721
O O8 0.775167 0.755287 0.703839
O O9 0.002771 0.675344 0.501430
O O10 0.740099 0.129348 0.059566
O O11 0.551185 0.245696 0.335345
O O12 0.832347 0.269547 0.893527
O O13 0.500000 0.076456 0.250000
O O14 0.325579 0.972289 0.361575
O O15 0.456787 0.079183 0.044708
O O16 0.500000 0.867908 0.250000
O O17 0.346823 0.813340 0.257532
O O18 0.279397 0.699310 0.185494
#
# Coordination Sequence:
#
# PCOD8117512 Si02
#       8
#     4   4   4   4   4   4   4   4
#     4  12  25  38  57  85 116 149 188 237 302 344
#     4   9  23  41  61  80 108 151 194 239 282 345
#     4  10  23  41  58  84 114 152 195 235 292 352
#     4  10  18  37  60  86 118 145 195 243 286 334
#     4   9  17  30  56  88 116 154 195 240 284 343
#     4   9  18  32  52  86 126 153 187 236 297 350
#     4  11  22  34  59  88 119 150 188 239 294 342
#     4  10  22  40  60  84 111 152 197 239 282 346
#
# _framework density 20.100549999999998
#
# number of rings (size 3 to 8) (size 9 to 14) (size 15 to 20)
#    0.000    2.000    1.250    3.375    5.250    3.500 
#    0.000    0.000    0.000    0.750    3.250    0.000 
#    0.000    0.000    0.000    0.000    0.000    0.000 
#
# Total GULP energy -396502.406218 kJ/mol
# GULP energy per Si atom -12390.700194 kJ/mol
# Density = 2.005480 g / cm^3
# Si number density = 20.100550 Si / 1000 Ang^3
#
#
#
# Elastic Constant Matrix: (Units=GPa)
#
#
# Indices 1 2 3 4 5 6 
#
# 1 71.4555 13.5570 6.1482 0.0000 1.6662 0.0000
# 2 13.5570 107.9846 2.0978 0.0000 -9.9984 0.0000
# 3 6.1482 2.0978 51.7768 0.0000 -1.7763 0.0000
# 4 0.0000 0.0000 0.0000 13.6622 0.0000 4.1487
# 5 1.6662 -9.9984 -1.7763 0.0000 25.6002 0.0000
# 6 0.0000 0.0000 0.0000 4.1487 0.0000 17.5282
#
#
#
# Elastic Compliance Matrix: (Units=1/GPa)
#
#
# Indices 1 2 3 4 5 6 
#
# 1 0.014557 -0.001964 -0.001712 0.000000 -0.001833 0.000000
# 2 -0.001964 0.009877 -0.000030 0.000000 0.003983 0.000000
# 3 -0.001712 -0.000030 0.019568 0.000000 0.001457 0.000000
# 4 0.000000 0.000000 0.000000 0.078863 0.000000 -0.018666
# 5 -0.001833 0.003983 0.001457 0.000000 0.040838 0.000000
# 6 0.000000 0.000000 0.000000 -0.018666 0.000000 0.061469
#
#
# Mechanical properties :
#
#
# Convention : Reuss Voigt Hill
#
# Bulk Modulus (GPa) = 27.33026 30.53588 28.93307
# Shear Modulus (GPa) = 20.42641 25.31905 22.87273
#
# Velocity S-wave (km/s) = 3.19127 3.55296 3.37696
# Velocity P-wave (km/s) = 5.21586 5.66180 5.44340
#
# Compressibility (1/GPa) = 0.03658948
#
# Stress axis : x y z
#
# Youngs Moduli (GPa) = 68.69353 101.24982 51.10335
#
# Poissons Ratio (x) = 0.19887 0.08749
# Poissons Ratio (y) = 0.13492 0.00155
# Poissons Ratio (z) = 0.11760 0.00307
#
# Static dielectric constant tensor:
#      x y z
#    x 3.717080 0.000000 0.230220 
#    y 0.000000 4.279430 0.000000 
#    z 0.230220 0.000000 3.482200 
# 
# 
# High freq. dielectric constant tensor:
#      x y z
#    x 1.781550 0.000000 0.018950 
#    y 0.000000 1.793440 0.000000 
#    z 0.018950 0.000000 1.754680 
# 
# From -- ./inp_files/39514.got.cif
#   From: 2010.06.25/outbox.cif.g09.slc.cpg/sg13_20_cif.got.tgz:39514.got - 2010.06.28 04:50:58.
