data_PCOD8117689
_publ_section_title
;
Structure prediction by ZEFSAII (Michael W. Deem and Ramdas Pophale) SiO2 
 PCOD8117689
Probable space group: P 2/C
;
_chemical_formula_sum "Si O2"
_cell_formula_units_Z 32
_cell_length_a 14.989766
_cell_length_b 5.107670
_cell_length_c 20.692458
_cell_angle_alpha 90.000000
_cell_angle_beta 104.533941
_cell_angle_gamma 90.000000
_cell_volume 1533.574017
_symmetry_space_group_name_H-M "P 2/C"
_symmetry_group_IT_number 13
_symmetry_cell_setting 'monoclinic'
loop_
_space_group_symop_operation_xyz
x,y,z
-x,y,1/2-z
-x,-y,-z
x,-y,1/2+z
loop_
_atom_site_type_symbol
_atom_site_label
_atom_site_fract_x
_atom_site_fract_y
_atom_site_fract_z
Si Si1 0.270675 0.601933 0.237509
Si Si2 0.738300 0.027711 0.488080
Si Si3 0.165392 0.101234 0.374817
Si Si4 0.500489 0.425016 0.108231
Si Si5 0.573399 0.785423 0.028925
Si Si6 0.098574 0.605138 0.297466
Si Si7 0.660616 0.898217 0.684741
Si Si8 0.693653 0.524794 0.398286
O O1 0.171093 0.610377 0.252176
O O2 0.324702 0.339521 0.263822
O O3 0.253653 0.601375 0.157652
O O4 0.336403 0.840872 0.271533
O O5 0.674351 0.100557 0.537633
O O6 0.744752 0.271760 0.439499
O O7 0.829461 0.951299 0.546249
O O8 0.699880 0.774724 0.445404
O O9 0.121805 0.385709 0.355026
O O10 0.264689 0.094310 0.358081
O O11 0.097760 0.884679 0.332438
O O12 0.570433 0.666177 0.102364
O O13 0.558540 0.161388 0.135029
O O14 0.415221 0.475061 0.141671
O O15 0.440995 0.425937 0.030617
O O16 0.500000 0.000000 0.000000
O O17 0.000000 0.543433 0.250000
#
# Coordination Sequence:
#
# PCOD8117689 Si02
#       8
#     4   4   4   4   4   4   4   4
#     4  10  23  41  59  83 115 159 198 239 298 362
#     4  11  22  35  60  83 118 158 194 250 287 344
#     4  10  21  36  61  95 116 141 193 243 300 346
#     4  10  22  32  51  81 112 158 202 244 286 326
#     4  10  19  32  50  78 115 151 198 249 286 326
#     4  10  21  40  67  92 115 145 185 245 304 362
#     4  10  22  36  59  80 116 155 200 257 288 331
#     4  11  23  39  55  81 120 166 204 231 293 353
#
# _framework density 20.866288999999998
#
# number of rings (size 3 to 8) (size 9 to 14) (size 15 to 20)
#    0.000    1.750    1.250    2.625   10.500    0.500 
#    0.000    1.250    0.000    4.500    0.000    0.000 
#    0.000    0.000    0.000    0.000    0.000    0.000 
#
# Total GULP energy -396484.937887 kJ/mol
# GULP energy per Si atom -12390.154309 kJ/mol
# Density = 2.081880 g / cm^3
# Si number density = 20.866289 Si / 1000 Ang^3
#
#
#
# Elastic Constant Matrix: (Units=GPa)
#
#
# Indices 1 2 3 4 5 6 
#
# 1 53.6732 26.3317 42.7845 0.0000 8.3924 0.0000
# 2 26.3317 122.6296 54.1652 0.0000 -8.0556 0.0000
# 3 42.7845 54.1652 104.9687 0.0000 11.2982 0.0000
# 4 0.0000 0.0000 0.0000 30.8512 0.0000 3.2367
# 5 8.3924 -8.0556 11.2982 0.0000 13.5414 0.0000
# 6 0.0000 0.0000 0.0000 3.2367 0.0000 16.5281
#
#
#
# Elastic Compliance Matrix: (Units=1/GPa)
#
#
# Indices 1 2 3 4 5 6 
#
# 1 0.029281 -0.003157 -0.008954 0.000000 -0.012554 0.000000
# 2 -0.003157 0.012993 -0.007098 0.000000 0.015608 0.000000
# 3 -0.008954 -0.007098 0.018343 0.000000 -0.013977 0.000000
# 4 0.000000 0.000000 0.000000 0.033094 0.000000 -0.006481
# 5 -0.012554 0.015608 -0.013977 0.000000 0.102575 0.000000
# 6 0.000000 0.000000 0.000000 -0.006481 0.000000 0.061772
#
#
# Mechanical properties :
#
#
# Convention : Reuss Voigt Hill
#
# Bulk Modulus (GPa) = 45.04699 58.64826 51.84763
# Shear Modulus (GPa) = 16.45410 22.71680 19.58545
#
# Velocity S-wave (km/s) = 2.81116 3.30310 3.06701
# Velocity P-wave (km/s) = 5.67204 6.53567 6.11911
#
# Compressibility (1/GPa) = 0.02219904
#
# Stress axis : x y z
#
# Youngs Moduli (GPa) = 34.15208 76.96576 54.51569
#
# Poissons Ratio (x) = 0.24297 0.48816
# Poissons Ratio (y) = 0.10781 0.38693
# Poissons Ratio (z) = 0.30581 0.54628
#
# Static dielectric constant tensor:
#      x y z
#    x 3.464130 0.000000 0.044790 
#    y 0.000000 4.092030 0.000000 
#    z 0.044790 0.000000 3.887140 
# 
# 
# High freq. dielectric constant tensor:
#      x y z
#    x 1.764250 0.000000 0.005770 
#    y 0.000000 1.841920 0.000000 
#    z 0.005770 0.000000 1.818870 
# 
# From -- ./inp_files/79339.got.cif
#   From: 2010.06.25/outbox.cif.g09.slc.cpg/sg13_40_cif.got.tgz:79339.got - 2010.06.28 04:50:58.
