data_PCOD8117891
_publ_section_title
;
Structure prediction by ZEFSAII (Michael W. Deem and Ramdas Pophale) SiO2 
 PCOD8117891
Probable space group: P 2/C
;
_chemical_formula_sum "Si O2"
_cell_formula_units_Z 28
_cell_length_a 12.614912
_cell_length_b 12.888112
_cell_length_c 9.425198
_cell_angle_alpha 90.000000
_cell_angle_beta 54.448546
_cell_angle_gamma 90.000000
_cell_volume 1246.727627
_symmetry_space_group_name_H-M "P 2/C"
_symmetry_group_IT_number 13
_symmetry_cell_setting 'monoclinic'
loop_
_space_group_symop_operation_xyz
x,y,z
-x,y,1/2-z
-x,-y,-z
x,-y,1/2+z
loop_
_atom_site_type_symbol
_atom_site_label
_atom_site_fract_x
_atom_site_fract_y
_atom_site_fract_z
Si Si1 0.240785 0.094829 0.152346
Si Si2 0.242307 0.898600 0.329244
Si Si3 0.636314 0.417151 0.885076
Si Si4 0.858863 0.678074 0.035861
Si Si5 0.504170 0.791518 0.413785
Si Si6 0.631832 0.393930 0.197850
Si Si7 0.148491 0.302354 0.279082
O O1 0.129172 0.177937 0.279658
O O2 0.194061 0.994946 0.275103
O O3 0.250978 0.059944 0.982309
O O4 0.376187 0.156485 0.082741
O O5 0.154225 0.795670 0.394765
O O6 0.380764 0.872783 0.149906
O O7 0.771891 0.397407 0.697208
O O8 0.534249 0.320588 0.960153
O O9 0.576701 0.517660 0.849736
O O10 0.685848 0.440456 0.007057
O O11 0.807944 0.663977 0.913580
O O12 0.010854 0.647122 0.930171
O O13 0.500000 0.769201 0.250000
O O14 0.500000 0.331421 0.250000
O O15 0.743127 0.328008 0.187844
#
# Coordination Sequence:
#
# PCOD8117891 Si02
#       7
#     4   4   4   4   4   4   4
#     4  10  19  34  56  86 120 158 199 249 305 357
#     4   9  19  33  55  84 116 156 200 247 302 362
#     4  11  23  40  63  89 122 158 203 254 305 367
#     4   9  21  43  64  86 119 166 211 251 303 355
#     4   9  18  35  57  82 118 160 201 250 305 362
#     4  12  25  40  63  95 123 157 200 252 312 368
#     4  10  22  41  63  87 123 164 208 254 299 361
#
# _framework density 22.458796
#
# number of rings (size 3 to 8) (size 9 to 14) (size 15 to 20)
#    0.000    2.000    0.000    3.857    0.000    4.000 
#    0.000    3.571    0.000    0.000    0.000    0.000 
#    0.000    0.000    0.000    0.000    0.000    0.000 
#
# Total GULP energy -346922.927382 kJ/mol
# GULP energy per Si atom -12390.104549 kJ/mol
# Density = 2.240768 g / cm^3
# Si number density = 22.458796 Si / 1000 Ang^3
#
#
#
# Elastic Constant Matrix: (Units=GPa)
#
#
# Indices 1 2 3 4 5 6 
#
# 1 85.0714 0.9721 21.2162 0.0000 17.4275 0.0000
# 2 0.9721 44.4845 5.6699 0.0000 26.4741 0.0000
# 3 21.2162 5.6699 85.2328 0.0000 20.7488 0.0000
# 4 0.0000 0.0000 0.0000 38.0368 0.0000 10.1350
# 5 17.4275 26.4741 20.7488 0.0000 32.7821 0.0000
# 6 0.0000 0.0000 0.0000 10.1350 0.0000 22.1660
#
#
#
# Elastic Compliance Matrix: (Units=1/GPa)
#
#
# Indices 1 2 3 4 5 6 
#
# 1 0.014674 0.007910 -0.000857 0.000000 -0.013646 0.000000
# 2 0.007910 0.050993 0.006723 0.000000 -0.049642 0.000000
# 3 -0.000857 0.006723 0.015024 0.000000 -0.014484 0.000000
# 4 0.000000 0.000000 0.000000 0.029938 0.000000 -0.013688
# 5 -0.013646 -0.049642 -0.014484 0.000000 0.087016 0.000000
# 6 0.000000 0.000000 0.000000 -0.013688 0.000000 0.051373
#
#
# Mechanical properties :
#
#
# Convention : Reuss Voigt Hill
#
# Bulk Modulus (GPa) = 9.23833 30.05613 19.64723
# Shear Modulus (GPa) = 19.41399 31.05900 25.23650
#
# Velocity S-wave (km/s) = 2.94330 3.72281 3.35577
# Velocity P-wave (km/s) = 3.95893 5.64721 4.87668
#
# Compressibility (1/GPa) = 0.10824468
#
# Stress axis : x y z
#
# Youngs Moduli (GPa) = 68.14922 19.61045 66.55827
#
# Poissons Ratio (x) = -0.15512 0.05702
# Poissons Ratio (y) = -0.53906 -0.44750
# Poissons Ratio (z) = 0.05839 -0.13185
#
# Static dielectric constant tensor:
#      x y z
#    x 4.005390 0.000000 -0.098230 
#    y 0.000000 3.835290 0.000000 
#    z -0.098230 0.000000 4.282180 
# 
# 
# High freq. dielectric constant tensor:
#      x y z
#    x 1.869160 0.000000 -0.008130 
#    y 0.000000 1.870890 0.000000 
#    z -0.008130 0.000000 1.906530 
# 
# From -- ./inp_files/16460.got.cif
#   From: 2010.06.25/outbox.cif.g09.slc.cpg/sg13_9_cif.got.tgz:16460.got - 2010.06.28 04:50:58.
