data_PCOD8117464
_publ_section_title
;
Structure prediction by ZEFSAII (Michael W. Deem and Ramdas Pophale) SiO2 
 PCOD8117464
Probable space group: P 2/C
;
_chemical_formula_sum "Si O2"
_cell_formula_units_Z 28
_cell_length_a 22.006488
_cell_length_b 9.368143
_cell_length_c 17.429500
_cell_angle_alpha 90.000000
_cell_angle_beta 155.960501
_cell_angle_gamma 90.000000
_cell_volume 1463.774959
_symmetry_space_group_name_H-M "P 2/C"
_symmetry_group_IT_number 13
_symmetry_cell_setting 'monoclinic'
loop_
_space_group_symop_operation_xyz
x,y,z
-x,y,1/2-z
-x,-y,-z
x,-y,1/2+z
loop_
_atom_site_type_symbol
_atom_site_label
_atom_site_fract_x
_atom_site_fract_y
_atom_site_fract_z
Si Si1 0.293948 0.911553 0.773854
Si Si2 0.000000 0.765141 0.250000
Si Si3 0.915678 0.659048 0.987681
Si Si4 0.432634 0.839037 0.510855
Si Si5 0.174039 0.635115 0.167920
Si Si6 0.097562 0.866674 0.965460
Si Si7 0.500000 0.926147 0.750000
Si Si8 0.183534 0.023949 0.412959
O O1 0.167313 0.795265 0.645616
O O2 0.349827 0.005048 0.911366
O O3 0.228269 0.030025 0.642840
O O4 0.431011 0.832469 0.890914
O O5 0.049427 0.671066 0.380817
O O6 0.142862 0.864790 0.396156
O O7 0.808852 0.524674 0.845164
O O8 0.073042 0.640154 0.127188
O O9 0.331182 0.703456 0.372881
O O10 0.489059 0.823952 0.663249
O O11 0.097827 0.718482 0.009772
O O12 0.143676 0.852668 0.929175
O O13 0.933621 0.938777 0.790509
O O14 0.355406 0.029078 0.587104
#
# Coordination Sequence:
#
# PCOD8117464 Si02
#       8
#     4   2   4   4   4   4   2   4
#     4  10  19  37  58  79 114 148 188 234 284 338
#     4  10  18  36  60  80 110 154 182 236 286 346
#     4  11  21  38  58  85 114 151 196 229 284 341
#     4  10  22  35  57  86 115 148 189 240 286 332
#     4  10  24  36  56  86 116 150 195 234 278 340
#     4   9  18  37  53  82 114 146 185 236 280 337
#     4  12  20  32  56  92 110 144 188 250 278 340
#     4  10  19  32  57  87 114 143 192 233 292 329
#
# _framework density 19.128623000000001
#
# number of rings (size 3 to 8) (size 9 to 14) (size 15 to 20)
#    0.000    2.000    4.286    0.857    2.000    2.857 
#    0.000    0.000    0.000    0.857    0.000    0.000 
#    0.000    0.000    0.000    0.000    0.000    0.000 
#
# Total GULP energy -346950.857968 kJ/mol
# GULP energy per Si atom -12391.102070 kJ/mol
# Density = 1.908509 g / cm^3
# Si number density = 19.128623 Si / 1000 Ang^3
#
#
#
# Elastic Constant Matrix: (Units=GPa)
#
#
# Indices 1 2 3 4 5 6 
#
# 1 47.6786 19.1533 22.1937 0.0000 -10.7934 0.0000
# 2 19.1533 72.5011 8.7889 0.0000 -10.0305 0.0000
# 3 22.1937 8.7889 85.0763 0.0000 4.5475 0.0000
# 4 0.0000 0.0000 0.0000 28.0417 0.0000 -4.2750
# 5 -10.7934 -10.0305 4.5475 0.0000 36.0166 0.0000
# 6 0.0000 0.0000 0.0000 -4.2750 0.0000 20.7047
#
#
#
# Elastic Compliance Matrix: (Units=1/GPa)
#
#
# Indices 1 2 3 4 5 6 
#
# 1 0.028346 -0.005521 -0.007245 0.000000 0.007872 0.000000
# 2 -0.005521 0.015672 -0.000326 0.000000 0.002751 0.000000
# 3 -0.007245 -0.000326 0.013892 0.000000 -0.004016 0.000000
# 4 0.000000 0.000000 0.000000 0.036820 0.000000 0.007602
# 5 0.007872 0.002751 -0.004016 0.000000 0.031397 0.000000
# 6 0.000000 0.000000 0.000000 0.007602 0.000000 0.049868
#
#
# Mechanical properties :
#
#
# Convention : Reuss Voigt Hill
#
# Bulk Modulus (GPa) = 31.51945 33.94753 32.73349
# Shear Modulus (GPa) = 23.50124 27.29394 25.39759
#
# Velocity S-wave (km/s) = 3.50893 3.78148 3.64775
# Velocity P-wave (km/s) = 5.73848 6.07056 5.90685
#
# Compressibility (1/GPa) = 0.03172644
#
# Stress axis : x y z
#
# Youngs Moduli (GPa) = 35.27813 63.80991 71.98143
#
# Poissons Ratio (x) = 0.35230 0.52151
# Poissons Ratio (y) = 0.19477 0.02345
# Poissons Ratio (z) = 0.25559 0.02078
#
# Static dielectric constant tensor:
#      x y z
#    x 3.504790 0.000000 -0.237560 
#    y 0.000000 3.349480 0.000000 
#    z -0.237560 0.000000 3.884190 
# 
# 
# High freq. dielectric constant tensor:
#      x y z
#    x 1.739110 0.000000 -0.005300 
#    y 0.000000 1.706090 0.000000 
#    z -0.005300 0.000000 1.760430 
# 
# From -- ./inp_files/82473.got.cif
#   From: 2010.06.25/outbox.cif.g09.slc.cpg/sg13_42_cif.got.tgz:82473.got - 2010.06.28 04:50:58.
