data_PCOD8117825
_publ_section_title
;
Structure prediction by ZEFSAII (Michael W. Deem and Ramdas Pophale) SiO2 
 PCOD8117825
Probable space group: P 2/C
;
_chemical_formula_sum "Si O2"
_cell_formula_units_Z 32
_cell_length_a 6.469888
_cell_length_b 18.055587
_cell_length_c 13.464579
_cell_angle_alpha 90.000000
_cell_angle_beta 93.621236
_cell_angle_gamma 90.000000
_cell_volume 1569.759677
_symmetry_space_group_name_H-M "P 2/C"
_symmetry_group_IT_number 13
_symmetry_cell_setting 'monoclinic'
loop_
_space_group_symop_operation_xyz
x,y,z
-x,y,1/2-z
-x,-y,-z
x,-y,1/2+z
loop_
_atom_site_type_symbol
_atom_site_label
_atom_site_fract_x
_atom_site_fract_y
_atom_site_fract_z
Si Si1 0.026869 0.116677 0.359082
Si Si2 0.374824 0.383397 0.647747
Si Si3 0.995181 0.291626 0.865525
Si Si4 0.399434 0.080705 0.507586
Si Si5 0.933161 0.047931 0.854702
Si Si6 0.753938 0.580276 0.033618
Si Si7 0.189516 0.846147 0.467611
Si Si8 0.926260 0.516782 0.852084
O O1 0.258989 0.100844 0.406690
O O2 0.000000 0.153668 0.250000
O O3 0.902035 0.172544 0.426710
O O4 0.902190 0.039561 0.349189
O O5 0.500000 0.360430 0.750000
O O6 0.513361 0.415983 0.561098
O O7 0.212043 0.445425 0.677301
O O8 0.240867 0.311609 0.606422
O O9 0.154479 0.342249 0.929440
O O10 0.078789 0.209083 0.887029
O O11 0.000000 0.309089 0.750000
O O12 0.562880 0.148691 0.522582
O O13 0.276669 0.084018 0.608394
O O14 0.500000 0.000000 0.500000
O O15 0.114973 0.070328 0.936953
O O16 0.000000 0.080585 0.750000
O O17 0.865375 0.508560 0.084369
O O18 0.789369 0.573412 0.915208
O O19 0.000000 0.553797 0.750000
#
# Coordination Sequence:
#
# PCOD8117825 Si02
#       8
#     4   4   4   4   4   4   4   4
#     4  10  21  38  59  83 117 151 195 256 307 360
#     4  11  18  36  61  86 122 166 205 250 310 378
#     4  11  23  39  57  83 125 164 203 251 304 374
#     4  11  19  37  60  86 116 150 194 251 307 364
#     4  10  20  36  56  86 123 145 190 254 309 357
#     4  10  20  35  56  86 122 164 205 254 311 367
#     4  11  22  38  57  85 118 156 204 250 302 369
#     4  10  19  33  57  91 123 154 209 266 311 355
#
# _framework density 20.385285
#
# number of rings (size 3 to 8) (size 9 to 14) (size 15 to 20)
#    0.000    1.500    5.000    2.250    0.000    3.000 
#    0.000    0.625    0.000    0.000    3.250    0.000 
#    0.000    0.000    0.000    0.000    0.000    0.000 
#
# Total GULP energy -396515.788402 kJ/mol
# GULP energy per Si atom -12391.118388 kJ/mol
# Density = 2.033889 g / cm^3
# Si number density = 20.385285 Si / 1000 Ang^3
#
#
#
# Elastic Constant Matrix: (Units=GPa)
#
#
# Indices 1 2 3 4 5 6 
#
# 1 138.6415 27.5546 54.9202 0.0000 -12.0922 0.0000
# 2 27.5546 42.9608 21.0112 0.0000 -1.1149 0.0000
# 3 54.9202 21.0112 132.5907 0.0000 -22.2569 0.0000
# 4 0.0000 0.0000 0.0000 23.8611 0.0000 5.7722
# 5 -12.0922 -1.1149 -22.2569 0.0000 31.0037 0.0000
# 6 0.0000 0.0000 0.0000 5.7722 0.0000 23.3597
#
#
#
# Elastic Compliance Matrix: (Units=1/GPa)
#
#
# Indices 1 2 3 4 5 6 
#
# 1 0.009405 -0.004558 -0.002939 0.000000 0.001394 0.000000
# 2 -0.004558 0.027579 -0.002972 0.000000 -0.002920 0.000000
# 3 -0.002939 -0.002972 0.010256 0.000000 0.006109 0.000000
# 4 0.000000 0.000000 0.000000 0.044574 0.000000 -0.011014
# 5 0.001394 -0.002920 0.006109 0.000000 0.037079 0.000000
# 6 0.000000 0.000000 0.000000 -0.011014 0.000000 0.045530
#
#
# Mechanical properties :
#
#
# Convention : Reuss Voigt Hill
#
# Bulk Modulus (GPa) = 38.02335 57.90722 47.96528
# Shear Modulus (GPa) = 24.49442 29.69205 27.09323
#
# Velocity S-wave (km/s) = 3.47013 3.82061 3.64958
# Velocity P-wave (km/s) = 5.89479 6.92321 6.42960
#
# Compressibility (1/GPa) = 0.02629963
#
# Stress axis : x y z
#
# Youngs Moduli (GPa) = 106.32987 36.25988 97.50439
#
# Poissons Ratio (x) = 0.16529 0.28658
# Poissons Ratio (y) = 0.48470 0.28981
# Poissons Ratio (z) = 0.31251 0.10778
#
# Static dielectric constant tensor:
#      x y z
#    x 3.952730 0.000000 -0.187010 
#    y 0.000000 3.265490 0.000000 
#    z -0.187010 0.000000 3.958830 
# 
# 
# High freq. dielectric constant tensor:
#      x y z
#    x 1.803980 0.000000 -0.008990 
#    y 0.000000 1.752800 0.000000 
#    z -0.008990 0.000000 1.795550 
# 
# From -- ./inp_files/44454.got.cif
#   From: 2010.06.25/outbox.cif.g09.slc.cpg/sg13_23_cif.got.tgz:44454.got - 2010.06.28 04:50:58.
