data_PCOD8117373
_publ_section_title
;
Structure prediction by ZEFSAII (Michael W. Deem and Ramdas Pophale) SiO2 
 PCOD8117373
Probable space group: P 2/C
;
_chemical_formula_sum "Si O2"
_cell_formula_units_Z 32
_cell_length_a 14.231108
_cell_length_b 18.350930
_cell_length_c 13.906932
_cell_angle_alpha 90.000000
_cell_angle_beta 30.317487
_cell_angle_gamma 90.000000
_cell_volume 1833.326538
_symmetry_space_group_name_H-M "P 2/C"
_symmetry_group_IT_number 13
_symmetry_cell_setting 'monoclinic'
loop_
_space_group_symop_operation_xyz
x,y,z
-x,y,1/2-z
-x,-y,-z
x,-y,1/2+z
loop_
_atom_site_type_symbol
_atom_site_label
_atom_site_fract_x
_atom_site_fract_y
_atom_site_fract_z
Si Si1 0.089801 0.482740 0.770397
Si Si2 0.946739 0.259253 0.962996
Si Si3 0.720168 0.005387 0.828775
Si Si4 0.165801 0.596928 0.854509
Si Si5 0.450962 0.608313 0.898412
Si Si6 0.700429 0.081380 0.037572
Si Si7 0.056397 0.901003 0.988629
Si Si8 0.275945 0.246638 0.530381
O O1 0.134169 0.560126 0.779758
O O2 0.265080 0.429351 0.602767
O O3 0.000000 0.503974 0.750000
O O4 0.935196 0.442896 0.969141
O O5 0.942891 0.184892 0.026075
O O6 0.793691 0.265041 0.014859
O O7 0.140017 0.265954 0.737255
O O8 0.911107 0.320570 0.074984
O O9 0.845133 0.067800 0.664133
O O10 0.812191 0.929951 0.713194
O O11 0.753920 0.020846 0.911381
O O12 0.500000 0.000000 0.000000
O O13 0.385986 0.590172 0.672548
O O14 0.500000 0.576622 0.750000
O O15 0.442794 0.697095 0.900943
O O16 0.500000 0.056360 0.250000
O O17 0.857194 0.080619 0.981744
O O18 0.675081 0.160871 0.009491
#
# Coordination Sequence:
#
# PCOD8117373 Si02
#       8
#     4   4   4   4   4   4   4   4
#     4  11  22  39  54  79 112 149 191 228 269 325
#     4  10  18  35  53  81 111 143 175 219 278 331
#     4  11  21  35  52  80 109 144 181 217 263 325
#     4  11  23  35  58  82 111 148 185 228 280 327
#     4  12  20  33  55  85 118 144 174 226 285 332
#     4  11  20  34  54  84 114 145 175 219 280 339
#     4  10  22  36  55  77 114 144 179 226 274 329
#     4  10  19  30  54  84 117 138 169 218 279 342
#
# _framework density 17.454609999999999
#
# number of rings (size 3 to 8) (size 9 to 14) (size 15 to 20)
#    0.000    1.250    6.250    1.125    1.750    0.000 
#    0.000    0.000    0.000    3.000    0.000    0.000 
#    0.000    0.000    0.000    0.000    0.000    0.000 
#
# Total GULP energy -396542.203225 kJ/mol
# GULP energy per Si atom -12391.943851 kJ/mol
# Density = 1.741488 g / cm^3
# Si number density = 17.454610 Si / 1000 Ang^3
#
#
#
# Elastic Constant Matrix: (Units=GPa)
#
#
# Indices 1 2 3 4 5 6 
#
# 1 76.1499 54.2603 40.6378 0.0000 -2.1101 0.0000
# 2 54.2603 119.6841 40.6424 0.0000 3.8812 0.0000
# 3 40.6378 40.6424 101.6605 0.0000 -6.5801 0.0000
# 4 0.0000 0.0000 0.0000 45.8289 0.0000 -1.9077
# 5 -2.1101 3.8812 -6.5801 0.0000 31.2508 0.0000
# 6 0.0000 0.0000 0.0000 -1.9077 0.0000 30.2515
#
#
#
# Elastic Compliance Matrix: (Units=1/GPa)
#
#
# Indices 1 2 3 4 5 6 
#
# 1 0.021825 -0.008105 -0.005397 0.000000 0.001344 0.000000
# 2 -0.008105 0.012808 -0.002047 0.000000 -0.002569 0.000000
# 3 -0.005397 -0.002047 0.012982 0.000000 0.002623 0.000000
# 4 0.000000 0.000000 0.000000 0.021878 0.000000 0.001380
# 5 0.001344 -0.002569 0.002623 0.000000 0.032961 0.000000
# 6 0.000000 0.000000 0.000000 0.001380 0.000000 0.033143
#
#
# Mechanical properties :
#
#
# Convention : Reuss Voigt Hill
#
# Bulk Modulus (GPa) = 60.54341 63.17507 61.85924
# Shear Modulus (GPa) = 29.03575 32.26316 30.64946
#
# Velocity S-wave (km/s) = 4.08303 4.30397 4.19495
# Velocity P-wave (km/s) = 7.54915 7.80842 7.67988
#
# Compressibility (1/GPa) = 0.01651708
#
# Stress axis : x y z
#
# Youngs Moduli (GPa) = 45.81946 78.07362 77.02930
#
# Poissons Ratio (x) = 0.63282 0.41571
# Poissons Ratio (y) = 0.37139 0.15767
# Poissons Ratio (z) = 0.24728 0.15980
#
# Static dielectric constant tensor:
#      x y z
#    x 3.059480 0.000000 -0.064740 
#    y 0.000000 3.330040 0.000000 
#    z -0.064740 0.000000 3.500070 
# 
# 
# High freq. dielectric constant tensor:
#      x y z
#    x 1.637450 0.000000 -0.009030 
#    y 0.000000 1.667520 0.000000 
#    z -0.009030 0.000000 1.700380 
# 
# From -- ./inp_files/53926.got.cif
#   From: 2010.06.25/outbox.cif.g09.slc.cpg/sg13_27_cif.got.tgz:53926.got - 2010.06.28 04:50:58.
