data_PCOD8117672
_publ_section_title
;
Structure prediction by ZEFSAII (Michael W. Deem and Ramdas Pophale) SiO2 
 PCOD8117672
Probable space group: P 2/C
;
_chemical_formula_sum "Si O2"
_cell_formula_units_Z 24
_cell_length_a 8.483511
_cell_length_b 5.067485
_cell_length_c 26.229093
_cell_angle_alpha 90.000000
_cell_angle_beta 84.768933
_cell_angle_gamma 90.000000
_cell_volume 1122.894115
_symmetry_space_group_name_H-M "P 2/C"
_symmetry_group_IT_number 13
_symmetry_cell_setting 'monoclinic'
loop_
_space_group_symop_operation_xyz
x,y,z
-x,y,1/2-z
-x,-y,-z
x,-y,1/2+z
loop_
_atom_site_type_symbol
_atom_site_label
_atom_site_fract_x
_atom_site_fract_y
_atom_site_fract_z
Si Si1 0.338123 0.232532 0.690220
Si Si2 0.673988 0.891781 0.984599
Si Si3 0.736175 0.747064 0.633052
Si Si4 0.635949 0.262942 0.372474
Si Si5 0.831258 0.395757 0.021680
Si Si6 0.710421 0.249547 0.695633
O O1 0.295226 0.467862 0.652854
O O2 0.522648 0.238953 0.696875
O O3 0.241517 0.242276 0.746180
O O4 0.289783 0.963618 0.664549
O O5 0.697292 0.774433 0.927749
O O6 0.708841 0.643231 0.021006
O O7 0.500000 0.000000 0.000000
O O8 0.789094 0.141627 0.988525
O O9 0.553581 0.747435 0.621631
O O10 0.839340 0.705549 0.579465
O O11 0.777385 0.519639 0.671654
O O12 0.786028 0.014519 0.660227
O O13 0.000000 0.500000 0.000000
#
# Coordination Sequence:
#
# PCOD8117672 Si02
#       6
#     4   4   4   4   4   4
#     4   9  17  29  47  81 119 147 184 244 306 356
#     4  12  24  40  64  89 121 167 210 251 312 367
#     4  10  19  32  54  80 114 158 197 239 298 360
#     4  10  19  31  54  83 115 153 194 245 299 359
#     4  12  26  42  60  89 127 166 210 257 303 368
#     4   9  17  29  49  78 116 154 185 237 307 363
#
# _framework density 21.373345
#
# number of rings (size 3 to 8) (size 9 to 14) (size 15 to 20)
#    0.000    1.667    1.667    4.000    4.667    4.000 
#    0.000    0.000    0.000    0.000    0.000   17.500 
#    0.000    0.000    0.000    0.000    0.000    0.000 
#
# Total GULP energy -297608.845674 kJ/mol
# GULP energy per Si atom -12400.368570 kJ/mol
# Density = 2.132470 g / cm^3
# Si number density = 21.373345 Si / 1000 Ang^3
#
#
#
# Elastic Constant Matrix: (Units=GPa)
#
#
# Indices 1 2 3 4 5 6 
#
# 1 33.7519 22.4027 35.0705 0.0000 -9.2045 0.0000
# 2 22.4027 150.9473 57.9497 0.0000 -5.8330 0.0000
# 3 35.0705 57.9497 167.8772 0.0000 -18.4765 0.0000
# 4 0.0000 0.0000 0.0000 46.7322 0.0000 2.6174
# 5 -9.2045 -5.8330 -18.4765 0.0000 12.8384 0.0000
# 6 0.0000 0.0000 0.0000 2.6174 0.0000 20.0163
#
#
#
# Elastic Compliance Matrix: (Units=1/GPa)
#
#
# Indices 1 2 3 4 5 6 
#
# 1 0.043613 -0.003520 -0.005502 0.000000 0.021751 0.000000
# 2 -0.003520 0.007923 -0.002235 0.000000 -0.002141 0.000000
# 3 -0.005502 -0.002235 0.008712 0.000000 0.007577 0.000000
# 4 0.000000 0.000000 0.000000 0.021556 0.000000 -0.002819
# 5 0.021751 -0.002141 0.007577 0.000000 0.103417 0.000000
# 6 0.000000 0.000000 0.000000 -0.002819 0.000000 0.050328
#
#
# Mechanical properties :
#
#
# Convention : Reuss Voigt Hill
#
# Bulk Modulus (GPa) = 26.50202 64.82470 45.66336
# Shear Modulus (GPa) = 18.47468 31.72762 25.10115
#
# Velocity S-wave (km/s) = 2.94322 3.85703 3.43069
# Velocity P-wave (km/s) = 4.89659 7.08739 6.09129
#
# Compressibility (1/GPa) = 0.03773297
#
# Stress axis : x y z
#
# Youngs Moduli (GPa) = 22.92892 126.22160 114.78922
#
# Poissons Ratio (x) = 0.44430 0.63158
# Poissons Ratio (y) = 0.08071 0.25656
# Poissons Ratio (z) = 0.12616 0.28211
#
# Static dielectric constant tensor:
#      x y z
#    x 3.314970 0.000000 0.137270 
#    y 0.000000 4.286790 0.000000 
#    z 0.137270 0.000000 4.272230 
# 
# 
# High freq. dielectric constant tensor:
#      x y z
#    x 1.774290 0.000000 -0.004110 
#    y 0.000000 1.862710 0.000000 
#    z -0.004110 0.000000 1.855410 
# 
# From -- ./inp_files/84360.got.cif
#   From: 2010.06.25/outbox.cif.g09.slc.cpg/sg13_43_cif.got.tgz:84360.got - 2010.06.28 04:50:58.
