data_PCOD8117405
_publ_section_title
;
Structure prediction by ZEFSAII (Michael W. Deem and Ramdas Pophale) SiO2 
 PCOD8117405
Probable space group: P 2/C
;
_chemical_formula_sum "Si O2"
_cell_formula_units_Z 28
_cell_length_a 8.827638
_cell_length_b 11.584846
_cell_length_c 16.781701
_cell_angle_alpha 90.000000
_cell_angle_beta 120.594812
_cell_angle_gamma 90.000000
_cell_volume 1477.294299
_symmetry_space_group_name_H-M "P 2/C"
_symmetry_group_IT_number 13
_symmetry_cell_setting 'monoclinic'
loop_
_space_group_symop_operation_xyz
x,y,z
-x,y,1/2-z
-x,-y,-z
x,-y,1/2+z
loop_
_atom_site_type_symbol
_atom_site_label
_atom_site_fract_x
_atom_site_fract_y
_atom_site_fract_z
Si Si1 0.004066 0.883313 0.163492
Si Si2 0.527094 0.667173 0.512846
Si Si3 0.620399 0.091981 0.487774
Si Si4 0.762052 0.523391 0.122464
Si Si5 0.121666 0.619085 0.186230
Si Si6 0.375308 0.701025 0.139280
Si Si7 0.325156 0.045609 0.651324
O O1 0.000000 0.937727 0.250000
O O2 0.063369 0.750599 0.185994
O O3 0.143600 0.962683 0.152812
O O4 0.806920 0.889979 0.078879
O O5 0.495176 0.791838 0.541568
O O6 0.350614 0.591592 0.474679
O O7 0.691439 0.609059 0.603835
O O8 0.551571 0.657327 0.423972
O O9 0.500000 0.000000 0.500000
O O10 0.663851 0.056994 0.409276
O O11 0.748511 0.580088 0.207161
O O12 0.961419 0.528884 0.143860
O O13 0.216202 0.617048 0.125366
O O14 0.500000 0.704869 0.250000
O O15 0.315540 0.831586 0.104227
O O16 0.500000 0.035187 0.750000
#
# Coordination Sequence:
#
# PCOD8117405 Si02
#       7
#     4   4   4   4   4   4   4
#     4  11  20  35  63  96 118 155 214 260 316 368
#     4  11  21  36  58  89 120 156 200 252 313 369
#     4  12  22  38  61  90 128 164 206 263 316 372
#     4  10  20  35  60  87 113 156 200 252 306 367
#     4  10  18  35  60  86 118 152 200 259 304 359
#     4  10  19  33  58  91 118 148 208 255 298 362
#     4  10  22  37  61  88 124 165 208 261 311 373
#
# _framework density 18.953569999999999
#
# number of rings (size 3 to 8) (size 9 to 14) (size 15 to 20)
#    0.000    1.429    5.714    1.286    2.000    0.571 
#    0.000    0.000   15.714    0.000    0.000    0.000 
#    0.000    0.000    0.000    0.000    0.000    0.000 
#
# Total GULP energy -346958.858754 kJ/mol
# GULP energy per Si atom -12391.387813 kJ/mol
# Density = 1.891043 g / cm^3
# Si number density = 18.953570 Si / 1000 Ang^3
#
#
#
# Elastic Constant Matrix: (Units=GPa)
#
#
# Indices 1 2 3 4 5 6 
#
# 1 113.1740 55.9029 48.0398 0.0000 -3.3971 0.0000
# 2 55.9029 113.5481 51.8134 0.0000 2.5948 0.0000
# 3 48.0398 51.8134 91.8588 0.0000 0.3686 0.0000
# 4 0.0000 0.0000 0.0000 23.3554 0.0000 2.2361
# 5 -3.3971 2.5948 0.3686 0.0000 28.6306 0.0000
# 6 0.0000 0.0000 0.0000 2.2361 0.0000 24.8298
#
#
#
# Elastic Compliance Matrix: (Units=1/GPa)
#
#
# Indices 1 2 3 4 5 6 
#
# 1 0.012898 -0.004463 -0.004236 0.000000 0.001989 0.000000
# 2 -0.004463 0.013431 -0.005235 0.000000 -0.001679 0.000000
# 3 -0.004236 -0.005235 0.016056 0.000000 -0.000235 0.000000
# 4 0.000000 0.000000 0.000000 0.043189 0.000000 -0.003890
# 5 0.001989 -0.001679 -0.000235 0.000000 0.035319 0.000000
# 6 0.000000 0.000000 0.000000 -0.003890 0.000000 0.040625
#
#
# Mechanical properties :
#
#
# Convention : Reuss Voigt Hill
#
# Bulk Modulus (GPa) = 68.88627 70.01034 69.44830
# Shear Modulus (GPa) = 25.74332 26.21813 25.98072
#
# Velocity S-wave (km/s) = 3.68942 3.72328 3.70639
# Velocity P-wave (km/s) = 7.38733 7.44995 7.41871
#
# Compressibility (1/GPa) = 0.01451668
#
# Stress axis : x y z
#
# Youngs Moduli (GPa) = 77.53040 74.45342 62.28294
#
# Poissons Ratio (x) = 0.33225 0.26385
# Poissons Ratio (y) = 0.34598 0.32608
# Poissons Ratio (z) = 0.32844 0.38980
#
# Static dielectric constant tensor:
#      x y z
#    x 3.816360 0.000000 0.071750 
#    y 0.000000 3.376960 0.000000 
#    z 0.071750 0.000000 3.344030 
# 
# 
# High freq. dielectric constant tensor:
#      x y z
#    x 1.754940 0.000000 0.005610 
#    y 0.000000 1.711680 0.000000 
#    z 0.005610 0.000000 1.723230 
# 
# From -- ./inp_files/47352.got.cif
#   From: 2010.06.25/outbox.cif.g09.slc.cpg/sg13_24_cif.got.tgz:47352.got - 2010.06.28 04:50:58.
