data_PCOD8117678
_publ_section_title
;
Structure prediction by ZEFSAII (Michael W. Deem and Ramdas Pophale) SiO2 
 PCOD8117678
Probable space group: P 2/C
;
_chemical_formula_sum "Si O2"
_cell_formula_units_Z 24
_cell_length_a 18.135962
_cell_length_b 8.781074
_cell_length_c 23.761322
_cell_angle_alpha 90.000000
_cell_angle_beta 161.330354
_cell_angle_gamma 90.000000
_cell_volume 1211.322029
_symmetry_space_group_name_H-M "P 2/C"
_symmetry_group_IT_number 13
_symmetry_cell_setting 'monoclinic'
loop_
_space_group_symop_operation_xyz
x,y,z
-x,y,1/2-z
-x,-y,-z
x,-y,1/2+z
loop_
_atom_site_type_symbol
_atom_site_label
_atom_site_fract_x
_atom_site_fract_y
_atom_site_fract_z
Si Si1 0.173749 0.676603 0.765447
Si Si2 0.789175 0.654481 0.053660
Si Si3 0.345448 0.662579 0.084179
Si Si4 0.505612 0.168809 0.080415
Si Si5 0.831733 0.679517 0.249576
Si Si6 0.482129 0.186254 0.896777
O O1 0.256826 0.748423 0.766016
O O2 0.226344 0.496878 0.803436
O O3 0.906379 0.716820 0.578717
O O4 0.306156 0.749416 0.913787
O O5 0.000000 0.641061 0.250000
O O6 0.899330 0.705919 0.072760
O O7 0.667165 0.492320 0.960559
O O8 0.593399 0.772652 0.931377
O O9 0.500000 0.636071 0.250000
O O10 0.464508 0.787484 0.130207
O O11 0.548493 0.991203 0.114752
O O12 0.321445 0.209397 0.899451
O O13 0.759727 0.728754 0.260831
#
# Coordination Sequence:
#
# PCOD8117678 Si02
#       6
#     4   4   4   4   4   4
#     4  10  19  35  58  82 107 139 179 222 262 314
#     4   9  18  36  58  80 105 137 178 224 266 315
#     4  11  23  38  54  76 105 145 188 223 260 310
#     4  10  19  31  56  89 112 134 170 220 273 322
#     4   9  17  31  55  83 108 135 173 218 261 312
#     4  11  20  33  56  84 113 140 171 219 271 321
#
# _framework density 19.813063
#
# number of rings (size 3 to 8) (size 9 to 14) (size 15 to 20)
#    0.000    2.000    0.000    8.500    0.000    5.333 
#    0.000    9.167    0.000    0.000    0.000    0.000 
#    0.000    0.000    0.000    0.000    0.000    0.000 
#
# Total GULP energy -297467.606900 kJ/mol
# GULP energy per Si atom -12394.483621 kJ/mol
# Density = 1.976797 g / cm^3
# Si number density = 19.813063 Si / 1000 Ang^3
#
#
#
# Elastic Constant Matrix: (Units=GPa)
#
#
# Indices 1 2 3 4 5 6 
#
# 1 129.4117 54.8173 51.6616 0.0000 43.2465 0.0000
# 2 54.8173 103.3574 14.2569 0.0000 15.1341 0.0000
# 3 51.6616 14.2569 38.7655 0.0000 12.8615 0.0000
# 4 0.0000 0.0000 0.0000 3.3326 0.0000 6.2584
# 5 43.2465 15.1341 12.8615 0.0000 33.1731 0.0000
# 6 0.0000 0.0000 0.0000 6.2584 0.0000 25.9746
#
#
#
# Elastic Compliance Matrix: (Units=1/GPa)
#
#
# Indices 1 2 3 4 5 6 
#
# 1 0.033797 -0.009462 -0.032563 0.000000 -0.027118 0.000000
# 2 -0.009462 0.013246 0.006485 0.000000 0.003778 0.000000
# 3 -0.032563 0.006485 0.061632 0.000000 0.015597 0.000000
# 4 0.000000 0.000000 0.000000 0.548046 0.000000 -0.132048
# 5 -0.027118 0.003778 0.015597 0.000000 0.057727 0.000000
# 6 0.000000 0.000000 0.000000 -0.132048 0.000000 0.070315
#
#
# Mechanical properties :
#
#
# Convention : Reuss Voigt Hill
#
# Bulk Modulus (GPa) = 26.59981 57.00069 41.80025
# Shear Modulus (GPa) = 5.75789 22.54931 14.15360
#
# Velocity S-wave (km/s) = 1.70658 3.37724 2.67565
# Velocity P-wave (km/s) = 4.16386 6.63622 5.53973
#
# Compressibility (1/GPa) = 0.03759426
#
# Stress axis : x y z
#
# Youngs Moduli (GPa) = 29.58863 75.49526 16.22538
#
# Poissons Ratio (x) = 0.71436 0.52834
# Poissons Ratio (y) = 0.27998 -0.10522
# Poissons Ratio (z) = 0.96349 -0.48959
#
# Static dielectric constant tensor:
#      x y z
#    x 4.245660 0.000000 0.652650 
#    y 0.000000 3.511740 0.000000 
#    z 0.652650 0.000000 3.324240 
# 
# 
# High freq. dielectric constant tensor:
#      x y z
#    x 1.786530 0.000000 0.045160 
#    y 0.000000 1.771050 0.000000 
#    z 0.045160 0.000000 1.725550 
# 
# From -- ./inp_files/87992.got.cif
#   From: 2010.06.25/outbox.cif.g09.slc.cpg/sg13_44_cif.got.tgz:87992.got - 2010.06.28 04:50:58.
