data_PCOD8117739
_publ_section_title
;
Structure prediction by ZEFSAII (Michael W. Deem and Ramdas Pophale) SiO2 
 PCOD8117739
Probable space group: P 2/C
;
_chemical_formula_sum "Si O2"
_cell_formula_units_Z 20
_cell_length_a 9.828776
_cell_length_b 5.159775
_cell_length_c 20.619034
_cell_angle_alpha 90.000000
_cell_angle_beta 98.242057
_cell_angle_gamma 90.000000
_cell_volume 1034.878773
_symmetry_space_group_name_H-M "P 2/C"
_symmetry_group_IT_number 13
_symmetry_cell_setting 'monoclinic'
loop_
_space_group_symop_operation_xyz
x,y,z
-x,y,1/2-z
-x,-y,-z
x,-y,1/2+z
loop_
_atom_site_type_symbol
_atom_site_label
_atom_site_fract_x
_atom_site_fract_y
_atom_site_fract_z
Si Si1 0.525972 0.604375 0.430559
Si Si2 0.409440 0.655411 0.806271
Si Si3 0.707508 0.163852 0.657188
Si Si4 0.820592 0.762985 0.479035
Si Si5 0.894639 0.732874 0.060085
O O1 0.500000 0.500000 0.500000
O O2 0.508975 0.374065 0.376065
O O3 0.410700 0.822131 0.406965
O O4 0.675692 0.732053 0.433205
O O5 0.500000 0.711783 0.750000
O O6 0.318590 0.393231 0.792015
O O7 0.301776 0.889609 0.807831
O O8 0.854217 0.203350 0.631670
O O9 0.833493 0.547493 0.536578
O O10 0.940402 0.724421 0.433903
O O11 0.830588 0.049752 0.508800
#
# Coordination Sequence:
#
# PCOD8117739 Si02
#       5
#     4   4   4   4   4
#     4  10  20  33  56  85 106 135 176 231 263 319
#     4  10  22  36  54  81 106 143 180 228 268 325
#     4  10  20  33  57  74 107 139 180 216 269 317
#     4  10  20  30  50  76 118 134 173 211 277 312
#     4  10  19  33  47  80 109 147 163 218 266 330
#
# _framework density 19.325932999999999
#
# number of rings (size 3 to 8) (size 9 to 14) (size 15 to 20)
#    1.200    0.800    2.000    3.000    2.800    1.600 
#    0.000    0.000    0.000    1.200    0.000    0.000 
#    0.000    0.000    0.000    0.000    0.000    0.000 
#
# Total GULP energy -247881.258195 kJ/mol
# GULP energy per Si atom -12394.062910 kJ/mol
# Density = 1.928195 g / cm^3
# Si number density = 19.325933 Si / 1000 Ang^3
#
#
#
# Elastic Constant Matrix: (Units=GPa)
#
#
# Indices 1 2 3 4 5 6 
#
# 1 104.6488 20.2742 20.6870 0.0000 -22.0370 0.0000
# 2 20.2742 100.5702 12.4618 0.0000 -7.4939 0.0000
# 3 20.6870 12.4618 54.0141 0.0000 -25.3493 0.0000
# 4 0.0000 0.0000 0.0000 18.0247 0.0000 -8.0031
# 5 -22.0370 -7.4939 -25.3493 0.0000 34.0943 0.0000
# 6 0.0000 0.0000 0.0000 -8.0031 0.0000 28.0084
#
#
#
# Elastic Compliance Matrix: (Units=1/GPa)
#
#
# Indices 1 2 3 4 5 6 
#
# 1 0.011403 -0.001705 -0.001061 0.000000 0.006207 0.000000
# 2 -0.001705 0.010504 -0.001849 0.000000 -0.000168 0.000000
# 3 -0.001061 -0.001849 0.028928 0.000000 0.020416 0.000000
# 4 0.000000 0.000000 0.000000 0.063541 0.000000 0.018156
# 5 0.006207 -0.000168 0.020416 0.000000 0.048484 0.000000
# 6 0.000000 0.000000 0.000000 0.018156 0.000000 0.040891
#
#
# Mechanical properties :
#
#
# Convention : Reuss Voigt Hill
#
# Bulk Modulus (GPa) = 24.03607 40.67545 32.35576
# Shear Modulus (GPa) = 22.04106 29.74616 25.89361
#
# Velocity S-wave (km/s) = 3.38078 3.92750 3.66435
# Velocity P-wave (km/s) = 5.26344 6.45444 5.88912
#
# Compressibility (1/GPa) = 0.04160414
#
# Stress axis : x y z
#
# Youngs Moduli (GPa) = 87.69780 95.20549 34.56850
#
# Poissons Ratio (x) = 0.16230 0.03668
# Poissons Ratio (y) = 0.14950 0.06393
# Poissons Ratio (z) = 0.09305 0.17607
#
# Static dielectric constant tensor:
#      x y z
#    x 3.739070 0.000000 -0.163100 
#    y 0.000000 3.576120 0.000000 
#    z -0.163100 0.000000 2.970480 
# 
# 
# High freq. dielectric constant tensor:
#      x y z
#    x 1.757970 0.000000 -0.028720 
#    y 0.000000 1.764590 0.000000 
#    z -0.028720 0.000000 1.693060 
# 
# From -- ./inp_files/74253.got.cif
#   From: 2010.06.25/outbox.cif.g09.slc.cpg/sg13_38_cif.got.tgz:74253.got - 2010.06.28 04:50:58.
