data_PCOD8117964
_publ_section_title
;
Structure prediction by ZEFSAII (Michael W. Deem and Ramdas Pophale) SiO2 
 PCOD8117964
Probable space group: P 2/C
;
_chemical_formula_sum "Si O2"
_cell_formula_units_Z 20
_cell_length_a 13.254545
_cell_length_b 9.501640
_cell_length_c 20.907942
_cell_angle_alpha 90.000000
_cell_angle_beta 22.511082
_cell_angle_gamma 90.000000
_cell_volume 1008.131260
_symmetry_space_group_name_H-M "P 2/C"
_symmetry_group_IT_number 13
_symmetry_cell_setting 'monoclinic'
loop_
_space_group_symop_operation_xyz
x,y,z
-x,y,1/2-z
-x,-y,-z
x,-y,1/2+z
loop_
_atom_site_type_symbol
_atom_site_label
_atom_site_fract_x
_atom_site_fract_y
_atom_site_fract_z
Si Si1 0.041587 0.799819 0.301047
Si Si2 0.035858 0.884383 0.630175
Si Si3 0.795380 0.631195 0.552003
Si Si4 0.806853 0.311486 0.569757
Si Si5 0.410142 0.855620 0.520099
O O1 0.838399 0.696305 0.455920
O O2 0.000000 0.813890 0.250000
O O3 0.028829 0.951855 0.342790
O O4 0.345180 0.747184 0.129193
O O5 0.045243 0.806276 0.557575
O O6 0.312944 0.879476 0.504866
O O7 0.820841 0.799400 0.798621
O O8 0.500000 0.669978 0.750000
O O9 0.825747 0.464474 0.526343
O O10 0.034233 0.688896 0.456342
O O11 0.500000 0.268162 0.750000
O O12 0.500000 0.000000 0.500000
#
# Coordination Sequence:
#
# PCOD8117964 Si02
#       5
#     4   4   4   4   4
#     4  11  21  36  58  88 119 149 187 243 295 350
#     4  10  19  34  62  83 112 155 190 240 288 349
#     4  10  24  41  60  83 120 158 197 244 295 345
#     4  10  22  42  60  81 118 158 201 243 290 349
#     4   9  17  34  53  85 119 147 179 237 294 340
#
# _framework density 19.838687
#
# number of rings (size 3 to 8) (size 9 to 14) (size 15 to 20)
#    0.000    2.000    4.000    1.200    2.800    1.600 
#    3.600    1.000    0.000    0.000    0.000    0.000 
#    0.000    0.000    0.000    0.000    0.000    0.000 
#
# Total GULP energy -247790.909267 kJ/mol
# GULP energy per Si atom -12389.545463 kJ/mol
# Density = 1.979353 g / cm^3
# Si number density = 19.838687 Si / 1000 Ang^3
#
#
#
# Elastic Constant Matrix: (Units=GPa)
#
#
# Indices 1 2 3 4 5 6 
#
# 1 71.6018 32.1516 38.5339 0.0000 3.4418 0.0000
# 2 32.1516 62.7129 34.7014 0.0000 22.4891 0.0000
# 3 38.5339 34.7014 112.5110 0.0000 -6.1465 0.0000
# 4 0.0000 0.0000 0.0000 24.3173 0.0000 0.7489
# 5 3.4418 22.4891 -6.1465 0.0000 41.7033 0.0000
# 6 0.0000 0.0000 0.0000 0.7489 0.0000 12.6006
#
#
#
# Elastic Compliance Matrix: (Units=1/GPa)
#
#
# Indices 1 2 3 4 5 6 
#
# 1 0.020006 -0.009035 -0.003921 0.000000 0.002643 0.000000
# 2 -0.009035 0.030651 -0.007280 0.000000 -0.016856 0.000000
# 3 -0.003921 -0.007280 0.012812 0.000000 0.006138 0.000000
# 4 0.000000 0.000000 0.000000 0.041198 0.000000 -0.002449
# 5 0.002643 -0.016856 0.006138 0.000000 0.033755 0.000000
# 6 0.000000 0.000000 0.000000 -0.002449 0.000000 0.079507
#
#
# Mechanical properties :
#
#
# Convention : Reuss Voigt Hill
#
# Bulk Modulus (GPa) = 43.48455 50.84436 47.16446
# Shear Modulus (GPa) = 18.79232 25.15350 21.97291
#
# Velocity S-wave (km/s) = 3.08109 3.56462 3.33164
# Velocity P-wave (km/s) = 5.88423 6.52890 6.21493
#
# Compressibility (1/GPa) = 0.02299668
#
# Stress axis : x y z
#
# Youngs Moduli (GPa) = 49.98446 32.62567 78.05487
#
# Poissons Ratio (x) = 0.29478 0.30604
# Poissons Ratio (y) = 0.45161 0.56823
# Poissons Ratio (z) = 0.19598 0.23751
#
# Static dielectric constant tensor:
#      x y z
#    x 3.518510 0.000000 -0.262780 
#    y 0.000000 3.273150 0.000000 
#    z -0.262780 0.000000 4.254390 
# 
# 
# High freq. dielectric constant tensor:
#      x y z
#    x 1.772300 0.000000 -0.014110 
#    y 0.000000 1.735950 0.000000 
#    z -0.014110 0.000000 1.792520 
# 
# From -- ./inp_files/29077.got.cif
#   From: 2010.06.25/outbox.cif.g09.slc.cpg/sg13_15_cif.got.tgz:29077.got - 2010.06.28 04:50:58.
