data_PCOD8117579
_publ_section_title
;
Structure prediction by ZEFSAII (Michael W. Deem and Ramdas Pophale) SiO2 
 PCOD8117579
Probable space group: P 2/C
;
_chemical_formula_sum "Si O2"
_cell_formula_units_Z 24
_cell_length_a 11.933298
_cell_length_b 5.452176
_cell_length_c 19.023034
_cell_angle_alpha 90.000000
_cell_angle_beta 60.615436
_cell_angle_gamma 90.000000
_cell_volume 1078.451938
_symmetry_space_group_name_H-M "P 2/C"
_symmetry_group_IT_number 13
_symmetry_cell_setting 'monoclinic'
loop_
_space_group_symop_operation_xyz
x,y,z
-x,y,1/2-z
-x,-y,-z
x,-y,1/2+z
loop_
_atom_site_type_symbol
_atom_site_label
_atom_site_fract_x
_atom_site_fract_y
_atom_site_fract_z
Si Si1 0.204646 0.543985 0.258180
Si Si2 0.284028 0.811287 0.955427
Si Si3 0.772499 0.070372 0.870113
Si Si4 0.500000 0.196700 0.750000
Si Si5 0.253859 0.322713 0.891092
Si Si6 0.000000 0.222456 0.250000
Si Si7 0.582391 0.177123 0.332697
O O1 0.214461 0.717592 0.189614
O O2 0.175967 0.678090 0.341251
O O3 0.343840 0.410471 0.223200
O O4 0.085242 0.367711 0.279981
O O5 0.213699 0.565673 0.947626
O O6 0.435023 0.776941 0.896272
O O7 0.228864 0.063468 0.938307
O O8 0.257597 0.814774 0.045827
O O9 0.656145 0.893386 0.882026
O O10 0.908636 0.933096 0.829515
O O11 0.406942 0.353174 0.828732
O O12 0.405296 0.032146 0.730616
#
# Coordination Sequence:
#
# PCOD8117579 Si02
#       7
#     4   4   4   2   4   2   4
#     4  11  22  43  71  94 129 185 235 273 324 408
#     4  11  26  40  66 104 147 168 212 278 349 401
#     4  11  24  44  66  97 130 177 228 282 336 395
#     4  10  18  40  62 102 138 180 216 266 322 420
#     4  11  23  41  65 100 138 179 216 270 331 406
#     4  10  26  44  72  90 126 174 250 282 330 386
#     4  10  21  37  66 100 138 174 219 266 339 404
#
# _framework density 22.254121000000001
#
# number of rings (size 3 to 8) (size 9 to 14) (size 15 to 20)
#    0.000    1.333    1.667    4.000    9.333    1.333 
#    0.000    1.667    0.000    0.000    0.000    0.000 
#    0.000    0.000    0.000    0.000    0.000    0.000 
#
# Total GULP energy -297542.647999 kJ/mol
# GULP energy per Si atom -12397.610333 kJ/mol
# Density = 2.220347 g / cm^3
# Si number density = 22.254121 Si / 1000 Ang^3
#
#
#
# Elastic Constant Matrix: (Units=GPa)
#
#
# Indices 1 2 3 4 5 6 
#
# 1 86.0410 36.2111 46.7314 0.0000 8.1678 0.0000
# 2 36.2111 132.6161 45.3830 0.0000 21.5853 0.0000
# 3 46.7314 45.3830 103.2831 0.0000 42.3710 0.0000
# 4 0.0000 0.0000 0.0000 39.8842 0.0000 15.9029
# 5 8.1678 21.5853 42.3710 0.0000 30.7336 0.0000
# 6 0.0000 0.0000 0.0000 15.9029 0.0000 31.0407
#
#
#
# Elastic Compliance Matrix: (Units=1/GPa)
#
#
# Indices 1 2 3 4 5 6 
#
# 1 0.018905 -0.003059 -0.013880 0.000000 0.016260 0.000000
# 2 -0.003059 0.009422 -0.000863 0.000000 -0.004615 0.000000
# 3 -0.013880 -0.000863 0.033561 0.000000 -0.041974 0.000000
# 4 0.000000 0.000000 0.000000 0.031509 0.000000 -0.016143
# 5 0.016260 -0.004615 -0.041974 0.000000 0.089326 0.000000
# 6 0.000000 0.000000 0.000000 -0.016143 0.000000 0.040486
#
#
# Mechanical properties :
#
#
# Convention : Reuss Voigt Hill
#
# Bulk Modulus (GPa) = 38.04534 64.28789 51.16661
# Shear Modulus (GPa) = 18.68639 33.23936 25.96288
#
# Velocity S-wave (km/s) = 2.90087 3.86894 3.41934
# Velocity P-wave (km/s) = 5.32476 6.99350 6.21539
#
# Compressibility (1/GPa) = 0.02628443
#
# Stress axis : x y z
#
# Youngs Moduli (GPa) = 52.89659 106.13229 29.79629
#
# Poissons Ratio (x) = 0.32461 0.41358
# Poissons Ratio (y) = 0.16179 0.02572
# Poissons Ratio (z) = 0.73422 0.09160
#
# Static dielectric constant tensor:
#      x y z
#    x 3.084270 0.000000 -0.380780 
#    y 0.000000 4.217970 0.000000 
#    z -0.380780 0.000000 3.518020 
# 
# 
# High freq. dielectric constant tensor:
#      x y z
#    x 1.871770 0.000000 0.017250 
#    y 0.000000 1.888480 0.000000 
#    z 0.017250 0.000000 1.863790 
# 
# From -- ./inp_files/65335.got.cif
#   From: 2010.06.25/outbox.cif.g09.slc.cpg/sg13_33_cif.got.tgz:65335.got - 2010.06.28 04:50:58.
