data_PCOD8117331
_publ_section_title
;
Structure prediction by ZEFSAII (Michael W. Deem and Ramdas Pophale) SiO2 
 PCOD8117331
Probable space group: P 2/C
;
_chemical_formula_sum "Si O2"
_cell_formula_units_Z 24
_cell_length_a 14.336750
_cell_length_b 14.234357
_cell_length_c 12.385075
_cell_angle_alpha 90.000000
_cell_angle_beta 151.323530
_cell_angle_gamma 90.000000
_cell_volume 1212.843272
_symmetry_space_group_name_H-M "P 2/C"
_symmetry_group_IT_number 13
_symmetry_cell_setting 'monoclinic'
loop_
_space_group_symop_operation_xyz
x,y,z
-x,y,1/2-z
-x,-y,-z
x,-y,1/2+z
loop_
_atom_site_type_symbol
_atom_site_label
_atom_site_fract_x
_atom_site_fract_y
_atom_site_fract_z
Si Si1 0.064006 0.680177 0.007193
Si Si2 0.598401 0.448016 0.739373
Si Si3 0.676856 0.629318 0.718193
Si Si4 0.000000 0.198685 0.250000
Si Si5 0.603983 0.799324 0.054114
Si Si6 0.500000 0.088792 0.250000
Si Si7 0.638856 0.908171 0.301610
O O1 0.203571 0.608041 0.085657
O O2 0.198139 0.744516 0.219952
O O3 0.906455 0.633446 0.925533
O O4 0.939418 0.736439 0.790078
O O5 0.500000 0.416078 0.750000
O O6 0.650389 0.559524 0.793957
O O7 0.429344 0.424829 0.484756
O O8 0.583764 0.731365 0.643987
O O9 0.153340 0.129566 0.457553
O O10 0.569898 0.877541 0.112414
O O11 0.627331 0.848381 0.961119
O O12 0.636880 0.021830 0.313865
O O13 0.500000 0.860229 0.250000
#
# Coordination Sequence:
#
# PCOD8117331 Si02
#       7
#     4   4   4   2   4   2   4
#     4  10  20  36  60  87 122 154 202 240 297 355
#     4  10  21  36  59  88 119 157 196 245 291 345
#     4  10  21  37  59  84 121 157 197 240 293 356
#     4  10  18  34  58  90 112 150 198 252 290 350
#     4  10  21  39  58  85 118 159 199 244 302 357
#     4  10  22  40  60  80 124 154 200 252 304 356
#     4   9  20  36  59  84 114 149 200 245 304 349
#
# _framework density 19.788212000000001
#
# number of rings (size 3 to 8) (size 9 to 14) (size 15 to 20)
#    0.500    1.667    0.000    3.000    1.167    4.667 
#    3.000    1.667    0.000    0.000    0.000    0.000 
#    0.000    0.000    0.000    0.000    0.000    0.000 
#
# Total GULP energy -297365.869704 kJ/mol
# GULP energy per Si atom -12390.244571 kJ/mol
# Density = 1.974317 g / cm^3
# Si number density = 19.788212 Si / 1000 Ang^3
#
#
#
# Elastic Constant Matrix: (Units=GPa)
#
#
# Indices 1 2 3 4 5 6 
#
# 1 81.8650 50.1413 36.5949 0.0000 3.5266 0.0000
# 2 50.1413 119.8587 45.4896 0.0000 -6.8013 0.0000
# 3 36.5949 45.4896 76.4693 0.0000 -5.2423 0.0000
# 4 0.0000 0.0000 0.0000 16.3933 0.0000 -9.0597
# 5 3.5266 -6.8013 -5.2423 0.0000 36.1646 0.0000
# 6 0.0000 0.0000 0.0000 -9.0597 0.0000 41.2932
#
#
#
# Elastic Compliance Matrix: (Units=1/GPa)
#
#
# Indices 1 2 3 4 5 6 
#
# 1 0.018437 -0.005784 -0.005636 0.000000 -0.003703 0.000000
# 2 -0.005784 0.012635 -0.004592 0.000000 0.002274 0.000000
# 3 -0.005636 -0.004592 0.018670 0.000000 0.002392 0.000000
# 4 0.000000 0.000000 0.000000 0.069417 0.000000 0.015230
# 5 -0.003703 0.002274 0.002392 0.000000 0.028787 0.000000
# 6 0.000000 0.000000 0.000000 0.015230 0.000000 0.027559
#
#
# Mechanical properties :
#
#
# Convention : Reuss Voigt Hill
#
# Bulk Modulus (GPa) = 56.44267 60.29388 58.36827
# Shear Modulus (GPa) = 23.42635 28.50134 25.96385
#
# Velocity S-wave (km/s) = 3.44445 3.79927 3.62620
# Velocity P-wave (km/s) = 6.66365 7.05561 6.86243
#
# Compressibility (1/GPa) = 0.01771709
#
# Stress axis : x y z
#
# Youngs Moduli (GPa) = 54.23959 79.14732 53.56121
#
# Poissons Ratio (x) = 0.45777 0.30188
# Poissons Ratio (y) = 0.31371 0.24597
# Poissons Ratio (z) = 0.30571 0.36346
#
# Static dielectric constant tensor:
#      x y z
#    x 3.478480 0.000000 -0.076060 
#    y 0.000000 3.761820 0.000000 
#    z -0.076060 0.000000 3.752640 
# 
# 
# High freq. dielectric constant tensor:
#      x y z
#    x 1.756090 0.000000 -0.006840 
#    y 0.000000 1.777370 0.000000 
#    z -0.006840 0.000000 1.766610 
# 
# From -- ./inp_files/37609.got.cif
#   From: 2010.06.25/outbox.cif.g09.slc.cpg/sg13_19_cif.got.tgz:37609.got - 2010.06.28 04:50:58.
