data_PCOD8117236
_publ_section_title
;
Structure prediction by ZEFSAII (Michael W. Deem and Ramdas Pophale) SiO2 
 PCOD8117236
Probable space group: P 2/C
;
_chemical_formula_sum "Si O2"
_cell_formula_units_Z 26
_cell_length_a 11.415570
_cell_length_b 10.098604
_cell_length_c 12.866557
_cell_angle_alpha 90.000000
_cell_angle_beta 69.081575
_cell_angle_gamma 90.000000
_cell_volume 1385.510683
_symmetry_space_group_name_H-M "P 2/C"
_symmetry_group_IT_number 13
_symmetry_cell_setting 'monoclinic'
loop_
_space_group_symop_operation_xyz
x,y,z
-x,y,1/2-z
-x,-y,-z
x,-y,1/2+z
loop_
_atom_site_type_symbol
_atom_site_label
_atom_site_fract_x
_atom_site_fract_y
_atom_site_fract_z
Si Si1 0.867134 0.054776 0.080347
Si Si2 0.123381 0.654616 0.991899
Si Si3 0.309492 0.158597 0.965085
Si Si4 0.835591 0.379051 0.586978
Si Si5 0.144170 0.751325 0.200912
Si Si6 0.500000 0.073540 0.750000
Si Si7 0.721998 0.014899 0.315575
O O1 0.848015 0.056537 0.211508
O O2 0.770377 0.951807 0.066130
O O3 0.831643 0.200820 0.054907
O O4 0.000000 0.000000 0.000000
O O5 0.150143 0.643259 0.106785
O O6 0.978167 0.643074 0.008172
O O7 0.197021 0.535908 0.910029
O O8 0.248043 0.302728 0.971433
O O9 0.442670 0.162150 0.862384
O O10 0.316681 0.120689 0.084146
O O11 0.810736 0.322315 0.709366
O O12 0.000000 0.804192 0.250000
O O13 0.241138 0.871520 0.148126
O O14 0.394755 0.984887 0.726941
#
# Coordination Sequence:
#
# PCOD8117236 Si02
#       7
#     4   4   4   4   4   2   4
#     4  11  19  34  55  90 123 152 186 238 297 357
#     4  10  20  33  55  84 125 152 185 235 296 364
#     4  11  21  36  60  85 113 154 204 245 296 351
#     4  10  20  35  53  85 122 154 189 236 293 366
#     4  10  18  33  56  84 115 156 186 229 306 362
#     4  10  22  40  56  86 116 154 206 262 296 344
#     4  11  22  34  62  88 114 155 199 254 293 355
#
# _framework density 18.765644000000002
#
# number of rings (size 3 to 8) (size 9 to 14) (size 15 to 20)
#    0.000    1.538    6.154    1.385    0.000    1.231 
#    0.000    1.538    0.000    4.615    0.000    0.000 
#    0.000    0.000    0.000    0.000    0.000    0.000 
#
# Total GULP energy -322176.867333 kJ/mol
# GULP energy per Si atom -12391.417974 kJ/mol
# Density = 1.872293 g / cm^3
# Si number density = 18.765644 Si / 1000 Ang^3
#
#
#
# Elastic Constant Matrix: (Units=GPa)
#
#
# Indices 1 2 3 4 5 6 
#
# 1 66.3140 20.5555 40.5470 0.0000 4.9541 0.0000
# 2 20.5555 113.2276 36.8404 0.0000 -1.1620 0.0000
# 3 40.5470 36.8404 122.7016 0.0000 3.5905 0.0000
# 4 0.0000 0.0000 0.0000 19.5481 0.0000 7.0813
# 5 4.9541 -1.1620 3.5905 0.0000 24.2932 0.0000
# 6 0.0000 0.0000 0.0000 7.0813 0.0000 14.8516
#
#
#
# Elastic Compliance Matrix: (Units=1/GPa)
#
#
# Indices 1 2 3 4 5 6 
#
# 1 0.019387 -0.001660 -0.005815 0.000000 -0.003174 0.000000
# 2 -0.001660 0.009950 -0.002473 0.000000 0.001180 0.000000
# 3 -0.005815 -0.002473 0.010830 0.000000 -0.000533 0.000000
# 4 0.000000 0.000000 0.000000 0.061836 0.000000 -0.029484
# 5 -0.003174 0.001180 -0.000533 0.000000 0.041946 0.000000
# 6 0.000000 0.000000 0.000000 -0.029484 0.000000 0.081391
#
#
# Mechanical properties :
#
#
# Convention : Reuss Voigt Hill
#
# Bulk Modulus (GPa) = 49.33523 55.34766 52.34144
# Shear Modulus (GPa) = 19.84174 25.35860 22.60017
#
# Velocity S-wave (km/s) = 3.25521 3.68003 3.47412
# Velocity P-wave (km/s) = 6.36206 6.90037 6.63667
#
# Compressibility (1/GPa) = 0.02026949
#
# Stress axis : x y z
#
# Youngs Moduli (GPa) = 51.58066 100.50247 92.33839
#
# Poissons Ratio (x) = 0.16684 0.53697
# Poissons Ratio (y) = 0.08563 0.22839
# Poissons Ratio (z) = 0.29995 0.24858
#
# Static dielectric constant tensor:
#      x y z
#    x 3.226730 0.000000 0.005340 
#    y 0.000000 7.644100 0.000000 
#    z 0.005340 0.000000 4.020480 
# 
# 
# High freq. dielectric constant tensor:
#      x y z
#    x 1.711240 0.000000 0.012260 
#    y 0.000000 1.708710 0.000000 
#    z 0.012260 0.000000 1.732600 
# 
# From -- ./inp_files/49917.got.cif
#   From: 2010.06.25/outbox.cif.g09.slc.cpg/sg13_25_cif.got.tgz:49917.got - 2010.06.28 04:50:58.
