data_PCOD8117892
_publ_section_title
;
Structure prediction by ZEFSAII (Michael W. Deem and Ramdas Pophale) SiO2 
 PCOD8117892
Probable space group: P 2/C
;
_chemical_formula_sum "Si O2"
_cell_formula_units_Z 28
_cell_length_a 16.244428
_cell_length_b 12.790422
_cell_length_c 10.760191
_cell_angle_alpha 90.000000
_cell_angle_beta 40.392612
_cell_angle_gamma 90.000000
_cell_volume 1448.767937
_symmetry_space_group_name_H-M "P 2/C"
_symmetry_group_IT_number 13
_symmetry_cell_setting 'monoclinic'
loop_
_space_group_symop_operation_xyz
x,y,z
-x,y,1/2-z
-x,-y,-z
x,-y,1/2+z
loop_
_atom_site_type_symbol
_atom_site_label
_atom_site_fract_x
_atom_site_fract_y
_atom_site_fract_z
Si Si1 0.851291 0.910166 0.452238
Si Si2 0.377833 0.049376 0.466239
Si Si3 0.947529 0.719432 0.939943
Si Si4 0.368534 0.814452 0.445534
Si Si5 0.244789 0.882708 0.338486
Si Si6 0.078305 0.509430 0.037356
Si Si7 0.186947 0.288403 0.339710
O O1 0.757065 0.928193 0.444537
O O2 0.817459 0.798243 0.548621
O O3 0.000000 0.915201 0.250000
O O4 0.822105 0.003709 0.581878
O O5 0.500000 0.092260 0.250000
O O6 0.370355 0.108097 0.607671
O O7 0.397702 0.926925 0.473614
O O8 0.874572 0.609609 0.994230
O O9 0.000000 0.765870 0.750000
O O10 0.057432 0.710640 0.913090
O O11 0.851300 0.800838 0.112804
O O12 0.500000 0.761905 0.250000
O O13 0.276984 0.836151 0.435236
O O14 0.305700 0.733574 0.613498
O O15 0.000000 0.545237 0.250000
O O16 0.193419 0.593963 0.890784
O O17 0.000000 0.500000 0.000000
#
# Coordination Sequence:
#
# PCOD8117892 Si02
#       7
#     4   4   4   4   4   4   4
#     4  11  23  33  54  87 117 144 182 238 292 333
#     4  10  23  38  54  80 116 160 193 225 282 351
#     4  10  19  34  56  87 111 143 183 226 287 342
#     4  10  22  35  56  82 108 154 196 230 275 336
#     4  11  21  35  57  79 116 146 185 233 280 343
#     4   9  20  36  59  85 114 148 186 230 286 352
#     4  11  20  36  57  84 115 144 185 236 283 339
#
# _framework density 19.326767
#
# number of rings (size 3 to 8) (size 9 to 14) (size 15 to 20)
#    0.000    1.714    2.857    1.714    4.000    4.000 
#    0.000    0.000    0.000    1.714    0.000    0.000 
#    0.000    0.000    0.000    0.000    0.000    0.000 
#
# Total GULP energy -346990.358142 kJ/mol
# GULP energy per Si atom -12392.512791 kJ/mol
# Density = 1.928278 g / cm^3
# Si number density = 19.326767 Si / 1000 Ang^3
#
#
#
# Elastic Constant Matrix: (Units=GPa)
#
#
# Indices 1 2 3 4 5 6 
#
# 1 33.4412 4.4027 16.1611 0.0000 -2.3755 0.0000
# 2 4.4027 102.3354 52.7015 0.0000 -1.9731 0.0000
# 3 16.1611 52.7015 150.0273 0.0000 -0.2400 0.0000
# 4 0.0000 0.0000 0.0000 30.0219 0.0000 4.7668
# 5 -2.3755 -1.9731 -0.2400 0.0000 32.0064 0.0000
# 6 0.0000 0.0000 0.0000 4.7668 0.0000 13.7116
#
#
#
# Elastic Compliance Matrix: (Units=1/GPa)
#
#
# Indices 1 2 3 4 5 6 
#
# 1 0.031742 0.000536 -0.003604 0.000000 0.002362 0.000000
# 2 0.000536 0.011955 -0.004256 0.000000 0.000745 0.000000
# 3 -0.003604 -0.004256 0.008548 0.000000 -0.000466 0.000000
# 4 0.000000 0.000000 0.000000 0.035255 0.000000 -0.012256
# 5 0.002362 0.000745 -0.000466 0.000000 0.031461 0.000000
# 6 0.000000 0.000000 0.000000 -0.012256 0.000000 0.077192
#
#
# Mechanical properties :
#
#
# Convention : Reuss Voigt Hill
#
# Bulk Modulus (GPa) = 26.59789 48.03718 37.31753
# Shear Modulus (GPa) = 22.38804 29.31721 25.85262
#
# Velocity S-wave (km/s) = 3.40721 3.89899 3.66137
# Velocity P-wave (km/s) = 5.41026 6.72151 6.10121
#
# Compressibility (1/GPa) = 0.03759696
#
# Stress axis : x y z
#
# Youngs Moduli (GPa) = 31.50397 83.64765 116.98698
#
# Poissons Ratio (x) = -0.04482 0.42159
# Poissons Ratio (y) = -0.01688 0.49790
# Poissons Ratio (z) = 0.11353 0.35601
#
# Static dielectric constant tensor:
#      x y z
#    x 3.322110 0.000000 0.047580 
#    y 0.000000 3.937020 0.000000 
#    z 0.047580 0.000000 3.423860 
# 
# 
# High freq. dielectric constant tensor:
#      x y z
#    x 1.735100 0.000000 0.018550 
#    y 0.000000 1.743080 0.000000 
#    z 0.018550 0.000000 1.754520 
# 
# From -- ./inp_files/33315.got.cif
#   From: 2010.06.25/outbox.cif.g09.slc.cpg/sg13_17_cif.got.tgz:33315.got - 2010.06.28 04:50:58.
