data_PCOD8117229
_publ_section_title
;
Structure prediction by ZEFSAII (Michael W. Deem and Ramdas Pophale) SiO2 
 PCOD8117229
Probable space group: P 2/C
;
_chemical_formula_sum "Si O2"
_cell_formula_units_Z 28
_cell_length_a 8.771019
_cell_length_b 14.823794
_cell_length_c 20.150613
_cell_angle_alpha 90.000000
_cell_angle_beta 148.647185
_cell_angle_gamma 90.000000
_cell_volume 1363.191783
_symmetry_space_group_name_H-M "P 2/C"
_symmetry_group_IT_number 13
_symmetry_cell_setting 'monoclinic'
loop_
_space_group_symop_operation_xyz
x,y,z
-x,y,1/2-z
-x,-y,-z
x,-y,1/2+z
loop_
_atom_site_type_symbol
_atom_site_label
_atom_site_fract_x
_atom_site_fract_y
_atom_site_fract_z
Si Si1 0.475098 0.758543 0.415923
Si Si2 0.045643 0.783921 0.369254
Si Si3 0.192807 0.304962 0.063170
Si Si4 0.606675 0.459704 0.219667
Si Si5 0.170630 0.949086 0.143140
Si Si6 0.998781 0.133836 0.054029
Si Si7 0.798988 0.584989 0.509564
O O1 0.344846 0.786748 0.438516
O O2 0.656965 0.667808 0.496005
O O3 0.681144 0.838127 0.463914
O O4 0.217276 0.735536 0.268046
O O5 0.086404 0.729499 0.452346
O O6 0.952287 0.888124 0.342956
O O7 0.507651 0.353972 0.176760
O O8 0.201079 0.222462 0.119378
O O9 0.960649 0.380156 0.002671
O O10 0.500000 0.500804 0.250000
O O11 0.962580 0.461331 0.352016
O O12 0.460183 0.515246 0.105282
O O13 0.500000 0.923397 0.250000
O O14 0.134895 0.054992 0.151458
O O15 0.994245 0.918150 0.013022
#
# Coordination Sequence:
#
# PCOD8117229 Si02
#       7
#     4   4   4   4   4   4   4
#     4  10  21  37  56  82 117 154 197 238 299 351
#     4  10  21  36  58  81 113 156 193 242 293 362
#     4   9  19  35  58  84 113 153 195 238 295 349
#     4  10  20  36  57  94 117 150 193 249 298 349
#     4  10  18  33  55  83 111 143 192 241 294 344
#     4   9  19  32  54  84 110 144 189 244 286 349
#     4  10  22  35  62  86 120 149 199 245 298 351
#
# _framework density 20.540030999999999
#
# number of rings (size 3 to 8) (size 9 to 14) (size 15 to 20)
#    0.000    2.286    1.429    1.714    4.000    3.429 
#    0.000    1.429    0.000    0.000    0.000    0.000 
#    0.000    0.000    0.000    0.000    0.000    0.000 
#
# Total GULP energy -346989.493846 kJ/mol
# GULP energy per Si atom -12392.481923 kJ/mol
# Density = 2.049328 g / cm^3
# Si number density = 20.540031 Si / 1000 Ang^3
#
#
#
# Elastic Constant Matrix: (Units=GPa)
#
#
# Indices 1 2 3 4 5 6 
#
# 1 85.6730 33.9135 31.1060 0.0000 16.1892 0.0000
# 2 33.9135 116.3969 52.0227 0.0000 9.8295 0.0000
# 3 31.1060 52.0227 99.9771 0.0000 10.3460 0.0000
# 4 0.0000 0.0000 0.0000 32.8528 0.0000 3.0885
# 5 16.1892 9.8295 10.3460 0.0000 19.6225 0.0000
# 6 0.0000 0.0000 0.0000 3.0885 0.0000 8.9045
#
#
#
# Elastic Compliance Matrix: (Units=1/GPa)
#
#
# Indices 1 2 3 4 5 6 
#
# 1 0.015503 -0.002568 -0.002429 0.000000 -0.010223 0.000000
# 2 -0.002568 0.011755 -0.005212 0.000000 -0.001022 0.000000
# 3 -0.002429 -0.005212 0.013742 0.000000 -0.002631 0.000000
# 4 0.000000 0.000000 0.000000 0.031465 0.000000 -0.010914
# 5 -0.010223 -0.001022 -0.002631 0.000000 0.061295 0.000000
# 6 0.000000 0.000000 0.000000 -0.010914 0.000000 0.116089
#
#
# Mechanical properties :
#
#
# Convention : Reuss Voigt Hill
#
# Bulk Modulus (GPa) = 48.58645 59.57018 54.07831
# Shear Modulus (GPa) = 18.04221 24.60959 21.32590
#
# Velocity S-wave (km/s) = 2.96698 3.46515 3.22570
# Velocity P-wave (km/s) = 5.95342 6.71377 6.34499
#
# Compressibility (1/GPa) = 0.02058187
#
# Stress axis : x y z
#
# Youngs Moduli (GPa) = 64.50553 85.06815 72.76718
#
# Poissons Ratio (x) = 0.21844 0.17677
# Poissons Ratio (y) = 0.16564 0.37927
# Poissons Ratio (z) = 0.15670 0.44339
#
# Static dielectric constant tensor:
#      x y z
#    x 3.427360 0.000000 0.114390 
#    y 0.000000 4.019250 0.000000 
#    z 0.114390 0.000000 3.686330 
# 
# 
# High freq. dielectric constant tensor:
#      x y z
#    x 1.765420 0.000000 0.011900 
#    y 0.000000 1.811700 0.000000 
#    z 0.011900 0.000000 1.797220 
# 
# From -- ./inp_files/76772.got.cif
#   From: 2010.06.25/outbox.cif.g09.slc.cpg/sg13_39_cif.got.tgz:76772.got - 2010.06.28 04:50:58.
