data_PCOD8117215
_publ_section_title
;
Structure prediction by ZEFSAII (Michael W. Deem and Ramdas Pophale) SiO2 
 PCOD8117215
Probable space group: P 2/C
;
_chemical_formula_sum "Si O2"
_cell_formula_units_Z 28
_cell_length_a 19.677690
_cell_length_b 11.211712
_cell_length_c 21.246562
_cell_angle_alpha 90.000000
_cell_angle_beta 19.469908
_cell_angle_gamma 90.000000
_cell_volume 1562.375123
_symmetry_space_group_name_H-M "P 2/C"
_symmetry_group_IT_number 13
_symmetry_cell_setting 'monoclinic'
loop_
_space_group_symop_operation_xyz
x,y,z
-x,y,1/2-z
-x,-y,-z
x,-y,1/2+z
loop_
_atom_site_type_symbol
_atom_site_label
_atom_site_fract_x
_atom_site_fract_y
_atom_site_fract_z
Si Si1 0.894911 0.334524 0.632755
Si Si2 0.353359 0.302055 0.821994
Si Si3 0.403239 0.972327 0.268256
Si Si4 0.006404 0.934792 0.061799
Si Si5 0.546557 0.324734 0.521734
Si Si6 0.028977 0.422344 0.382744
Si Si7 0.631622 0.947242 0.941919
O O1 0.649566 0.352456 0.850623
O O2 0.002798 0.435298 0.581332
O O3 0.945921 0.202666 0.610773
O O4 0.985448 0.348351 0.484059
O O5 0.500000 0.337807 0.750000
O O6 0.312557 0.160647 0.854194
O O7 0.471338 0.347007 0.657833
O O8 0.137491 0.370612 0.021059
O O9 0.500000 0.014417 0.250000
O O10 0.224943 0.061525 0.403913
O O11 0.563690 0.981583 0.071474
O O12 0.858418 0.003977 0.238157
O O13 0.000000 0.000000 0.000000
O O14 0.737322 0.409662 0.342304
O O15 0.628529 0.193466 0.436983
O O16 0.500000 0.000000 0.000000
#
# Coordination Sequence:
#
# PCOD8117215 Si02
#       7
#     4   4   4   4   4   4   4
#     4  10  21  33  50  80 110 132 175 223 263 322
#     4   9  19  36  54  77 105 135 180 223 258 321
#     4  10  22  37  54  82 115 144 177 225 280 328
#     4  12  20  34  58  82 110 144 180 229 275 322
#     4  10  18  33  53  79 106 134 172 225 270 315
#     4  10  20  34  52  76 105 141 173 215 277 310
#     4  11  19  32  56  86 106 137 187 220 272 332
#
# _framework density 17.921433
#
# number of rings (size 3 to 8) (size 9 to 14) (size 15 to 20)
#    0.000    1.714    2.857    3.857    0.000    1.143 
#    0.000    5.000    0.000    1.714    0.000    0.000 
#    0.000    0.000    0.000    0.000    0.000    0.000 
#
# Total GULP energy -347117.731947 kJ/mol
# GULP energy per Si atom -12397.061855 kJ/mol
# Density = 1.788064 g / cm^3
# Si number density = 17.921433 Si / 1000 Ang^3
#
#
#
# Elastic Constant Matrix: (Units=GPa)
#
#
# Indices 1 2 3 4 5 6 
#
# 1 99.8786 36.2370 37.0998 0.0000 -14.8295 0.0000
# 2 36.2370 76.0250 40.3306 0.0000 -6.7222 0.0000
# 3 37.0998 40.3306 105.2949 0.0000 -11.9955 0.0000
# 4 0.0000 0.0000 0.0000 26.5379 0.0000 -3.6124
# 5 -14.8295 -6.7222 -11.9955 0.0000 27.3720 0.0000
# 6 0.0000 0.0000 0.0000 -3.6124 0.0000 17.3148
#
#
#
# Elastic Compliance Matrix: (Units=1/GPa)
#
#
# Indices 1 2 3 4 5 6 
#
# 1 0.013321 -0.004666 -0.002331 0.000000 0.005049 0.000000
# 2 -0.004666 0.018190 -0.005370 0.000000 -0.000414 0.000000
# 3 -0.002331 -0.005370 0.012716 0.000000 0.002991 0.000000
# 4 0.000000 0.000000 0.000000 0.038783 0.000000 0.008091
# 5 0.005049 -0.000414 0.002991 0.000000 0.040478 0.000000
# 6 0.000000 0.000000 0.000000 0.008091 0.000000 0.059442
#
#
# Mechanical properties :
#
#
# Convention : Reuss Voigt Hill
#
# Bulk Modulus (GPa) = 51.30350 56.50369 53.90360
# Shear Modulus (GPa) = 23.34676 25.41370 24.38023
#
# Velocity S-wave (km/s) = 3.61325 3.76980 3.69235
# Velocity P-wave (km/s) = 6.78944 7.10954 6.95133
#
# Compressibility (1/GPa) = 0.01949185
#
# Stress axis : x y z
#
# Youngs Moduli (GPa) = 75.07159 54.97542 78.64048
#
# Poissons Ratio (x) = 0.25653 0.18330
# Poissons Ratio (y) = 0.35030 0.42232
# Poissons Ratio (z) = 0.17498 0.29523
#
# Static dielectric constant tensor:
#      x y z
#    x 3.684640 0.000000 0.204390 
#    y 0.000000 3.373460 0.000000 
#    z 0.204390 0.000000 3.648280 
# 
# 
# High freq. dielectric constant tensor:
#      x y z
#    x 1.672510 0.000000 0.000230 
#    y 0.000000 1.686210 0.000000 
#    z 0.000230 0.000000 1.707000 
# 
# From -- ./inp_files/73590.got.cif
#   From: 2010.06.25/outbox.cif.g09.slc.cpg/sg13_37_cif.got.tgz:73590.got - 2010.06.28 04:50:58.
