data_PCOD8117506
_publ_section_title
;
Structure prediction by ZEFSAII (Michael W. Deem and Ramdas Pophale) SiO2 
 PCOD8117506
Probable space group: P 2/C
;
_chemical_formula_sum "Si O2"
_cell_formula_units_Z 28
_cell_length_a 8.814580
_cell_length_b 19.338926
_cell_length_c 14.062580
_cell_angle_alpha 90.000000
_cell_angle_beta 30.239487
_cell_angle_gamma 90.000000
_cell_volume 1207.252298
_symmetry_space_group_name_H-M "P 2/C"
_symmetry_group_IT_number 13
_symmetry_cell_setting 'monoclinic'
loop_
_space_group_symop_operation_xyz
x,y,z
-x,y,1/2-z
-x,-y,-z
x,-y,1/2+z
loop_
_atom_site_type_symbol
_atom_site_label
_atom_site_fract_x
_atom_site_fract_y
_atom_site_fract_z
Si Si1 0.500000 0.741022 0.750000
Si Si2 0.386061 0.847002 0.664419
Si Si3 0.320610 0.399353 0.554141
Si Si4 0.246098 0.453531 0.038143
Si Si5 0.178500 0.903566 0.425215
Si Si6 0.142998 0.035432 0.572677
Si Si7 0.098390 0.660543 0.851975
Si Si8 0.000000 0.234862 0.250000
O O1 0.575728 0.789168 0.618164
O O2 0.195789 0.694041 0.899856
O O3 0.563975 0.918545 0.559601
O O4 0.288087 0.815030 0.615642
O O5 0.079046 0.856954 0.890271
O O6 0.431389 0.429104 0.596640
O O7 0.260968 0.464260 0.512981
O O8 0.567229 0.349896 0.375453
O O9 0.000000 0.362361 0.750000
O O10 0.000000 0.433117 0.250000
O O11 0.116756 0.407672 0.018809
O O12 0.500000 0.863707 0.250000
O O13 0.091895 0.921480 0.363448
O O14 0.244187 0.970650 0.455542
O O15 0.000000 0.011425 0.750000
O O16 0.923008 0.716504 0.882117
#
# Coordination Sequence:
#
# PCOD8117506 Si02
#       8
#     2   4   4   4   4   4   4   2
#     4  10  22  40  64  70 122 170 198 240 298 374
#     4  11  23  45  63  91 122 167 209 255 311 371
#     4   9  15  26  51  87 113 137 184 259 301 336
#     4   8  14  27  51  79 113 143 189 242 296 357
#     4  11  24  41  65  97 130 162 203 263 318 369
#     4  11  24  42  67  96 128 161 206 260 321 375
#     4  10  18  37  56  84 108 160 204 233 298 377
#     4  10  22  36  64  80 114 164 216 242 284 390
#
# _framework density 23.193163999999999
#
# number of rings (size 3 to 8) (size 9 to 14) (size 15 to 20)
#    0.000    2.000    3.571    2.571    3.000    1.143 
#    0.000    5.000    0.000    0.000    0.000    0.000 
#    0.000    0.000    0.000    0.000    0.000    0.000 
#
# Total GULP energy -346881.405630 kJ/mol
# GULP energy per Si atom -12388.621630 kJ/mol
# Density = 2.314038 g / cm^3
# Si number density = 23.193164 Si / 1000 Ang^3
#
#
#
# Elastic Constant Matrix: (Units=GPa)
#
#
# Indices 1 2 3 4 5 6 
#
# 1 123.9115 38.3638 23.3644 0.0000 -12.7450 0.0000
# 2 38.3638 89.9055 6.8362 0.0000 -9.4076 0.0000
# 3 23.3644 6.8362 86.0187 0.0000 -16.3130 0.0000
# 4 0.0000 0.0000 0.0000 15.8314 0.0000 -21.4940
# 5 -12.7450 -9.4076 -16.3130 0.0000 27.2732 0.0000
# 6 0.0000 0.0000 0.0000 -21.4940 0.0000 46.5911
#
#
#
# Elastic Compliance Matrix: (Units=1/GPa)
#
#
# Indices 1 2 3 4 5 6 
#
# 1 0.009844 -0.003831 -0.001971 0.000000 0.002100 0.000000
# 2 -0.003831 0.013033 0.000584 0.000000 0.003055 0.000000
# 3 -0.001971 0.000584 0.013510 0.000000 0.007361 0.000000
# 4 0.000000 0.000000 0.000000 0.169047 0.000000 0.077987
# 5 0.002100 0.003055 0.007361 0.000000 0.043104 0.000000
# 6 0.000000 0.000000 0.000000 0.077987 0.000000 0.057441
#
#
# Mechanical properties :
#
#
# Convention : Reuss Voigt Hill
#
# Bulk Modulus (GPa) = 38.53403 48.55160 43.54282
# Shear Modulus (GPa) = 15.38151 33.35723 24.36937
#
# Velocity S-wave (km/s) = 2.57804 3.79652 3.24499
# Velocity P-wave (km/s) = 5.05096 6.34012 5.73190
#
# Compressibility (1/GPa) = 0.02595109
#
# Stress axis : x y z
#
# Youngs Moduli (GPa) = 101.58455 76.72991 74.01697
#
# Poissons Ratio (x) = 0.29395 0.14590
# Poissons Ratio (y) = 0.38917 -0.04323
# Poissons Ratio (z) = 0.20024 -0.04482
#
# Static dielectric constant tensor:
#      x y z
#    x 4.570340 0.000000 -0.481570 
#    y 0.000000 4.207960 0.000000 
#    z -0.481570 0.000000 3.662290 
# 
# 
# High freq. dielectric constant tensor:
#      x y z
#    x 1.927210 0.000000 -0.038800 
#    y 0.000000 1.914340 0.000000 
#    z -0.038800 0.000000 1.860400 
# 
# From -- ./inp_files/48223.got.cif
#   From: 2010.06.25/outbox.cif.g09.slc.cpg/sg13_25_cif.got.tgz:48223.got - 2010.06.28 04:50:58.
