data_PCOD8117315
_publ_section_title
;
Structure prediction by ZEFSAII (Michael W. Deem and Ramdas Pophale) SiO2 
 PCOD8117315
Probable space group: P 2/C
;
_chemical_formula_sum "Si O2"
_cell_formula_units_Z 32
_cell_length_a 25.597561
_cell_length_b 10.081566
_cell_length_c 20.134335
_cell_angle_alpha 90.000000
_cell_angle_beta 19.338678
_cell_angle_gamma 90.000000
_cell_volume 1720.642001
_symmetry_space_group_name_H-M "P 2/C"
_symmetry_group_IT_number 13
_symmetry_cell_setting 'monoclinic'
loop_
_space_group_symop_operation_xyz
x,y,z
-x,y,1/2-z
-x,-y,-z
x,-y,1/2+z
loop_
_atom_site_type_symbol
_atom_site_label
_atom_site_fract_x
_atom_site_fract_y
_atom_site_fract_z
Si Si1 0.541481 0.399992 0.008561
Si Si2 0.253062 0.659713 0.926155
Si Si3 0.419044 0.904850 0.046237
Si Si4 0.110379 0.623227 0.358691
Si Si5 0.414703 0.082659 0.284611
Si Si6 0.953140 0.698665 0.211655
Si Si7 0.096082 0.993634 0.699199
Si Si8 0.945009 0.895576 0.011403
O O1 0.524339 0.245997 0.007715
O O2 0.715271 0.421546 0.828706
O O3 0.500000 0.500000 0.000000
O O4 0.406766 0.429729 0.226055
O O5 0.310939 0.805967 0.874181
O O6 0.152206 0.611173 0.110560
O O7 0.137447 0.661021 0.000110
O O8 0.237564 0.922843 0.280677
O O9 0.454916 0.955489 0.927487
O O10 0.500000 0.000000 0.000000
O O11 0.117285 0.667236 0.274753
O O12 0.035280 0.743622 0.489819
O O13 0.000000 0.500000 0.500000
O O14 0.500000 0.130146 0.250000
O O15 0.284681 0.969886 0.459568
O O16 0.938570 0.853755 0.243403
O O17 0.000000 0.945487 0.750000
O O18 0.042910 0.907441 0.826054
O O19 0.000000 0.000000 0.000000
#
# Coordination Sequence:
#
# PCOD8117315 Si02
#       8
#     4   4   4   4   4   4   4   4
#     4  10  22  38  58  86 116 157 196 246 305 350
#     4   9  19  31  56  85 113 146 193 243 290 350
#     4  10  22  36  57  88 118 154 196 244 301 363
#     4  11  24  39  59  84 122 160 202 252 297 358
#     4  10  19  31  51  83 118 151 187 244 296 349
#     4  10  18  34  57  89 113 149 196 241 298 356
#     4  11  19  34  58  86 119 151 193 243 309 363
#     4  11  22  35  60  92 116 151 203 252 301 360
#
# _framework density 18.597709999999999
#
# number of rings (size 3 to 8) (size 9 to 14) (size 15 to 20)
#    0.000    1.750    3.750    2.250   10.500    1.000 
#    0.000    0.000   11.000    0.000    3.250    0.000 
#    0.000    0.000    0.000    0.000    0.000    0.000 
#
# Total GULP energy -396531.966990 kJ/mol
# GULP energy per Si atom -12391.623968 kJ/mol
# Density = 1.855538 g / cm^3
# Si number density = 18.597710 Si / 1000 Ang^3
#
#
#
# Elastic Constant Matrix: (Units=GPa)
#
#
# Indices 1 2 3 4 5 6 
#
# 1 136.0740 49.2706 47.7961 0.0000 4.4181 0.0000
# 2 49.2706 73.4497 49.6995 0.0000 -3.9366 0.0000
# 3 47.7961 49.6995 128.6153 0.0000 3.7657 0.0000
# 4 0.0000 0.0000 0.0000 25.9061 0.0000 -0.9160
# 5 4.4181 -3.9366 3.7657 0.0000 35.7935 0.0000
# 6 0.0000 0.0000 0.0000 -0.9160 0.0000 25.9805
#
#
#
# Elastic Compliance Matrix: (Units=1/GPa)
#
#
# Indices 1 2 3 4 5 6 
#
# 1 0.010023 -0.005864 -0.001408 0.000000 -0.001734 0.000000
# 2 -0.005864 0.022146 -0.006491 0.000000 0.003842 0.000000
# 3 -0.001408 -0.006491 0.010856 0.000000 -0.001682 0.000000
# 4 0.000000 0.000000 0.000000 0.038649 0.000000 0.001363
# 5 -0.001734 0.003842 -0.001682 0.000000 0.028752 0.000000
# 6 0.000000 0.000000 0.000000 0.001363 0.000000 0.038539
#
#
# Mechanical properties :
#
#
# Convention : Reuss Voigt Hill
#
# Bulk Modulus (GPa) = 64.51898 70.18571 67.35234
# Shear Modulus (GPa) = 27.52439 30.29419 28.90929
#
# Velocity S-wave (km/s) = 3.85124 4.04037 3.94693
# Velocity P-wave (km/s) = 7.38534 7.71926 7.55414
#
# Compressibility (1/GPa) = 0.01549932
#
# Stress axis : x y z
#
# Youngs Moduli (GPa) = 99.77064 45.15428 92.11464
#
# Poissons Ratio (x) = 0.26477 0.12971
# Poissons Ratio (y) = 0.58501 0.59794
# Poissons Ratio (z) = 0.14050 0.29311
#
# Static dielectric constant tensor:
#      x y z
#    x 5.102090 0.000000 2.363860 
#    y 0.000000 3.079360 0.000000 
#    z 2.363860 0.000000 7.402490 
# 
# 
# High freq. dielectric constant tensor:
#      x y z
#    x 1.731020 0.000000 -0.004050 
#    y 0.000000 1.672100 0.000000 
#    z -0.004050 0.000000 1.748240 
# 
# From -- ./inp_files/71458.got.cif
#   From: 2010.06.25/outbox.cif.g09.slc.cpg/sg13_36_cif.got.tgz:71458.got - 2010.06.28 04:50:58.
