data_PCOD8117622
_publ_section_title
;
Structure prediction by ZEFSAII (Michael W. Deem and Ramdas Pophale) SiO2 
 PCOD8117622
Probable space group: P 2/C
;
_chemical_formula_sum "Si O2"
_cell_formula_units_Z 32
_cell_length_a 17.922695
_cell_length_b 5.024610
_cell_length_c 23.011382
_cell_angle_alpha 90.000000
_cell_angle_beta 53.551691
_cell_angle_gamma 90.000000
_cell_volume 1666.927643
_symmetry_space_group_name_H-M "P 2/C"
_symmetry_group_IT_number 13
_symmetry_cell_setting 'monoclinic'
loop_
_space_group_symop_operation_xyz
x,y,z
-x,y,1/2-z
-x,-y,-z
x,-y,1/2+z
loop_
_atom_site_type_symbol
_atom_site_label
_atom_site_fract_x
_atom_site_fract_y
_atom_site_fract_z
Si Si1 0.141750 0.764770 0.735953
Si Si2 0.692408 0.831910 0.755982
Si Si3 0.105558 0.290527 0.685475
Si Si4 0.263060 0.152738 0.399439
Si Si5 0.623525 0.348659 0.638417
Si Si6 0.034493 0.558990 0.612455
Si Si7 0.941913 0.927662 0.470797
Si Si8 0.420877 0.669822 0.206046
O O1 0.220089 0.866610 0.742748
O O2 0.171487 0.486666 0.692459
O O3 0.048420 0.705792 0.814999
O O4 0.128073 0.983769 0.690366
O O5 0.730332 0.840263 0.673173
O O6 0.635149 0.568730 0.797594
O O7 0.620182 0.064581 0.802379
O O8 0.111077 0.396620 0.616347
O O9 0.000000 0.350597 0.750000
O O10 0.321962 0.385024 0.401635
O O11 0.156702 0.190525 0.465039
O O12 0.306468 0.889629 0.407375
O O13 0.593251 0.338883 0.718901
O O14 0.530883 0.339426 0.641648
O O15 0.000800 0.314498 0.586701
O O16 0.078264 0.806254 0.557363
O O17 0.000000 0.000000 0.500000
#
# Coordination Sequence:
#
# PCOD8117622 Si02
#       8
#     4   4   4   4   4   4   4   4
#     4  11  20  34  54  77 104 134 171 216 272 318
#     4  10  19  30  48  76 107 133 164 208 263 321
#     4  10  20  35  54  74  97 133 177 220 267 312
#     4  10  20  32  48  71 103 142 178 208 244 303
#     4   9  17  31  48  67  98 137 174 209 250 306
#     4  11  23  38  55  75 107 146 185 224 259 306
#     4  12  24  37  53  77 111 149 188 219 252 298
#     4   9  17  29  47  71 100 134 165 206 263 315
#
# _framework density 19.196992999999999
#
# number of rings (size 3 to 8) (size 9 to 14) (size 15 to 20)
#    0.000    1.750    0.000    6.750    0.000    6.000 
#    0.000    0.000    0.000    0.000    0.000    0.000 
#    0.000   70.000    0.000    0.000    0.000    0.000 
#
# Total GULP energy -396536.046058 kJ/mol
# GULP energy per Si atom -12391.751439 kJ/mol
# Density = 1.915330 g / cm^3
# Si number density = 19.196993 Si / 1000 Ang^3
#
#
#
# Elastic Constant Matrix: (Units=GPa)
#
#
# Indices 1 2 3 4 5 6 
#
# 1 100.0723 33.4288 28.3751 0.0000 -7.8879 0.0000
# 2 33.4288 120.6443 22.9011 0.0000 3.0166 0.0000
# 3 28.3751 22.9011 35.2660 0.0000 -1.0752 0.0000
# 4 0.0000 0.0000 0.0000 1221.3880 0.0000-2188.4950
# 5 -7.8879 3.0166 -1.0752 0.0000 19.9014 0.0000
# 6 0.0000 0.0000 0.0000-2188.4950 0.0000 4033.6307
#
#
#
# Elastic Compliance Matrix: (Units=1/GPa)
#
#
# Indices 1 2 3 4 5 6 
#
# 1 0.013845 -0.002150 -0.009583 0.000000 0.005296 0.000000
# 2 -0.002150 0.009851 -0.004746 0.000000 -0.002602 0.000000
# 3 -0.009583 -0.004746 0.039119 0.000000 -0.000965 0.000000
# 4 0.000000 0.000000 0.000000 0.029417 0.000000 0.015961
# 5 0.005296 -0.002602 -0.000965 0.000000 0.052689 0.000000
# 6 0.000000 0.000000 0.000000 0.015961 0.000000 0.008908
#
#
# Mechanical properties :
#
#
# Convention : Reuss Voigt Hill
#
# Bulk Modulus (GPa) = 33.49253 47.26587 40.37920
# Shear Modulus (GPa) = 25.41444 1066.40253 545.90848
#
# Velocity S-wave (km/s) = 3.64246 23.59472 16.88162
# Velocity P-wave (km/s) = 5.93082 27.69397 20.02662
#
# Compressibility (1/GPa) = 0.02985740
#
# Stress axis : x y z
#
# Youngs Moduli (GPa) = 72.22596 101.51745 25.56308
#
# Poissons Ratio (x) = 0.21824 0.24496
# Poissons Ratio (y) = 0.15527 0.12133
# Poissons Ratio (z) = 0.69211 0.48184
#
# Static dielectric constant tensor:
#      x y z
#    x 3.592470 0.000000 0.029070 
#    y 0.000000 3.812170 0.000000 
#    z 0.029070 0.000000 3.031240 
# 
# 
# High freq. dielectric constant tensor:
#      x y z
#    x 1.740580 0.000000 -0.001060 
#    y 0.000000 1.774620 0.000000 
#    z -0.001060 0.000000 1.695360 
# 
# From -- ./inp_files/80667.got.cif
#   From: 2010.06.25/outbox.cif.g09.slc.cpg/sg13_41_cif.got.tgz:80667.got - 2010.06.28 04:50:58.
