data_PCOD8117274
_publ_section_title
;
Structure prediction by ZEFSAII (Michael W. Deem and Ramdas Pophale) SiO2 
 PCOD8117274
Probable space group: P 2/C
;
_chemical_formula_sum "Si O2"
_cell_formula_units_Z 26
_cell_length_a 24.721293
_cell_length_b 9.376438
_cell_length_c 17.192664
_cell_angle_alpha 90.000000
_cell_angle_beta 159.152246
_cell_angle_gamma 90.000000
_cell_volume 1418.283750
_symmetry_space_group_name_H-M "P 2/C"
_symmetry_group_IT_number 13
_symmetry_cell_setting 'monoclinic'
loop_
_space_group_symop_operation_xyz
x,y,z
-x,y,1/2-z
-x,-y,-z
x,-y,1/2+z
loop_
_atom_site_type_symbol
_atom_site_label
_atom_site_fract_x
_atom_site_fract_y
_atom_site_fract_z
Si Si1 0.863849 0.342323 0.627291
Si Si2 0.169632 0.112484 0.295931
Si Si3 0.679940 0.864012 0.782891
Si Si4 0.948580 0.142474 0.526964
Si Si5 0.569459 0.824612 0.175491
Si Si6 0.155444 0.662983 0.912068
Si Si7 0.500000 0.875451 0.250000
O O1 0.720437 0.248895 0.404881
O O2 0.806937 0.502559 0.565186
O O3 0.000000 0.344870 0.750000
O O4 0.936885 0.273829 0.803116
O O5 0.152633 0.244122 0.330783
O O6 0.338861 0.040263 0.528798
O O7 0.143080 0.174995 0.174397
O O8 0.045723 0.999065 0.151448
O O9 0.553204 0.794666 0.556300
O O10 0.620370 0.009221 0.741904
O O11 0.832758 0.893041 0.940378
O O12 0.712823 0.721081 0.353089
O O13 0.505003 0.786299 0.175394
O O14 0.000000 0.673832 0.750000
#
# Coordination Sequence:
#
# PCOD8117274 Si02
#       7
#     4   4   4   4   4   4   2
#     4   9  19  33  53  74 108 136 177 217 264 309
#     4  10  20  32  57  78 109 138 177 219 266 308
#     4  10  19  35  55  84 103 139 176 222 264 317
#     4  10  19  35  55  84 103 139 176 222 264 317
#     4  10  20  32  57  78 109 138 177 219 266 308
#     4  10  20  35  52  77 102 143 177 220 260 316
#     4  10  18  34  48  82 108 140 166 218 260 316
#
# _framework density 18.332014999999998
#
# number of rings (size 3 to 8) (size 9 to 14) (size 15 to 20)
#    0.000    2.154    1.538    2.769    0.000    2.462 
#    0.000    0.000    0.000   14.769    0.000    0.000 
#    0.000    0.000    0.000    0.000    0.000    0.000 
#
# Total GULP energy -322178.928992 kJ/mol
# GULP energy per Si atom -12391.497269 kJ/mol
# Density = 1.829029 g / cm^3
# Si number density = 18.332015 Si / 1000 Ang^3
#
#
#
# Elastic Constant Matrix: (Units=GPa)
#
#
# Indices 1 2 3 4 5 6 
#
# 1 69.8683 24.9977 37.8492 0.0000 -5.8364 0.0000
# 2 24.9977 95.7187 47.7636 0.0000 -10.8380 0.0000
# 3 37.8492 47.7636 146.4197 0.0000 -14.2763 0.0000
# 4 0.0000 0.0000 0.0000 8.7421 0.0000 1.5643
# 5 -5.8364 -10.8380 -14.2763 0.0000 28.9713 0.0000
# 6 0.0000 0.0000 0.0000 1.5643 0.0000 12.2276
#
#
#
# Elastic Compliance Matrix: (Units=1/GPa)
#
#
# Indices 1 2 3 4 5 6 
#
# 1 0.017230 -0.002663 -0.003513 0.000000 0.000744 0.000000
# 2 -0.002663 0.013109 -0.003322 0.000000 0.002731 0.000000
# 3 -0.003513 -0.003322 0.009067 0.000000 0.002518 0.000000
# 4 0.000000 0.000000 0.000000 0.117068 0.000000 -0.014977
# 5 0.000744 0.002731 0.002518 0.000000 0.036929 0.000000
# 6 0.000000 0.000000 0.000000 -0.014977 0.000000 0.083698
#
#
# Mechanical properties :
#
#
# Convention : Reuss Voigt Hill
#
# Bulk Modulus (GPa) = 48.99111 59.24751 54.11931
# Shear Modulus (GPa) = 16.50702 23.41463 19.96083
#
# Velocity S-wave (km/s) = 3.00400 3.57775 3.30335
# Velocity P-wave (km/s) = 6.23012 7.03252 6.64345
#
# Compressibility (1/GPa) = 0.02041187
#
# Stress axis : x y z
#
# Youngs Moduli (GPa) = 58.03670 76.28060 110.29185
#
# Poissons Ratio (x) = 0.20311 0.38744
# Poissons Ratio (y) = 0.15453 0.36638
# Poissons Ratio (z) = 0.20388 0.25340
#
# Static dielectric constant tensor:
#      x y z
#    x 3.433990 0.000000 -0.104520 
#    y 0.000000 3.271230 0.000000 
#    z -0.104520 0.000000 3.861810 
# 
# 
# High freq. dielectric constant tensor:
#      x y z
#    x 1.704430 0.000000 -0.005380 
#    y 0.000000 1.679580 0.000000 
#    z -0.005380 0.000000 1.736350 
# 
# From -- ./inp_files/71877.got.cif
#   From: 2010.06.25/outbox.cif.g09.slc.cpg/sg13_36_cif.got.tgz:71877.got - 2010.06.28 04:50:58.
