data_PCOD8117943
_publ_section_title
;
Structure prediction by ZEFSAII (Michael W. Deem and Ramdas Pophale) SiO2 
 PCOD8117943
Probable space group: P 2/C
;
_chemical_formula_sum "Si O2"
_cell_formula_units_Z 24
_cell_length_a 10.400371
_cell_length_b 25.946154
_cell_length_c 5.174736
_cell_angle_alpha 90.000000
_cell_angle_beta 57.585204
_cell_angle_gamma 90.000000
_cell_volume 1178.826746
_symmetry_space_group_name_H-M "P 2/C"
_symmetry_group_IT_number 13
_symmetry_cell_setting 'monoclinic'
loop_
_space_group_symop_operation_xyz
x,y,z
-x,y,1/2-z
-x,-y,-z
x,-y,1/2+z
loop_
_atom_site_type_symbol
_atom_site_label
_atom_site_fract_x
_atom_site_fract_y
_atom_site_fract_z
Si Si1 0.680313 0.683362 0.066533
Si Si2 0.681032 0.199534 0.549222
Si Si3 0.169133 0.521523 0.260823
Si Si4 0.319371 0.141461 0.448140
Si Si5 0.828542 0.639245 0.409990
Si Si6 0.822524 0.968383 0.444478
O O1 0.500000 0.677636 0.250000
O O2 0.735015 0.741719 0.959140
O O3 0.736484 0.669717 0.292042
O O4 0.750115 0.646207 0.773050
O O5 0.500000 0.197412 0.750000
O O6 0.748021 0.167790 0.235986
O O7 0.746829 0.173207 0.737137
O O8 0.253249 0.512220 0.445076
O O9 0.168318 0.580054 0.175294
O O10 0.000000 0.500000 0.500000
O O11 0.500000 0.144082 0.250000
O O12 0.270729 0.082598 0.514769
O O13 0.000000 0.660423 0.250000
O O14 0.000000 0.954778 0.250000
O O15 0.777331 0.990558 0.772642
#
# Coordination Sequence:
#
# PCOD8117943 Si02
#       6
#     4   4   4   4   4   4
#     4  11  24  42  63  88 128 167 196 243 317 377
#     4   9  19  37  58  80 110 153 193 229 287 363
#     4  10  19  34  59  89 112 153 200 242 289 359
#     4  10  19  34  59  83 103 140 198 243 276 327
#     4  12  23  38  65  96 119 152 210 257 292 353
#     4  10  21  36  52  76 113 150 182 219 285 357
#
# _framework density 20.359228000000002
#
# number of rings (size 3 to 8) (size 9 to 14) (size 15 to 20)
#    0.000    1.667    1.667    4.000    2.333    3.333 
#    0.000    5.000    0.000   10.000    0.000    0.000 
#    0.000    0.000    0.000    0.000    0.000    0.000 
#
# Total GULP energy -297554.255046 kJ/mol
# GULP energy per Si atom -12398.093960 kJ/mol
# Density = 2.031289 g / cm^3
# Si number density = 20.359228 Si / 1000 Ang^3
#
#
#
# Elastic Constant Matrix: (Units=GPa)
#
#
# Indices 1 2 3 4 5 6 
#
# 1 79.7410 22.2227 39.5538 0.0000 19.9680 0.0000
# 2 22.2227 108.3738 33.7577 0.0000 6.4188 0.0000
# 3 39.5538 33.7577 102.6907 0.0000 32.9545 0.0000
# 4 0.0000 0.0000 0.0000 33.9149 0.0000 7.0295
# 5 19.9680 6.4188 32.9545 0.0000 38.0740 0.0000
# 6 0.0000 0.0000 0.0000 7.0295 0.0000 33.8595
#
#
#
# Elastic Compliance Matrix: (Units=1/GPa)
#
#
# Indices 1 2 3 4 5 6 
#
# 1 0.016270 -0.001750 -0.004220 0.000000 -0.004585 0.000000
# 2 -0.001750 0.010544 -0.003484 0.000000 0.002156 0.000000
# 3 -0.004220 -0.003484 0.016075 0.000000 -0.011113 0.000000
# 4 0.000000 0.000000 0.000000 0.030811 0.000000 -0.006397
# 5 -0.004585 0.002156 -0.011113 0.000000 0.037925 0.000000
# 6 0.000000 0.000000 0.000000 -0.006397 0.000000 0.030862
#
#
# Mechanical properties :
#
#
# Convention : Reuss Voigt Hill
#
# Bulk Modulus (GPa) = 41.70020 53.54153 47.62087
# Shear Modulus (GPa) = 29.51820 34.18778 31.85299
#
# Velocity S-wave (km/s) = 3.81184 4.10228 3.95973
# Velocity P-wave (km/s) = 6.31666 6.98526 6.65936
#
# Compressibility (1/GPa) = 0.02398070
#
# Stress axis : x y z
#
# Youngs Moduli (GPa) = 61.46393 94.84364 62.20904
#
# Poissons Ratio (x) = 0.16599 0.26252
# Poissons Ratio (y) = 0.10757 0.21672
# Poissons Ratio (z) = 0.25937 0.33040
#
# Static dielectric constant tensor:
#      x y z
#    x 3.489650 0.000000 0.071260 
#    y 0.000000 3.743010 0.000000 
#    z 0.071260 0.000000 3.325160 
# 
# 
# High freq. dielectric constant tensor:
#      x y z
#    x 1.782380 0.000000 0.036060 
#    y 0.000000 1.804990 0.000000 
#    z 0.036060 0.000000 1.799570 
# 
# From -- ./inp_files/4328.got.cif
#   From: 2010.06.25/outbox.cif.g09.slc.cpg/sg13_3_cif.got.tgz:4328.got - 2010.06.28 04:50:58.
