data_PCOD8117074
_publ_section_title
;
Structure prediction by ZEFSAII (Michael W. Deem and Ramdas Pophale) SiO2 
 PCOD8117074
Probable space group: P 2/C
;
_chemical_formula_sum "Si O2"
_cell_formula_units_Z 18
_cell_length_a 9.404482
_cell_length_b 11.129270
_cell_length_c 16.111347
_cell_angle_alpha 90.000000
_cell_angle_beta 35.028249
_cell_angle_gamma 90.000000
_cell_volume 967.899690
_symmetry_space_group_name_H-M "P 2/C"
_symmetry_group_IT_number 13
_symmetry_cell_setting 'monoclinic'
loop_
_space_group_symop_operation_xyz
x,y,z
-x,y,1/2-z
-x,-y,-z
x,-y,1/2+z
loop_
_atom_site_type_symbol
_atom_site_label
_atom_site_fract_x
_atom_site_fract_y
_atom_site_fract_z
Si Si1 0.500000 0.218196 0.750000
Si Si2 0.026734 0.358845 0.981295
Si Si3 0.389180 0.796742 0.891842
Si Si4 0.838247 0.962699 0.997916
Si Si5 0.900922 0.762307 0.709697
O O1 0.283554 0.307820 0.819492
O O2 0.384034 0.130498 0.875099
O O3 0.014053 0.316177 0.082062
O O4 0.000000 0.500000 0.000000
O O5 0.807056 0.309456 0.028259
O O6 0.500000 0.836592 0.750000
O O7 0.602757 0.750925 0.851530
O O8 0.268019 0.915068 0.990598
O O9 0.016457 0.900731 0.844786
O O10 0.000000 0.000000 0.000000
O O11 0.000000 0.713704 0.750000
#
# Coordination Sequence:
#
# PCOD8117074 Si02
#       5
#     2   4   4   4   4
#     4  10  18  30  56  86 106 132 198 234 272 318
#     4  10  22  36  60  82 105 154 198 229 266 337
#     4  10  18  33  57  82 109 148 188 224 273 338
#     4  11  16  33  58  85 109 147 186 229 274 340
#     4  10  22  36  55  84 117 146 179 236 295 323
#
# _framework density 18.596969000000001
#
# number of rings (size 3 to 8) (size 9 to 14) (size 15 to 20)
#    0.000    1.778    7.778    0.000    4.667    0.889 
#    0.000    1.111    0.000    0.000    0.000    0.000 
#    0.000    0.000    0.000    0.000    0.000    0.000 
#
# Total GULP energy -223086.963275 kJ/mol
# GULP energy per Si atom -12393.720182 kJ/mol
# Density = 1.855464 g / cm^3
# Si number density = 18.596969 Si / 1000 Ang^3
#
#
#
# Elastic Constant Matrix: (Units=GPa)
#
#
# Indices 1 2 3 4 5 6 
#
# 1 112.9852 29.9041 44.6724 0.0000 -25.9998 0.0000
# 2 29.9041 143.8671 48.2630 0.0000 -22.9825 0.0000
# 3 44.6724 48.2630 93.6642 0.0000 -35.1136 0.0000
# 4 0.0000 0.0000 0.0000 28.7057 0.0000 -6.1328
# 5 -25.9998 -22.9825 -35.1136 0.0000 29.2138 0.0000
# 6 0.0000 0.0000 0.0000 -6.1328 0.0000 15.4465
#
#
#
# Elastic Compliance Matrix: (Units=1/GPa)
#
#
# Indices 1 2 3 4 5 6 
#
# 1 0.011600 -0.000401 -0.002865 0.000000 0.006565 0.000000
# 2 -0.000401 0.008524 -0.003314 0.000000 0.002365 0.000000
# 3 -0.002865 -0.003314 0.021509 0.000000 0.020696 0.000000
# 4 0.000000 0.000000 0.000000 0.038065 0.000000 0.015113
# 5 0.006565 0.002365 0.020696 0.000000 0.066810 0.000000
# 6 0.000000 0.000000 0.000000 0.015113 0.000000 0.070740
#
#
# Mechanical properties :
#
#
# Convention : Reuss Voigt Hill
#
# Bulk Modulus (GPa) = 35.12090 66.24394 50.68242
# Shear Modulus (GPa) = 20.84204 29.85167 25.34686
#
# Velocity S-wave (km/s) = 3.35135 4.01083 3.69583
# Velocity P-wave (km/s) = 5.82252 7.55957 6.74718
#
# Compressibility (1/GPa) = 0.02847307
#
# Stress axis : x y z
#
# Youngs Moduli (GPa) = 86.20427 117.31744 46.49195
#
# Poissons Ratio (x) = 0.04710 0.13318
# Poissons Ratio (y) = 0.03461 0.15407
# Poissons Ratio (z) = 0.24694 0.38879
#
# Static dielectric constant tensor:
#      x y z
#    x 3.098030 0.000000 -0.432080 
#    y 0.000000 3.491640 0.000000 
#    z -0.432080 0.000000 3.748530 
# 
# 
# High freq. dielectric constant tensor:
#      x y z
#    x 1.678910 0.000000 -0.037580 
#    y 0.000000 1.719840 0.000000 
#    z -0.037580 0.000000 1.724270 
# 
# From -- ./inp_files/28735.got.cif
#   From: 2010.06.25/outbox.cif.g09.slc.cpg/sg13_15_cif.got.tgz:28735.got - 2010.06.28 04:50:58.
