data_PCOD8117554
_publ_section_title
;
Structure prediction by ZEFSAII (Michael W. Deem and Ramdas Pophale) SiO2 
 PCOD8117554
Probable space group: P 2/C
;
_chemical_formula_sum "Si O2"
_cell_formula_units_Z 24
_cell_length_a 13.580833
_cell_length_b 9.485415
_cell_length_c 9.199121
_cell_angle_alpha 90.000000
_cell_angle_beta 75.165561
_cell_angle_gamma 90.000000
_cell_volume 1145.531854
_symmetry_space_group_name_H-M "P 2/C"
_symmetry_group_IT_number 13
_symmetry_cell_setting 'monoclinic'
loop_
_space_group_symop_operation_xyz
x,y,z
-x,y,1/2-z
-x,-y,-z
x,-y,1/2+z
loop_
_atom_site_type_symbol
_atom_site_label
_atom_site_fract_x
_atom_site_fract_y
_atom_site_fract_z
Si Si1 0.405574 0.830857 0.094935
Si Si2 0.896707 0.074909 0.718291
Si Si3 0.622956 0.099798 0.572832
Si Si4 0.116798 0.461442 0.981515
Si Si5 0.155099 0.169465 0.072812
Si Si6 0.779562 0.662562 0.343082
O O1 0.374036 0.908847 0.255043
O O2 0.527738 0.806224 0.050730
O O3 0.344204 0.680799 0.103189
O O4 0.380253 0.937312 0.974126
O O5 0.895412 0.085965 0.544320
O O6 0.811077 0.173551 0.822107
O O7 0.000000 0.133218 0.750000
O O8 0.879091 0.911713 0.768758
O O9 0.723324 0.178222 0.479775
O O10 0.115485 0.329493 0.092976
O O11 0.176594 0.420408 0.812368
O O12 0.177980 0.591199 0.027744
O O13 0.000000 0.500000 0.000000
#
# Coordination Sequence:
#
# PCOD8117554 Si02
#       6
#     4   4   4   4   4   4
#     4  10  20  36  67  93 127 155 195 261 313 370
#     4  11  22  36  58  88 120 152 204 256 302 352
#     4  10  18  38  64  97 122 154 198 249 323 357
#     4  11  24  41  60  84 125 172 209 247 305 368
#     4  11  21  39  60  89 119 157 200 256 304 362
#     4  11  22  42  59  88 121 167 205 252 304 361
#
# _framework density 20.950968
#
# number of rings (size 3 to 8) (size 9 to 14) (size 15 to 20)
#    0.000    1.333    5.000    3.000    0.000    2.667 
#    3.000    0.833    0.000    0.000    0.000    0.000 
#    0.000    0.000    0.000    0.000    0.000    0.000 
#
# Total GULP energy -297541.615981 kJ/mol
# GULP energy per Si atom -12397.567333 kJ/mol
# Density = 2.090328 g / cm^3
# Si number density = 20.950968 Si / 1000 Ang^3
#
#
#
# Elastic Constant Matrix: (Units=GPa)
#
#
# Indices 1 2 3 4 5 6 
#
# 1 139.4387 41.6620 32.1117 0.0000 11.4684 0.0000
# 2 41.6620 84.0126 21.7656 0.0000 10.1483 0.0000
# 3 32.1117 21.7656 46.3325 0.0000 11.0433 0.0000
# 4 0.0000 0.0000 0.0000 32.6830 0.0000 1.9304
# 5 11.4684 10.1483 11.0433 0.0000 24.4655 0.0000
# 6 0.0000 0.0000 0.0000 1.9304 0.0000 42.7670
#
#
#
# Elastic Compliance Matrix: (Units=1/GPa)
#
#
# Indices 1 2 3 4 5 6 
#
# 1 0.009309 -0.003294 -0.004695 0.000000 -0.000878 0.000000
# 2 -0.003294 0.014928 -0.004059 0.000000 -0.002816 0.000000
# 3 -0.004695 -0.004059 0.028931 0.000000 -0.009174 0.000000
# 4 0.000000 0.000000 0.000000 0.030679 0.000000 -0.001385
# 5 -0.000878 -0.002816 -0.009174 0.000000 0.046595 0.000000
# 6 0.000000 0.000000 0.000000 -0.001385 0.000000 0.023445
#
#
# Mechanical properties :
#
#
# Convention : Reuss Voigt Hill
#
# Bulk Modulus (GPa) = 34.39707 51.20694 42.80200
# Shear Modulus (GPa) = 26.64208 31.59940 29.12074
#
# Velocity S-wave (km/s) = 3.56987 3.88784 3.73224
# Velocity P-wave (km/s) = 5.78321 6.68192 6.24875
#
# Compressibility (1/GPa) = 0.02907224
#
# Stress axis : x y z
#
# Youngs Moduli (GPa) = 107.41925 66.98762 34.56557
#
# Poissons Ratio (x) = 0.22066 0.16230
# Poissons Ratio (y) = 0.35384 0.14029
# Poissons Ratio (z) = 0.50436 0.27187
#
# Static dielectric constant tensor:
#      x y z
#    x 4.310880 0.000000 0.000790 
#    y 0.000000 3.590790 0.000000 
#    z 0.000790 0.000000 3.708780 
# 
# 
# High freq. dielectric constant tensor:
#      x y z
#    x 1.844040 0.000000 0.004610 
#    y 0.000000 1.790970 0.000000 
#    z 0.004610 0.000000 1.812260 
# 
# From -- ./inp_files/18038.got.cif
#   From: 2010.06.25/outbox.cif.g09.slc.cpg/sg13_10_cif.got.tgz:18038.got - 2010.06.28 04:50:58.
