data_PCOD8117624
_publ_section_title
;
Structure prediction by ZEFSAII (Michael W. Deem and Ramdas Pophale) SiO2 
 PCOD8117624
Probable space group: P 2/C
;
_chemical_formula_sum "Si O2"
_cell_formula_units_Z 30
_cell_length_a 24.214362
_cell_length_b 13.227439
_cell_length_c 27.247311
_cell_angle_alpha 90.000000
_cell_angle_beta 167.957624
_cell_angle_gamma 90.000000
_cell_volume 1820.789600
_symmetry_space_group_name_H-M "P 2/C"
_symmetry_group_IT_number 13
_symmetry_cell_setting 'monoclinic'
loop_
_space_group_symop_operation_xyz
x,y,z
-x,y,1/2-z
-x,-y,-z
x,-y,1/2+z
loop_
_atom_site_type_symbol
_atom_site_label
_atom_site_fract_x
_atom_site_fract_y
_atom_site_fract_z
Si Si1 0.969410 0.183864 0.779144
Si Si2 0.033306 0.209831 0.989367
Si Si3 0.785121 0.944434 0.204794
Si Si4 0.500000 0.283245 0.250000
Si Si5 0.486897 0.668803 0.631454
Si Si6 0.750108 0.143124 0.223529
Si Si7 0.473508 0.336820 0.961627
Si Si8 0.684593 0.521932 0.729678
O O1 0.861773 0.089263 0.716670
O O2 0.792553 0.286201 0.630356
O O3 0.000000 0.146554 0.750000
O O4 0.253292 0.211667 0.047298
O O5 0.959288 0.108415 0.897553
O O6 0.829868 0.299797 0.798330
O O7 0.312737 0.244738 0.211616
O O8 0.038909 0.183503 0.052696
O O9 0.852192 0.063259 0.271579
O O10 0.479010 0.914555 0.945414
O O11 0.538400 0.350292 0.332128
O O12 0.582644 0.560156 0.693835
O O13 0.650651 0.238557 0.104785
O O14 0.590238 0.387164 0.112264
O O15 0.481455 0.420465 0.925690
O O16 0.000000 0.500000 0.000000
#
# Coordination Sequence:
#
# PCOD8117624 Si02
#       8
#     4   4   4   2   4   4   4   4
#     4  10  20  34  49  74 102 137 175 210 252 302
#     4  11  17  31  48  71 106 135 160 206 253 314
#     4  10  19  30  49  71 102 136 168 204 257 311
#     4  10  22  32  50  70 100 142 168 206 252 302
#     4  11  19  32  51  71 107 134 170 211 254 310
#     4  10  19  31  46  74 103 134 166 207 258 309
#     4  10  20  30  47  74 101 132 169 201 256 310
#     4  11  20  32  51  75 101 137 168 211 263 313
#
# _framework density 16.476368000000001
#
# number of rings (size 3 to 8) (size 9 to 14) (size 15 to 20)
#    0.000    1.600    5.333    1.200    0.000    0.000 
#    0.000    0.000    0.000    0.000    0.000    6.533 
#    0.000    1.067    0.000    0.000    0.000    0.000 
#
# Total GULP energy -371720.796881 kJ/mol
# GULP energy per Si atom -12390.693229 kJ/mol
# Density = 1.643887 g / cm^3
# Si number density = 16.476368 Si / 1000 Ang^3
#
#
#
# Elastic Constant Matrix: (Units=GPa)
#
#
# Indices 1 2 3 4 5 6 
#
# 1 93.0083 48.6888 26.9709 0.0000 -2.5378 0.0000
# 2 48.6888 113.4908 29.9978 0.0000 -2.7381 0.0000
# 3 26.9709 29.9978 85.6579 0.0000 -5.3357 0.0000
# 4 0.0000 0.0000 0.0000 24.4978 0.0000 -2.1950
# 5 -2.5378 -2.7381 -5.3357 0.0000 20.6596 0.0000
# 6 0.0000 0.0000 0.0000 -2.1950 0.0000 30.2296
#
#
#
# Elastic Compliance Matrix: (Units=1/GPa)
#
#
# Indices 1 2 3 4 5 6 
#
# 1 0.014378 -0.005476 -0.002586 0.000000 0.000372 0.000000
# 2 -0.005476 0.011799 -0.002391 0.000000 0.000274 0.000000
# 3 -0.002586 -0.002391 0.013504 0.000000 0.002853 0.000000
# 4 0.000000 0.000000 0.000000 0.041087 0.000000 0.002983
# 5 0.000372 0.000274 0.002853 0.000000 0.049223 0.000000
# 6 0.000000 0.000000 0.000000 0.002983 0.000000 0.033297
#
#
# Mechanical properties :
#
#
# Convention : Reuss Voigt Hill
#
# Bulk Modulus (GPa) = 53.26259 55.94132 54.60196
# Shear Modulus (GPa) = 26.25324 27.51069 26.88197
#
# Velocity S-wave (km/s) = 3.99606 4.09064 4.04362
# Velocity P-wave (km/s) = 7.32722 7.50581 7.41705
#
# Compressibility (1/GPa) = 0.01877490
#
# Stress axis : x y z
#
# Youngs Moduli (GPa) = 69.54838 84.75256 74.05360
#
# Poissons Ratio (x) = 0.46410 0.19154
# Poissons Ratio (y) = 0.38084 0.17705
# Poissons Ratio (z) = 0.17988 0.20263
#
# Static dielectric constant tensor:
#      x y z
#    x 3.037220 0.000000 -0.199650 
#    y 0.000000 3.147680 0.000000 
#    z -0.199650 0.000000 3.313820 
# 
# 
# High freq. dielectric constant tensor:
#      x y z
#    x 1.608540 0.000000 -0.024530 
#    y 0.000000 1.620740 0.000000 
#    z -0.024530 0.000000 1.645670 
# 
# From -- ./inp_files/97892.got.cif
#   From: 2010.06.25/outbox.cif.g09.slc.cpg/sg13_49_cif.got.tgz:97892.got - 2010.06.28 04:50:58.
