data_PCOD8117145
_publ_section_title
;
Structure prediction by ZEFSAII (Michael W. Deem and Ramdas Pophale) SiO2 
 PCOD8117145
Probable space group: P 2/C
;
_chemical_formula_sum "Si O2"
_cell_formula_units_Z 22
_cell_length_a 9.073858
_cell_length_b 12.942553
_cell_length_c 9.022616
_cell_angle_alpha 90.000000
_cell_angle_beta 95.176460
_cell_angle_gamma 90.000000
_cell_volume 1055.284442
_symmetry_space_group_name_H-M "P 2/C"
_symmetry_group_IT_number 13
_symmetry_cell_setting 'monoclinic'
loop_
_space_group_symop_operation_xyz
x,y,z
-x,y,1/2-z
-x,-y,-z
x,-y,1/2+z
loop_
_atom_site_type_symbol
_atom_site_label
_atom_site_fract_x
_atom_site_fract_y
_atom_site_fract_z
Si Si1 0.311635 0.631697 0.492065
Si Si2 0.161062 0.875345 0.003399
Si Si3 0.014927 0.678900 0.086040
Si Si4 0.000000 0.008196 0.750000
Si Si5 0.448542 0.765718 0.083390
Si Si6 0.707353 0.436116 0.838491
O O1 0.141230 0.657591 0.502925
O O2 0.408397 0.738618 0.508186
O O3 0.355116 0.547698 0.619721
O O4 0.334204 0.576747 0.336119
O O5 0.340019 0.856669 0.014525
O O6 0.088633 0.762795 0.985903
O O7 0.113667 0.940677 0.857065
O O8 0.107000 0.926834 0.152168
O O9 0.000000 0.726926 0.250000
O O10 0.116191 0.575467 0.112235
O O11 0.500000 0.802265 0.250000
O O12 0.366926 0.655856 0.077369
#
# Coordination Sequence:
#
# PCOD8117145 Si02
#       6
#     4   4   4   2   4   4
#     4  10  18  32  53  79 116 156 190 228 271 324
#     4  10  20  40  62  87 107 142 190 235 299 346
#     4   9  17  32  56  79 112 153 192 229 276 339
#     4  10  22  38  70  82 108 138 190 252 292 354
#     4   9  19  34  58  79 116 155 185 222 283 354
#     4   9  18  31  50  79 112 156 198 221 266 324
#
# _framework density 20.847460000000002
#
# number of rings (size 3 to 8) (size 9 to 14) (size 15 to 20)
#    0.000    2.545    0.909    2.182    0.000    0.000 
#    6.545    0.909    0.000    0.000    0.000    0.000 
#    0.000    0.000    0.000    0.000    0.000    0.000 
#
# Total GULP energy -272587.723540 kJ/mol
# GULP energy per Si atom -12390.351070 kJ/mol
# Density = 2.080001 g / cm^3
# Si number density = 20.847460 Si / 1000 Ang^3
#
#
#
# Elastic Constant Matrix: (Units=GPa)
#
#
# Indices 1 2 3 4 5 6 
#
# 1 113.8960 35.5261 32.3242 0.0000 20.6380 0.0000
# 2 35.5261 73.5098 38.4016 0.0000 10.0840 0.0000
# 3 32.3242 38.4016 62.9227 0.0000 9.1673 0.0000
# 4 0.0000 0.0000 0.0000 16.4929 0.0000 0.3855
# 5 20.6380 10.0840 9.1673 0.0000 24.9755 0.0000
# 6 0.0000 0.0000 0.0000 0.3855 0.0000 29.8840
#
#
#
# Elastic Compliance Matrix: (Units=1/GPa)
#
#
# Indices 1 2 3 4 5 6 
#
# 1 0.012013 -0.003118 -0.003176 0.000000 -0.007502 0.000000
# 2 -0.003118 0.021126 -0.011013 0.000000 -0.001911 0.000000
# 3 -0.003176 -0.011013 0.024526 0.000000 -0.001932 0.000000
# 4 0.000000 0.000000 0.000000 0.060651 0.000000 -0.000782
# 5 -0.007502 -0.001911 -0.001932 0.000000 0.047719 0.000000
# 6 0.000000 0.000000 0.000000 -0.000782 0.000000 0.033473
#
#
# Mechanical properties :
#
#
# Convention : Reuss Voigt Hill
#
# Bulk Modulus (GPa) = 43.37842 51.42579 47.40211
# Shear Modulus (GPa) = 20.67786 23.87558 22.27672
#
# Velocity S-wave (km/s) = 3.15280 3.38783 3.27243
# Velocity P-wave (km/s) = 5.84006 6.32648 6.08813
#
# Compressibility (1/GPa) = 0.02305294
#
# Stress axis : x y z
#
# Youngs Moduli (GPa) = 83.24275 47.33574 40.77227
#
# Poissons Ratio (x) = 0.14758 0.12947
# Poissons Ratio (y) = 0.25952 0.44902
# Poissons Ratio (z) = 0.26434 0.52131
#
# Static dielectric constant tensor:
#      x y z
#    x 4.282410 0.000000 0.031570 
#    y 0.000000 3.571690 0.000000 
#    z 0.031570 0.000000 3.402150 
# 
# 
# High freq. dielectric constant tensor:
#      x y z
#    x 1.833060 0.000000 0.009520 
#    y 0.000000 1.788810 0.000000 
#    z 0.009520 0.000000 1.784880 
# 
# From -- ./inp_files/12371.got.cif
#   From: 2010.06.25/outbox.cif.g09.slc.cpg/sg13_7_cif.got.tgz:12371.got - 2010.06.28 04:50:58.
