data_PCOD8117564
_publ_section_title
;
Structure prediction by ZEFSAII (Michael W. Deem and Ramdas Pophale) SiO2 
 PCOD8117564
Probable space group: P 2/C
;
_chemical_formula_sum "Si O2"
_cell_formula_units_Z 22
_cell_length_a 7.487103
_cell_length_b 8.882518
_cell_length_c 19.328676
_cell_angle_alpha 90.000000
_cell_angle_beta 52.590039
_cell_angle_gamma 90.000000
_cell_volume 1021.037051
_symmetry_space_group_name_H-M "P 2/C"
_symmetry_group_IT_number 13
_symmetry_cell_setting 'monoclinic'
loop_
_space_group_symop_operation_xyz
x,y,z
-x,y,1/2-z
-x,-y,-z
x,-y,1/2+z
loop_
_atom_site_type_symbol
_atom_site_label
_atom_site_fract_x
_atom_site_fract_y
_atom_site_fract_z
Si Si1 0.500000 0.788511 0.250000
Si Si2 0.327548 0.865419 0.532548
Si Si3 0.740568 0.363382 0.328539
Si Si4 0.500000 0.722096 0.750000
Si Si5 0.000000 0.906086 0.250000
Si Si6 0.157330 0.966417 0.845853
Si Si7 0.625633 0.689546 0.365096
O O1 0.698085 0.887148 0.165713
O O2 0.598509 0.686220 0.287981
O O3 0.315102 0.775769 0.607974
O O4 0.403130 0.748510 0.455828
O O5 0.500000 0.000000 0.500000
O O6 0.091075 0.941501 0.563942
O O7 0.594015 0.370511 0.292691
O O8 0.685647 0.523003 0.378254
O O9 0.000000 0.355252 0.250000
O O10 0.299531 0.819813 0.829868
O O11 0.138384 0.016612 0.267098
O O12 0.168222 0.802224 0.165227
#
# Coordination Sequence:
#
# PCOD8117564 Si02
#       7
#     2   4   4   2   2   4   4
#     4   9  23  40  68  98 132 180 234 272 336 402
#     4  12  25  41  68 103 136 174 225 286 339 387
#     4  12  25  46  71  96 138 181 222 273 339 411
#     4  11  23  42  72  96 128 180 236 262 328 412
#     4  10  18  38  68  94 128 184 216 268 336 396
#     4  10  20  38  64 100 133 168 228 281 324 391
#     4  11  23  43  66  98 135 177 223 273 340 399
#
# _framework density 21.546721000000002
#
# number of rings (size 3 to 8) (size 9 to 14) (size 15 to 20)
#    0.000    1.091    4.545    2.182    5.091    0.727 
#    0.000    0.909    0.000    0.000    0.000    0.000 
#    0.000    0.000    0.000    0.000    0.000    0.000 
#
# Total GULP energy -272681.901129 kJ/mol
# GULP energy per Si atom -12394.631870 kJ/mol
# Density = 2.149768 g / cm^3
# Si number density = 21.546721 Si / 1000 Ang^3
#
#
#
# Elastic Constant Matrix: (Units=GPa)
#
#
# Indices 1 2 3 4 5 6 
#
# 1 100.8081 28.2943 34.2830 0.0000 -17.0947 0.0000
# 2 28.2943 105.1486 54.5605 0.0000 -14.7897 0.0000
# 3 34.2830 54.5605 106.7621 0.0000 -28.2886 0.0000
# 4 0.0000 0.0000 0.0000 31.9402 0.0000 0.0942
# 5 -17.0947 -14.7897 -28.2886 0.0000 42.7216 0.0000
# 6 0.0000 0.0000 0.0000 0.0942 0.0000 -8.0876
#
#
#
# Elastic Compliance Matrix: (Units=1/GPa)
#
#
# Indices 1 2 3 4 5 6 
#
# 1 0.011561 -0.001601 -0.002202 0.000000 0.002614 0.000000
# 2 -0.001601 0.013165 -0.006277 0.000000 -0.000240 0.000000
# 3 -0.002202 -0.006277 0.015126 0.000000 0.006962 0.000000
# 4 0.000000 0.000000 0.000000 0.031307 0.000000 0.000365
# 5 0.002614 -0.000240 0.006962 0.000000 0.028980 0.000000
# 6 0.000000 0.000000 0.000000 0.000365 0.000000 -0.123642
#
#
# Mechanical properties :
#
#
# Convention : Reuss Voigt Hill
#
# Bulk Modulus (GPa) = 50.78072 60.77716 55.77894
# Shear Modulus (GPa) = 1552.02682 26.35358 789.19020
#
# Velocity S-wave (km/s) = 26.86766 3.50106 19.15893
# Velocity P-wave (km/s) = 31.40245 6.67920 22.70160
#
# Compressibility (1/GPa) = 0.01969251
#
# Stress axis : x y z
#
# Youngs Moduli (GPa) = 86.49620 75.96143 66.11023
#
# Poissons Ratio (x) = 0.12160 0.14556
# Poissons Ratio (y) = 0.13847 0.41498
# Poissons Ratio (z) = 0.19044 0.47682
#
# Static dielectric constant tensor:
#      x y z
#    x 4.031180 0.000000 -0.251420 
#    y 0.000000 3.947910 0.000000 
#    z -0.251420 0.000000 3.807860 
# 
# 
# High freq. dielectric constant tensor:
#      x y z
#    x 1.848950 0.000000 -0.018040 
#    y 0.000000 1.851770 0.000000 
#    z -0.018040 0.000000 1.828940 
# 
# From -- ./inp_files/45781.got.cif
#   From: 2010.06.25/outbox.cif.g09.slc.cpg/sg13_23_cif.got.tgz:45781.got - 2010.06.28 04:50:58.
