data_PCOD8117415
_publ_section_title
;
Structure prediction by ZEFSAII (Michael W. Deem and Ramdas Pophale) SiO2 
 PCOD8117415
Probable space group: P 2/C
;
_chemical_formula_sum "Si O2"
_cell_formula_units_Z 30
_cell_length_a 13.079952
_cell_length_b 6.411891
_cell_length_c 17.540296
_cell_angle_alpha 90.000000
_cell_angle_beta 82.188977
_cell_angle_gamma 90.000000
_cell_volume 1457.407097
_symmetry_space_group_name_H-M "P 2/C"
_symmetry_group_IT_number 13
_symmetry_cell_setting 'monoclinic'
loop_
_space_group_symop_operation_xyz
x,y,z
-x,y,1/2-z
-x,-y,-z
x,-y,1/2+z
loop_
_atom_site_type_symbol
_atom_site_label
_atom_site_fract_x
_atom_site_fract_y
_atom_site_fract_z
Si Si1 0.933975 0.425677 0.863507
Si Si2 0.880456 0.741061 0.669640
Si Si3 0.738665 0.361474 0.311461
Si Si4 0.177478 0.690829 0.988982
Si Si5 0.000000 0.924640 0.250000
Si Si6 0.642315 0.614807 0.032615
Si Si7 0.687803 0.995474 0.930104
Si Si8 0.569645 0.375001 0.892797
O O1 0.829182 0.537359 0.851093
O O2 0.035062 0.558466 0.833639
O O3 0.938389 0.209808 0.817775
O O4 0.923748 0.393589 0.955993
O O5 0.774465 0.665793 0.720450
O O6 0.858456 0.805061 0.584614
O O7 0.917930 0.940512 0.711934
O O8 0.722950 0.140357 0.354402
O O9 0.637015 0.511555 0.319748
O O10 0.251849 0.499999 0.954025
O O11 0.226276 0.849429 0.045060
O O12 0.554549 0.606845 0.108350
O O13 0.657057 0.854510 0.005881
O O14 0.598497 0.495785 0.965397
O O15 0.594784 0.131662 0.904024
#
# Coordination Sequence:
#
# PCOD8117415 Si02
#       8
#     4   4   4   4   2   4   4   4
#     4  12  22  43  61  86 119 156 198 249 291 357
#     4  12  26  40  60  88 118 160 198 248 296 357
#     4  11  20  40  62  86 119 156 200 242 295 352
#     4  11  24  39  60  89 125 154 194 246 306 344
#     4  12  24  40  66  82 118 154 214 238 296 352
#     4   9  18  35  58  89 123 151 191 246 291 345
#     4  10  18  35  63  88 122 150 204 243 290 351
#     4   9  18  32  62  91 114 155 200 237 287 347
#
# _framework density 20.584502000000001
#
# number of rings (size 3 to 8) (size 9 to 14) (size 15 to 20)
#    0.000    1.333    6.667    1.600    0.000    2.667 
#    0.000    0.667    0.000    0.000    0.000    0.000 
#    0.000    0.000    0.000    0.000    0.000    0.000 
#
# Total GULP energy -371785.743628 kJ/mol
# GULP energy per Si atom -12392.858121 kJ/mol
# Density = 2.053765 g / cm^3
# Si number density = 20.584502 Si / 1000 Ang^3
#
#
#
# Elastic Constant Matrix: (Units=GPa)
#
#
# Indices 1 2 3 4 5 6 
#
# 1 68.7354 46.3830 65.0562 0.0000 -35.8665 0.0000
# 2 46.3830 133.4801 70.4318 0.0000 -32.2261 0.0000
# 3 65.0562 70.4318 192.6575 0.0000 -54.0918 0.0000
# 4 0.0000 0.0000 0.0000 75.9812 0.0000 -39.0121
# 5 -35.8665 -32.2261 -54.0918 0.0000 52.1288 0.0000
# 6 0.0000 0.0000 0.0000 -39.0121 0.0000 29.7456
#
#
#
# Elastic Compliance Matrix: (Units=1/GPa)
#
#
# Indices 1 2 3 4 5 6 
#
# 1 0.028013 -0.004510 -0.004490 0.000000 0.011827 0.000000
# 2 -0.004510 0.010385 -0.001894 0.000000 0.001352 0.000000
# 3 -0.004490 -0.001894 0.008753 0.000000 0.004823 0.000000
# 4 0.000000 0.000000 0.000000 0.040297 0.000000 0.052851
# 5 0.011827 0.001352 0.004823 0.000000 0.033160 0.000000
# 6 0.000000 0.000000 0.000000 0.052851 0.000000 0.102934
#
#
# Mechanical properties :
#
#
# Convention : Reuss Voigt Hill
#
# Bulk Modulus (GPa) = 39.42775 84.29055 61.85915
# Shear Modulus (GPa) = 19.70188 45.77123 32.73655
#
# Velocity S-wave (km/s) = 3.09709 4.72060 3.99225
# Velocity P-wave (km/s) = 5.65553 8.41127 7.16710
#
# Compressibility (1/GPa) = 0.02536285
#
# Stress axis : x y z
#
# Youngs Moduli (GPa) = 35.69818 96.29707 114.24343
#
# Poissons Ratio (x) = 0.43426 0.51296
# Poissons Ratio (y) = 0.16098 0.21639
# Poissons Ratio (z) = 0.16029 0.18240
#
# Static dielectric constant tensor:
#      x y z
#    x 4.057490 0.000000 -0.722110 
#    y 0.000000 4.459610 0.000000 
#    z -0.722110 0.000000 4.020520 
# 
# 
# High freq. dielectric constant tensor:
#      x y z
#    x 1.786240 0.000000 -0.035590 
#    y 0.000000 1.812490 0.000000 
#    z -0.035590 0.000000 1.795960 
# 
# From -- ./inp_files/67546.got.cif
#   From: 2010.06.25/outbox.cif.g09.slc.cpg/sg13_34_cif.got.tgz:67546.got - 2010.06.28 04:50:58.
