data_PCOD8117166
_publ_section_title
;
Structure prediction by ZEFSAII (Michael W. Deem and Ramdas Pophale) SiO2 
 PCOD8117166
Probable space group: P 2/C
;
_chemical_formula_sum "Si O2"
_cell_formula_units_Z 26
_cell_length_a 11.001267
_cell_length_b 9.066119
_cell_length_c 23.561650
_cell_angle_alpha 90.000000
_cell_angle_beta 34.041385
_cell_angle_gamma 90.000000
_cell_volume 1315.516134
_symmetry_space_group_name_H-M "P 2/C"
_symmetry_group_IT_number 13
_symmetry_cell_setting 'monoclinic'
loop_
_space_group_symop_operation_xyz
x,y,z
-x,y,1/2-z
-x,-y,-z
x,-y,1/2+z
loop_
_atom_site_type_symbol
_atom_site_label
_atom_site_fract_x
_atom_site_fract_y
_atom_site_fract_z
Si Si1 0.944617 0.959724 0.613440
Si Si2 0.992549 0.724522 0.817609
Si Si3 0.500000 0.091379 0.750000
Si Si4 0.672784 0.553972 0.011663
Si Si5 0.817511 0.567455 0.272382
Si Si6 0.178818 0.261833 0.943179
Si Si7 0.960677 0.285727 0.912215
O O1 0.957107 0.867620 0.665884
O O2 0.037311 0.870829 0.524215
O O3 0.692397 0.991607 0.700058
O O4 0.083686 0.109935 0.569243
O O5 0.171283 0.596731 0.759068
O O6 0.000000 0.776941 0.750000
O O7 0.762114 0.648922 0.923868
O O8 0.409643 0.194735 0.835166
O O9 0.417565 0.582877 0.108569
O O10 0.782525 0.610402 0.026884
O O11 0.744710 0.381262 0.980701
O O12 0.000000 0.585945 0.250000
O O13 0.857267 0.684423 0.206714
O O14 0.055613 0.331552 0.936824
#
# Coordination Sequence:
#
# PCOD8117166 Si02
#       7
#     4   4   2   4   4   4   4
#     4  10  21  36  54  83 114 144 182 220 268 328
#     4   9  21  38  56  78 109 143 181 228 270 319
#     4  10  18  32  56  78 114 150 174 220 272 320
#     4  10  20  37  59  81 109 143 180 230 276 315
#     4  10  22  38  57  81 108 143 187 228 271 322
#     4  10  20  36  55  83 116 144 179 223 273 325
#     4  10  20  35  58  84 110 143 182 223 268 329
#
# _framework density 19.764106000000002
#
# number of rings (size 3 to 8) (size 9 to 14) (size 15 to 20)
#    0.000    2.154    0.000    4.154    0.000    8.615 
#    0.000    0.000    0.000    9.231    0.000    0.000 
#    0.000    0.000    0.000    0.000    0.000    0.000 
#
# Total GULP energy -322277.084118 kJ/mol
# GULP energy per Si atom -12395.272466 kJ/mol
# Density = 1.971912 g / cm^3
# Si number density = 19.764106 Si / 1000 Ang^3
#
#
#
# Elastic Constant Matrix: (Units=GPa)
#
#
# Indices 1 2 3 4 5 6 
#
# 1 92.5447 41.5873 43.1114 0.0000 14.9396 0.0000
# 2 41.5873 93.8386 30.8118 0.0000 0.5726 0.0000
# 3 43.1114 30.8118 136.3683 0.0000 6.1564 0.0000
# 4 0.0000 0.0000 0.0000 28.6140 0.0000 9.3995
# 5 14.9396 0.5726 6.1564 0.0000 31.2847 0.0000
# 6 0.0000 0.0000 0.0000 9.3995 0.0000 10.4995
#
#
#
# Elastic Compliance Matrix: (Units=1/GPa)
#
#
# Indices 1 2 3 4 5 6 
#
# 1 0.016249 -0.006022 -0.003462 0.000000 -0.006968 0.000000
# 2 -0.006022 0.013745 -0.001332 0.000000 0.002886 0.000000
# 3 -0.003462 -0.001332 0.008730 0.000000 -0.000040 0.000000
# 4 0.000000 0.000000 0.000000 0.049507 0.000000 -0.044320
# 5 -0.006968 0.002886 -0.000040 0.000000 0.035247 0.000000
# 6 0.000000 0.000000 0.000000 -0.044320 0.000000 0.134919
#
#
# Mechanical properties :
#
#
# Convention : Reuss Voigt Hill
#
# Bulk Modulus (GPa) = 58.50443 61.53028 60.01735
# Shear Modulus (GPa) = 17.49917 27.89573 22.69745
#
# Velocity S-wave (km/s) = 2.97880 3.76098 3.39251
# Velocity P-wave (km/s) = 6.44179 7.07530 6.76596
#
# Compressibility (1/GPa) = 0.01709272
#
# Stress axis : x y z
#
# Youngs Moduli (GPa) = 61.54099 72.75217 114.54349
#
# Poissons Ratio (x) = 0.43813 0.39653
# Poissons Ratio (y) = 0.37061 0.15259
# Poissons Ratio (z) = 0.21304 0.09692
#
# Static dielectric constant tensor:
#      x y z
#    x 3.403180 0.000000 0.292070 
#    y 0.000000 3.583410 0.000000 
#    z 0.292070 0.000000 3.787510 
# 
# 
# High freq. dielectric constant tensor:
#      x y z
#    x 1.763040 0.000000 0.023020 
#    y 0.000000 1.767730 0.000000 
#    z 0.023020 0.000000 1.779790 
# 
# From -- ./inp_files/92210.got.cif
#   From: 2010.06.25/outbox.cif.g09.slc.cpg/sg13_47_cif.got.tgz:92210.got - 2010.06.28 04:50:58.
