data_PCOD8117143
_publ_section_title
;
Structure prediction by ZEFSAII (Michael W. Deem and Ramdas Pophale) SiO2 
 PCOD8117143
Probable space group: P 2/C
;
_chemical_formula_sum "Si O2"
_cell_formula_units_Z 32
_cell_length_a 8.240077
_cell_length_b 15.200590
_cell_length_c 26.986799
_cell_angle_alpha 90.000000
_cell_angle_beta 149.844791
_cell_angle_gamma 90.000000
_cell_volume 1698.026388
_symmetry_space_group_name_H-M "P 2/C"
_symmetry_group_IT_number 13
_symmetry_cell_setting 'monoclinic'
loop_
_space_group_symop_operation_xyz
x,y,z
-x,y,1/2-z
-x,-y,-z
x,-y,1/2+z
loop_
_atom_site_type_symbol
_atom_site_label
_atom_site_fract_x
_atom_site_fract_y
_atom_site_fract_z
Si Si1 0.233045 0.488269 0.638846
Si Si2 0.314302 0.147435 0.009664
Si Si3 0.710104 0.919155 0.705631
Si Si4 0.307737 0.581402 0.803735
Si Si5 0.927335 0.845212 0.609333
Si Si6 0.312787 0.345246 0.010286
Si Si7 0.873554 0.997073 0.911407
Si Si8 0.071367 0.645583 0.888365
O O1 0.500000 0.465101 0.750000
O O2 0.432926 0.505359 0.641078
O O3 0.998047 0.406522 0.571032
O O4 0.019852 0.575267 0.593718
O O5 0.472656 0.132195 0.105563
O O6 0.567275 0.130523 0.032229
O O7 0.183516 0.246338 0.971127
O O8 0.009183 0.082926 0.919169
O O9 0.516911 0.994841 0.685560
O O10 0.000000 0.962575 0.750000
O O11 0.842486 0.852270 0.781806
O O12 0.481900 0.651075 0.885099
O O13 0.000000 0.536879 0.750000
O O14 0.188806 0.634090 0.724259
O O15 0.955774 0.744750 0.597860
O O16 0.016261 0.908781 0.587729
O O17 0.559034 0.371790 0.031138
O O18 0.000000 0.000000 0.000000
#
# Coordination Sequence:
#
# PCOD8117143 Si02
#       8
#     4   4   4   4   4   4   4   4
#     4  10  20  32  48  72 104 139 172 209 249 304
#     4   9  19  33  51  74 101 129 165 209 252 304
#     4   9  18  32  51  74  98 125 161 210 263 302
#     4   9  18  32  51  76 102 129 168 218 267 306
#     4  10  18  32  53  76  99 127 162 210 266 308
#     4  10  18  33  53  73 101 137 169 206 256 309
#     4  10  20  32  48  72 102 132 160 197 245 306
#     4   9  19  32  52  79 102 124 164 219 267 307
#
# _framework density 18.845407999999999
#
# number of rings (size 3 to 8) (size 9 to 14) (size 15 to 20)
#    0.000    2.500    0.000    2.250    0.000    8.000 
#    0.000    1.250    0.000    0.750    0.000    0.000 
#    0.000    0.000    0.000    0.000    0.000    0.000 
#
# Total GULP energy -396556.509631 kJ/mol
# GULP energy per Si atom -12392.390926 kJ/mol
# Density = 1.880252 g / cm^3
# Si number density = 18.845408 Si / 1000 Ang^3
#
#
#
# Elastic Constant Matrix: (Units=GPa)
#
#
# Indices 1 2 3 4 5 6 
#
# 1 112.9985 65.8688 33.4385 0.0000 24.0339 0.0000
# 2 65.8688 123.9204 49.1868 0.0000 29.9703 0.0000
# 3 33.4385 49.1868 46.3376 0.0000 24.4458 0.0000
# 4 0.0000 0.0000 0.0000 24.5663 0.0000 4.4764
# 5 24.0339 29.9703 24.4458 0.0000 34.5253 0.0000
# 6 0.0000 0.0000 0.0000 4.4764 0.0000 22.4987
#
#
#
# Elastic Compliance Matrix: (Units=1/GPa)
#
#
# Indices 1 2 3 4 5 6 
#
# 1 0.013338 -0.005486 -0.002260 0.000000 -0.002923 0.000000
# 2 -0.005486 0.016348 -0.012647 0.000000 -0.001418 0.000000
# 3 -0.002260 -0.012647 0.047911 0.000000 -0.021372 0.000000
# 4 0.000000 0.000000 0.000000 0.042237 0.000000 -0.008404
# 5 -0.002923 -0.001418 -0.021372 0.000000 0.047362 0.000000
# 6 0.000000 0.000000 0.000000 -0.008404 0.000000 0.046119
#
#
# Mechanical properties :
#
#
# Convention : Reuss Voigt Hill
#
# Bulk Modulus (GPa) = 27.16498 64.47161 45.81830
# Shear Modulus (GPa) = 18.77074 25.30222 22.03648
#
# Velocity S-wave (km/s) = 3.15943 3.66815 3.42326
# Velocity P-wave (km/s) = 5.26833 7.22672 6.32380
#
# Compressibility (1/GPa) = 0.03681210
#
# Stress axis : x y z
#
# Youngs Moduli (GPa) = 74.97495 61.16836 20.87195
#
# Poissons Ratio (x) = 0.33555 0.04717
# Poissons Ratio (y) = 0.41129 0.26396
# Poissons Ratio (z) = 0.16946 0.77358
#
# Static dielectric constant tensor:
#      x y z
#    x 3.876500 0.000000 0.405550 
#    y 0.000000 3.327650 0.000000 
#    z 0.405550 0.000000 3.490500 
# 
# 
# High freq. dielectric constant tensor:
#      x y z
#    x 1.747720 0.000000 0.017690 
#    y 0.000000 1.707460 0.000000 
#    z 0.017690 0.000000 1.713150 
# 
# From -- ./inp_files/96180.got.cif
#   From: 2010.06.25/outbox.cif.g09.slc.cpg/sg13_49_cif.got.tgz:96180.got - 2010.06.28 04:50:58.
