data_PCOD8117648
_publ_section_title
;
Structure prediction by ZEFSAII (Michael W. Deem and Ramdas Pophale) SiO2 
 PCOD8117648
Probable space group: P 2/C
;
_chemical_formula_sum "Si O2"
_cell_formula_units_Z 28
_cell_length_a 23.171796
_cell_length_b 13.085357
_cell_length_c 23.974461
_cell_angle_alpha 90.000000
_cell_angle_beta 11.846055
_cell_angle_gamma 90.000000
_cell_volume 1492.267598
_symmetry_space_group_name_H-M "P 2/C"
_symmetry_group_IT_number 13
_symmetry_cell_setting 'monoclinic'
loop_
_space_group_symop_operation_xyz
x,y,z
-x,y,1/2-z
-x,-y,-z
x,-y,1/2+z
loop_
_atom_site_type_symbol
_atom_site_label
_atom_site_fract_x
_atom_site_fract_y
_atom_site_fract_z
Si Si1 0.492520 0.687397 0.538300
Si Si2 0.368842 0.547352 0.747831
Si Si3 0.904368 0.376388 0.562770
Si Si4 0.394024 0.894310 0.576281
Si Si5 0.193023 0.260475 0.017576
Si Si6 0.970722 0.517367 0.713999
Si Si7 0.202287 0.827396 0.393600
O O1 0.454237 0.657219 0.639953
O O2 0.784558 0.640660 0.238902
O O3 0.490598 0.809066 0.530246
O O4 0.239614 0.635114 0.742765
O O5 0.189925 0.486978 0.869825
O O6 0.649465 0.487247 0.498720
O O7 0.169979 0.558867 0.989906
O O8 0.774626 0.290472 0.645796
O O9 0.523919 0.880250 0.391618
O O10 0.500000 0.000000 0.500000
O O11 0.060184 0.888835 0.883967
O O12 0.500000 0.285487 0.750000
O O13 0.204407 0.173258 0.958943
O O14 0.000000 0.216895 0.250000
O O15 0.063818 0.365761 0.116184
O O16 0.000000 0.482625 0.750000
#
# Coordination Sequence:
#
# PCOD8117648 Si02
#       7
#     4   4   4   4   4   4   4
#     4  10  21  33  50  77 102 136 176 213 258 322
#     4  12  20  33  51  71 107 143 178 213 257 302
#     4  10  19  31  48  74 108 136 171 206 257 308
#     4  10  21  37  56  79 107 134 177 222 275 331
#     4  11  21  34  52  77 111 144 181 212 252 312
#     4  11  23  33  49  73 106 146 186 211 251 305
#     4  10  20  33  55  78 107 142 171 212 270 319
#
# _framework density 18.763390000000001
#
# number of rings (size 3 to 8) (size 9 to 14) (size 15 to 20)
#    0.000    1.429    1.429    6.000    4.000    0.000 
#    0.000    0.000    0.000    0.000    0.000   10.000 
#    0.000    0.000    0.000    0.000    0.000    0.000 
#
# Total GULP energy -347175.530641 kJ/mol
# GULP energy per Si atom -12399.126094 kJ/mol
# Density = 1.872068 g / cm^3
# Si number density = 18.763390 Si / 1000 Ang^3
#
#
#
# Elastic Constant Matrix: (Units=GPa)
#
#
# Indices 1 2 3 4 5 6 
#
# 1 75.9230 34.2715 16.2837 0.0000 28.5258 0.0000
# 2 34.2715 82.6127 17.4024 0.0000 8.1453 0.0000
# 3 16.2837 17.4024 89.1703 0.0000 17.3120 0.0000
# 4 0.0000 0.0000 0.0000 19.3301 0.0000 2.3315
# 5 28.5258 8.1453 17.3120 0.0000 41.1559 0.0000
# 6 0.0000 0.0000 0.0000 2.3315 0.0000 13.6624
#
#
#
# Elastic Compliance Matrix: (Units=1/GPa)
#
#
# Indices 1 2 3 4 5 6 
#
# 1 0.021725 -0.007709 0.000179 0.000000 -0.013608 0.000000
# 2 -0.007709 0.015455 -0.002234 0.000000 0.003224 0.000000
# 3 0.000179 -0.002234 0.012584 0.000000 -0.004975 0.000000
# 4 0.000000 0.000000 0.000000 0.052820 0.000000 -0.009014
# 5 -0.013608 0.003224 -0.004975 0.000000 0.035184 0.000000
# 6 0.000000 0.000000 0.000000 -0.009014 0.000000 0.074732
#
#
# Mechanical properties :
#
#
# Convention : Reuss Voigt Hill
#
# Bulk Modulus (GPa) = 33.07306 42.62459 37.84883
# Shear Modulus (GPa) = 20.65199 26.81290 23.73244
#
# Velocity S-wave (km/s) = 3.32121 3.78431 3.56030
# Velocity P-wave (km/s) = 5.68963 6.47000 6.09232
#
# Compressibility (1/GPa) = 0.03023609
#
# Stress axis : x y z
#
# Youngs Moduli (GPa) = 46.02939 64.70237 79.46731
#
# Poissons Ratio (x) = 0.49877 -0.01422
# Poissons Ratio (y) = 0.35482 0.17757
# Poissons Ratio (z) = -0.00824 0.14458
#
# Static dielectric constant tensor:
#      x y z
#    x 3.469200 0.000000 0.229290 
#    y 0.000000 3.118840 0.000000 
#    z 0.229290 0.000000 3.829030 
# 
# 
# High freq. dielectric constant tensor:
#      x y z
#    x 1.717900 0.000000 0.008220 
#    y 0.000000 1.674590 0.000000 
#    z 0.008220 0.000000 1.761100 
# 
# From -- ./inp_files/93880.got.cif
#   From: 2010.06.25/outbox.cif.g09.slc.cpg/sg13_47_cif.got.tgz:93880.got - 2010.06.28 04:50:58.
