data_PCOD8117806
_publ_section_title
;
Structure prediction by ZEFSAII (Michael W. Deem and Ramdas Pophale) SiO2 
 PCOD8117806
Probable space group: P 2/C
;
_chemical_formula_sum "Si O2"
_cell_formula_units_Z 24
_cell_length_a 7.899982
_cell_length_b 9.241401
_cell_length_c 20.440648
_cell_angle_alpha 90.000000
_cell_angle_beta 60.668583
_cell_angle_gamma 90.000000
_cell_volume 1300.995634
_symmetry_space_group_name_H-M "P 2/C"
_symmetry_group_IT_number 13
_symmetry_cell_setting 'monoclinic'
loop_
_space_group_symop_operation_xyz
x,y,z
-x,y,1/2-z
-x,-y,-z
x,-y,1/2+z
loop_
_atom_site_type_symbol
_atom_site_label
_atom_site_fract_x
_atom_site_fract_y
_atom_site_fract_z
Si Si1 0.370041 0.769548 0.215156
Si Si2 0.976065 0.733204 0.132390
Si Si3 0.299218 0.667482 0.429479
Si Si4 0.321697 0.591357 0.006455
Si Si5 0.582543 0.155685 0.467367
Si Si6 0.843205 0.007003 0.830398
O O1 0.500000 0.831919 0.250000
O O2 0.175178 0.691208 0.280553
O O3 0.497726 0.656574 0.149062
O O4 0.319010 0.901671 0.177451
O O5 0.869210 0.737242 0.082689
O O6 0.058662 0.891965 0.132757
O O7 0.152618 0.617610 0.092933
O O8 0.240427 0.502867 0.460955
O O9 0.321941 0.769518 0.487935
O O10 0.408244 0.747568 0.969645
O O11 0.500000 0.500000 0.000000
O O12 0.500000 0.000000 0.500000
O O13 0.748575 0.133545 0.381494
O O14 0.000000 0.946329 0.750000
#
# Coordination Sequence:
#
# PCOD8117806 Si02
#       6
#     4   4   4   4   4   4
#     4   9  18  33  55  80 105 141 182 225 267 332
#     4  10  19  33  56  80 107 143 186 226 265 335
#     4  10  20  34  55  84 108 140 185 226 277 325
#     4  10  20  35  52  76 106 143 178 225 270 321
#     4  11  19  35  55  78 111 142 179 223 277 319
#     4  10  19  34  53  80 109 141 183 223 275 325
#
# _framework density 18.447410999999999
#
# number of rings (size 3 to 8) (size 9 to 14) (size 15 to 20)
#    0.000    2.000    3.333    1.500    0.000    0.667 
#    0.000    3.333    0.000    3.000    0.000    0.000 
#    0.000    0.000    0.000    0.000    0.000    0.000 
#
# Total GULP energy -297402.928726 kJ/mol
# GULP energy per Si atom -12391.788697 kJ/mol
# Density = 1.840542 g / cm^3
# Si number density = 18.447411 Si / 1000 Ang^3
#
#
#
# Elastic Constant Matrix: (Units=GPa)
#
#
# Indices 1 2 3 4 5 6 
#
# 1 94.0177 36.5916 52.1111 0.0000 -1.2175 0.0000
# 2 36.5916 99.3501 59.8596 0.0000 -3.2569 0.0000
# 3 52.1111 59.8596 139.3574 0.0000 -19.6930 0.0000
# 4 0.0000 0.0000 0.0000 31.9616 0.0000 -2.6064
# 5 -1.2175 -3.2569 -19.6930 0.0000 39.5797 0.0000
# 6 0.0000 0.0000 0.0000 -2.6064 0.0000 15.4196
#
#
#
# Elastic Compliance Matrix: (Units=1/GPa)
#
#
# Indices 1 2 3 4 5 6 
#
# 1 0.014072 -0.002575 -0.004437 0.000000 -0.001987 0.000000
# 2 -0.002575 0.014188 -0.005354 0.000000 -0.001576 0.000000
# 3 -0.004437 -0.005354 0.011889 0.000000 0.005338 0.000000
# 4 0.000000 0.000000 0.000000 0.031725 0.000000 0.005363
# 5 -0.001987 -0.001576 0.005338 0.000000 0.027731 0.000000
# 6 0.000000 0.000000 0.000000 0.005363 0.000000 0.065759
#
#
# Mechanical properties :
#
#
# Convention : Reuss Voigt Hill
#
# Bulk Modulus (GPa) = 64.86110 69.98332 67.42221
# Shear Modulus (GPa) = 25.61028 29.66970 27.63999
#
# Velocity S-wave (km/s) = 3.73001 4.01476 3.87500
# Velocity P-wave (km/s) = 7.33396 7.71428 7.52652
#
# Compressibility (1/GPa) = 0.01541756
#
# Stress axis : x y z
#
# Youngs Moduli (GPa) = 71.06406 70.48197 84.11054
#
# Poissons Ratio (x) = 0.18147 0.37318
# Poissons Ratio (y) = 0.18297 0.45035
# Poissons Ratio (z) = 0.31530 0.37738
#
# Static dielectric constant tensor:
#      x y z
#    x 3.717330 0.000000 -0.165660 
#    y 0.000000 3.678450 0.000000 
#    z -0.165660 0.000000 3.847960 
# 
# 
# High freq. dielectric constant tensor:
#      x y z
#    x 1.725690 0.000000 -0.012160 
#    y 0.000000 1.677920 0.000000 
#    z -0.012160 0.000000 1.726260 
# 
# From -- ./inp_files/69427.got.cif
#   From: 2010.06.25/outbox.cif.g09.slc.cpg/sg13_35_cif.got.tgz:69427.got - 2010.06.28 04:50:58.
