data_PCOD8117871
_publ_section_title
;
Structure prediction by ZEFSAII (Michael W. Deem and Ramdas Pophale) SiO2 
 PCOD8117871
Probable space group: P 2/C
;
_chemical_formula_sum "Si O2"
_cell_formula_units_Z 24
_cell_length_a 23.149046
_cell_length_b 6.957920
_cell_length_c 17.834841
_cell_angle_alpha 90.000000
_cell_angle_beta 154.202300
_cell_angle_gamma 90.000000
_cell_volume 1250.160077
_symmetry_space_group_name_H-M "P 2/C"
_symmetry_group_IT_number 13
_symmetry_cell_setting 'monoclinic'
loop_
_space_group_symop_operation_xyz
x,y,z
-x,y,1/2-z
-x,-y,-z
x,-y,1/2+z
loop_
_atom_site_type_symbol
_atom_site_label
_atom_site_fract_x
_atom_site_fract_y
_atom_site_fract_z
Si Si1 0.352440 0.291023 0.562234
Si Si2 0.182518 0.009884 0.639856
Si Si3 0.757482 0.300175 0.577496
Si Si4 0.016365 0.282069 0.541874
Si Si5 0.706771 0.024399 0.388346
Si Si6 0.595642 0.962527 0.988467
O O1 0.500000 0.368727 0.750000
O O2 0.255027 0.470213 0.439326
O O3 0.294671 0.164453 0.562332
O O4 0.358575 0.163386 0.494682
O O5 0.191478 0.008328 0.560613
O O6 0.127060 0.806573 0.605859
O O7 0.079920 0.175486 0.544405
O O8 0.328753 0.052332 0.844173
O O9 0.892933 0.250224 0.778798
O O10 0.758072 0.209202 0.494960
O O11 0.633792 0.211931 0.478087
O O12 0.000000 0.500000 0.500000
O O13 0.561026 0.058691 0.183143
#
# Coordination Sequence:
#
# PCOD8117871 Si02
#       6
#     4   4   4   4   4   4
#     4   9  17  31  52  79 108 136 168 210 265 321
#     4  10  21  37  55  77 105 137 178 222 263 314
#     4  10  19  34  55  78 107 141 176 213 257 314
#     4  10  22  39  56  73 101 146 187 215 254 311
#     4  10  20  33  54  84 109 132 169 222 276 315
#     4   9  18  34  56  79 106 139 172 212 266 323
#
# _framework density 19.197541000000001
#
# number of rings (size 3 to 8) (size 9 to 14) (size 15 to 20)
#    0.000    2.333    0.000    4.000    0.000    3.333 
#    0.000    0.000    0.000   11.000    0.000    0.000 
#    0.000    0.000    0.000    0.000    0.000    0.000 
#
# Total GULP energy -297626.235736 kJ/mol
# GULP energy per Si atom -12401.093156 kJ/mol
# Density = 1.915385 g / cm^3
# Si number density = 19.197541 Si / 1000 Ang^3
#
#
#
# Elastic Constant Matrix: (Units=GPa)
#
#
# Indices 1 2 3 4 5 6 
#
# 1 112.9120 30.4131 23.6548 0.0000 -7.5084 0.0000
# 2 30.4131 108.7836 12.4385 0.0000 0.0074 0.0000
# 3 23.6548 12.4385 52.7461 0.0000 2.7812 0.0000
# 4 0.0000 0.0000 0.0000 27.5806 0.0000 -1.5280
# 5 -7.5084 0.0074 2.7812 0.0000 21.3056 0.0000
# 6 0.0000 0.0000 0.0000 -1.5280 0.0000 10.1755
#
#
#
# Elastic Compliance Matrix: (Units=1/GPa)
#
#
# Indices 1 2 3 4 5 6 
#
# 1 0.010755 -0.002497 -0.004465 0.000000 0.004374 0.000000
# 2 -0.002497 0.010029 -0.001207 0.000000 -0.000726 0.000000
# 3 -0.004465 -0.001207 0.021477 0.000000 -0.004377 0.000000
# 4 0.000000 0.000000 0.000000 0.036562 0.000000 0.005490
# 5 0.004374 -0.000726 -0.004377 0.000000 0.049049 0.000000
# 6 0.000000 0.000000 0.000000 0.005490 0.000000 0.099100
#
#
# Mechanical properties :
#
#
# Convention : Reuss Voigt Hill
#
# Bulk Modulus (GPa) = 38.57615 45.27274 41.92444
# Shear Modulus (GPa) = 19.84524 25.67468 22.75996
#
# Velocity S-wave (km/s) = 3.21867 3.66101 3.44694
# Velocity P-wave (km/s) = 5.82675 6.44239 6.14229
#
# Compressibility (1/GPa) = 0.02592275
#
# Stress axis : x y z
#
# Youngs Moduli (GPa) = 92.97784 99.71462 46.56219
#
# Poissons Ratio (x) = 0.24895 0.20791
# Poissons Ratio (y) = 0.23213 0.05620
# Poissons Ratio (z) = 0.41517 0.12036
#
# Static dielectric constant tensor:
#      x y z
#    x 3.258750 0.000000 -0.075770 
#    y 0.000000 3.407350 0.000000 
#    z -0.075770 0.000000 3.689520 
# 
# 
# High freq. dielectric constant tensor:
#      x y z
#    x 1.728970 0.000000 -0.006360 
#    y 0.000000 1.743130 0.000000 
#    z -0.006360 0.000000 1.753990 
# 
# From -- ./inp_files/70949.got.cif
#   From: 2010.06.25/outbox.cif.g09.slc.cpg/sg13_36_cif.got.tgz:70949.got - 2010.06.28 04:50:58.
