data_PCOD8117248
_publ_section_title
;
Structure prediction by ZEFSAII (Michael W. Deem and Ramdas Pophale) SiO2 
 PCOD8117248
Probable space group: P 2/C
;
_chemical_formula_sum "Si O2"
_cell_formula_units_Z 24
_cell_length_a 8.991924
_cell_length_b 10.433661
_cell_length_c 19.826734
_cell_angle_alpha 90.000000
_cell_angle_beta 42.420951
_cell_angle_gamma 90.000000
_cell_volume 1254.784305
_symmetry_space_group_name_H-M "P 2/C"
_symmetry_group_IT_number 13
_symmetry_cell_setting 'monoclinic'
loop_
_space_group_symop_operation_xyz
x,y,z
-x,y,1/2-z
-x,-y,-z
x,-y,1/2+z
loop_
_atom_site_type_symbol
_atom_site_label
_atom_site_fract_x
_atom_site_fract_y
_atom_site_fract_z
Si Si1 0.082622 0.632871 0.501902
Si Si2 0.070039 0.119289 0.521521
Si Si3 0.546523 0.101417 0.313887
Si Si4 0.290257 0.356865 0.270270
Si Si5 0.152069 0.129676 0.763591
Si Si6 0.434697 0.623179 0.193603
O O1 0.345522 0.627265 0.426182
O O2 0.000000 0.500000 0.500000
O O3 0.040552 0.749106 0.465096
O O4 0.948401 0.652993 0.615235
O O5 0.330836 0.129601 0.429612
O O6 0.997654 0.096288 0.622113
O O7 0.000000 0.000000 0.500000
O O8 0.500000 0.078423 0.250000
O O9 0.697137 0.226949 0.277470
O O10 0.659735 0.976824 0.306746
O O11 0.500000 0.352625 0.250000
O O12 0.309912 0.488056 0.221337
O O13 0.267322 0.267002 0.728921
O O14 0.000000 0.127294 0.750000
O O15 0.500000 0.636756 0.250000
#
# Coordination Sequence:
#
# PCOD8117248 Si02
#       6
#     4   4   4   4   4   4
#     4  12  18  30  59  95 117 143 193 253 300 340
#     4  12  21  35  63  87 111 155 202 246 297 347
#     4  11  20  38  62  87 115 150 204 252 292 346
#     4  10  18  33  57  95 117 142 193 259 294 339
#     4  12  26  41  56  86 128 162 195 244 299 357
#     4  11  20  35  61  90 117 153 197 244 295 356
#
# _framework density 19.126792999999999
#
# number of rings (size 3 to 8) (size 9 to 14) (size 15 to 20)
#    0.000    0.667   10.000    1.500    0.000    0.667 
#    0.000    0.833    0.000    7.000    0.000    0.000 
#    0.000    0.000    0.000    0.000    0.000    0.000 
#
# Total GULP energy -297567.253949 kJ/mol
# GULP energy per Si atom -12398.635581 kJ/mol
# Density = 1.908326 g / cm^3
# Si number density = 19.126793 Si / 1000 Ang^3
#
#
#
# Elastic Constant Matrix: (Units=GPa)
#
#
# Indices 1 2 3 4 5 6 
#
# 1 63.6765 34.4133 19.5986 0.0000 2.4839 0.0000
# 2 34.4133 142.9595 6.5506 0.0000 5.2677 0.0000
# 3 19.5986 6.5506 137.5550 0.0000 -9.4124 0.0000
# 4 0.0000 0.0000 0.0000 34.1486 0.0000 -7.8436
# 5 2.4839 5.2677 -9.4124 0.0000 15.2323 0.0000
# 6 0.0000 0.0000 0.0000 -7.8436 0.0000 2.3042
#
#
#
# Elastic Compliance Matrix: (Units=1/GPa)
#
#
# Indices 1 2 3 4 5 6 
#
# 1 0.019013 -0.004331 -0.002728 0.000000 -0.003288 0.000000
# 2 -0.004331 0.008108 0.000091 0.000000 -0.002042 0.000000
# 3 -0.002728 0.000091 0.008022 0.000000 0.005370 0.000000
# 4 0.000000 0.000000 0.000000 0.134267 0.000000 0.457063
# 5 -0.003288 -0.002042 0.005370 0.000000 0.070210 0.000000
# 6 0.000000 0.000000 0.000000 0.457063 0.000000 1.989898
#
#
# Mechanical properties :
#
#
# Convention : Reuss Voigt Hill
#
# Bulk Modulus (GPa) = 47.15081 51.70177 49.42629
# Shear Modulus (GPa) = 2.22171 29.24558 15.73364
#
# Velocity S-wave (km/s) = 1.07893 3.91453 2.87121
# Velocity P-wave (km/s) = 5.12419 6.89356 6.07365
#
# Compressibility (1/GPa) = 0.02120854
#
# Stress axis : x y z
#
# Youngs Moduli (GPa) = 52.59667 123.32737 124.66408
#
# Poissons Ratio (x) = 0.53408 0.34004
# Poissons Ratio (y) = 0.22777 -0.01137
# Poissons Ratio (z) = 0.14347 -0.01124
#
# Static dielectric constant tensor:
#      x y z
#    x 2.895540 0.000000 -0.247740 
#    y 0.000000 4.169820 0.000000 
#    z -0.247740 0.000000 4.495750 
# 
# 
# High freq. dielectric constant tensor:
#      x y z
#    x 1.670260 0.000000 -0.024430 
#    y 0.000000 1.778930 0.000000 
#    z -0.024430 0.000000 1.765500 
# 
# From -- ./inp_files/76179.got.cif
#   From: 2010.06.25/outbox.cif.g09.slc.cpg/sg13_39_cif.got.tgz:76179.got - 2010.06.28 04:50:58.
