data_PCOD8117793
_publ_section_title
;
Structure prediction by ZEFSAII (Michael W. Deem and Ramdas Pophale) SiO2 
 PCOD8117793
Probable space group: P 2/C
;
_chemical_formula_sum "Si O2"
_cell_formula_units_Z 24
_cell_length_a 18.159971
_cell_length_b 9.478130
_cell_length_c 23.856409
_cell_angle_alpha 90.000000
_cell_angle_beta 161.495982
_cell_angle_gamma 90.000000
_cell_volume 1303.197810
_symmetry_space_group_name_H-M "P 2/C"
_symmetry_group_IT_number 13
_symmetry_cell_setting 'monoclinic'
loop_
_space_group_symop_operation_xyz
x,y,z
-x,y,1/2-z
-x,-y,-z
x,-y,1/2+z
loop_
_atom_site_type_symbol
_atom_site_label
_atom_site_fract_x
_atom_site_fract_y
_atom_site_fract_z
Si Si1 0.540743 0.907135 0.950765
Si Si2 0.309027 0.901516 0.565185
Si Si3 0.480719 0.584997 0.562848
Si Si4 0.132018 0.079441 0.235435
Si Si5 0.164881 0.390883 0.923986
Si Si6 0.853791 0.405053 0.253394
O O1 0.558221 0.936646 0.897010
O O2 0.601511 0.745550 0.011937
O O3 0.280677 0.944052 0.785432
O O4 0.732181 0.007702 0.115761
O O5 0.500000 0.881844 0.750000
O O6 0.162146 0.758255 0.452733
O O7 0.127598 0.018800 0.455470
O O8 0.424177 0.567936 0.588425
O O9 0.342664 0.465444 0.429659
O O10 0.754327 0.573560 0.745195
O O11 0.101422 0.243291 0.228268
O O12 0.000000 0.389095 0.750000
O O13 0.089574 0.507723 0.914953
#
# Coordination Sequence:
#
# PCOD8117793 Si02
#       6
#     4   4   4   4   4   4
#     4   9  19  35  55  76 101 132 168 209 252 302
#     4  11  22  35  51  71 103 142 172 201 246 306
#     4   8  15  28  46  72 101 123 151 198 254 295
#     4  10  19  33  55  80 102 128 167 214 256 294
#     4   9  17  32  52  71  94 128 168 205 243 297
#     4   9  16  27  49  76  99 120 156 211 255 287
#
# _framework density 18.416236999999999
#
# number of rings (size 3 to 8) (size 9 to 14) (size 15 to 20)
#    0.000    2.667    0.000    3.500    0.000    6.000 
#    0.000    0.833    0.000    9.000    0.000    0.000 
#    0.000    0.000    0.000    0.000    0.000    0.000 
#
# Total GULP energy -297314.527767 kJ/mol
# GULP energy per Si atom -12388.105324 kJ/mol
# Density = 1.837432 g / cm^3
# Si number density = 18.416237 Si / 1000 Ang^3
#
#
#
# Elastic Constant Matrix: (Units=GPa)
#
#
# Indices 1 2 3 4 5 6 
#
# 1 122.5023 56.4858 49.8739 0.0000 32.4478 0.0000
# 2 56.4858 116.4864 39.2084 0.0000 23.9640 0.0000
# 3 49.8739 39.2084 56.3949 0.0000 12.1127 0.0000
# 4 0.0000 0.0000 0.0000 14.6486 0.0000 14.5211
# 5 32.4478 23.9640 12.1127 0.0000 30.5179 0.0000
# 6 0.0000 0.0000 0.0000 14.5211 0.0000 26.3712
#
#
#
# Elastic Compliance Matrix: (Units=1/GPa)
#
#
# Indices 1 2 3 4 5 6 
#
# 1 0.016583 -0.001998 -0.010742 0.000000 -0.011799 0.000000
# 2 -0.001998 0.012652 -0.005850 0.000000 -0.005488 0.000000
# 3 -0.010742 -0.005850 0.030456 0.000000 0.003927 0.000000
# 4 0.000000 0.000000 0.000000 0.150315 0.000000 -0.082770
# 5 -0.011799 -0.005488 0.003927 0.000000 0.048064 0.000000
# 6 0.000000 0.000000 0.000000 -0.082770 0.000000 0.083497
#
#
# Mechanical properties :
#
#
# Convention : Reuss Voigt Hill
#
# Bulk Modulus (GPa) = 44.42506 65.16885 54.79696
# Shear Modulus (GPa) = 12.94495 24.29525 18.62010
#
# Velocity S-wave (km/s) = 2.65412 3.63606 3.18318
# Velocity P-wave (km/s) = 5.79376 7.28638 6.58251
#
# Compressibility (1/GPa) = 0.02250982
#
# Stress axis : x y z
#
# Youngs Moduli (GPa) = 60.30182 79.03964 32.83436
#
# Poissons Ratio (x) = 0.15795 0.35271
# Poissons Ratio (y) = 0.12051 0.19209
# Poissons Ratio (z) = 0.64777 0.46239
#
# Static dielectric constant tensor:
#      x y z
#    x 3.986570 0.000000 0.719370 
#    y 0.000000 3.475470 0.000000 
#    z 0.719370 0.000000 3.108910 
# 
# 
# High freq. dielectric constant tensor:
#      x y z
#    x 1.723420 0.000000 0.049350 
#    y 0.000000 1.720520 0.000000 
#    z 0.049350 0.000000 1.664040 
# 
# From -- ./inp_files/75614.got.cif
#   From: 2010.06.25/outbox.cif.g09.slc.cpg/sg13_38_cif.got.tgz:75614.got - 2010.06.28 04:50:58.
