data_PCOD8117985
_publ_section_title
;
Structure prediction by ZEFSAII (Michael W. Deem and Ramdas Pophale) SiO2 
 PCOD8117985
Probable space group: P 2/C
;
_chemical_formula_sum "Si O2"
_cell_formula_units_Z 22
_cell_length_a 11.315544
_cell_length_b 6.616173
_cell_length_c 14.777636
_cell_angle_alpha 90.000000
_cell_angle_beta 87.724180
_cell_angle_gamma 90.000000
_cell_volume 1105.463906
_symmetry_space_group_name_H-M "P 2/C"
_symmetry_group_IT_number 13
_symmetry_cell_setting 'monoclinic'
loop_
_space_group_symop_operation_xyz
x,y,z
-x,y,1/2-z
-x,-y,-z
x,-y,1/2+z
loop_
_atom_site_type_symbol
_atom_site_label
_atom_site_fract_x
_atom_site_fract_y
_atom_site_fract_z
Si Si1 0.332865 0.695727 0.996110
Si Si2 0.056711 0.998718 0.845561
Si Si3 0.500000 0.292629 0.250000
Si Si4 0.462232 0.627929 0.387531
Si Si5 0.062626 0.291553 0.514364
Si Si6 0.327137 0.996756 0.833595
O O1 0.428114 0.745651 0.070730
O O2 0.199694 0.681485 0.036792
O O3 0.366075 0.472203 0.957736
O O4 0.342424 0.885241 0.928716
O O5 0.191991 0.044781 0.816747
O O6 0.000000 0.944211 0.750000
O O7 0.046465 0.819381 0.918568
O O8 0.997327 0.190090 0.896204
O O9 0.517581 0.436836 0.334630
O O10 0.617011 0.152350 0.243142
O O11 0.395081 0.789683 0.327663
O O12 0.000000 0.500000 0.500000
#
# Coordination Sequence:
#
# PCOD8117985 Si02
#       6
#     4   4   2   4   4   4
#     4   9  20  35  57  83 105 142 190 223 277 340
#     4  10  23  39  58  85 115 151 193 234 284 339
#     4  10  22  32  50  82 108 140 182 218 274 338
#     4  10  19  35  55  79 111 143 177 230 279 327
#     4  10  21  39  60  84 115 152 193 238 281 335
#     4  10  20  37  55  78 113 143 178 231 280 331
#
# _framework density 19.901146000000001
#
# number of rings (size 3 to 8) (size 9 to 14) (size 15 to 20)
#    0.000    2.182    0.000    2.182    0.000    5.091 
#    0.000    3.636    0.000    0.000    0.000    0.000 
#    0.000    0.000    0.000    0.000    0.000    0.000 
#
# Total GULP energy -272689.003843 kJ/mol
# GULP energy per Si atom -12394.954720 kJ/mol
# Density = 1.985585 g / cm^3
# Si number density = 19.901146 Si / 1000 Ang^3
#
#
#
# Elastic Constant Matrix: (Units=GPa)
#
#
# Indices 1 2 3 4 5 6 
#
# 1 176.2036 64.3420 60.5865 0.0000 -10.4424 0.0000
# 2 64.3420 102.4948 27.1722 0.0000 -8.3210 0.0000
# 3 60.5865 27.1722 82.1896 0.0000 -0.3294 0.0000
# 4 0.0000 0.0000 0.0000 18.0003 0.0000 -0.9705
# 5 -10.4424 -8.3210 -0.3294 0.0000 36.3146 0.0000
# 6 0.0000 0.0000 0.0000 -0.9705 0.0000 31.2141
#
#
#
# Elastic Compliance Matrix: (Units=1/GPa)
#
#
# Indices 1 2 3 4 5 6 
#
# 1 0.009139 -0.004188 -0.005345 0.000000 0.001620 0.000000
# 2 -0.004188 0.012830 -0.001147 0.000000 0.001725 0.000000
# 3 -0.005345 -0.001147 0.016480 0.000000 -0.001651 0.000000
# 4 0.000000 0.000000 0.000000 0.055648 0.000000 0.001730
# 5 0.001620 0.001725 -0.001651 0.000000 0.028383 0.000000
# 6 0.000000 0.000000 0.000000 0.001730 0.000000 0.032091
#
#
# Mechanical properties :
#
#
# Convention : Reuss Voigt Hill
#
# Bulk Modulus (GPa) = 58.52511 73.89882 66.21196
# Shear Modulus (GPa) = 27.52881 31.02497 29.27689
#
# Velocity S-wave (km/s) = 3.72328 3.95264 3.83967
# Velocity P-wave (km/s) = 6.92499 7.61871 7.28012
#
# Compressibility (1/GPa) = 0.01708668
#
# Stress axis : x y z
#
# Youngs Moduli (GPa) = 109.42602 77.94229 60.67917
#
# Poissons Ratio (x) = 0.32644 0.32436
# Poissons Ratio (y) = 0.45830 0.06962
# Poissons Ratio (z) = 0.58493 0.08943
#
# Static dielectric constant tensor:
#      x y z
#    x 3.858400 0.000000 -0.249530 
#    y 0.000000 3.614510 0.000000 
#    z -0.249530 0.000000 3.597610 
# 
# 
# High freq. dielectric constant tensor:
#      x y z
#    x 1.783160 0.000000 -0.013900 
#    y 0.000000 1.781480 0.000000 
#    z -0.013900 0.000000 1.765990 
# 
# From -- ./inp_files/48883.got.cif
#   From: 2010.06.25/outbox.cif.g09.slc.cpg/sg13_25_cif.got.tgz:48883.got - 2010.06.28 04:50:58.
