data_PCOD8117218
_publ_section_title
;
Structure prediction by ZEFSAII (Michael W. Deem and Ramdas Pophale) SiO2 
 PCOD8117218
Probable space group: P 2/C
;
_chemical_formula_sum "Si O2"
_cell_formula_units_Z 26
_cell_length_a 10.078330
_cell_length_b 10.715303
_cell_length_c 19.769551
_cell_angle_alpha 90.000000
_cell_angle_beta 38.616668
_cell_angle_gamma 90.000000
_cell_volume 1332.443606
_symmetry_space_group_name_H-M "P 2/C"
_symmetry_group_IT_number 13
_symmetry_cell_setting 'monoclinic'
loop_
_space_group_symop_operation_xyz
x,y,z
-x,y,1/2-z
-x,-y,-z
x,-y,1/2+z
loop_
_atom_site_type_symbol
_atom_site_label
_atom_site_fract_x
_atom_site_fract_y
_atom_site_fract_z
Si Si1 0.225320 0.778925 0.042562
Si Si2 0.737009 0.540851 0.158986
Si Si3 0.296314 0.140327 0.136520
Si Si4 0.971521 0.747298 0.861372
Si Si5 0.917867 0.705524 0.540653
Si Si6 0.956549 0.532398 0.345314
Si Si7 0.000000 0.920474 0.250000
O O1 0.226719 0.629786 0.057220
O O2 0.056508 0.838099 0.161845
O O3 0.451348 0.846929 0.960570
O O4 0.153812 0.794531 0.992643
O O5 0.500000 0.591144 0.250000
O O6 0.740537 0.397910 0.130620
O O7 0.825929 0.555130 0.199766
O O8 0.867068 0.630618 0.058358
O O9 0.216921 0.164506 0.091094
O O10 0.183970 0.241209 0.230414
O O11 0.206417 0.002587 0.190263
O O12 0.880345 0.606662 0.893412
O O13 0.033550 0.789613 0.912518
O O14 0.000000 0.553705 0.250000
#
# Coordination Sequence:
#
# PCOD8117218 Si02
#       7
#     4   4   4   4   4   4   2
#     4  11  22  36  62  86 108 153 196 235 288 340
#     4   9  19  32  51  78 126 160 175 218 283 343
#     4  10  22  38  62  82 106 161 189 236 295 335
#     4   9  19  38  53  86 129 143 183 230 280 352
#     4   9  20  34  52  87 115 150 188 228 274 342
#     4  10  18  33  53  87 121 145 184 231 271 342
#     4  10  22  44  58  78 120 138 202 260 284 326
#
# _framework density 19.513020000000001
#
# number of rings (size 3 to 8) (size 9 to 14) (size 15 to 20)
#    0.000    2.462    2.308    1.385    4.308    1.846 
#    0.000    3.077    0.000    3.692    0.000    0.000 
#    0.000    0.000    0.000    0.000    0.000    0.000 
#
# Total GULP energy -322236.971010 kJ/mol
# GULP energy per Si atom -12393.729654 kJ/mol
# Density = 1.946861 g / cm^3
# Si number density = 19.513020 Si / 1000 Ang^3
#
#
#
# Elastic Constant Matrix: (Units=GPa)
#
#
# Indices 1 2 3 4 5 6 
#
# 1 140.7816 23.5854 63.6229 0.0000 22.4777 0.0000
# 2 23.5854 65.3011 29.5919 0.0000 1.9825 0.0000
# 3 63.6229 29.5919 86.0407 0.0000 -1.3190 0.0000
# 4 0.0000 0.0000 0.0000 16.2183 0.0000 -0.9357
# 5 22.4777 1.9825 -1.3190 0.0000 38.2215 0.0000
# 6 0.0000 0.0000 0.0000 -0.9357 0.0000 17.6890
#
#
#
# Elastic Compliance Matrix: (Units=1/GPa)
#
#
# Indices 1 2 3 4 5 6 
#
# 1 0.012605 -0.000048 -0.009423 0.000000 -0.007735 0.000000
# 2 -0.000048 0.018193 -0.006239 0.000000 -0.001131 0.000000
# 3 -0.009423 -0.006239 0.020837 0.000000 0.006584 0.000000
# 4 0.000000 0.000000 0.000000 0.061848 0.000000 0.003271
# 5 -0.007735 -0.001131 0.006584 0.000000 0.030998 0.000000
# 6 0.000000 0.000000 0.000000 0.003271 0.000000 0.056705
#
#
# Mechanical properties :
#
#
# Convention : Reuss Voigt Hill
#
# Bulk Modulus (GPa) = 49.46798 58.41375 53.94087
# Shear Modulus (GPa) = 20.89060 26.11396 23.50228
#
# Velocity S-wave (km/s) = 3.27555 3.66223 3.47427
# Velocity P-wave (km/s) = 6.30174 6.91978 6.61798
#
# Compressibility (1/GPa) = 0.02021510
#
# Stress axis : x y z
#
# Youngs Moduli (GPa) = 79.33610 54.96762 47.99218
#
# Poissons Ratio (x) = 0.00262 0.45221
# Poissons Ratio (y) = 0.00378 0.29942
# Poissons Ratio (z) = 0.74756 0.34294
#
# Static dielectric constant tensor:
#      x y z
#    x 3.661390 0.000000 0.288190 
#    y 0.000000 3.456460 0.000000 
#    z 0.288190 0.000000 3.448840 
# 
# 
# High freq. dielectric constant tensor:
#      x y z
#    x 1.762050 0.000000 0.019320 
#    y 0.000000 1.739290 0.000000 
#    z 0.019320 0.000000 1.745340 
# 
# From -- ./inp_files/76360.got.cif
#   From: 2010.06.25/outbox.cif.g09.slc.cpg/sg13_39_cif.got.tgz:76360.got - 2010.06.28 04:50:58.
