data_PCOD8117441
_publ_section_title
;
Structure prediction by ZEFSAII (Michael W. Deem and Ramdas Pophale) SiO2 
 PCOD8117441
Probable space group: P 2/C
;
_chemical_formula_sum "Si O2"
_cell_formula_units_Z 32
_cell_length_a 13.574597
_cell_length_b 9.709562
_cell_length_c 19.228558
_cell_angle_alpha 90.000000
_cell_angle_beta 141.937372
_cell_angle_gamma 90.000000
_cell_volume 1562.507820
_symmetry_space_group_name_H-M "P 2/C"
_symmetry_group_IT_number 13
_symmetry_cell_setting 'monoclinic'
loop_
_space_group_symop_operation_xyz
x,y,z
-x,y,1/2-z
-x,-y,-z
x,-y,1/2+z
loop_
_atom_site_type_symbol
_atom_site_label
_atom_site_fract_x
_atom_site_fract_y
_atom_site_fract_z
Si Si1 0.807320 0.872416 0.818631
Si Si2 0.815293 0.120456 0.729340
Si Si3 0.342999 0.383484 0.207812
Si Si4 0.871484 0.449316 0.536707
Si Si5 0.675816 0.007415 0.378475
Si Si6 0.184767 0.819339 0.427260
Si Si7 0.789586 0.364179 0.806868
Si Si8 0.147795 0.745755 0.008896
O O1 0.680955 0.746484 0.754359
O O2 0.980829 0.815019 0.896197
O O3 0.755665 0.974974 0.727417
O O4 0.804765 0.956203 0.890073
O O5 0.766185 0.131147 0.621815
O O6 0.727031 0.245817 0.720254
O O7 0.005684 0.132969 0.846565
O O8 0.500000 0.362742 0.250000
O O9 0.352374 0.525755 0.257188
O O10 0.189820 0.393202 0.071938
O O11 0.804771 0.347843 0.560117
O O12 0.818511 0.608311 0.518681
O O13 0.063174 0.447972 0.644513
O O14 0.500000 0.016215 0.250000
O O15 0.710935 0.854723 0.427440
O O16 0.690862 0.115211 0.449640
O O17 0.853147 0.291557 0.911131
#
# Coordination Sequence:
#
# PCOD8117441 Si02
#       8
#     4   4   4   4   4   4   4   4
#     4  12  19  37  60  92 119 164 202 255 307 370
#     4  10  21  37  64  89 123 169 204 251 311 377
#     4  11  21  33  58  91 123 153 205 262 307 362
#     4  10  19  35  59  86 116 158 201 258 309 360
#     4  12  24  37  59  93 126 158 206 264 313 357
#     4  10  21  39  62  91 123 161 211 255 311 370
#     4  10  18  36  57  87 117 156 203 254 313 360
#     4  11  19  34  61  88 118 153 211 258 299 361
#
# _framework density 20.479896
#
# number of rings (size 3 to 8) (size 9 to 14) (size 15 to 20)
#    0.000    1.250    6.250    2.250    0.000    2.000 
#    0.000    1.875    2.750    0.750    0.000    0.000 
#    0.000    0.000    0.000    0.000    0.000    0.000 
#
# Total GULP energy -396750.806448 kJ/mol
# GULP energy per Si atom -12398.462702 kJ/mol
# Density = 2.043328 g / cm^3
# Si number density = 20.479896 Si / 1000 Ang^3
#
#
#
# Elastic Constant Matrix: (Units=GPa)
#
#
# Indices 1 2 3 4 5 6 
#
# 1 78.2396 67.0189 44.1947 0.0000 -14.2796 0.0000
# 2 67.0189 181.1059 51.2747 0.0000 -9.1448 0.0000
# 3 44.1947 51.2747 73.4929 0.0000 -1.9956 0.0000
# 4 0.0000 0.0000 0.0000 19.4660 0.0000 -5.2521
# 5 -14.2796 -9.1448 -1.9956 0.0000 29.7102 0.0000
# 6 0.0000 0.0000 0.0000 -5.2521 0.0000 32.6695
#
#
#
# Elastic Compliance Matrix: (Units=1/GPa)
#
#
# Indices 1 2 3 4 5 6 
#
# 1 0.026040 -0.005954 -0.011235 0.000000 0.009928 0.000000
# 2 -0.005954 0.008339 -0.002250 0.000000 -0.000446 0.000000
# 3 -0.011235 -0.002250 0.021807 0.000000 -0.004628 0.000000
# 4 0.000000 0.000000 0.000000 0.053701 0.000000 0.008633
# 5 0.009928 -0.000446 -0.004628 0.000000 0.037982 0.000000
# 6 0.000000 0.000000 0.000000 0.008633 0.000000 0.031998
#
#
# Mechanical properties :
#
#
# Convention : Reuss Voigt Hill
#
# Bulk Modulus (GPa) = 57.77737 73.09056 65.43396
# Shear Modulus (GPa) = 22.27027 27.72581 24.99804
#
# Velocity S-wave (km/s) = 3.30118 3.68340 3.49752
# Velocity P-wave (km/s) = 6.54243 7.33869 6.95197
#
# Compressibility (1/GPa) = 0.01730782
#
# Stress axis : x y z
#
# Youngs Moduli (GPa) = 38.40300 119.91302 45.85620
#
# Poissons Ratio (x) = 0.71394 0.51521
# Poissons Ratio (y) = 0.22864 0.10318
# Poissons Ratio (z) = 0.43147 0.26981
#
# Static dielectric constant tensor:
#      x y z
#    x 3.423910 0.000000 -0.013780 
#    y 0.000000 4.183830 0.000000 
#    z -0.013780 0.000000 3.298650 
# 
# 
# High freq. dielectric constant tensor:
#      x y z
#    x 1.767520 0.000000 0.007790 
#    y 0.000000 1.826270 0.000000 
#    z 0.007790 0.000000 1.757400 
# 
# From -- ./inp_files/79837.got.cif
#   From: 2010.06.25/outbox.cif.g09.slc.cpg/sg13_40_cif.got.tgz:79837.got - 2010.06.28 04:50:58.
