data_PCOD8117311
_publ_section_title
;
Structure prediction by ZEFSAII (Michael W. Deem and Ramdas Pophale) SiO2 
 PCOD8117311
Probable space group: P 2/C
;
_chemical_formula_sum "Si O2"
_cell_formula_units_Z 28
_cell_length_a 14.462203
_cell_length_b 11.345602
_cell_length_c 14.412293
_cell_angle_alpha 90.000000
_cell_angle_beta 40.622773
_cell_angle_gamma 90.000000
_cell_volume 1539.666757
_symmetry_space_group_name_H-M "P 2/C"
_symmetry_group_IT_number 13
_symmetry_cell_setting 'monoclinic'
loop_
_space_group_symop_operation_xyz
x,y,z
-x,y,1/2-z
-x,-y,-z
x,-y,1/2+z
loop_
_atom_site_type_symbol
_atom_site_label
_atom_site_fract_x
_atom_site_fract_y
_atom_site_fract_z
Si Si1 0.636507 0.577964 0.366563
Si Si2 0.664030 0.393450 0.640488
Si Si3 0.679782 0.049303 0.459634
Si Si4 0.213193 0.858348 0.434260
Si Si5 0.149985 0.461604 0.168533
Si Si6 0.616475 0.146837 0.871287
Si Si7 0.078266 0.202303 0.283645
O O1 0.500000 0.500000 0.500000
O O2 0.691036 0.551862 0.221147
O O3 0.775126 0.551947 0.320609
O O4 0.602130 0.715385 0.403588
O O5 0.500000 0.410263 0.750000
O O6 0.704781 0.258221 0.597373
O O7 0.752891 0.460960 0.496211
O O8 0.742458 0.047855 0.517817
O O9 0.529677 0.113190 0.566966
O O10 0.785152 0.119168 0.309286
O O11 0.655065 0.917367 0.438855
O O12 0.263785 0.894373 0.293538
O O13 0.044652 0.828590 0.548048
O O14 0.127213 0.338292 0.240703
O O15 0.000000 0.513832 0.250000
O O16 0.000000 0.166024 0.250000
#
# Coordination Sequence:
#
# PCOD8117311 Si02
#       7
#     4   4   4   4   4   4   4
#     4  11  22  36  60  84 118 154 190 235 286 344
#     4  11  19  34  60  86 107 151 197 232 276 338
#     4  10  18  35  58  78 110 137 185 241 276 313
#     4  10  18  34  57  84 106 140 190 228 273 337
#     4  11  20  37  57  85 119 146 192 239 286 334
#     4  10  22  34  56  85 106 145 192 224 281 344
#     4   9  17  32  56  82 104 141 181 234 274 320
#
# _framework density 18.185752999999998
#
# number of rings (size 3 to 8) (size 9 to 14) (size 15 to 20)
#    0.000    1.714    5.714    3.000    0.000    1.143 
#    0.000    2.143   15.714    0.000    0.000    0.000 
#    0.000    0.000    0.000    0.000    0.000    0.000 
#
# Total GULP energy -346922.257225 kJ/mol
# GULP energy per Si atom -12390.080615 kJ/mol
# Density = 1.814436 g / cm^3
# Si number density = 18.185753 Si / 1000 Ang^3
#
#
#
# Elastic Constant Matrix: (Units=GPa)
#
#
# Indices 1 2 3 4 5 6 
#
# 1 -158.9120 -74.8782 -74.1213 0.0000 -45.1121 0.0000
# 2 -74.8782 26.6548 -12.9299 0.0000 -17.7244 0.0000
# 3 -74.1213 -12.9299 72.2900 0.0000 -39.0426 0.0000
# 4 0.0000 0.0000 0.0000 21.4501 0.0000 -3.7524
# 5 -45.1121 -17.7244 -39.0426 0.0000 12.7634 0.0000
# 6 0.0000 0.0000 0.0000 -3.7524 0.0000 25.1751
#
#
#
# Elastic Compliance Matrix: (Units=1/GPa)
#
#
# Indices 1 2 3 4 5 6 
#
# 1 0.002788 -0.004698 -0.005853 0.000000 -0.014573 0.000000
# 2 -0.004698 0.018154 -0.004719 0.000000 -0.005829 0.000000
# 3 -0.005853 -0.004719 0.011843 0.000000 0.008989 0.000000
# 4 0.000000 0.000000 0.000000 0.047868 0.000000 0.007135
# 5 -0.014573 -0.005829 0.008989 0.000000 0.046242 0.000000
# 6 0.000000 0.000000 0.000000 0.007135 0.000000 0.040785
#
#
# Mechanical properties :
#
#
# Convention : Reuss Voigt Hill
#
# Bulk Modulus (GPa) = 445.19690 -42.64734 201.27478
# Shear Modulus (GPa) = 25.12972 18.67520 21.90246
#
# Velocity S-wave (km/s) = 3.72134 3.20803 3.47418
# Velocity P-wave (km/s) = 16.24196 3.12729 11.26990
#
# Compressibility (1/GPa) = 0.00224620
#
# Stress axis : x y z
#
# Youngs Moduli (GPa) = 358.69606 55.08556 84.43586
#
# Poissons Ratio (x) = 0.25880 0.49417
# Poissons Ratio (y) = 1.68519 0.39841
# Poissons Ratio (z) = 2.09932 0.25992
#
# Static dielectric constant tensor:
#      x y z
#    x 3.343000 0.000000 -0.210520 
#    y 0.000000 3.095380 0.000000 
#    z -0.210520 0.000000 4.196840 
# 
# 
# High freq. dielectric constant tensor:
#      x y z
#    x 1.694580 0.000000 -0.013710 
#    y 0.000000 1.673820 0.000000 
#    z -0.013710 0.000000 1.725870 
# 
# From -- ./inp_files/53503.got.cif
#   From: 2010.06.25/outbox.cif.g09.slc.cpg/sg13_27_cif.got.tgz:53503.got - 2010.06.28 04:50:58.
