data_PCOD8117313
_publ_section_title
;
Structure prediction by ZEFSAII (Michael W. Deem and Ramdas Pophale) SiO2 
 PCOD8117313
Probable space group: P 2/C
;
_chemical_formula_sum "Si O2"
_cell_formula_units_Z 28
_cell_length_a 8.055968
_cell_length_b 16.524792
_cell_length_c 20.144857
_cell_angle_alpha 90.000000
_cell_angle_beta 150.651833
_cell_angle_gamma 90.000000
_cell_volume 1314.365875
_symmetry_space_group_name_H-M "P 2/C"
_symmetry_group_IT_number 13
_symmetry_cell_setting 'monoclinic'
loop_
_space_group_symop_operation_xyz
x,y,z
-x,y,1/2-z
-x,-y,-z
x,-y,1/2+z
loop_
_atom_site_type_symbol
_atom_site_label
_atom_site_fract_x
_atom_site_fract_y
_atom_site_fract_z
Si Si1 0.950901 0.851328 0.862471
Si Si2 0.275563 0.396567 0.792084
Si Si3 0.729025 0.834640 0.937370
Si Si4 0.249917 0.683778 0.946721
Si Si5 0.906576 0.018425 0.893397
Si Si6 0.606150 0.426688 0.212522
Si Si7 0.802519 0.332900 0.526289
O O1 0.829546 0.841578 0.895613
O O2 0.677781 0.839868 0.708075
O O3 0.233210 0.782112 0.948419
O O4 0.052118 0.947388 0.895062
O O5 0.272629 0.492538 0.781444
O O6 0.000000 0.372894 0.750000
O O7 0.163464 0.355009 0.684313
O O8 0.625640 0.358293 0.941126
O O9 0.856437 0.751466 0.010326
O O10 0.892886 0.897628 0.047840
O O11 0.496764 0.664276 0.972362
O O12 0.883302 0.645090 0.804333
O O13 0.500000 0.027426 0.750000
O O14 0.000000 0.000000 0.000000
O O15 0.500000 0.446390 0.250000
O O16 0.274488 0.398059 0.057539
#
# Coordination Sequence:
#
# PCOD8117313 Si02
#       7
#     4   4   4   4   4   4   4
#     4  10  19  36  59  88 119 155 200 245 293 352
#     4  10  24  43  59  86 123 158 201 248 299 358
#     4  10  20  35  59  88 120 153 199 249 290 354
#     4  11  23  40  64  86 119 166 199 245 300 357
#     4  10  18  34  57  87 119 154 196 243 297 350
#     4  12  24  39  63  91 121 155 203 250 296 356
#     4  11  23  40  62  89 120 159 204 243 301 359
#
# _framework density 21.303048
#
# number of rings (size 3 to 8) (size 9 to 14) (size 15 to 20)
#    0.000    1.429    4.286    3.000    0.000    8.000 
#    0.000    0.714    0.000    0.000    0.000    0.000 
#    0.000    0.000    0.000    0.000    0.000    0.000 
#
# Total GULP energy -346926.716890 kJ/mol
# GULP energy per Si atom -12390.239889 kJ/mol
# Density = 2.125456 g / cm^3
# Si number density = 21.303048 Si / 1000 Ang^3
#
#
#
# Elastic Constant Matrix: (Units=GPa)
#
#
# Indices 1 2 3 4 5 6 
#
# 1 20.6858 4.7809 11.5222 0.0000 -4.8690 0.0000
# 2 4.7809 146.1610 57.0579 0.0000 -14.0930 0.0000
# 3 11.5222 57.0579 127.1019 0.0000 -25.3517 0.0000
# 4 0.0000 0.0000 0.0000 32.5452 0.0000 19.9492
# 5 -4.8690 -14.0930 -25.3517 0.0000 23.3139 0.0000
# 6 0.0000 0.0000 0.0000 19.9492 0.0000 -8.5089
#
#
#
# Elastic Compliance Matrix: (Units=1/GPa)
#
#
# Indices 1 2 3 4 5 6 
#
# 1 0.051882 0.000334 -0.003386 0.000000 0.007355 0.000000
# 2 0.000334 0.008326 -0.003512 0.000000 0.001284 0.000000
# 3 -0.003386 -0.003512 0.011731 0.000000 0.009926 0.000000
# 4 0.000000 0.000000 0.000000 0.012608 0.000000 0.029559
# 5 0.007355 0.001284 0.009926 0.000000 0.055999 0.000000
# 6 0.000000 0.000000 0.000000 0.029559 0.000000 -0.048223
#
#
# Mechanical properties :
#
#
# Convention : Reuss Voigt Hill
#
# Bulk Modulus (GPa) = 17.00354 48.96344 32.98349
# Shear Modulus (GPa) = 39.98261 24.17590 32.07926
#
# Velocity S-wave (km/s) = 4.33696 3.37242 3.88474
# Velocity P-wave (km/s) = 5.75135 6.18049 5.96978
#
# Compressibility (1/GPa) = 0.05881130
#
# Stress axis : x y z
#
# Youngs Moduli (GPa) = 19.27434 120.11290 85.24405
#
# Poissons Ratio (x) = -0.04012 0.28865
# Poissons Ratio (y) = -0.00644 0.29935
# Poissons Ratio (z) = 0.06527 0.42179
#
# Static dielectric constant tensor:
#      x y z
#    x 3.454000 0.000000 -0.231850 
#    y 0.000000 6.716730 0.000000 
#    z -0.231850 0.000000 4.830190 
# 
# 
# High freq. dielectric constant tensor:
#      x y z
#    x 1.798590 0.000000 -0.019000 
#    y 0.000000 1.850730 0.000000 
#    z -0.019000 0.000000 1.848090 
# 
# From -- ./inp_files/76765.got.cif
#   From: 2010.06.25/outbox.cif.g09.slc.cpg/sg13_39_cif.got.tgz:76765.got - 2010.06.28 04:50:58.
