data_PCOD8117040
_publ_section_title
;
Structure prediction by ZEFSAII (Michael W. Deem and Ramdas Pophale) SiO2 
 PCOD8117040
Probable space group: P 2/C
;
_chemical_formula_sum "Si O2"
_cell_formula_units_Z 24
_cell_length_a 23.037503
_cell_length_b 10.766559
_cell_length_c 28.560141
_cell_angle_alpha 90.000000
_cell_angle_beta 11.517807
_cell_angle_gamma 90.000000
_cell_volume 1414.460685
_symmetry_space_group_name_H-M "P 2/C"
_symmetry_group_IT_number 13
_symmetry_cell_setting 'monoclinic'
loop_
_space_group_symop_operation_xyz
x,y,z
-x,y,1/2-z
-x,-y,-z
x,-y,1/2+z
loop_
_atom_site_type_symbol
_atom_site_label
_atom_site_fract_x
_atom_site_fract_y
_atom_site_fract_z
Si Si1 0.259615 0.642352 0.728187
Si Si2 0.666669 0.642568 0.321113
Si Si3 0.872355 0.808681 0.585076
Si Si4 0.198757 0.224072 0.133289
Si Si5 0.647130 0.054502 0.735262
Si Si6 0.792974 0.224321 0.539040
O O1 0.527250 0.669406 0.481921
O O2 0.245983 0.499836 0.753970
O O3 0.310573 0.723601 0.734412
O O4 0.951951 0.676472 0.947031
O O5 0.441052 0.676451 0.457845
O O6 0.958022 0.724260 0.086773
O O7 0.098434 0.890489 0.434653
O O8 0.656497 0.903960 0.728959
O O9 0.000000 0.287664 0.250000
O O10 0.007718 0.180767 0.328279
O O11 0.341640 0.101008 0.997894
O O12 0.693603 0.101267 0.645512
O O13 0.500000 0.288157 0.750000
#
# Coordination Sequence:
#
# PCOD8117040 Si02
#       6
#     4   4   4   4   4   4
#     4   9  18  31  49  74 100 127 162 200 239 285
#     4   9  18  31  49  74 100 127 162 200 239 285
#     4   9  17  30  48  70  97 123 156 197 238 284
#     4  10  18  30  49  72  95 125 162 202 244 286
#     4   9  18  30  46  72  95 121 158 195 241 287
#     4  10  18  30  49  72  95 125 162 202 244 286
#
# _framework density 16.967597000000001
#
# number of rings (size 3 to 8) (size 9 to 14) (size 15 to 20)
#    0.000    2.667    1.667    0.500    0.000    1.333 
#    0.000    6.667    0.000    2.000    0.000    0.000 
#    0.000    0.000    0.000    0.000    0.000    0.000 
#
# Total GULP energy -297508.738153 kJ/mol
# GULP energy per Si atom -12396.197423 kJ/mol
# Density = 1.692898 g / cm^3
# Si number density = 16.967597 Si / 1000 Ang^3
#
#
#
# Elastic Constant Matrix: (Units=GPa)
#
#
# Indices 1 2 3 4 5 6 
#
# 1 76.6775 56.3764 49.7279 0.0000 13.2947 0.0000
# 2 56.3764 125.8559 58.4365 0.0000 10.1192 0.0000
# 3 49.7279 58.4365 81.7757 0.0000 15.7479 0.0000
# 4 0.0000 0.0000 0.0000 20.6993 0.0000 2.0360
# 5 13.2947 10.1192 15.7479 0.0000 29.5010 0.0000
# 6 0.0000 0.0000 0.0000 2.0360 0.0000 20.3344
#
#
#
# Elastic Compliance Matrix: (Units=1/GPa)
#
#
# Indices 1 2 3 4 5 6 
#
# 1 0.024589 -0.006144 -0.009846 0.000000 -0.003718 0.000000
# 2 -0.006144 0.013433 -0.006140 0.000000 0.001439 0.000000
# 3 -0.009846 -0.006140 0.023789 0.000000 -0.006155 0.000000
# 4 0.000000 0.000000 0.000000 0.048791 0.000000 -0.004885
# 5 -0.003718 0.001439 -0.006155 0.000000 0.038365 0.000000
# 6 0.000000 0.000000 0.000000 -0.004885 0.000000 0.049667
#
#
# Mechanical properties :
#
#
# Convention : Reuss Voigt Hill
#
# Bulk Modulus (GPa) = 56.97792 68.15453 62.56622
# Shear Modulus (GPa) = 20.10087 22.09148 21.09617
#
# Velocity S-wave (km/s) = 3.44563 3.61221 3.52990
# Velocity P-wave (km/s) = 7.03442 7.59290 7.31899
#
# Compressibility (1/GPa) = 0.01755066
#
# Stress axis : x y z
#
# Youngs Moduli (GPa) = 40.66832 74.44384 42.03582
#
# Poissons Ratio (x) = 0.45737 0.41390
# Poissons Ratio (y) = 0.24986 0.25810
# Poissons Ratio (z) = 0.40044 0.45709
#
# Static dielectric constant tensor:
#      x y z
#    x 3.268270 0.000000 0.101150 
#    y 0.000000 3.184820 0.000000 
#    z 0.101150 0.000000 3.278860 
# 
# 
# High freq. dielectric constant tensor:
#      x y z
#    x 1.650630 0.000000 0.023400 
#    y 0.000000 1.631730 0.000000 
#    z 0.023400 0.000000 1.653900 
# 
# From -- ./inp_files/75188.got.cif
#   From: 2010.06.25/outbox.cif.g09.slc.cpg/sg13_38_cif.got.tgz:75188.got - 2010.06.28 04:50:58.
