data_PCOD8117050
_publ_section_title
;
Structure prediction by ZEFSAII (Michael W. Deem and Ramdas Pophale) SiO2 
 PCOD8117050
Probable space group: P 2/C
;
_chemical_formula_sum "Si O2"
_cell_formula_units_Z 24
_cell_length_a 22.272056
_cell_length_b 9.057323
_cell_length_c 20.529974
_cell_angle_alpha 90.000000
_cell_angle_beta 161.976371
_cell_angle_gamma 90.000000
_cell_volume 1281.391298
_symmetry_space_group_name_H-M "P 2/C"
_symmetry_group_IT_number 13
_symmetry_cell_setting 'monoclinic'
loop_
_space_group_symop_operation_xyz
x,y,z
-x,y,1/2-z
-x,-y,-z
x,-y,1/2+z
loop_
_atom_site_type_symbol
_atom_site_label
_atom_site_fract_x
_atom_site_fract_y
_atom_site_fract_z
Si Si1 0.534748 0.796573 0.360137
Si Si2 0.149493 0.350041 0.236564
Si Si3 0.703406 0.616297 0.282290
Si Si4 0.590704 0.374372 0.524672
Si Si5 0.198418 0.910776 0.697189
Si Si6 0.504745 0.932593 0.604239
O O1 0.500000 0.753762 0.250000
O O2 0.752716 0.746180 0.604709
O O3 0.386103 0.708828 0.251909
O O4 0.488842 0.971443 0.322784
O O5 0.248602 0.509469 0.332055
O O6 0.162392 0.259203 0.182017
O O7 0.930539 0.384942 0.028884
O O8 0.640607 0.688917 0.148380
O O9 0.621188 0.449747 0.195938
O O10 0.581666 0.230117 0.469242
O O11 0.281986 0.916133 0.709545
O O12 0.000000 0.000000 0.500000
O O13 0.360976 0.977010 0.910645
#
# Coordination Sequence:
#
# PCOD8117050 Si02
#       6
#     4   4   4   4   4   4
#     4  10  22  38  54  72 100 144 188 220 254 305
#     4  10  20  34  56  82 108 140 175 216 272 328
#     4  10  19  34  55  81 112 139 171 215 263 326
#     4  10  19  32  54  85 113 135 164 218 286 330
#     4  10  18  30  51  77 105 138 173 214 264 312
#     4  10  19  32  49  75 106 133 171 218 262 309
#
# _framework density 18.729641999999998
#
# number of rings (size 3 to 8) (size 9 to 14) (size 15 to 20)
#    0.000    2.000    0.000    7.500    0.000    2.000 
#    0.000    3.333    0.000    0.000    0.000    0.000 
#    0.000    0.000    0.000    0.000    0.000    0.000 
#
# Total GULP energy -297475.156171 kJ/mol
# GULP energy per Si atom -12394.798174 kJ/mol
# Density = 1.868701 g / cm^3
# Si number density = 18.729642 Si / 1000 Ang^3
#
#
#
# Elastic Constant Matrix: (Units=GPa)
#
#
# Indices 1 2 3 4 5 6 
#
# 1 80.7176 39.5488 45.1804 0.0000 -12.9563 0.0000
# 2 39.5488 112.3038 42.0622 0.0000 3.5531 0.0000
# 3 45.1804 42.0622 135.1321 0.0000 21.3636 0.0000
# 4 0.0000 0.0000 0.0000 21.7843 0.0000 0.0107
# 5 -12.9563 3.5531 21.3636 0.0000 19.2078 0.0000
# 6 0.0000 0.0000 0.0000 0.0107 0.0000 19.4942
#
#
#
# Elastic Compliance Matrix: (Units=1/GPa)
#
#
# Indices 1 2 3 4 5 6 
#
# 1 0.028263 -0.006178 -0.013009 0.000000 0.034676 0.000000
# 2 -0.006178 0.011492 -0.000627 0.000000 -0.005596 0.000000
# 3 -0.013009 -0.000627 0.016154 0.000000 -0.026626 0.000000
# 4 0.000000 0.000000 0.000000 0.045905 0.000000 -0.000025
# 5 0.034676 -0.005596 -0.026626 0.000000 0.106102 0.000000
# 6 0.000000 0.000000 0.000000 -0.000025 0.000000 0.051297
#
#
# Mechanical properties :
#
#
# Convention : Reuss Voigt Hill
#
# Bulk Modulus (GPa) = 61.41670 64.63736 63.02703
# Shear Modulus (GPa) = 16.43287 25.52138 20.97713
#
# Velocity S-wave (km/s) = 2.96526 3.69537 3.35027
# Velocity P-wave (km/s) = 6.67728 7.26590 6.97780
#
# Compressibility (1/GPa) = 0.01628222
#
# Stress axis : x y z
#
# Youngs Moduli (GPa) = 35.38149 87.01811 61.90401
#
# Poissons Ratio (x) = 0.53760 0.80529
# Poissons Ratio (y) = 0.21859 0.03880
# Poissons Ratio (z) = 0.46027 0.05454
#
# Static dielectric constant tensor:
#      x y z
#    x 3.156860 0.000000 0.125730 
#    y 0.000000 3.728330 0.000000 
#    z 0.125730 0.000000 3.581940 
# 
# 
# High freq. dielectric constant tensor:
#      x y z
#    x 1.675660 0.000000 0.020750 
#    y 0.000000 1.744370 0.000000 
#    z 0.020750 0.000000 1.728990 
# 
# From -- ./inp_files/81726.got.cif
#   From: 2010.06.25/outbox.cif.g09.slc.cpg/sg13_41_cif.got.tgz:81726.got - 2010.06.28 04:50:58.
