data_PCOD8117787
_publ_section_title
;
Structure prediction by ZEFSAII (Michael W. Deem and Ramdas Pophale) SiO2 
 PCOD8117787
Probable space group: P 2/C
;
_chemical_formula_sum "Si O2"
_cell_formula_units_Z 28
_cell_length_a 22.987713
_cell_length_b 9.277184
_cell_length_c 20.744057
_cell_angle_alpha 90.000000
_cell_angle_beta 19.159929
_cell_angle_gamma 90.000000
_cell_volume 1451.952064
_symmetry_space_group_name_H-M "P 2/C"
_symmetry_group_IT_number 13
_symmetry_cell_setting 'monoclinic'
loop_
_space_group_symop_operation_xyz
x,y,z
-x,y,1/2-z
-x,-y,-z
x,-y,1/2+z
loop_
_atom_site_type_symbol
_atom_site_label
_atom_site_fract_x
_atom_site_fract_y
_atom_site_fract_z
Si Si1 0.777111 0.869779 0.601539
Si Si2 0.349462 0.192280 0.761918
Si Si3 0.359732 0.871803 0.446758
Si Si4 0.208730 0.691903 0.036309
Si Si5 0.548569 0.846896 0.478848
Si Si6 0.815580 0.861721 0.316885
Si Si7 0.205269 0.374643 0.022451
O O1 0.728440 0.808547 0.582047
O O2 0.635576 0.791052 0.797274
O O3 0.977009 0.833711 0.414954
O O4 0.756025 0.041829 0.623220
O O5 0.544079 0.171189 0.587924
O O6 0.378350 0.247135 0.657874
O O7 0.239629 0.313412 0.914895
O O8 0.500000 0.943571 0.250000
O O9 0.286719 0.726948 0.491542
O O10 0.204028 0.983356 0.627064
O O11 0.261906 0.742787 0.052513
O O12 0.292240 0.533826 0.936415
O O13 0.000000 0.682336 0.250000
O O14 0.705021 0.855306 0.367220
O O15 0.500000 0.000000 0.500000
O O16 0.000000 0.385420 0.250000
#
# Coordination Sequence:
#
# PCOD8117787 Si02
#       7
#     4   4   4   4   4   4   4
#     4  10  20  37  59  85 113 149 185 235 285 326
#     4  10  20  38  53  82 120 141 186 233 272 339
#     4  10  19  33  54  83 112 142 185 237 280 330
#     4   9  20  36  58  84 112 142 192 240 276 332
#     4  10  21  37  54  84 121 146 185 232 270 337
#     4  11  20  35  62  86 111 148 190 226 288 333
#     4  10  20  37  58  81 110 146 188 237 282 329
#
# _framework density 19.284383999999999
#
# number of rings (size 3 to 8) (size 9 to 14) (size 15 to 20)
#    0.000    2.000    2.857    2.571    0.000    3.429 
#   10.286    0.714    0.000    2.571    0.000    0.000 
#    0.000    0.000    0.000    0.000    0.000    0.000 
#
# Total GULP energy -347031.295019 kJ/mol
# GULP energy per Si atom -12393.974822 kJ/mol
# Density = 1.924049 g / cm^3
# Si number density = 19.284384 Si / 1000 Ang^3
#
#
#
# Elastic Constant Matrix: (Units=GPa)
#
#
# Indices 1 2 3 4 5 6 
#
# 1 154.8991 43.1360 59.1849 0.0000 15.8745 0.0000
# 2 43.1360 86.1788 36.6530 0.0000 17.0137 0.0000
# 3 59.1849 36.6530 111.3857 0.0000 12.6482 0.0000
# 4 0.0000 0.0000 0.0000 3.4232 0.0000 -1.1892
# 5 15.8745 17.0137 12.6482 0.0000 32.1902 0.0000
# 6 0.0000 0.0000 0.0000 -1.1892 0.0000 5.4992
#
#
#
# Elastic Compliance Matrix: (Units=1/GPa)
#
#
# Indices 1 2 3 4 5 6 
#
# 1 0.008695 -0.002509 -0.003620 0.000000 -0.001540 0.000000
# 2 -0.002509 0.015270 -0.003052 0.000000 -0.005634 0.000000
# 3 -0.003620 -0.003052 0.012058 0.000000 -0.001340 0.000000
# 4 0.000000 0.000000 0.000000 0.315855 0.000000 0.068302
# 5 -0.001540 -0.005634 -0.001340 0.000000 0.035329 0.000000
# 6 0.000000 0.000000 0.000000 0.068302 0.000000 0.196614
#
#
# Mechanical properties :
#
#
# Convention : Reuss Voigt Hill
#
# Bulk Modulus (GPa) = 56.61978 70.04572 63.33275
# Shear Modulus (GPa) = 8.22274 22.45515 15.33895
#
# Velocity S-wave (km/s) = 2.06717 3.41606 2.82336
# Velocity P-wave (km/s) = 5.92636 7.20838 6.59858
#
# Compressibility (1/GPa) = 0.01766167
#
# Stress axis : x y z
#
# Youngs Moduli (GPa) = 115.00360 65.48827 82.93512
#
# Poissons Ratio (x) = 0.16430 0.30022
# Poissons Ratio (y) = 0.28852 0.25311
# Poissons Ratio (z) = 0.41630 0.19986
#
# Static dielectric constant tensor:
#      x y z
#    x 3.813470 0.000000 0.320550 
#    y 0.000000 3.628080 0.000000 
#    z 0.320550 0.000000 4.016940 
# 
# 
# High freq. dielectric constant tensor:
#      x y z
#    x 1.751530 0.000000 0.003800 
#    y 0.000000 1.722870 0.000000 
#    z 0.003800 0.000000 1.757340 
# 
# From -- ./inp_files/82121.got.cif
#   From: 2010.06.25/outbox.cif.g09.slc.cpg/sg13_42_cif.got.tgz:82121.got - 2010.06.28 04:50:58.
