data_PCOD8117199
_publ_section_title
;
Structure prediction by ZEFSAII (Michael W. Deem and Ramdas Pophale) SiO2 
 PCOD8117199
Probable space group: P 2/C
;
_chemical_formula_sum "Si O2"
_cell_formula_units_Z 22
_cell_length_a 10.514847
_cell_length_b 11.478427
_cell_length_c 10.312189
_cell_angle_alpha 90.000000
_cell_angle_beta 54.186711
_cell_angle_gamma 90.000000
_cell_volume 1009.296020
_symmetry_space_group_name_H-M "P 2/C"
_symmetry_group_IT_number 13
_symmetry_cell_setting 'monoclinic'
loop_
_space_group_symop_operation_xyz
x,y,z
-x,y,1/2-z
-x,-y,-z
x,-y,1/2+z
loop_
_atom_site_type_symbol
_atom_site_label
_atom_site_fract_x
_atom_site_fract_y
_atom_site_fract_z
Si Si1 0.685817 0.906552 0.621296
Si Si2 0.684653 0.523658 0.536591
Si Si3 0.000000 0.418079 0.250000
Si Si4 0.501517 0.319369 0.547203
Si Si5 0.774416 0.688797 0.700060
Si Si6 0.640889 0.077434 0.865065
O O1 0.500000 0.875857 0.750000
O O2 0.795593 0.798439 0.594529
O O3 0.742114 0.919965 0.437744
O O4 0.725348 0.017672 0.690238
O O5 0.571475 0.409808 0.612227
O O6 0.618405 0.617884 0.476974
O O7 0.699025 0.576531 0.671899
O O8 0.857971 0.497013 0.382560
O O9 0.057776 0.339974 0.336598
O O10 0.652490 0.271707 0.381751
O O11 0.414124 0.204864 0.655104
O O12 0.500000 0.000000 0.000000
#
# Coordination Sequence:
#
# PCOD8117199 Si02
#       6
#     4   4   2   4   4   4
#     4  10  18  32  61  86 121 151 192 248 305 356
#     4  10  20  35  59  85 118 154 191 242 304 355
#     4  10  24  34  54  84 114 162 200 238 284 380
#     4  10  19  34  60  91 118 146 193 250 301 361
#     4  11  18  37  59  81 119 158 196 240 307 352
#     4  10  18  33  56  96 119 151 190 244 308 352
#
# _framework density 21.797371999999999
#
# number of rings (size 3 to 8) (size 9 to 14) (size 15 to 20)
#    0.000    1.818    5.455    1.091    0.000    0.000 
#    0.000   16.364    4.000    2.182    0.000    0.000 
#    0.000    0.000    0.000    0.000    0.000    0.000 
#
# Total GULP energy -272559.743940 kJ/mol
# GULP energy per Si atom -12389.079270 kJ/mol
# Density = 2.174776 g / cm^3
# Si number density = 21.797372 Si / 1000 Ang^3
#
#
#
# Elastic Constant Matrix: (Units=GPa)
#
#
# Indices 1 2 3 4 5 6 
#
# 1 120.7129 47.4498 22.2864 0.0000 23.5446 0.0000
# 2 47.4498 129.7914 12.9308 0.0000 24.2234 0.0000
# 3 22.2864 12.9308 36.6643 0.0000 11.3837 0.0000
# 4 0.0000 0.0000 0.0000 25.1602 0.0000 16.5478
# 5 23.5446 24.2234 11.3837 0.0000 34.5308 0.0000
# 6 0.0000 0.0000 0.0000 16.5478 0.0000 12.6986
#
#
#
# Elastic Compliance Matrix: (Units=1/GPa)
#
#
# Indices 1 2 3 4 5 6 
#
# 1 0.011004 -0.002823 -0.004432 0.000000 -0.004061 0.000000
# 2 -0.002823 0.009649 -0.000204 0.000000 -0.004776 0.000000
# 3 -0.004432 -0.000204 0.032371 0.000000 -0.007507 0.000000
# 4 0.000000 0.000000 0.000000 0.278048 0.000000 -0.362330
# 5 -0.004061 -0.004776 -0.007507 0.000000 0.037554 0.000000
# 6 0.000000 0.000000 0.000000 -0.362330 0.000000 0.550908
#
#
# Mechanical properties :
#
#
# Convention : Reuss Voigt Hill
#
# Bulk Modulus (GPa) = 26.24302 50.27807 38.26054
# Shear Modulus (GPa) = 5.27896 28.11137 16.69517
#
# Velocity S-wave (km/s) = 1.55791 3.59509 2.77054
# Velocity P-wave (km/s) = 3.91175 6.35209 5.27498
#
# Compressibility (1/GPa) = 0.03810538
#
# Stress axis : x y z
#
# Youngs Moduli (GPa) = 90.87240 103.64229 30.89166
#
# Poissons Ratio (x) = 0.29263 0.13692
# Poissons Ratio (y) = 0.25658 0.00629
# Poissons Ratio (z) = 0.40277 0.02111
#
# Static dielectric constant tensor:
#      x y z
#    x 4.753550 0.000000 1.091850 
#    y 0.000000 4.226730 0.000000 
#    z 1.091850 0.000000 4.177350 
# 
# 
# High freq. dielectric constant tensor:
#      x y z
#    x 1.842640 0.000000 0.039920 
#    y 0.000000 1.864040 0.000000 
#    z 0.039920 0.000000 1.827090 
# 
# From -- ./inp_files/29325.got.cif
#   From: 2010.06.25/outbox.cif.g09.slc.cpg/sg13_15_cif.got.tgz:29325.got - 2010.06.28 04:50:58.
