data_PCOD8117902
_publ_section_title
;
Structure prediction by ZEFSAII (Michael W. Deem and Ramdas Pophale) SiO2 
 PCOD8117902
Probable space group: P 2/C
;
_chemical_formula_sum "Si O2"
_cell_formula_units_Z 28
_cell_length_a 15.658681
_cell_length_b 12.011023
_cell_length_c 9.969357
_cell_angle_alpha 90.000000
_cell_angle_beta 125.179924
_cell_angle_gamma 90.000000
_cell_volume 1532.529009
_symmetry_space_group_name_H-M "P 2/C"
_symmetry_group_IT_number 13
_symmetry_cell_setting 'monoclinic'
loop_
_space_group_symop_operation_xyz
x,y,z
-x,y,1/2-z
-x,-y,-z
x,-y,1/2+z
loop_
_atom_site_type_symbol
_atom_site_label
_atom_site_fract_x
_atom_site_fract_y
_atom_site_fract_z
Si Si1 0.867076 0.558987 0.274639
Si Si2 0.219904 0.217963 0.714131
Si Si3 0.205328 0.839764 0.506728
Si Si4 0.426567 0.881022 0.803892
Si Si5 0.559841 0.142622 0.673000
Si Si6 0.930901 0.950812 0.556244
Si Si7 0.890841 0.612223 0.008516
O O1 0.799814 0.650999 0.291094
O O2 0.844961 0.442359 0.330649
O O3 0.985995 0.598877 0.387732
O O4 0.839478 0.549477 0.091465
O O5 0.331737 0.207374 0.744159
O O6 0.128348 0.161087 0.543471
O O7 0.223060 0.163964 0.864032
O O8 0.313827 0.826334 0.682926
O O9 0.131296 0.743373 0.499047
O O10 0.156121 0.958873 0.488404
O O11 0.500000 0.844655 0.750000
O O12 0.412580 0.012941 0.798864
O O13 0.478602 0.829857 0.982273
O O14 0.500000 0.184096 0.750000
O O15 0.000000 0.922916 0.750000
O O16 0.000000 0.000000 0.500000
#
# Coordination Sequence:
#
# PCOD8117902 Si02
#       7
#     4   4   4   4   4   4   4
#     4   9  19  38  59  80 109 145 190 231 276 331
#     4  11  21  38  58  82 115 155 183 230 288 334
#     4  11  21  36  61  81 114 155 190 224 282 344
#     4  10  19  34  57  80 107 149 194 227 271 343
#     4  10  21  34  54  82 115 143 187 239 277 322
#     4  12  24  36  53  84 122 152 184 224 280 342
#     4   9  19  37  59  81 107 146 189 233 274 330
#
# _framework density 18.270453
#
# number of rings (size 3 to 8) (size 9 to 14) (size 15 to 20)
#    0.000    1.714    4.286    0.857    2.000    1.143 
#   10.286    0.000    0.000    1.714    0.000    0.000 
#    0.000    0.000    0.000    0.000    0.000    0.000 
#
# Total GULP energy -347179.193175 kJ/mol
# GULP energy per Si atom -12399.256899 kJ/mol
# Density = 1.822887 g / cm^3
# Si number density = 18.270453 Si / 1000 Ang^3
#
#
#
# Elastic Constant Matrix: (Units=GPa)
#
#
# Indices 1 2 3 4 5 6 
#
# 1 98.5182 24.9269 40.4851 0.0000 -3.6073 0.0000
# 2 24.9269 31.9649 12.9828 0.0000 -3.4701 0.0000
# 3 40.4851 12.9828 114.3083 0.0000 -3.4444 0.0000
# 4 0.0000 0.0000 0.0000 21.9326 0.0000 -4.3194
# 5 -3.6073 -3.4701 -3.4444 0.0000 27.8611 0.0000
# 6 0.0000 0.0000 0.0000 -4.3194 0.0000 26.3269
#
#
#
# Elastic Compliance Matrix: (Units=1/GPa)
#
#
# Indices 1 2 3 4 5 6 
#
# 1 0.014160 -0.009423 -0.003940 0.000000 0.000173 0.000000
# 2 -0.009423 0.039440 -0.001035 0.000000 0.003564 0.000000
# 3 -0.003940 -0.001035 0.010280 0.000000 0.000632 0.000000
# 4 0.000000 0.000000 0.000000 0.047117 0.000000 0.007730
# 5 0.000173 0.003564 0.000632 0.000000 0.036437 0.000000
# 6 0.000000 0.000000 0.000000 0.007730 0.000000 0.039252
#
#
# Mechanical properties :
#
#
# Convention : Reuss Voigt Hill
#
# Bulk Modulus (GPa) = 28.50225 44.62010 36.56117
# Shear Modulus (GPa) = 22.00940 26.31723 24.16331
#
# Velocity S-wave (km/s) = 3.47456 3.79941 3.64061
# Velocity P-wave (km/s) = 5.63301 6.61229 6.14220
#
# Compressibility (1/GPa) = 0.03508495
#
# Stress axis : x y z
#
# Youngs Moduli (GPa) = 70.62168 25.35501 97.27504
#
# Poissons Ratio (x) = 0.23893 0.38323
# Poissons Ratio (y) = 0.66549 0.10064
# Poissons Ratio (z) = 0.27822 0.02623
#
# Static dielectric constant tensor:
#      x y z
#    x 3.367500 0.000000 -0.177710 
#    y 0.000000 3.122010 0.000000 
#    z -0.177710 0.000000 3.613900 
# 
# 
# High freq. dielectric constant tensor:
#      x y z
#    x 1.714240 0.000000 -0.010050 
#    y 0.000000 1.677530 0.000000 
#    z -0.010050 0.000000 1.714120 
# 
# From -- ./inp_files/19120.got.cif
#   From: 2010.06.25/outbox.cif.g09.slc.cpg/sg13_10_cif.got.tgz:19120.got - 2010.06.28 04:50:58.
