data_PCOD8117285
_publ_section_title
;
Structure prediction by ZEFSAII (Michael W. Deem and Ramdas Pophale) SiO2 
 PCOD8117285
Probable space group: P 2/C
;
_chemical_formula_sum "Si O2"
_cell_formula_units_Z 20
_cell_length_a 16.735233
_cell_length_b 10.103649
_cell_length_c 22.567357
_cell_angle_alpha 90.000000
_cell_angle_beta 163.063149
_cell_angle_gamma 90.000000
_cell_volume 1111.622503
_symmetry_space_group_name_H-M "P 2/C"
_symmetry_group_IT_number 13
_symmetry_cell_setting 'monoclinic'
loop_
_space_group_symop_operation_xyz
x,y,z
-x,y,1/2-z
-x,-y,-z
x,-y,1/2+z
loop_
_atom_site_type_symbol
_atom_site_label
_atom_site_fract_x
_atom_site_fract_y
_atom_site_fract_z
Si Si1 0.055578 0.189290 0.568003
Si Si2 0.808734 0.043766 0.951966
Si Si3 0.982324 0.293293 0.142664
Si Si4 0.567074 0.635579 0.442139
Si Si5 0.195272 0.407418 0.175526
O O1 0.198926 0.103040 0.619073
O O2 0.284782 0.288923 0.754548
O O3 0.794655 0.268438 0.353825
O O4 0.963138 0.097820 0.557529
O O5 0.500000 0.015009 0.750000
O O6 0.959515 0.139938 0.106102
O O7 0.222298 0.312712 0.359938
O O8 0.049017 0.386310 0.134764
O O9 0.692318 0.337668 0.965677
O O10 0.493931 0.477709 0.395007
O O11 0.000000 0.500000 0.000000
#
# Coordination Sequence:
#
# PCOD8117285 Si02
#       5
#     4   4   4   4   4
#     4   9  19  33  53  79 102 140 179 225 263 317
#     4  10  18  34  54  75 106 138 184 221 261 321
#     4  10  20  33  57  78 106 147 172 227 272 327
#     4  10  19  35  54  82 108 138 183 215 283 328
#     4   9  19  34  53  78 106 139 179 223 268 321
#
# _framework density 17.991720000000001
#
# number of rings (size 3 to 8) (size 9 to 14) (size 15 to 20)
#    0.000    2.400    2.000    0.600    0.000    0.800 
#    7.200    0.000    0.000    0.000    0.000    0.000 
#    0.000    0.000    0.000    0.000    0.000    0.000 
#
# Total GULP energy -247842.319512 kJ/mol
# GULP energy per Si atom -12392.115976 kJ/mol
# Density = 1.795077 g / cm^3
# Si number density = 17.991720 Si / 1000 Ang^3
#
#
#
# Elastic Constant Matrix: (Units=GPa)
#
#
# Indices 1 2 3 4 5 6 
#
# 1 105.6688 65.9976 41.1115 0.0000 6.9283 0.0000
# 2 65.9976 112.3482 52.6051 0.0000 18.7395 0.0000
# 3 41.1115 52.6051 90.3885 0.0000 10.6631 0.0000
# 4 0.0000 0.0000 0.0000 25.0326 0.0000 1.6972
# 5 6.9283 18.7395 10.6631 0.0000 22.5822 0.0000
# 6 0.0000 0.0000 0.0000 1.6972 0.0000 33.4123
#
#
#
# Elastic Compliance Matrix: (Units=1/GPa)
#
#
# Indices 1 2 3 4 5 6 
#
# 1 0.015545 -0.008539 -0.002514 0.000000 0.003504 0.000000
# 2 -0.008539 0.018138 -0.005513 0.000000 -0.009828 0.000000
# 3 -0.002514 -0.005513 0.015657 0.000000 -0.002047 0.000000
# 4 0.000000 0.000000 0.000000 0.040086 0.000000 -0.002036
# 5 0.003504 -0.009828 -0.002047 0.000000 0.052330 0.000000
# 6 0.000000 0.000000 0.000000 -0.002036 0.000000 0.030033
#
#
# Mechanical properties :
#
#
# Convention : Reuss Voigt Hill
#
# Bulk Modulus (GPa) = 61.69869 69.75934 65.72901
# Shear Modulus (GPa) = 23.77302 26.11818 24.94560
#
# Velocity S-wave (km/s) = 3.63896 3.81422 3.72762
# Velocity P-wave (km/s) = 7.21272 7.63249 7.42557
#
# Compressibility (1/GPa) = 0.01620780
#
# Stress axis : x y z
#
# Youngs Moduli (GPa) = 64.32859 55.13400 63.87073
#
# Poissons Ratio (x) = 0.47079 0.16058
# Poissons Ratio (y) = 0.54931 0.35209
# Poissons Ratio (z) = 0.16173 0.30393
#
# Static dielectric constant tensor:
#      x y z
#    x 3.628330 0.000000 0.228090 
#    y 0.000000 3.872930 0.000000 
#    z 0.228090 0.000000 3.385340 
# 
# 
# High freq. dielectric constant tensor:
#      x y z
#    x 1.695460 0.000000 0.003050 
#    y 0.000000 1.699120 0.000000 
#    z 0.003050 0.000000 1.680420 
# 
# From -- ./inp_files/28707.got.cif
#   From: 2010.06.25/outbox.cif.g09.slc.cpg/sg13_15_cif.got.tgz:28707.got - 2010.06.28 04:50:58.
