data_PCOD8117159
_publ_section_title
;
Structure prediction by ZEFSAII (Michael W. Deem and Ramdas Pophale) SiO2 
 PCOD8117159
Probable space group: P 2/C
;
_chemical_formula_sum "Si O2"
_cell_formula_units_Z 30
_cell_length_a 8.777311
_cell_length_b 12.499649
_cell_length_c 24.476521
_cell_angle_alpha 90.000000
_cell_angle_beta 37.779056
_cell_angle_gamma 90.000000
_cell_volume 1645.124889
_symmetry_space_group_name_H-M "P 2/C"
_symmetry_group_IT_number 13
_symmetry_cell_setting 'monoclinic'
loop_
_space_group_symop_operation_xyz
x,y,z
-x,y,1/2-z
-x,-y,-z
x,-y,1/2+z
loop_
_atom_site_type_symbol
_atom_site_label
_atom_site_fract_x
_atom_site_fract_y
_atom_site_fract_z
Si Si1 0.448282 0.617511 0.945905
Si Si2 0.483395 0.037943 0.942687
Si Si3 0.000000 0.998041 0.750000
Si Si4 0.825765 0.592524 0.754630
Si Si5 0.801794 0.823639 0.729764
Si Si6 0.069737 0.791093 0.546286
Si Si7 0.314241 0.170129 0.430910
Si Si8 0.152270 0.570775 0.572729
O O1 0.547258 0.582632 0.857026
O O2 0.357656 0.740005 0.965745
O O3 0.653963 0.608085 0.935054
O O4 0.223645 0.538043 0.022323
O O5 0.755749 0.064175 0.838608
O O6 0.338471 0.945106 0.951497
O O7 0.327013 0.146233 0.981831
O O8 0.500000 0.000000 0.000000
O O9 0.062085 0.925506 0.784116
O O10 0.915925 0.716208 0.723464
O O11 0.000000 0.535290 0.750000
O O12 0.885194 0.543205 0.677915
O O13 0.509030 0.822555 0.825652
O O14 0.859552 0.827079 0.649153
O O15 0.128227 0.664827 0.535277
O O16 0.959389 0.814209 0.517372
#
# Coordination Sequence:
#
# PCOD8117159 Si02
#       8
#     4   4   2   4   4   4   4   4
#     4   9  17  32  50  76 102 132 175 216 253 295
#     4  11  21  35  57  78 103 136 175 218 257 308
#     4  10  18  32  54  82  96 134 174 222 256 294
#     4   8  13  24  47  73  98 122 161 217 255 286
#     4   9  16  29  51  78 104 128 169 217 263 301
#     4  11  20  33  51  79 111 139 168 208 267 319
#     4  10  21  32  52  79 109 137 169 216 266 311
#     4   9  18  30  53  74 101 135 176 212 251 304
#
# _framework density 18.235696999999998
#
# number of rings (size 3 to 8) (size 9 to 14) (size 15 to 20)
#    0.000    2.400    2.000    1.600    3.733    0.533 
#    0.000    0.000   10.267    0.000    0.000    0.000 
#    0.000    0.000    0.000    0.000    0.000    0.000 
#
# Total GULP energy -371650.129703 kJ/mol
# GULP energy per Si atom -12388.337657 kJ/mol
# Density = 1.819419 g / cm^3
# Si number density = 18.235697 Si / 1000 Ang^3
#
#
#
# Elastic Constant Matrix: (Units=GPa)
#
#
# Indices 1 2 3 4 5 6 
#
# 1 60.8615 4.9752 10.3227 0.0000 0.6290 0.0000
# 2 4.9752 52.5028 31.3225 0.0000 1.3685 0.0000
# 3 10.3227 31.3225 88.8940 0.0000 4.6903 0.0000
# 4 0.0000 0.0000 0.0000 30.6820 0.0000 0.3442
# 5 0.6290 1.3685 4.6903 0.0000 17.2357 0.0000
# 6 0.0000 0.0000 0.0000 0.3442 0.0000 19.8614
#
#
#
# Elastic Compliance Matrix: (Units=1/GPa)
#
#
# Indices 1 2 3 4 5 6 
#
# 1 0.016773 -0.000542 -0.001752 0.000000 -0.000092 0.000000
# 2 -0.000542 0.024136 -0.008463 0.000000 0.000406 0.000000
# 3 -0.001752 -0.008463 0.014606 0.000000 -0.003239 0.000000
# 4 0.000000 0.000000 0.000000 0.032599 0.000000 -0.000565
# 5 -0.000092 0.000406 -0.003239 0.000000 0.058871 0.000000
# 6 0.000000 0.000000 0.000000 -0.000565 0.000000 0.050359
#
#
# Mechanical properties :
#
#
# Convention : Reuss Voigt Hill
#
# Bulk Modulus (GPa) = 29.41058 32.83322 31.12190
# Shear Modulus (GPa) = 21.72101 23.93169 22.82635
#
# Velocity S-wave (km/s) = 3.45501 3.62657 3.54183
# Velocity P-wave (km/s) = 5.66385 5.96490 5.81632
#
# Compressibility (1/GPa) = 0.03400137
#
# Stress axis : x y z
#
# Youngs Moduli (GPa) = 59.61911 41.43122 68.46620
#
# Poissons Ratio (x) = 0.02245 0.11995
# Poissons Ratio (y) = 0.03230 0.57944
# Poissons Ratio (z) = 0.10445 0.35064
#
# Static dielectric constant tensor:
#      x y z
#    x 3.141310 0.000000 -0.025800 
#    y 0.000000 3.133210 0.000000 
#    z -0.025800 0.000000 3.693730 
# 
# 
# High freq. dielectric constant tensor:
#      x y z
#    x 1.690160 0.000000 0.005550 
#    y 0.000000 1.676780 0.000000 
#    z 0.005550 0.000000 1.706380 
# 
# From -- ./inp_files/46943.got.cif
#   From: 2010.06.25/outbox.cif.g09.slc.cpg/sg13_24_cif.got.tgz:46943.got - 2010.06.28 04:50:58.
