data_PCOD8117061
_publ_section_title
;
Structure prediction by ZEFSAII (Michael W. Deem and Ramdas Pophale) SiO2 
 PCOD8117061
Probable space group: P 2/C
;
_chemical_formula_sum "Si O2"
_cell_formula_units_Z 30
_cell_length_a 30.281374
_cell_length_b 8.988249
_cell_length_c 18.035506
_cell_angle_alpha 90.000000
_cell_angle_beta 19.817111
_cell_angle_gamma 90.000000
_cell_volume 1664.189988
_symmetry_space_group_name_H-M "P 2/C"
_symmetry_group_IT_number 13
_symmetry_cell_setting 'monoclinic'
loop_
_space_group_symop_operation_xyz
x,y,z
-x,y,1/2-z
-x,-y,-z
x,-y,1/2+z
loop_
_atom_site_type_symbol
_atom_site_label
_atom_site_fract_x
_atom_site_fract_y
_atom_site_fract_z
Si Si1 0.423502 0.153371 0.941588
Si Si2 0.373865 0.189939 0.492885
Si Si3 0.000000 0.440459 0.750000
Si Si4 0.858115 0.374709 0.693028
Si Si5 0.114214 0.426017 0.214858
Si Si6 0.417917 0.589000 0.047688
Si Si7 0.400068 0.659196 0.242302
Si Si8 0.216590 0.620032 0.806632
O O1 0.500000 0.216310 0.750000
O O2 0.523850 0.193900 0.849080
O O3 0.385379 0.983093 0.992375
O O4 0.284902 0.232458 0.169430
O O5 0.500000 0.246048 0.250000
O O6 0.242110 0.236086 0.656604
O O7 0.374886 0.270370 0.569062
O O8 0.921235 0.542052 0.815111
O O9 0.090761 0.336737 0.554740
O O10 0.868335 0.422557 0.763444
O O11 0.812085 0.518829 0.719411
O O12 0.999937 0.328830 0.435414
O O13 0.247387 0.330086 0.003013
O O14 0.543706 0.499580 0.815545
O O15 0.437960 0.655459 0.096622
O O16 0.303299 0.468266 0.228913
#
# Coordination Sequence:
#
# PCOD8117061 Si02
#       8
#     4   4   2   4   4   4   4   4
#     4  10  21  34  54  76 108 145 178 221 267 317
#     4  10  20  36  53  75 108 143 178 222 268 317
#     4  10  18  30  54  78 112 142 172 228 276 314
#     4   9  19  32  55  81 104 138 181 223 267 318
#     4  10  18  31  54  84 108 137 179 227 271 318
#     4   9  18  31  53  81 103 134 173 223 270 313
#     4  10  18  31  54  81 106 133 174 221 269 326
#     4   9  17  33  53  80 107 138 175 222 269 321
#
# _framework density 18.026786000000001
#
# number of rings (size 3 to 8) (size 9 to 14) (size 15 to 20)
#    0.000    2.400    1.333    1.600    0.000    4.267 
#    0.000    0.000    2.933   18.400    0.000    0.000 
#    0.000    0.000    0.000    0.000    0.000    0.000 
#
# Total GULP energy -371678.702075 kJ/mol
# GULP energy per Si atom -12389.290069 kJ/mol
# Density = 1.798576 g / cm^3
# Si number density = 18.026786 Si / 1000 Ang^3
#
#
#
# Elastic Constant Matrix: (Units=GPa)
#
#
# Indices 1 2 3 4 5 6 
#
# 1 88.7356 32.6031 15.9917 0.0000 -7.3472 0.0000
# 2 32.6031 68.3437 46.6613 0.0000 -1.7083 0.0000
# 3 15.9917 46.6613 130.3652 0.0000 -10.4940 0.0000
# 4 0.0000 0.0000 0.0000 19.6601 0.0000 -5.3276
# 5 -7.3472 -1.7083 -10.4940 0.0000 27.8161 0.0000
# 6 0.0000 0.0000 0.0000 -5.3276 0.0000 19.5383
#
#
#
# Elastic Compliance Matrix: (Units=1/GPa)
#
#
# Indices 1 2 3 4 5 6 
#
# 1 0.014105 -0.007490 0.001251 0.000000 0.003738 0.000000
# 2 -0.007490 0.023400 -0.007735 0.000000 -0.003459 0.000000
# 3 0.001251 -0.007735 0.010596 0.000000 0.003853 0.000000
# 4 0.000000 0.000000 0.000000 0.054923 0.000000 0.014976
# 5 0.003738 -0.003459 0.003853 0.000000 0.038179 0.000000
# 6 0.000000 0.000000 0.000000 0.014976 0.000000 0.055265
#
#
# Mechanical properties :
#
#
# Convention : Reuss Voigt Hill
#
# Bulk Modulus (GPa) = 49.61822 53.10629 51.36226
# Shear Modulus (GPa) = 21.63263 26.21545 23.92404
#
# Velocity S-wave (km/s) = 3.46790 3.81760 3.64694
# Velocity P-wave (km/s) = 6.60451 6.99684 6.80350
#
# Compressibility (1/GPa) = 0.02015389
#
# Stress axis : x y z
#
# Youngs Moduli (GPa) = 70.89528 42.73592 94.37528
#
# Poissons Ratio (x) = 0.32009 -0.11811
# Poissons Ratio (y) = 0.53100 0.73000
# Poissons Ratio (z) = -0.08872 0.33056
#
# Static dielectric constant tensor:
#      x y z
#    x 3.486590 0.000000 -0.171080 
#    y 0.000000 2.861680 0.000000 
#    z -0.171080 0.000000 3.674600 
# 
# 
# High freq. dielectric constant tensor:
#      x y z
#    x 1.711940 0.000000 -0.003540 
#    y 0.000000 1.643770 0.000000 
#    z -0.003540 0.000000 1.716140 
# 
# From -- ./inp_files/66278.got.cif
#   From: 2010.06.25/outbox.cif.g09.slc.cpg/sg13_34_cif.got.tgz:66278.got - 2010.06.28 04:50:58.
