data_PCOD8117734
_publ_section_title
;
Structure prediction by ZEFSAII (Michael W. Deem and Ramdas Pophale) SiO2 
 PCOD8117734
Probable space group: P 2/C
;
_chemical_formula_sum "Si O2"
_cell_formula_units_Z 28
_cell_length_a 11.586672
_cell_length_b 16.962135
_cell_length_c 8.640635
_cell_angle_alpha 90.000000
_cell_angle_beta 130.510167
_cell_angle_gamma 90.000000
_cell_volume 1291.113947
_symmetry_space_group_name_H-M "P 2/C"
_symmetry_group_IT_number 13
_symmetry_cell_setting 'monoclinic'
loop_
_space_group_symop_operation_xyz
x,y,z
-x,y,1/2-z
-x,-y,-z
x,-y,1/2+z
loop_
_atom_site_type_symbol
_atom_site_label
_atom_site_fract_x
_atom_site_fract_y
_atom_site_fract_z
Si Si1 0.118797 0.173247 0.590008
Si Si2 0.212705 0.392116 0.304190
Si Si3 0.944521 0.336900 0.866376
Si Si4 0.821697 0.046768 0.625996
Si Si5 0.342624 0.764155 0.028435
Si Si6 0.165755 0.472530 0.580888
Si Si7 0.785469 0.107685 0.267708
O O1 0.099689 0.246043 0.692019
O O2 0.214264 0.107020 0.764818
O O3 0.204197 0.207554 0.515663
O O4 0.957988 0.137084 0.402349
O O5 0.333133 0.327267 0.466482
O O6 0.169522 0.452829 0.403928
O O7 0.275179 0.453429 0.225010
O O8 0.069794 0.343387 0.112959
O O9 0.801064 0.390499 0.796853
O O10 0.000000 0.369773 0.750000
O O11 0.741670 0.075597 0.399211
O O12 0.000000 0.043395 0.750000
O O13 0.760302 0.961051 0.618972
O O14 0.500000 0.776783 0.250000
O O15 0.331641 0.821231 0.869642
O O16 0.000000 0.500000 0.500000
#
# Coordination Sequence:
#
# PCOD8117734 Si02
#       7
#     4   4   4   4   4   4   4
#     4  11  21  37  64  92 124 159 204 253 311 361
#     4  11  22  39  58  90 127 158 197 253 308 361
#     4  11  19  32  60  97 125 147 194 251 310 364
#     4  10  20  36  63 104 126 154 201 256 315 366
#     4  12  26  43  62  86 122 170 214 250 301 366
#     4  10  19  32  57  92 121 147 191 246 304 362
#     4  11  21  39  66  93 129 159 201 256 309 366
#
# _framework density 21.686699000000001
#
# number of rings (size 3 to 8) (size 9 to 14) (size 15 to 20)
#    0.000    1.143    2.857    8.571    0.000    0.000 
#    0.000    4.286    0.000    0.000    0.000    0.000 
#    0.000    0.000    0.000    0.000    0.000    0.000 
#
# Total GULP energy -346949.934632 kJ/mol
# GULP energy per Si atom -12391.069094 kJ/mol
# Density = 2.163734 g / cm^3
# Si number density = 21.686699 Si / 1000 Ang^3
#
#
#
# Elastic Constant Matrix: (Units=GPa)
#
#
# Indices 1 2 3 4 5 6 
#
# 1 21.5921 22.2557 33.3739 0.0000 -12.2358 0.0000
# 2 22.2557 153.2220 58.6847 0.0000 -8.5059 0.0000
# 3 33.3739 58.6847 121.0443 0.0000 -16.3530 0.0000
# 4 0.0000 0.0000 0.0000 48.6434 0.0000 -17.9275
# 5 -12.2358 -8.5059 -16.3530 0.0000 29.1352 0.0000
# 6 0.0000 0.0000 0.0000 -17.9275 0.0000 14.3392
#
#
#
# Elastic Compliance Matrix: (Units=1/GPa)
#
#
# Indices 1 2 3 4 5 6 
#
# 1 0.101081 -0.004788 -0.021643 0.000000 0.028905 0.000000
# 2 -0.004788 0.008242 -0.002838 0.000000 -0.001197 0.000000
# 3 -0.021643 -0.002838 0.015435 0.000000 -0.001255 0.000000
# 4 0.000000 0.000000 0.000000 0.038125 0.000000 0.047665
# 5 0.028905 -0.001197 -0.001255 0.000000 0.045408 0.000000
# 6 0.000000 0.000000 0.000000 0.047665 0.000000 0.129332
#
#
# Mechanical properties :
#
#
# Convention : Reuss Voigt Hill
#
# Bulk Modulus (GPa) = 15.10107 58.27632 36.68869
# Shear Modulus (GPa) = 11.95499 30.52650 21.24075
#
# Velocity S-wave (km/s) = 2.35044 3.75589 3.13299
# Velocity P-wave (km/s) = 3.78741 6.76308 5.48104
#
# Compressibility (1/GPa) = 0.06622049
#
# Stress axis : x y z
#
# Youngs Moduli (GPa) = 9.89304 121.32513 64.78722
#
# Poissons Ratio (x) = 0.58091 1.40222
# Poissons Ratio (y) = 0.04737 0.18384
# Poissons Ratio (z) = 0.21412 0.34428
#
# Static dielectric constant tensor:
#      x y z
#    x 3.367000 0.000000 -0.488310 
#    y 0.000000 4.912800 0.000000 
#    z -0.488310 0.000000 3.910840 
# 
# 
# High freq. dielectric constant tensor:
#      x y z
#    x 1.787070 0.000000 -0.053470 
#    y 0.000000 1.891520 0.000000 
#    z -0.053470 0.000000 1.836940 
# 
# From -- ./inp_files/20116.got.cif
#   From: 2010.06.25/outbox.cif.g09.slc.cpg/sg13_11_cif.got.tgz:20116.got - 2010.06.28 04:50:58.
