data_PCOD8117709
_publ_section_title
;
Structure prediction by ZEFSAII (Michael W. Deem and Ramdas Pophale) SiO2 
 PCOD8117709
Probable space group: P 2/C
;
_chemical_formula_sum "Si O2"
_cell_formula_units_Z 32
_cell_length_a 25.554910
_cell_length_b 8.350098
_cell_length_c 22.168557
_cell_angle_alpha 90.000000
_cell_angle_beta 158.882706
_cell_angle_gamma 90.000000
_cell_volume 1704.282438
_symmetry_space_group_name_H-M "P 2/C"
_symmetry_group_IT_number 13
_symmetry_cell_setting 'monoclinic'
loop_
_space_group_symop_operation_xyz
x,y,z
-x,y,1/2-z
-x,-y,-z
x,-y,1/2+z
loop_
_atom_site_type_symbol
_atom_site_label
_atom_site_fract_x
_atom_site_fract_y
_atom_site_fract_z
Si Si1 0.745415 0.949988 0.207554
Si Si2 0.492679 0.287634 0.061228
Si Si3 0.571353 0.888299 0.768085
Si Si4 0.921895 0.267103 0.812697
Si Si5 0.859546 0.043371 0.635078
Si Si6 0.283344 0.452087 0.375943
Si Si7 0.652202 0.143516 0.994527
Si Si8 0.210813 0.260535 0.184757
O O1 0.875118 0.847903 0.317738
O O2 0.678782 0.070379 0.088184
O O3 0.799446 0.065715 0.319606
O O4 0.619101 0.829488 0.094464
O O5 0.528222 0.214303 0.164447
O O6 0.634603 0.312420 0.174851
O O7 0.419039 0.459650 0.990975
O O8 0.500000 0.802315 0.750000
O O9 0.501933 0.068826 0.691971
O O10 0.745056 0.893476 0.961981
O O11 0.905506 0.184647 0.730092
O O12 0.823458 0.424882 0.705625
O O13 0.088252 0.313664 0.005164
O O14 0.000000 0.979739 0.750000
O O15 0.783296 0.900452 0.589873
O O16 0.349101 0.334822 0.498268
O O17 0.190532 0.354836 0.225959
#
# Coordination Sequence:
#
# PCOD8117709 Si02
#       8
#     4   4   4   4   4   4   4   4
#     4   8  17  32  51  72  98 132 169 204 244 294
#     4  10  19  32  52  79 102 130 172 216 250 289
#     4   9  17  34  55  73  94 128 170 211 252 297
#     4  10  20  34  52  75 104 141 172 199 248 312
#     4  10  19  35  55  76  97 123 167 223 256 283
#     4  10  20  35  49  71 108 139 163 197 251 317
#     4   8  17  33  52  70  95 130 164 197 247 306
#     4  11  19  31  51  78 106 135 168 209 251 294
#
# _framework density 18.776232
#
# number of rings (size 3 to 8) (size 9 to 14) (size 15 to 20)
#    0.000    2.500    0.000    4.500    0.000    0.000 
#    0.000    7.500    0.000    0.000    0.000    0.000 
#    0.000    0.000    0.000    0.000    0.000    0.000 
#
# Total GULP energy -396651.809444 kJ/mol
# GULP energy per Si atom -12395.369045 kJ/mol
# Density = 1.873350 g / cm^3
# Si number density = 18.776232 Si / 1000 Ang^3
#
#
#
# Elastic Constant Matrix: (Units=GPa)
#
#
# Indices 1 2 3 4 5 6 
#
# 1 53.4438 25.6589 22.9995 0.0000 7.8700 0.0000
# 2 25.6589 96.0106 27.9215 0.0000 -0.3988 0.0000
# 3 22.9995 27.9215 104.5298 0.0000 9.2130 0.0000
# 4 0.0000 0.0000 0.0000 16.9672 0.0000 -6.8054
# 5 7.8700 -0.3988 9.2130 0.0000 34.4342 0.0000
# 6 0.0000 0.0000 0.0000 -6.8054 0.0000 23.5533
#
#
#
# Elastic Compliance Matrix: (Units=1/GPa)
#
#
# Indices 1 2 3 4 5 6 
#
# 1 0.023347 -0.005291 -0.003326 0.000000 -0.004507 0.000000
# 2 -0.005291 0.012523 -0.002356 0.000000 0.001985 0.000000
# 3 -0.003326 -0.002356 0.011126 0.000000 -0.002244 0.000000
# 4 0.000000 0.000000 0.000000 0.066663 0.000000 0.019261
# 5 -0.004507 0.001985 -0.002244 0.000000 0.030694 0.000000
# 6 0.000000 0.000000 0.000000 0.019261 0.000000 0.048022
#
#
# Mechanical properties :
#
#
# Convention : Reuss Voigt Hill
#
# Bulk Modulus (GPa) = 39.92167 45.23820 42.57994
# Shear Modulus (GPa) = 22.45476 26.81788 24.63632
#
# Velocity S-wave (km/s) = 3.46195 3.78337 3.62622
# Velocity P-wave (km/s) = 6.10640 6.57502 6.34504
#
# Compressibility (1/GPa) = 0.02504905
#
# Stress axis : x y z
#
# Youngs Moduli (GPa) = 42.83273 79.85414 89.88281
#
# Poissons Ratio (x) = 0.42249 0.29899
# Poissons Ratio (y) = 0.22662 0.21175
# Poissons Ratio (z) = 0.14248 0.18812
#
# Static dielectric constant tensor:
#      x y z
#    x 3.334180 0.000000 -0.029860 
#    y 0.000000 3.462510 0.000000 
#    z -0.029860 0.000000 3.503100 
# 
# 
# High freq. dielectric constant tensor:
#      x y z
#    x 1.716980 0.000000 0.000400 
#    y 0.000000 1.713450 0.000000 
#    z 0.000400 0.000000 1.732320 
# 
# From -- ./inp_files/89509.got.cif
#   From: 2010.06.25/outbox.cif.g09.slc.cpg/sg13_45_cif.got.tgz:89509.got - 2010.06.28 04:50:58.
