data_PCOD8117955
_publ_section_title
;
Structure prediction by ZEFSAII (Michael W. Deem and Ramdas Pophale) SiO2 
 PCOD8117955
Probable space group: P 2/C
;
_chemical_formula_sum "Si O2"
_cell_formula_units_Z 32
_cell_length_a 14.961358
_cell_length_b 12.307396
_cell_length_c 15.598448
_cell_angle_alpha 90.000000
_cell_angle_beta 37.053735
_cell_angle_gamma 90.000000
_cell_volume 1730.699180
_symmetry_space_group_name_H-M "P 2/C"
_symmetry_group_IT_number 13
_symmetry_cell_setting 'monoclinic'
loop_
_space_group_symop_operation_xyz
x,y,z
-x,y,1/2-z
-x,-y,-z
x,-y,1/2+z
loop_
_atom_site_type_symbol
_atom_site_label
_atom_site_fract_x
_atom_site_fract_y
_atom_site_fract_z
Si Si1 0.328662 0.449394 0.042222
Si Si2 0.117114 0.201703 0.588107
Si Si3 0.163459 0.010568 0.147640
Si Si4 0.680801 0.466399 0.770061
Si Si5 0.323737 0.599641 0.889647
Si Si6 0.685656 0.764191 0.203556
Si Si7 0.348534 0.779889 0.469584
Si Si8 0.087030 0.087570 0.879851
O O1 0.258520 0.496338 0.183610
O O2 0.504674 0.459018 0.906690
O O3 0.272425 0.517099 0.003526
O O4 0.281186 0.322803 0.072918
O O5 0.244303 0.287124 0.469805
O O6 0.000000 0.242758 0.750000
O O7 0.026793 0.176744 0.570431
O O8 0.198442 0.091537 0.558642
O O9 0.000000 0.055057 0.250000
O O10 0.175454 0.971234 0.235988
O O11 0.277938 0.106851 0.049280
O O12 0.732424 0.551737 0.657972
O O13 0.744872 0.347690 0.699804
O O14 0.500000 0.619318 0.750000
O O15 0.520878 0.792619 0.361326
O O16 0.682023 0.751347 0.104959
O O17 0.795362 0.859071 0.146542
O O18 0.000000 0.000000 0.000000
#
# Coordination Sequence:
#
# PCOD8117955 Si02
#       8
#     4   4   4   4   4   4   4   4
#     4   9  18  32  56  83 118 147 180 239 293 338
#     4   9  21  39  57  79 114 158 190 224 296 353
#     4   9  20  38  57  78 113 154 185 228 293 342
#     4   9  18  32  55  87 112 149 188 227 297 346
#     4  10  19  37  60  86 116 150 193 243 286 338
#     4  10  19  34  60  82 110 153 190 234 283 347
#     4  10  19  36  57  87 112 142 195 236 283 340
#     4  10  21  38  57  76 110 157 189 230 285 341
#
# _framework density 18.489636999999998
#
# number of rings (size 3 to 8) (size 9 to 14) (size 15 to 20)
#    0.000    2.750    1.250    1.500    3.500    1.500 
#    4.500    1.250    0.000    0.000    0.000    0.000 
#    0.000    0.000    0.000    0.000    0.000    0.000 
#
# Total GULP energy -396710.797458 kJ/mol
# GULP energy per Si atom -12397.212421 kJ/mol
# Density = 1.844755 g / cm^3
# Si number density = 18.489637 Si / 1000 Ang^3
#
#
#
# Elastic Constant Matrix: (Units=GPa)
#
#
# Indices 1 2 3 4 5 6 
#
# 1 82.8034 48.4647 39.0470 0.0000 11.5774 0.0000
# 2 48.4647 145.2717 68.3121 0.0000 -3.6624 0.0000
# 3 39.0470 68.3121 68.4326 0.0000 9.8446 0.0000
# 4 0.0000 0.0000 0.0000 28.3314 0.0000 0.9942
# 5 11.5774 -3.6624 9.8446 0.0000 23.3653 0.0000
# 6 0.0000 0.0000 0.0000 0.9942 0.0000 25.8035
#
#
#
# Elastic Compliance Matrix: (Units=1/GPa)
#
#
# Indices 1 2 3 4 5 6 
#
# 1 0.017733 -0.003390 -0.005742 0.000000 -0.006899 0.000000
# 2 -0.003390 0.015185 -0.014699 0.000000 0.010253 0.000000
# 3 -0.005742 -0.014699 0.034581 0.000000 -0.014029 0.000000
# 4 0.000000 0.000000 0.000000 0.035344 0.000000 -0.001362
# 5 -0.006899 0.010253 -0.014029 0.000000 0.053735 0.000000
# 6 0.000000 0.000000 0.000000 -0.001362 0.000000 0.038807
#
#
# Mechanical properties :
#
#
# Convention : Reuss Voigt Hill
#
# Bulk Modulus (GPa) = 50.41113 67.57283 58.99198
# Shear Modulus (GPa) = 20.02723 24.87895 22.45309
#
# Velocity S-wave (km/s) = 3.29471 3.67217 3.48855
# Velocity P-wave (km/s) = 6.46508 7.38955 6.94272
#
# Compressibility (1/GPa) = 0.01983689
#
# Stress axis : x y z
#
# Youngs Moduli (GPa) = 56.39143 65.85374 28.91773
#
# Poissons Ratio (x) = 0.22323 0.16605
# Poissons Ratio (y) = 0.19116 0.42507
# Poissons Ratio (z) = 0.32381 0.96800
#
# Static dielectric constant tensor:
#      x y z
#    x 3.622430 0.000000 0.268770 
#    y 0.000000 3.392850 0.000000 
#    z 0.268770 0.000000 3.269880 
# 
# 
# High freq. dielectric constant tensor:
#      x y z
#    x 1.713590 0.000000 0.021990 
#    y 0.000000 1.723010 0.000000 
#    z 0.021990 0.000000 1.697280 
# 
# From -- ./inp_files/53685.got.cif
#   From: 2010.06.25/outbox.cif.g09.slc.cpg/sg13_27_cif.got.tgz:53685.got - 2010.06.28 04:50:58.
