data_PCOD8117873
_publ_section_title
;
Structure prediction by ZEFSAII (Michael W. Deem and Ramdas Pophale) SiO2 
 PCOD8117873
Probable space group: P 2/C
;
_chemical_formula_sum "Si O2"
_cell_formula_units_Z 18
_cell_length_a 25.394515
_cell_length_b 7.389867
_cell_length_c 5.056120
_cell_angle_alpha 90.000000
_cell_angle_beta 67.038642
_cell_angle_gamma 90.000000
_cell_volume 873.663542
_symmetry_space_group_name_H-M "P 2/C"
_symmetry_group_IT_number 13
_symmetry_cell_setting 'monoclinic'
loop_
_space_group_symop_operation_xyz
x,y,z
-x,y,1/2-z
-x,-y,-z
x,-y,1/2+z
loop_
_atom_site_type_symbol
_atom_site_label
_atom_site_fract_x
_atom_site_fract_y
_atom_site_fract_z
Si Si1 0.682489 0.124353 0.407292
Si Si2 0.212021 0.624691 0.831649
Si Si3 0.000000 0.374062 0.750000
Si Si4 0.107007 0.882093 0.992900
Si Si5 0.558411 0.883360 0.063183
O O1 0.724990 0.290887 0.288000
O O2 0.618901 0.214263 0.505249
O O3 0.691971 0.033061 0.673225
O O4 0.201889 0.498345 0.603265
O O5 0.167507 0.787918 0.920147
O O6 0.943859 0.253832 0.849732
O O7 0.000000 0.500000 0.500000
O O8 0.102334 0.050433 0.201464
O O9 0.500000 0.769482 0.250000
O O10 0.556697 0.059851 0.259871
#
# Coordination Sequence:
#
# PCOD8117873 Si02
#       5
#     4   4   2   4   4
#     4  10  19  34  55  79 106 141 184 228 273 328
#     4  12  24  39  57  82 114 148 184 229 283 330
#     4  12  24  42  64  92 124 152 182 224 280 330
#     4  12  24  42  64  88 115 150 193 231 269 321
#     4   8  14  25  45  73 101 130 172 224 270 315
#
# _framework density 20.602896999999999
#
# number of rings (size 3 to 8) (size 9 to 14) (size 15 to 20)
#    0.000    1.333    0.000    7.333    0.000    0.000 
#    0.000    0.000    0.000    1.333    0.000    0.000 
#    0.000    0.000    0.000    0.000    0.000    0.000 
#
# Total GULP energy -223169.239164 kJ/mol
# GULP energy per Si atom -12398.291065 kJ/mol
# Density = 2.055600 g / cm^3
# Si number density = 20.602897 Si / 1000 Ang^3
#
#
#
# Elastic Constant Matrix: (Units=GPa)
#
#
# Indices 1 2 3 4 5 6 
#
# 1 121.7960 38.6768 41.3301 0.0000 -20.3328 0.0000
# 2 38.6768 69.2164 31.5542 0.0000 -7.8669 0.0000
# 3 41.3301 31.5542 107.9725 0.0000 3.2478 0.0000
# 4 0.0000 0.0000 0.0000 -219.9288 0.0000 508.6065
# 5 -20.3328 -7.8669 3.2478 0.0000 49.4898 0.0000
# 6 0.0000 0.0000 0.0000 508.6065 0.0000 -946.9936
#
#
#
# Elastic Compliance Matrix: (Units=1/GPa)
#
#
# Indices 1 2 3 4 5 6 
#
# 1 0.011403 -0.004440 -0.003193 0.000000 0.004189 0.000000
# 2 -0.004440 0.018846 -0.003851 0.000000 0.001424 0.000000
# 3 -0.003193 -0.003851 0.011690 0.000000 -0.002691 0.000000
# 4 0.000000 0.000000 0.000000 0.018786 0.000000 0.010090
# 5 0.004189 0.001424 -0.002691 0.000000 0.022330 0.000000
# 6 0.000000 0.000000 0.000000 0.010090 0.000000 0.004363
#
#
# Mechanical properties :
#
#
# Convention : Reuss Voigt Hill
#
# Bulk Modulus (GPa) = 52.71238 58.01192 55.36215
# Shear Modulus (GPa) = 42.84089 -210.99161 -84.07536
#
# Velocity S-wave (km/s) = 4.56495 -10.13070 -6.39501
# Velocity P-wave (km/s) = 7.30927 10.42224 5.25346
#
# Compressibility (1/GPa) = 0.01897088
#
# Stress axis : x y z
#
# Youngs Moduli (GPa) = 87.69344 53.06207 85.54067
#
# Poissons Ratio (x) = 0.23560 0.27317
# Poissons Ratio (y) = 0.38937 0.32940
# Poissons Ratio (z) = 0.28004 0.20433
#
# Static dielectric constant tensor:
#      x y z
#    x 4.138770 0.000000 -0.268130 
#    y 0.000000 3.250280 0.000000 
#    z -0.268130 0.000000 3.890010 
# 
# 
# High freq. dielectric constant tensor:
#      x y z
#    x 1.837170 0.000000 -0.004110 
#    y 0.000000 1.758170 0.000000 
#    z -0.004110 0.000000 1.835370 
# 
# From -- ./inp_files/7196.got.cif
#   From: 2010.06.25/outbox.cif.g09.slc.cpg/sg13_4_cif.got.tgz:7196.got - 2010.06.28 04:50:58.
