data_PCOD8117473
_publ_section_title
;
Structure prediction by ZEFSAII (Michael W. Deem and Ramdas Pophale) SiO2 
 PCOD8117473
Probable space group: P 2/C
;
_chemical_formula_sum "Si O2"
_cell_formula_units_Z 28
_cell_length_a 14.696127
_cell_length_b 10.126894
_cell_length_c 20.278771
_cell_angle_alpha 90.000000
_cell_angle_beta 151.441159
_cell_angle_gamma 90.000000
_cell_volume 1442.793348
_symmetry_space_group_name_H-M "P 2/C"
_symmetry_group_IT_number 13
_symmetry_cell_setting 'monoclinic'
loop_
_space_group_symop_operation_xyz
x,y,z
-x,y,1/2-z
-x,-y,-z
x,-y,1/2+z
loop_
_atom_site_type_symbol
_atom_site_label
_atom_site_fract_x
_atom_site_fract_y
_atom_site_fract_z
Si Si1 0.168243 0.492866 0.557100
Si Si2 0.500000 0.133964 0.750000
Si Si3 0.092542 0.984878 0.987600
Si Si4 0.013610 0.728307 0.863062
Si Si5 0.387917 0.670025 0.288200
Si Si6 0.000000 0.606728 0.250000
Si Si7 0.256281 0.633017 0.907899
Si Si8 0.002131 0.731826 0.388745
O O1 0.358058 0.457239 0.720397
O O2 0.171849 0.634319 0.522388
O O3 0.000000 0.500000 0.500000
O O4 0.124251 0.372904 0.480317
O O5 0.504798 0.219754 0.686379
O O6 0.684355 0.042558 0.867266
O O7 0.072573 0.119016 0.934278
O O8 0.000000 0.000000 0.000000
O O9 0.982864 0.867306 0.879690
O O10 0.805555 0.671335 0.706835
O O11 0.151110 0.740974 0.887285
O O12 0.517852 0.634203 0.434493
O O13 0.185636 0.720362 0.185600
O O14 0.817845 0.513231 0.121087
O O15 0.045288 0.698063 0.216618
#
# Coordination Sequence:
#
# PCOD8117473 Si02
#       8
#     4   2   4   4   4   2   4   4
#     4  10  18  36  61  90 121 161 211 263 319 370
#     4  12  22  42  66  98 124 168 230 262 306 400
#     4  12  23  42  66  94 129 169 213 274 324 381
#     4  10  19  38  63  87 123 170 212 252 314 385
#     4  11  21  38  71  95 120 169 228 261 307 393
#     4  10  22  42  58  90 142 166 208 266 334 372
#     4  10  20  38  67  92 120 169 225 256 296 396
#     4  11  23  41  62  94 135 167 204 273 340 369
#
# _framework density 19.406797999999998
#
# number of rings (size 3 to 8) (size 9 to 14) (size 15 to 20)
#    0.000    1.429    7.143    0.857    0.000    1.714 
#    2.571    2.143    0.000    0.000    0.000    0.000 
#    0.000    0.000    0.000    0.000    0.000    0.000 
#
# Total GULP energy -346983.840354 kJ/mol
# GULP energy per Si atom -12392.280013 kJ/mol
# Density = 1.936263 g / cm^3
# Si number density = 19.406798 Si / 1000 Ang^3
#
#
#
# Elastic Constant Matrix: (Units=GPa)
#
#
# Indices 1 2 3 4 5 6 
#
# 1 79.8255 30.9170 14.5845 0.0000 -5.0037 0.0000
# 2 30.9170 129.1256 40.8813 0.0000 -5.9713 0.0000
# 3 14.5845 40.8813 143.6216 0.0000 -5.7876 0.0000
# 4 0.0000 0.0000 0.0000 23.4300 0.0000 -5.1670
# 5 -5.0037 -5.9713 -5.7876 0.0000 29.0511 0.0000
# 6 0.0000 0.0000 0.0000 -5.1670 0.0000 31.6861
#
#
#
# Elastic Compliance Matrix: (Units=1/GPa)
#
#
# Indices 1 2 3 4 5 6 
#
# 1 0.013921 -0.003110 -0.000461 0.000000 0.001667 0.000000
# 2 -0.003110 0.009253 -0.002281 0.000000 0.000912 0.000000
# 3 -0.000461 -0.002281 0.007699 0.000000 0.000985 0.000000
# 4 0.000000 0.000000 0.000000 0.044272 0.000000 0.007219
# 5 0.001667 0.000912 0.000985 0.000000 0.035093 0.000000
# 6 0.000000 0.000000 0.000000 0.007219 0.000000 0.032737
#
#
# Mechanical properties :
#
#
# Convention : Reuss Voigt Hill
#
# Bulk Modulus (GPa) = 52.17147 58.37092 55.27120
# Shear Modulus (GPa) = 31.04257 34.57944 32.81100
#
# Velocity S-wave (km/s) = 4.00380 4.22574 4.11627
# Velocity P-wave (km/s) = 6.95093 7.34521 7.15078
#
# Compressibility (1/GPa) = 0.01916756
#
# Stress axis : x y z
#
# Youngs Moduli (GPa) = 71.83611 108.06724 129.89235
#
# Poissons Ratio (x) = 0.33609 0.05991
# Poissons Ratio (y) = 0.22341 0.29634
# Poissons Ratio (z) = 0.03313 0.24655
#
# Static dielectric constant tensor:
#      x y z
#    x 3.539730 0.000000 -0.206570 
#    y 0.000000 3.670900 0.000000 
#    z -0.206570 0.000000 3.830490 
# 
# 
# High freq. dielectric constant tensor:
#      x y z
#    x 1.752140 0.000000 -0.017700 
#    y 0.000000 1.740150 0.000000 
#    z -0.017700 0.000000 1.756000 
# 
# From -- ./inp_files/80049.got.cif
#   From: 2010.06.25/outbox.cif.g09.slc.cpg/sg13_41_cif.got.tgz:80049.got - 2010.06.28 04:50:58.
