data_PCOD8118334
_publ_section_title
;
Structure prediction by ZEFSAII (Michael W. Deem and Ramdas Pophale) SiO2 
 PCOD8118334
Probable space group: P 2/C
;
_chemical_formula_sum "Si O2"
_cell_formula_units_Z 30
_cell_length_a 18.647427
_cell_length_b 9.624794
_cell_length_c 8.199154
_cell_angle_alpha 90.000000
_cell_angle_beta 81.887025
_cell_angle_gamma 90.000000
_cell_volume 1456.837012
_symmetry_space_group_name_H-M "P 2/C"
_symmetry_group_IT_number 13
_symmetry_cell_setting 'monoclinic'
loop_
_space_group_symop_operation_xyz
x,y,z
-x,y,1/2-z
-x,-y,-z
x,-y,1/2+z
loop_
_atom_site_type_symbol
_atom_site_label
_atom_site_fract_x
_atom_site_fract_y
_atom_site_fract_z
Si Si1 0.945479 0.556095 0.647009
Si Si2 0.694333 0.897146 0.065482
Si Si3 0.265247 0.626348 0.585904
Si Si4 0.500000 0.671825 0.750000
Si Si5 0.848418 0.609604 0.404783
Si Si6 0.720706 0.815090 0.415628
Si Si7 0.651254 0.418741 0.124199
Si Si8 0.471422 0.856343 0.444226
O O1 0.884113 0.644752 0.571252
O O2 0.909281 0.422999 0.750299
O O3 0.000000 0.642901 0.750000
O O4 0.000000 0.500000 0.500000
O O5 0.692614 0.874693 0.256845
O O6 0.614908 0.869651 0.020393
O O7 0.747824 0.786329 0.960022
O O8 0.724233 0.053086 0.034260
O O9 0.195848 0.534616 0.563766
O O10 0.334047 0.568574 0.459916
O O11 0.284626 0.614143 0.768877
O O12 0.428858 0.575217 0.776179
O O13 0.497412 0.751927 0.578447
O O14 0.798694 0.740003 0.372076
O O15 0.659808 0.704603 0.489755
O O16 0.500000 0.820997 0.250000
O O17 0.500000 0.000000 0.500000
#
# Coordination Sequence:
#
# PCOD8118334 Si02
#       8
#     4   4   4   2   4   4   4   4
#     4   9  18  33  61  99 131 157 194 234 282 363
#     4  12  23  41  58  89 113 159 210 271 318 381
#     4  11  22  39  62  85 123 159 206 263 312 380
#     4  12  24  42  60  82 122 166 218 280 352 410
#     4  10  19  38  61  94 126 162 194 245 309 353
#     4  11  24  38  62  87 124 156 210 268 315 380
#     4  11  23  41  58  86 115 161 209 268 335 391
#     4  12  24  39  61  84 116 163 217 280 346 405
#
# _framework density 20.592555999999998
#
# number of rings (size 3 to 8) (size 9 to 14) (size 15 to 20)
#    0.000    1.067    2.000    7.200    0.000    0.533 
#    1.200    0.000    0.000    0.000    0.000   58.800 
#    0.000    0.000    0.000    0.000    0.000    0.000 
#
# Total GULP energy -371759.574869 kJ/mol
# GULP energy per Si atom -12391.985829 kJ/mol
# Density = 2.054569 g / cm^3
# Si number density = 20.592556 Si / 1000 Ang^3
#
#
#
# Elastic Constant Matrix: (Units=GPa)
#
#
# Indices 1 2 3 4 5 6 
#
# 1 112.7521 20.0653 26.6326 0.0000 3.8005 0.0000
# 2 20.0653 68.2416 5.9504 0.0000 -10.7666 0.0000
# 3 26.6326 5.9504 98.8094 0.0000 8.4498 0.0000
# 4 0.0000 0.0000 0.0000 30.5838 0.0000 -1.2606
# 5 3.8005 -10.7666 8.4498 0.0000 38.3151 0.0000
# 6 0.0000 0.0000 0.0000 -1.2606 0.0000 15.4816
#
#
#
# Elastic Compliance Matrix: (Units=1/GPa)
#
#
# Indices 1 2 3 4 5 6 
#
# 1 0.010004 -0.002934 -0.002410 0.000000 -0.001285 0.000000
# 2 -0.002934 0.016364 -0.000625 0.000000 0.005027 0.000000
# 3 -0.002410 -0.000625 0.011010 0.000000 -0.002365 0.000000
# 4 0.000000 0.000000 0.000000 0.032807 0.000000 0.002671
# 5 -0.001285 0.005027 -0.002365 0.000000 0.028161 0.000000
# 6 0.000000 0.000000 0.000000 0.002671 0.000000 0.064810
#
#
# Mechanical properties :
#
#
# Convention : Reuss Voigt Hill
#
# Bulk Modulus (GPa) = 39.30673 42.78887 41.04780
# Shear Modulus (GPa) = 27.23713 32.01976 29.62845
#
# Velocity S-wave (km/s) = 3.64080 3.94752 3.79726
# Velocity P-wave (km/s) = 6.06656 6.44990 6.26116
#
# Compressibility (1/GPa) = 0.02544093
#
# Stress axis : x y z
#
# Youngs Moduli (GPa) = 99.96321 61.10921 90.82806
#
# Poissons Ratio (x) = 0.17930 0.21887
# Poissons Ratio (y) = 0.29330 0.05673
# Poissons Ratio (z) = 0.24088 0.03816
#
# Static dielectric constant tensor:
#      x y z
#    x 3.126680 0.000000 -0.191220 
#    y 0.000000 3.587800 0.000000 
#    z -0.191220 0.000000 4.039170 
# 
# 
# High freq. dielectric constant tensor:
#      x y z
#    x 1.804360 0.000000 0.009810 
#    y 0.000000 1.771970 0.000000 
#    z 0.009810 0.000000 1.834070 
# 
# From -- ./inp_files/22759.got.cif
#   From: 2010.06.25/outbox.cif.g09.slc.cpg/sg13_12_cif.got.tgz:22759.got - 2010.06.28 04:50:58.
