data_PCOD8118262
_publ_section_title
;
Structure prediction by ZEFSAII (Michael W. Deem and Ramdas Pophale) SiO2 
 PCOD8118262
Probable space group: P 2/C
;
_chemical_formula_sum "Si O2"
_cell_formula_units_Z 20
_cell_length_a 15.815004
_cell_length_b 5.132036
_cell_length_c 13.234597
_cell_angle_alpha 90.000000
_cell_angle_beta 61.538306
_cell_angle_gamma 90.000000
_cell_volume 944.334270
_symmetry_space_group_name_H-M "P 2/C"
_symmetry_group_IT_number 13
_symmetry_cell_setting 'monoclinic'
loop_
_space_group_symop_operation_xyz
x,y,z
-x,y,1/2-z
-x,-y,-z
x,-y,1/2+z
loop_
_atom_site_type_symbol
_atom_site_label
_atom_site_fract_x
_atom_site_fract_y
_atom_site_fract_z
Si Si1 0.774125 0.733508 0.310286
Si Si2 0.583539 0.034222 0.872426
Si Si3 0.109842 0.080820 0.934906
Si Si4 0.196602 0.421906 0.484033
Si Si5 0.358964 0.471936 0.254972
O O1 0.860363 0.866028 0.198076
O O2 0.816104 0.626167 0.390203
O O3 0.732623 0.489828 0.269500
O O4 0.685246 0.938559 0.374664
O O5 0.582366 0.790360 0.797255
O O6 0.568444 0.286848 0.808387
O O7 0.500000 0.000000 0.000000
O O8 0.127186 0.339248 0.992889
O O9 0.173099 0.845476 0.940553
O O10 0.000000 0.000000 0.000000
O O11 0.309414 0.485100 0.394159
#
# Coordination Sequence:
#
# PCOD8118262 Si02
#       5
#     4   4   4   4   4
#     4   9  23  37  66  87 127 162 209 248 318 367
#     4  10  19  37  63  85 126 164 199 257 309 357
#     4  11  24  42  62  94 128 160 209 267 310 374
#     4  11  21  40  66  87 124 169 205 254 318 373
#     4   9  19  37  57  86 122 157 204 253 304 361
#
# _framework density 21.178940000000001
#
# number of rings (size 3 to 8) (size 9 to 14) (size 15 to 20)
#    1.200    0.800    2.000    1.200    2.800    0.800 
#    0.000    3.000    0.000    0.000    0.000    0.000 
#    0.000    0.000    0.000    0.000    0.000    0.000 
#
# Total GULP energy -247827.465729 kJ/mol
# GULP energy per Si atom -12391.373286 kJ/mol
# Density = 2.113074 g / cm^3
# Si number density = 21.178940 Si / 1000 Ang^3
#
#
#
# Elastic Constant Matrix: (Units=GPa)
#
#
# Indices 1 2 3 4 5 6 
#
# 1 42.7700 20.3843 55.1243 0.0000 -5.8174 0.0000
# 2 20.3843 145.9434 45.4508 0.0000 5.1113 0.0000
# 3 55.1243 45.4508 165.3352 0.0000 -10.1395 0.0000
# 4 0.0000 0.0000 0.0000 36.4766 0.0000 -6.5456
# 5 -5.8174 5.1113 -10.1395 0.0000 34.6251 0.0000
# 6 0.0000 0.0000 0.0000 -6.5456 0.0000 16.7905
#
#
#
# Elastic Compliance Matrix: (Units=1/GPa)
#
#
# Indices 1 2 3 4 5 6 
#
# 1 0.041734 -0.001838 -0.013200 0.000000 0.003418 0.000000
# 2 -0.001838 0.007679 -0.001616 0.000000 -0.001915 0.000000
# 3 -0.013200 -0.001616 0.010969 0.000000 0.001233 0.000000
# 4 0.000000 0.000000 0.000000 0.029477 0.000000 0.011491
# 5 0.003418 -0.001915 0.001233 0.000000 0.030099 0.000000
# 6 0.000000 0.000000 0.000000 0.011491 0.000000 0.064037
#
#
# Mechanical properties :
#
#
# Convention : Reuss Voigt Hill
#
# Bulk Modulus (GPa) = 36.93390 66.21863 51.57627
# Shear Modulus (GPa) = 22.09195 33.11773 27.60484
#
# Velocity S-wave (km/s) = 3.23322 3.95867 3.61419
# Velocity P-wave (km/s) = 5.60492 7.22695 6.46699
#
# Compressibility (1/GPa) = 0.02707540
#
# Stress axis : x y z
#
# Youngs Moduli (GPa) = 23.96114 130.22667 91.16640
#
# Poissons Ratio (x) = 0.23937 1.20337
# Poissons Ratio (y) = 0.04404 0.14729
# Poissons Ratio (z) = 0.31628 0.21039
#
# Static dielectric constant tensor:
#      x y z
#    x 3.313920 0.000000 -0.089740 
#    y 0.000000 4.002100 0.000000 
#    z -0.089740 0.000000 3.820550 
# 
# 
# High freq. dielectric constant tensor:
#      x y z
#    x 1.784170 0.000000 -0.009430 
#    y 0.000000 1.844710 0.000000 
#    z -0.009430 0.000000 1.839490 
# 
# From -- ./inp_files/35122.got.cif
#   From: 2010.06.25/outbox.cif.g09.slc.cpg/sg13_18_cif.got.tgz:35122.got - 2010.06.28 04:50:58.
