data_PCOD8118760
_publ_section_title
;
Structure prediction by ZEFSAII (Michael W. Deem and Ramdas Pophale) SiO2 
 PCOD8118760
Probable space group: P 2/C
;
_chemical_formula_sum "Si O2"
_cell_formula_units_Z 24
_cell_length_a 28.784452
_cell_length_b 4.989943
_cell_length_c 24.645118
_cell_angle_alpha 90.000000
_cell_angle_beta 19.681437
_cell_angle_gamma 90.000000
_cell_volume 1192.185736
_symmetry_space_group_name_H-M "P 2/C"
_symmetry_group_IT_number 13
_symmetry_cell_setting 'monoclinic'
loop_
_space_group_symop_operation_xyz
x,y,z
-x,y,1/2-z
-x,-y,-z
x,-y,1/2+z
loop_
_atom_site_type_symbol
_atom_site_label
_atom_site_fract_x
_atom_site_fract_y
_atom_site_fract_z
Si Si1 0.762104 0.237522 0.337184
Si Si2 0.311147 0.249050 0.410403
Si Si3 0.144384 0.253647 0.062273
Si Si4 0.069431 0.684631 0.524178
Si Si5 0.118217 0.848152 0.903552
Si Si6 0.379792 0.249081 0.457401
O O1 0.770006 0.260432 0.262659
O O2 0.686935 0.482302 0.447612
O O3 0.913170 0.202848 0.197830
O O4 0.668304 0.981167 0.449827
O O5 0.234576 0.532541 0.495420
O O6 0.331092 0.168233 0.450853
O O7 0.456012 0.281727 0.220535
O O8 0.222142 0.029273 0.476623
O O9 0.124129 0.367010 0.024093
O O10 0.000000 0.209431 0.250000
O O11 0.065503 0.408423 0.494936
O O12 0.168793 0.916382 0.388805
O O13 0.000000 0.000000 0.000000
#
# Coordination Sequence:
#
# PCOD8118760 Si02
#       6
#     4   4   4   4   4   4
#     4  11  20  36  61  88 111 147 195 235 286 334
#     4  11  24  40  57  86 117 152 190 232 288 334
#     4  12  24  39  61  86 118 152 187 228 288 355
#     4  11  21  36  58  88 121 148 182 241 293 336
#     4  10  20  35  57  87 119 148 188 240 289 331
#     4  11  22  38  61  83 115 150 193 241 274 336
#
# _framework density 20.13109
#
# number of rings (size 3 to 8) (size 9 to 14) (size 15 to 20)
#    0.000    1.000    0.000   10.500    0.000    2.667 
#    0.000    0.000    0.000   20.000    0.000    0.000 
#    0.000    0.000    0.000    0.000    0.000    0.000 
#
# Total GULP energy -297602.699393 kJ/mol
# GULP energy per Si atom -12400.112475 kJ/mol
# Density = 2.008527 g / cm^3
# Si number density = 20.131090 Si / 1000 Ang^3
#
#
#
# Elastic Constant Matrix: (Units=GPa)
#
#
# Indices 1 2 3 4 5 6 
#
# 1 81.3019 17.1630 39.9994 0.0000 9.6821 0.0000
# 2 17.1630 116.7446 37.4894 0.0000 3.8710 0.0000
# 3 39.9994 37.4894 109.0611 0.0000 2.5485 0.0000
# 4 0.0000 0.0000 0.0000 35.1175 0.0000 12.3120
# 5 9.6821 3.8710 2.5485 0.0000 23.0966 0.0000
# 6 0.0000 0.0000 0.0000 12.3120 0.0000 35.3250
#
#
#
# Elastic Compliance Matrix: (Units=1/GPa)
#
#
# Indices 1 2 3 4 5 6 
#
# 1 0.015808 -0.000348 -0.005539 0.000000 -0.005957 0.000000
# 2 -0.000348 0.009672 -0.003171 0.000000 -0.001125 0.000000
# 3 -0.005539 -0.003171 0.012256 0.000000 0.001501 0.000000
# 4 0.000000 0.000000 0.000000 0.032440 0.000000 -0.011306
# 5 -0.005957 -0.001125 0.001501 0.000000 0.045817 0.000000
# 6 0.000000 0.000000 0.000000 -0.011306 0.000000 0.032249
#
#
# Mechanical properties :
#
#
# Convention : Reuss Voigt Hill
#
# Bulk Modulus (GPa) = 50.96745 55.15682 53.06214
# Shear Modulus (GPa) = 28.91894 32.87154 30.89524
#
# Velocity S-wave (km/s) = 3.79427 4.04527 3.92178
# Velocity P-wave (km/s) = 6.67593 7.01977 6.85001
#
# Compressibility (1/GPa) = 0.01962037
#
# Stress axis : x y z
#
# Youngs Moduli (GPa) = 63.26011 103.38660 81.59544
#
# Poissons Ratio (x) = 0.03595 0.45195
# Poissons Ratio (y) = 0.02200 0.25874
# Poissons Ratio (z) = 0.35039 0.32784
#
# Static dielectric constant tensor:
#      x y z
#    x 3.838930 0.000000 0.329560 
#    y 0.000000 3.697060 0.000000 
#    z 0.329560 0.000000 3.756080 
# 
# 
# High freq. dielectric constant tensor:
#      x y z
#    x 1.781150 0.000000 0.025330 
#    y 0.000000 1.807010 0.000000 
#    z 0.025330 0.000000 1.776000 
# 
# From -- ./inp_files/89397.got.cif
#   From: 2010.06.25/outbox.cif.g09.slc.cpg/sg13_45_cif.got.tgz:89397.got - 2010.06.28 04:50:58.
