data_PCOD8118395
_publ_section_title
;
Structure prediction by ZEFSAII (Michael W. Deem and Ramdas Pophale) SiO2 
 PCOD8118395
Probable space group: P 2/C
;
_chemical_formula_sum "Si O2"
_cell_formula_units_Z 26
_cell_length_a 9.538271
_cell_length_b 15.302147
_cell_length_c 9.701067
_cell_angle_alpha 90.000000
_cell_angle_beta 58.123257
_cell_angle_gamma 90.000000
_cell_volume 1202.387400
_symmetry_space_group_name_H-M "P 2/C"
_symmetry_group_IT_number 13
_symmetry_cell_setting 'monoclinic'
loop_
_space_group_symop_operation_xyz
x,y,z
-x,y,1/2-z
-x,-y,-z
x,-y,1/2+z
loop_
_atom_site_type_symbol
_atom_site_label
_atom_site_fract_x
_atom_site_fract_y
_atom_site_fract_z
Si Si1 0.742578 0.323530 0.204008
Si Si2 0.740604 0.908413 0.903422
Si Si3 0.186474 0.680324 0.152796
Si Si4 0.000000 0.228122 0.250000
Si Si5 0.881910 0.504075 0.691948
Si Si6 0.320604 0.942312 0.867791
Si Si7 0.544894 0.204333 0.023911
O O1 0.734634 0.425856 0.252257
O O2 0.583526 0.273562 0.344084
O O3 0.914148 0.284986 0.175079
O O4 0.746585 0.326176 0.037504
O O5 0.863922 0.833828 0.893048
O O6 0.779505 0.932707 0.723127
O O7 0.553222 0.870459 0.009668
O O8 0.772706 0.994036 0.978242
O O9 0.196150 0.590088 0.231401
O O10 0.000000 0.717363 0.250000
O O11 0.321635 0.747925 0.146683
O O12 0.000000 0.537538 0.750000
O O13 0.000000 0.500000 0.500000
O O14 0.500000 0.985364 0.750000
O O15 0.346822 0.844139 0.913267
#
# Coordination Sequence:
#
# PCOD8118395 Si02
#       7
#     4   4   4   2   4   4   4
#     4  11  20  38  64  87 120 167 199 251 304 367
#     4  10  21  39  63  89 122 161 200 246 305 361
#     4  11  22  38  62  89 122 156 210 251 301 358
#     4  10  22  38  62  90 124 158 204 244 308 362
#     4  11  21  39  62  89 124 161 196 247 310 356
#     4  10  19  39  63  83 120 162 198 247 308 356
#     4  10  21  39  63  90 121 163 208 250 307 362
#
# _framework density 21.623647999999999
#
# number of rings (size 3 to 8) (size 9 to 14) (size 15 to 20)
#    0.000    1.538    3.846    6.000    0.000    1.231 
#    6.923    0.000    3.385    0.000    0.000    0.000 
#    0.000    0.000    0.000    0.000    0.000    0.000 
#
# Total GULP energy -322177.703561 kJ/mol
# GULP energy per Si atom -12391.450137 kJ/mol
# Density = 2.157443 g / cm^3
# Si number density = 21.623648 Si / 1000 Ang^3
#
#
#
# Elastic Constant Matrix: (Units=GPa)
#
#
# Indices 1 2 3 4 5 6 
#
# 1 71.0200 40.9111 28.2516 0.0000 -4.9261 0.0000
# 2 40.9111 141.8283 61.4345 0.0000 -6.5353 0.0000
# 3 28.2516 61.4345 78.9893 0.0000 -4.5572 0.0000
# 4 0.0000 0.0000 0.0000 42.9718 0.0000 -6.5182
# 5 -4.9261 -6.5353 -4.5572 0.0000 27.6190 0.0000
# 6 0.0000 0.0000 0.0000 -6.5182 0.0000 19.9546
#
#
#
# Elastic Compliance Matrix: (Units=1/GPa)
#
#
# Indices 1 2 3 4 5 6 
#
# 1 0.017595 -0.003488 -0.003480 0.000000 0.001739 0.000000
# 2 -0.003488 0.011361 -0.007542 0.000000 0.000822 0.000000
# 3 -0.003480 -0.007542 0.019820 0.000000 0.000865 0.000000
# 4 0.000000 0.000000 0.000000 0.024484 0.000000 0.007998
# 5 0.001739 0.000822 0.000865 0.000000 0.036854 0.000000
# 6 0.000000 0.000000 0.000000 0.007998 0.000000 0.052726
#
#
# Mechanical properties :
#
#
# Convention : Reuss Voigt Hill
#
# Bulk Modulus (GPa) = 50.61393 61.44800 56.03096
# Shear Modulus (GPa) = 25.19587 28.85844 27.02715
#
# Velocity S-wave (km/s) = 3.41721 3.65715 3.53921
# Velocity P-wave (km/s) = 6.24718 6.80527 6.53219
#
# Compressibility (1/GPa) = 0.01975741
#
# Stress axis : x y z
#
# Youngs Moduli (GPa) = 56.83565 88.01719 50.45395
#
# Poissons Ratio (x) = 0.30698 0.17558
# Poissons Ratio (y) = 0.19823 0.38050
# Poissons Ratio (z) = 0.19779 0.66379
#
# Static dielectric constant tensor:
#      x y z
#    x 3.996080 0.000000 -0.096640 
#    y 0.000000 4.234300 0.000000 
#    z -0.096640 0.000000 3.734410 
# 
# 
# High freq. dielectric constant tensor:
#      x y z
#    x 1.842520 0.000000 0.000130 
#    y 0.000000 1.865120 0.000000 
#    z 0.000130 0.000000 1.819720 
# 
# From -- ./inp_files/34367.got.cif
#   From: 2010.06.25/outbox.cif.g09.slc.cpg/sg13_18_cif.got.tgz:34367.got - 2010.06.28 04:50:58.
