data_PCOD8118404
_publ_section_title
;
Structure prediction by ZEFSAII (Michael W. Deem and Ramdas Pophale) SiO2 
 PCOD8118404
Probable space group: P 2/C
;
_chemical_formula_sum "Si O2"
_cell_formula_units_Z 28
_cell_length_a 15.562587
_cell_length_b 9.562385
_cell_length_c 13.983234
_cell_angle_alpha 90.000000
_cell_angle_beta 40.243048
_cell_angle_gamma 90.000000
_cell_volume 1344.340394
_symmetry_space_group_name_H-M "P 2/C"
_symmetry_group_IT_number 13
_symmetry_cell_setting 'monoclinic'
loop_
_space_group_symop_operation_xyz
x,y,z
-x,y,1/2-z
-x,-y,-z
x,-y,1/2+z
loop_
_atom_site_type_symbol
_atom_site_label
_atom_site_fract_x
_atom_site_fract_y
_atom_site_fract_z
Si Si1 0.459473 0.594139 0.444790
Si Si2 0.844707 0.916725 0.371668
Si Si3 0.183173 0.233829 0.409192
Si Si4 0.816335 0.438055 0.389067
Si Si5 0.741214 0.177838 0.357116
Si Si6 0.737473 0.460722 0.657276
Si Si7 0.106038 0.669820 0.302415
O O1 0.500000 0.500000 0.500000
O O2 0.338134 0.514102 0.495112
O O3 0.407132 0.752318 0.515167
O O4 0.590252 0.604811 0.266973
O O5 0.789624 0.857813 0.519342
O O6 0.826624 0.803137 0.303928
O O7 0.000000 0.959338 0.250000
O O8 0.751762 0.044544 0.417558
O O9 0.214691 0.139626 0.288848
O O10 0.276374 0.370938 0.323204
O O11 0.032774 0.289162 0.532820
O O12 0.845837 0.292221 0.310237
O O13 0.834636 0.420564 0.487285
O O14 0.915581 0.554946 0.263101
O O15 0.797110 0.395808 0.702210
#
# Coordination Sequence:
#
# PCOD8118404 Si02
#       7
#     4   4   4   4   4   4   4
#     4  10  19  39  64  91 123 164 218 267 326 375
#     4  10  24  43  61  90 140 180 214 265 327 406
#     4  11  22  38  66  94 132 173 216 267 341 380
#     4  10  22  36  64  93 125 165 224 267 324 383
#     4  10  23  41  62  95 127 169 223 263 326 400
#     4  12  20  37  66  93 129 168 212 286 324 367
#     4  11  22  38  61  99 129 167 228 266 321 395
#
# _framework density 20.828059
#
# number of rings (size 3 to 8) (size 9 to 14) (size 15 to 20)
#    0.857    0.571    5.714    0.857    0.000    4.571 
#    0.000    0.714    0.000    1.714    0.000    0.000 
#    0.000    0.000    0.000    0.000    0.000    0.000 
#
# Total GULP energy -346986.402091 kJ/mol
# GULP energy per Si atom -12392.371503 kJ/mol
# Density = 2.078065 g / cm^3
# Si number density = 20.828059 Si / 1000 Ang^3
#
#
#
# Elastic Constant Matrix: (Units=GPa)
#
#
# Indices 1 2 3 4 5 6 
#
# 1 87.3505 49.4279 52.9226 0.0000 15.0512 0.0000
# 2 49.4279 127.3327 38.7568 0.0000 5.2399 0.0000
# 3 52.9226 38.7568 93.3327 0.0000 7.6120 0.0000
# 4 0.0000 0.0000 0.0000 25.4533 0.0000 9.5237
# 5 15.0512 5.2399 7.6120 0.0000 31.6645 0.0000
# 6 0.0000 0.0000 0.0000 9.5237 0.0000 32.3208
#
#
#
# Elastic Compliance Matrix: (Units=1/GPa)
#
#
# Indices 1 2 3 4 5 6 
#
# 1 0.021188 -0.005098 -0.009327 0.000000 -0.006985 0.000000
# 2 -0.005098 0.010228 -0.001444 0.000000 0.001078 0.000000
# 3 -0.009327 -0.001444 0.016546 0.000000 0.000695 0.000000
# 4 0.000000 0.000000 0.000000 0.044156 0.000000 -0.013011
# 5 -0.006985 0.001078 0.000695 0.000000 0.034556 0.000000
# 6 0.000000 0.000000 0.000000 -0.013011 0.000000 0.034774
#
#
# Mechanical properties :
#
#
# Convention : Reuss Voigt Hill
#
# Bulk Modulus (GPa) = 61.64372 65.58116 63.61244
# Shear Modulus (GPa) = 25.17700 29.01497 27.09598
#
# Velocity S-wave (km/s) = 3.48055 3.73644 3.61076
# Velocity P-wave (km/s) = 6.76854 7.08307 6.92759
#
# Compressibility (1/GPa) = 0.01622225
#
# Stress axis : x y z
#
# Youngs Moduli (GPa) = 47.19724 97.77420 60.43656
#
# Poissons Ratio (x) = 0.49847 0.56371
# Poissons Ratio (y) = 0.24062 0.08728
# Poissons Ratio (z) = 0.44022 0.14120
#
# Static dielectric constant tensor:
#      x y z
#    x 3.678800 0.000000 0.120910 
#    y 0.000000 3.547150 0.000000 
#    z 0.120910 0.000000 3.959800 
# 
# 
# High freq. dielectric constant tensor:
#      x y z
#    x 1.812700 0.000000 0.019350 
#    y 0.000000 1.789140 0.000000 
#    z 0.019350 0.000000 1.819450 
# 
# From -- ./inp_files/55246.got.cif
#   From: 2010.06.25/outbox.cif.g09.slc.cpg/sg13_28_cif.got.tgz:55246.got - 2010.06.28 04:50:58.
