data_PCOD8118754
_publ_section_title
;
Structure prediction by ZEFSAII (Michael W. Deem and Ramdas Pophale) SiO2 
 PCOD8118754
Probable space group: P 2/C
;
_chemical_formula_sum "Si O2"
_cell_formula_units_Z 24
_cell_length_a 14.688007
_cell_length_b 12.792345
_cell_length_c 21.112982
_cell_angle_alpha 90.000000
_cell_angle_beta 19.522296
_cell_angle_gamma 90.000000
_cell_volume 1325.668134
_symmetry_space_group_name_H-M "P 2/C"
_symmetry_group_IT_number 13
_symmetry_cell_setting 'monoclinic'
loop_
_space_group_symop_operation_xyz
x,y,z
-x,y,1/2-z
-x,-y,-z
x,-y,1/2+z
loop_
_atom_site_type_symbol
_atom_site_label
_atom_site_fract_x
_atom_site_fract_y
_atom_site_fract_z
Si Si1 0.090131 0.687286 0.621856
Si Si2 0.500000 0.974808 0.750000
Si Si3 0.609960 0.431678 0.745234
Si Si4 0.999566 0.081373 0.140251
Si Si5 0.818204 0.627009 0.675804
Si Si6 0.446475 0.845197 0.660518
Si Si7 0.000000 0.921651 0.250000
O O1 0.402243 0.653617 0.408134
O O2 0.000000 0.650773 0.750000
O O3 0.078194 0.811687 0.623606
O O4 0.888133 0.630385 0.704602
O O5 0.416032 0.901929 0.747113
O O6 0.749446 0.048884 0.568271
O O7 0.500000 0.475987 0.750000
O O8 0.638459 0.525931 0.776603
O O9 0.899240 0.373560 0.548507
O O10 0.738215 0.093897 0.268104
O O11 0.920660 0.994206 0.242956
O O12 0.644179 0.726685 0.769412
O O13 0.751822 0.846890 0.432601
#
# Coordination Sequence:
#
# PCOD8118754 Si02
#       7
#     4   2   4   4   4   4   2
#     4  10  20  35  57  84 109 143 182 224 271 330
#     4  10  22  34  56  84 108 142 188 230 272 312
#     4   9  19  37  60  81 109 142 181 226 276 320
#     4  10  20  36  57  79 111 145 184 227 266 327
#     4   9  20  37  58  81 109 143 180 227 276 325
#     4  10  21  36  55  81 112 143 185 222 273 333
#     4  10  20  38  54  78 114 150 174 220 284 318
#
# _framework density 18.104078000000001
#
# number of rings (size 3 to 8) (size 9 to 14) (size 15 to 20)
#    0.000    2.333    0.833    1.000    7.000    0.667 
#    1.500    3.333    0.000    0.000    0.000    0.000 
#    0.000    0.000    0.000    0.000    0.000    0.000 
#
# Total GULP energy -297651.968826 kJ/mol
# GULP energy per Si atom -12402.165368 kJ/mol
# Density = 1.806287 g / cm^3
# Si number density = 18.104078 Si / 1000 Ang^3
#
#
#
# Elastic Constant Matrix: (Units=GPa)
#
#
# Indices 1 2 3 4 5 6 
#
# 1 89.9902 52.5832 53.5075 0.0000 3.0629 0.0000
# 2 52.5832 96.3160 47.0659 0.0000 -7.1828 0.0000
# 3 53.5075 47.0659 80.6659 0.0000 0.8756 0.0000
# 4 0.0000 0.0000 0.0000 74.0115 0.0000 -231.5067
# 5 3.0629 -7.1828 0.8756 0.0000 30.3416 0.0000
# 6 0.0000 0.0000 0.0000 -231.5067 0.0000 972.5906
#
#
#
# Elastic Compliance Matrix: (Units=1/GPa)
#
#
# Indices 1 2 3 4 5 6 
#
# 1 0.021247 -0.006985 -0.009980 0.000000 -0.003510 0.000000
# 2 -0.006985 0.017243 -0.005481 0.000000 0.004945 0.000000
# 3 -0.009980 -0.005481 0.022225 0.000000 -0.000932 0.000000
# 4 0.000000 0.000000 0.000000 0.052894 0.000000 0.012590
# 5 -0.003510 0.004945 -0.000932 0.000000 0.034510 0.000000
# 6 0.000000 0.000000 0.000000 0.012590 0.000000 0.004025
#
#
# Mechanical properties :
#
#
# Convention : Reuss Voigt Hill
#
# Bulk Modulus (GPa) = 63.19954 63.69837 63.44896
# Shear Modulus (GPa) = 24.71428 222.97643 123.84535
#
# Velocity S-wave (km/s) = 3.69876 11.10995 8.27985
# Velocity P-wave (km/s) = 7.29561 14.13632 11.24859
#
# Compressibility (1/GPa) = 0.01582290
#
# Stress axis : x y z
#
# Youngs Moduli (GPa) = 47.06463 57.99445 44.99350
#
# Poissons Ratio (x) = 0.40507 0.44906
# Poissons Ratio (y) = 0.32873 0.24663
# Poissons Ratio (z) = 0.46973 0.31789
#
# Static dielectric constant tensor:
#      x y z
#    x 3.437260 0.000000 -0.057270 
#    y 0.000000 3.242870 0.000000 
#    z -0.057270 0.000000 3.213900 
# 
# 
# High freq. dielectric constant tensor:
#      x y z
#    x 1.711230 0.000000 -0.001750 
#    y 0.000000 1.694740 0.000000 
#    z -0.001750 0.000000 1.704760 
# 
# From -- ./inp_files/29400.got.cif
#   From: 2010.06.25/outbox.cif.g09.slc.cpg/sg13_15_cif.got.tgz:29400.got - 2010.06.28 04:50:58.
