data_PCOD8118558
_publ_section_title
;
Structure prediction by ZEFSAII (Michael W. Deem and Ramdas Pophale) SiO2 
 PCOD8118558
Probable space group: P 2/C
;
_chemical_formula_sum "Si O2"
_cell_formula_units_Z 32
_cell_length_a 23.528796
_cell_length_b 13.842563
_cell_length_c 9.403163
_cell_angle_alpha 90.000000
_cell_angle_beta 143.513062
_cell_angle_gamma 90.000000
_cell_volume 1821.142548
_symmetry_space_group_name_H-M "P 2/C"
_symmetry_group_IT_number 13
_symmetry_cell_setting 'monoclinic'
loop_
_space_group_symop_operation_xyz
x,y,z
-x,y,1/2-z
-x,-y,-z
x,-y,1/2+z
loop_
_atom_site_type_symbol
_atom_site_label
_atom_site_fract_x
_atom_site_fract_y
_atom_site_fract_z
Si Si1 0.591399 0.303170 0.657804
Si Si2 0.609195 0.905828 0.306399
Si Si3 0.297559 0.603886 0.883939
Si Si4 0.710411 0.620754 0.162209
Si Si5 0.913561 0.392249 0.154973
Si Si6 0.369962 0.708175 0.762842
Si Si7 0.913548 0.594354 0.990809
Si Si8 0.383177 0.081441 0.361768
O O1 0.630196 0.199297 0.785536
O O2 0.623547 0.321469 0.560872
O O3 0.478564 0.314910 0.440516
O O4 0.644114 0.387443 0.852456
O O5 0.656693 0.917048 0.557463
O O6 0.655974 0.987024 0.298428
O O7 0.496976 0.921661 0.094043
O O8 0.300391 0.493682 0.837974
O O9 0.353047 0.673121 0.888144
O O10 0.189259 0.643322 0.688439
O O11 0.810944 0.658945 0.429741
O O12 0.704064 0.649800 0.984342
O O13 0.935372 0.410576 0.365531
O O14 0.000000 0.332687 0.250000
O O15 0.907172 0.488699 0.046563
O O16 0.349197 0.822489 0.710788
O O17 0.000000 0.649533 0.250000
#
# Coordination Sequence:
#
# PCOD8118558 Si02
#       8
#     4   4   4   4   4   4   4   4
#     4  11  21  38  49  74 106 144 179 217 253 297
#     4   9  18  32  53  69  98 126 171 221 267 306
#     4  11  22  36  52  72 106 143 183 215 251 301
#     4  11  24  34  50  76 105 143 182 214 250 302
#     4  10  20  34  53  73  98 129 172 223 270 305
#     4  11  23  34  53  72 107 144 182 214 249 306
#     4  10  20  33  54  74  96 130 172 221 272 306
#     4   9  18  33  50  74  92 131 170 219 270 300
#
# _framework density 17.571387000000001
#
# number of rings (size 3 to 8) (size 9 to 14) (size 15 to 20)
#    0.000    1.750    2.500    3.000    8.750    3.000 
#    0.000    0.000    0.000    0.000    0.000    0.000 
#    0.000    6.000    0.000    0.000    0.000    0.000 
#
# Total GULP energy -396641.524238 kJ/mol
# GULP energy per Si atom -12395.047632 kJ/mol
# Density = 1.753139 g / cm^3
# Si number density = 17.571387 Si / 1000 Ang^3
#
#
#
# Elastic Constant Matrix: (Units=GPa)
#
#
# Indices 1 2 3 4 5 6 
#
# 1 88.4200 29.5967 30.6370 0.0000 -4.9704 0.0000
# 2 29.5967 66.7236 22.3919 0.0000 1.8389 0.0000
# 3 30.6370 22.3919 91.0485 0.0000 -6.2890 0.0000
# 4 0.0000 0.0000 0.0000 11.8688 0.0000 -10.7925
# 5 -4.9704 1.8389 -6.2890 0.0000 27.0783 0.0000
# 6 0.0000 0.0000 0.0000 -10.7925 0.0000 13.8833
#
#
#
# Elastic Compliance Matrix: (Units=1/GPa)
#
#
# Indices 1 2 3 4 5 6 
#
# 1 0.014382 -0.005306 -0.003382 0.000000 0.002215 0.000000
# 2 -0.005306 0.018408 -0.002943 0.000000 -0.002907 0.000000
# 3 -0.003382 -0.002943 0.013025 0.000000 0.002604 0.000000
# 4 0.000000 0.000000 0.000000 0.287443 0.000000 0.223451
# 5 0.002215 -0.002907 0.002604 0.000000 0.038139 0.000000
# 6 0.000000 0.000000 0.000000 0.223451 0.000000 0.245734
#
#
# Mechanical properties :
#
#
# Convention : Reuss Voigt Hill
#
# Bulk Modulus (GPa) = 44.33620 45.71593 45.02606
# Shear Modulus (GPa) = 7.71714 21.47051 14.59383
#
# Velocity S-wave (km/s) = 2.09796 3.49936 2.88504
# Velocity P-wave (km/s) = 5.58170 6.51162 6.06451
#
# Compressibility (1/GPa) = 0.02255493
#
# Stress axis : x y z
#
# Youngs Moduli (GPa) = 69.53252 54.32333 76.77766
#
# Poissons Ratio (x) = 0.28822 0.25963
# Poissons Ratio (y) = 0.36891 0.22594
# Poissons Ratio (z) = 0.23513 0.15986
#
# Static dielectric constant tensor:
#      x y z
#    x 3.556810 0.000000 0.147980 
#    y 0.000000 3.015420 0.000000 
#    z 0.147980 0.000000 3.595620 
# 
# 
# High freq. dielectric constant tensor:
#      x y z
#    x 1.687750 0.000000 -0.020400 
#    y 0.000000 1.641030 0.000000 
#    z -0.020400 0.000000 1.671840 
# 
# From -- ./inp_files/23553.got.cif
#   From: 2010.06.25/outbox.cif.g09.slc.cpg/sg13_12_cif.got.tgz:23553.got - 2010.06.28 04:50:58.
