data_PCOD8118549
_publ_section_title
;
Structure prediction by ZEFSAII (Michael W. Deem and Ramdas Pophale) SiO2 
 PCOD8118549
Probable space group: P 2/C
;
_chemical_formula_sum "Si O2"
_cell_formula_units_Z 32
_cell_length_a 9.716283
_cell_length_b 13.344823
_cell_length_c 23.164855
_cell_angle_alpha 90.000000
_cell_angle_beta 34.108960
_cell_angle_gamma 90.000000
_cell_volume 1684.326009
_symmetry_space_group_name_H-M "P 2/C"
_symmetry_group_IT_number 13
_symmetry_cell_setting 'monoclinic'
loop_
_space_group_symop_operation_xyz
x,y,z
-x,y,1/2-z
-x,-y,-z
x,-y,1/2+z
loop_
_atom_site_type_symbol
_atom_site_label
_atom_site_fract_x
_atom_site_fract_y
_atom_site_fract_z
Si Si1 0.680783 0.450524 0.082600
Si Si2 0.723801 0.888461 0.470147
Si Si3 0.912972 0.547156 0.619165
Si Si4 0.595988 0.382862 0.777876
Si Si5 0.594789 0.104219 0.533900
Si Si6 0.162193 0.194760 0.750419
Si Si7 0.076830 0.735084 0.631020
Si Si8 0.386290 0.271319 0.136137
O O1 0.768117 0.407959 0.114291
O O2 0.621046 0.571938 0.107081
O O3 0.474530 0.378268 0.128483
O O4 0.908547 0.454829 0.959838
O O5 0.556540 0.896029 0.472197
O O6 0.613914 0.806052 0.552389
O O7 0.002984 0.862140 0.354634
O O8 0.714181 0.995850 0.505419
O O9 0.725746 0.491309 0.726163
O O10 0.048838 0.634217 0.605457
O O11 0.500000 0.338594 0.750000
O O12 0.761989 0.303154 0.752677
O O13 0.410384 0.132920 0.650241
O O14 0.820355 0.181273 0.448719
O O15 0.000000 0.212065 0.750000
O O16 0.272509 0.711604 0.612826
O O17 0.819347 0.772143 0.748440
#
# Coordination Sequence:
#
# PCOD8118549 Si02
#       8
#     4   4   4   4   4   4   4   4
#     4  10  20  34  53  76 104 142 180 212 256 313
#     4   9  19  34  54  80 107 136 173 218 266 315
#     4  10  20  34  53  76 104 142 180 212 256 313
#     4  10  20  34  51  74 106 140 171 208 257 310
#     4   9  19  34  54  80 107 136 173 218 266 315
#     4  10  20  34  55  80 104 136 177 218 261 310
#     4  10  20  33  52  80 109 138 174 218 264 307
#     4  10  20  33  52  80 109 138 174 218 264 307
#
# _framework density 18.998697
#
# number of rings (size 3 to 8) (size 9 to 14) (size 15 to 20)
#    0.000    2.250    1.250    1.500    1.750    1.500 
#    0.000    0.000    0.000    3.000    0.000    0.000 
#    0.000    0.000    0.000    0.000    0.000    0.000 
#
# Total GULP energy -396628.241332 kJ/mol
# GULP energy per Si atom -12394.632542 kJ/mol
# Density = 1.895546 g / cm^3
# Si number density = 18.998697 Si / 1000 Ang^3
#
#
#
# Elastic Constant Matrix: (Units=GPa)
#
#
# Indices 1 2 3 4 5 6 
#
# 1 50.5338 45.5978 34.5782 0.0000 -3.5422 0.0000
# 2 45.5978 119.5192 57.1449 0.0000 -1.2130 0.0000
# 3 34.5782 57.1449 124.4833 0.0000 -2.2522 0.0000
# 4 0.0000 0.0000 0.0000 23.6046 0.0000 1.6637
# 5 -3.5422 -1.2130 -2.2522 0.0000 18.5798 0.0000
# 6 0.0000 0.0000 0.0000 1.6637 0.0000 0.7952
#
#
#
# Elastic Compliance Matrix: (Units=1/GPa)
#
#
# Indices 1 2 3 4 5 6 
#
# 1 0.032241 -0.010264 -0.004154 0.000000 0.004973 0.000000
# 2 -0.010264 0.013987 -0.003597 0.000000 -0.001480 0.000000
# 3 -0.004154 -0.003597 0.010843 0.000000 0.000288 0.000000
# 4 0.000000 0.000000 0.000000 0.049692 0.000000 -0.103962
# 5 0.004973 -0.001480 0.000288 0.000000 0.054708 0.000000
# 6 0.000000 0.000000 0.000000 -0.103962 0.000000 1.475045
#
#
# Mechanical properties :
#
#
# Convention : Reuss Voigt Hill
#
# Bulk Modulus (GPa) = 47.52266 63.24203 55.38234
# Shear Modulus (GPa) = 2.97697 19.07695 11.02696
#
# Velocity S-wave (km/s) = 1.25313 3.17222 2.41178
# Velocity P-wave (km/s) = 5.21169 6.83938 6.08025
#
# Compressibility (1/GPa) = 0.02104259
#
# Stress axis : x y z
#
# Youngs Moduli (GPa) = 31.01657 71.49410 92.22177
#
# Poissons Ratio (x) = 0.73378 0.38310
# Poissons Ratio (y) = 0.31834 0.33170
# Poissons Ratio (z) = 0.12885 0.25714
#
# Static dielectric constant tensor:
#      x y z
#    x 3.119870 0.000000 -0.034010 
#    y 0.000000 3.368910 0.000000 
#    z -0.034010 0.000000 3.886050 
# 
# 
# High freq. dielectric constant tensor:
#      x y z
#    x 1.701630 0.000000 -0.003390 
#    y 0.000000 1.725410 0.000000 
#    z -0.003390 0.000000 1.768460 
# 
# From -- ./inp_files/92362.got.cif
#   From: 2010.06.25/outbox.cif.g09.slc.cpg/sg13_47_cif.got.tgz:92362.got - 2010.06.28 04:50:58.
