data_PCOD8118165
_publ_section_title
;
Structure prediction by ZEFSAII (Michael W. Deem and Ramdas Pophale) SiO2 
 PCOD8118165
Probable space group: P 2/C
;
_chemical_formula_sum "Si O2"
_cell_formula_units_Z 28
_cell_length_a 22.277747
_cell_length_b 11.242991
_cell_length_c 15.678616
_cell_angle_alpha 90.000000
_cell_angle_beta 159.957690
_cell_angle_gamma 90.000000
_cell_volume 1345.837594
_symmetry_space_group_name_H-M "P 2/C"
_symmetry_group_IT_number 13
_symmetry_cell_setting 'monoclinic'
loop_
_space_group_symop_operation_xyz
x,y,z
-x,y,1/2-z
-x,-y,-z
x,-y,1/2+z
loop_
_atom_site_type_symbol
_atom_site_label
_atom_site_fract_x
_atom_site_fract_y
_atom_site_fract_z
Si Si1 0.674600 0.947855 0.194761
Si Si2 0.772748 0.661977 0.771791
Si Si3 0.783881 0.272144 0.103891
Si Si4 0.813965 0.994166 0.706985
Si Si5 0.084145 0.556464 0.948857
Si Si6 0.028279 0.871251 0.380362
Si Si7 0.608744 0.297107 0.692954
O O1 0.676786 0.811423 0.225875
O O2 0.668869 0.965712 0.083291
O O3 0.844366 0.014094 0.459839
O O4 0.500000 0.000000 0.000000
O O5 0.720298 0.654936 0.602161
O O6 0.596637 0.674184 0.593170
O O7 0.898113 0.550452 0.960247
O O8 0.886112 0.780027 0.939110
O O9 0.784943 0.134235 0.128641
O O10 0.972185 0.329057 0.330386
O O11 0.647070 0.280645 0.844457
O O12 0.836010 0.088833 0.658934
O O13 0.000000 0.000000 0.000000
O O14 0.000000 0.504708 0.750000
O O15 0.284211 0.591631 0.198913
O O16 0.000000 0.812252 0.250000
#
# Coordination Sequence:
#
# PCOD8118165 Si02
#       7
#     4   4   4   4   4   4   4
#     4  11  20  38  61  90 123 155 198 250 307 361
#     4  12  22  39  59  88 123 155 199 255 302 351
#     4  11  21  40  62  90 115 158 208 247 293 363
#     4  10  19  36  61  87 123 153 204 246 300 361
#     4  10  23  40  62  88 113 157 208 246 301 362
#     4  11  22  37  59  84 122 164 197 241 305 363
#     4  11  23  38  63  87 122 157 201 249 304 356
#
# _framework density 20.804886
#
# number of rings (size 3 to 8) (size 9 to 14) (size 15 to 20)
#    0.000    1.143    4.286    4.286    0.000    1.143 
#    0.000    2.143    0.000    0.000    0.000    0.000 
#    0.000    0.000    0.000    0.000    0.000    0.000 
#
# Total GULP energy -347029.361608 kJ/mol
# GULP energy per Si atom -12393.905772 kJ/mol
# Density = 2.075753 g / cm^3
# Si number density = 20.804886 Si / 1000 Ang^3
#
#
#
# Elastic Constant Matrix: (Units=GPa)
#
#
# Indices 1 2 3 4 5 6 
#
# 1 130.1820 40.5783 26.7810 0.0000 9.7658 0.0000
# 2 40.5783 90.8123 30.5606 0.0000 -1.1532 0.0000
# 3 26.7810 30.5606 59.8549 0.0000 18.7712 0.0000
# 4 0.0000 0.0000 0.0000 15.2877 0.0000 -2.7614
# 5 9.7658 -1.1532 18.7712 0.0000 33.3253 0.0000
# 6 0.0000 0.0000 0.0000 -2.7614 0.0000 31.4693
#
#
#
# Elastic Compliance Matrix: (Units=1/GPa)
#
#
# Indices 1 2 3 4 5 6 
#
# 1 0.009300 -0.003594 -0.001740 0.000000 -0.001870 0.000000
# 2 -0.003594 0.015472 -0.008247 0.000000 0.006234 0.000000
# 3 -0.001740 -0.008247 0.026265 0.000000 -0.014570 0.000000
# 4 0.000000 0.000000 0.000000 0.066466 0.000000 0.005832
# 5 -0.001870 0.006234 -0.014570 0.000000 0.038978 0.000000
# 6 0.000000 0.000000 0.000000 0.005832 0.000000 0.032289
#
#
# Mechanical properties :
#
#
# Convention : Reuss Voigt Hill
#
# Bulk Modulus (GPa) = 41.88159 52.96544 47.42352
# Shear Modulus (GPa) = 22.33254 28.21175 25.27215
#
# Velocity S-wave (km/s) = 3.27988 3.68641 3.48907
# Velocity P-wave (km/s) = 5.87518 6.60552 6.25103
#
# Compressibility (1/GPa) = 0.02387684
#
# Stress axis : x y z
#
# Youngs Moduli (GPa) = 107.52772 64.63330 38.07298
#
# Poissons Ratio (x) = 0.23228 0.06624
# Poissons Ratio (y) = 0.38643 0.31397
# Poissons Ratio (z) = 0.18708 0.53300
#
# Static dielectric constant tensor:
#      x y z
#    x 3.563330 0.000000 1.281320 
#    y 0.000000 3.933870 0.000000 
#    z 1.281320 0.000000 3.369370 
# 
# 
# High freq. dielectric constant tensor:
#      x y z
#    x 1.831200 0.000000 0.007770 
#    y 0.000000 1.805440 0.000000 
#    z 0.007770 0.000000 1.797730 
# 
# From -- ./inp_files/71423.got.cif
#   From: 2010.06.25/outbox.cif.g09.slc.cpg/sg13_36_cif.got.tgz:71423.got - 2010.06.28 04:50:58.
