data_PCOD8118192
_publ_section_title
;
Structure prediction by ZEFSAII (Michael W. Deem and Ramdas Pophale) SiO2 
 PCOD8118192
Probable space group: P 2/C
;
_chemical_formula_sum "Si O2"
_cell_formula_units_Z 22
_cell_length_a 21.316017
_cell_length_b 9.500527
_cell_length_c 13.185979
_cell_angle_alpha 90.000000
_cell_angle_beta 154.376280
_cell_angle_gamma 90.000000
_cell_volume 1154.811600
_symmetry_space_group_name_H-M "P 2/C"
_symmetry_group_IT_number 13
_symmetry_cell_setting 'monoclinic'
loop_
_space_group_symop_operation_xyz
x,y,z
-x,y,1/2-z
-x,-y,-z
x,-y,1/2+z
loop_
_atom_site_type_symbol
_atom_site_label
_atom_site_fract_x
_atom_site_fract_y
_atom_site_fract_z
Si Si1 0.584791 0.054897 0.273204
Si Si2 0.623936 0.194258 0.693375
Si Si3 0.789113 0.603533 0.313435
Si Si4 0.000000 0.578370 0.250000
Si Si5 0.236199 0.674531 0.448839
Si Si6 0.488335 0.547982 0.346529
O O1 0.500000 0.005494 0.250000
O O2 0.705467 0.168112 0.478548
O O3 0.663572 0.920225 0.337265
O O4 0.473760 0.124036 0.034050
O O5 0.769232 0.253273 0.850783
O O6 0.537125 0.321769 0.617718
O O7 0.829410 0.632836 0.255757
O O8 0.920303 0.517052 0.551256
O O9 0.636516 0.522585 0.099067
O O10 0.888939 0.676579 0.149111
O O11 0.360477 0.566905 0.665394
O O12 0.500000 0.606566 0.250000
#
# Coordination Sequence:
#
# PCOD8118192 Si02
#       6
#     4   4   4   2   4   4
#     4  11  21  36  60  91 121 152 191 246 302 350
#     4  11  20  34  60  91 119 148 191 247 304 346
#     4  11  21  38  62  90 119 155 200 249 293 345
#     4  12  24  36  62  88 124 160 202 234 292 356
#     4  11  21  39  61  87 119 157 193 246 295 348
#     4  10  19  36  63  91 114 145 200 256 295 337
#
# _framework density 19.050726000000001
#
# number of rings (size 3 to 8) (size 9 to 14) (size 15 to 20)
#    0.000    1.091    5.455    3.273    0.000    0.000 
#    0.000    0.909    0.000    2.182    0.000    0.000 
#    0.000    0.000    0.000    0.000    0.000    0.000 
#
# Total GULP energy -272800.658241 kJ/mol
# GULP energy per Si atom -12400.029920 kJ/mol
# Density = 1.900737 g / cm^3
# Si number density = 19.050726 Si / 1000 Ang^3
#
#
#
# Elastic Constant Matrix: (Units=GPa)
#
#
# Indices 1 2 3 4 5 6 
#
# 1 118.0695 30.1772 24.3335 0.0000 -11.2033 0.0000
# 2 30.1772 66.9251 5.7980 0.0000 -9.1847 0.0000
# 3 24.3335 5.7980 64.4203 0.0000 -7.0103 0.0000
# 4 0.0000 0.0000 0.0000 4.6151 0.0000 -4.1664
# 5 -11.2033 -9.1847 -7.0103 0.0000 28.9858 0.0000
# 6 0.0000 0.0000 0.0000 -4.1664 0.0000 105.4811
#
#
#
# Elastic Compliance Matrix: (Units=1/GPa)
#
#
# Indices 1 2 3 4 5 6 
#
# 1 0.010397 -0.004138 -0.003348 0.000000 0.001898 0.000000
# 2 -0.004138 0.017318 0.000439 0.000000 0.003994 0.000000
# 3 -0.003348 0.000439 0.017072 0.000000 0.002974 0.000000
# 4 0.000000 0.000000 0.000000 0.224692 0.000000 0.008875
# 5 0.001898 0.003994 0.002974 0.000000 0.037218 0.000000
# 6 0.000000 0.000000 0.000000 0.008875 0.000000 0.009831
#
#
# Mechanical properties :
#
#
# Convention : Reuss Voigt Hill
#
# Bulk Modulus (GPa) = 32.58092 41.11469 36.84781
# Shear Modulus (GPa) = 14.66905 40.42349 27.54627
#
# Velocity S-wave (km/s) = 2.77790 4.61139 3.80668
# Velocity P-wave (km/s) = 5.23720 7.06978 6.22134
#
# Compressibility (1/GPa) = 0.03069281
#
# Stress axis : x y z
#
# Youngs Moduli (GPa) = 96.17877 57.74345 58.57552
#
# Poissons Ratio (x) = 0.23893 0.19614
# Poissons Ratio (y) = 0.39796 -0.02571
# Poissons Ratio (z) = 0.32205 -0.02535
#
# Static dielectric constant tensor:
#      x y z
#    x 3.968190 0.000000 -0.157100 
#    y 0.000000 3.633700 0.000000 
#    z -0.157100 0.000000 3.233920 
# 
# 
# High freq. dielectric constant tensor:
#      x y z
#    x 1.771150 0.000000 -0.019100 
#    y 0.000000 1.732440 0.000000 
#    z -0.019100 0.000000 1.712920 
# 
# From -- ./inp_files/49205.got.cif
#   From: 2010.06.25/outbox.cif.g09.slc.cpg/sg13_25_cif.got.tgz:49205.got - 2010.06.28 04:50:58.
