data_PCOD8118349
_publ_section_title
;
Structure prediction by ZEFSAII (Michael W. Deem and Ramdas Pophale) SiO2 
 PCOD8118349
Probable space group: P 2/C
;
_chemical_formula_sum "Si O2"
_cell_formula_units_Z 24
_cell_length_a 13.809829
_cell_length_b 8.494210
_cell_length_c 16.242056
_cell_angle_alpha 90.000000
_cell_angle_beta 138.901069
_cell_angle_gamma 90.000000
_cell_volume 1252.438345
_symmetry_space_group_name_H-M "P 2/C"
_symmetry_group_IT_number 13
_symmetry_cell_setting 'monoclinic'
loop_
_space_group_symop_operation_xyz
x,y,z
-x,y,1/2-z
-x,-y,-z
x,-y,1/2+z
loop_
_atom_site_type_symbol
_atom_site_label
_atom_site_fract_x
_atom_site_fract_y
_atom_site_fract_z
Si Si1 0.148325 0.506719 0.147234
Si Si2 0.329897 0.778182 0.735554
Si Si3 0.850921 0.278898 0.695452
Si Si4 0.442141 0.663795 0.290879
Si Si5 0.372215 0.353162 0.081353
Si Si6 0.374263 0.927459 0.364076
O O1 0.206795 0.329221 0.202224
O O2 0.116902 0.595276 0.212267
O O3 0.276405 0.594377 0.176948
O O4 0.000000 0.500000 0.000000
O O5 0.493772 0.742396 0.874509
O O6 0.322640 0.738708 0.633119
O O7 0.308155 0.959801 0.749176
O O8 0.760903 0.366854 0.566690
O O9 0.766578 0.123920 0.672713
O O10 0.000000 0.217145 0.750000
O O11 0.500000 0.767667 0.250000
O O12 0.566085 0.527795 0.366615
O O13 0.450163 0.771163 0.376064
O O14 0.500000 0.000000 0.500000
#
# Coordination Sequence:
#
# PCOD8118349 Si02
#       6
#     4   4   4   4   4   4
#     4  10  21  40  63  89 124 160 213 258 310 366
#     4  10  20  38  63  90 123 160 209 258 315 364
#     4  11  24  39  62  89 130 166 212 257 316 377
#     4  10  21  37  63  92 120 159 217 254 311 372
#     4  10  19  38  63  89 118 166 210 264 299 374
#     4  11  24  38  60  95 130 163 206 258 320 380
#
# _framework density 19.16262
#
# number of rings (size 3 to 8) (size 9 to 14) (size 15 to 20)
#    0.000    1.667    5.000    1.000    4.667    2.000 
#    0.000   10.000    0.000    0.000    0.000    0.000 
#    0.000    0.000    0.000    0.000    0.000    0.000 
#
# Total GULP energy -297349.331157 kJ/mol
# GULP energy per Si atom -12389.555465 kJ/mol
# Density = 1.911901 g / cm^3
# Si number density = 19.162620 Si / 1000 Ang^3
#
#
#
# Elastic Constant Matrix: (Units=GPa)
#
#
# Indices 1 2 3 4 5 6 
#
# 1 141.5952 58.1234 62.1628 0.0000 5.7586 0.0000
# 2 58.1234 99.2363 47.6660 0.0000 -1.9716 0.0000
# 3 62.1628 47.6660 144.9853 0.0000 0.1254 0.0000
# 4 0.0000 0.0000 0.0000 21.6842 0.0000 -1.6659
# 5 5.7586 -1.9716 0.1254 0.0000 24.2483 0.0000
# 6 0.0000 0.0000 0.0000 -1.6659 0.0000 25.7205
#
#
#
# Elastic Compliance Matrix: (Units=1/GPa)
#
#
# Indices 1 2 3 4 5 6 
#
# 1 0.010402 -0.004759 -0.002893 0.000000 -0.002842 0.000000
# 2 -0.004759 0.014168 -0.002619 0.000000 0.002296 0.000000
# 3 -0.002893 -0.002619 0.008998 0.000000 0.000427 0.000000
# 4 0.000000 0.000000 0.000000 0.046347 0.000000 0.003002
# 5 -0.002842 0.002296 0.000427 0.000000 0.042100 0.000000
# 6 0.000000 0.000000 0.000000 0.003002 0.000000 0.039074
#
#
# Mechanical properties :
#
#
# Convention : Reuss Voigt Hill
#
# Bulk Modulus (GPa) = 76.77266 80.19125 78.48196
# Shear Modulus (GPa) = 26.88561 28.85491 27.87026
#
# Velocity S-wave (km/s) = 3.74976 3.88466 3.81781
# Velocity P-wave (km/s) = 7.67452 7.87778 7.77682
#
# Compressibility (1/GPa) = 0.01302547
#
# Stress axis : x y z
#
# Youngs Moduli (GPa) = 96.13987 70.57983 111.13295
#
# Poissons Ratio (x) = 0.33591 0.32145
# Poissons Ratio (y) = 0.45756 0.29111
# Poissons Ratio (z) = 0.27809 0.18488
#
# Static dielectric constant tensor:
#      x y z
#    x 3.791160 0.000000 -0.064770 
#    y 0.000000 3.591560 0.000000 
#    z -0.064770 0.000000 3.403930 
# 
# 
# High freq. dielectric constant tensor:
#      x y z
#    x 1.757140 0.000000 -0.003570 
#    y 0.000000 1.733330 0.000000 
#    z -0.003570 0.000000 1.736070 
# 
# From -- ./inp_files/67797.got.cif
#   From: 2010.06.25/outbox.cif.g09.slc.cpg/sg13_34_cif.got.tgz:67797.got - 2010.06.28 04:50:58.
