data_PCOD8118250
_publ_section_title
;
Structure prediction by ZEFSAII (Michael W. Deem and Ramdas Pophale) SiO2 
 PCOD8118250
Probable space group: P 2/C
;
_chemical_formula_sum "Si O2"
_cell_formula_units_Z 20
_cell_length_a 29.174953
_cell_length_b 5.163329
_cell_length_c 13.317490
_cell_angle_alpha 90.000000
_cell_angle_beta 28.747914
_cell_angle_gamma 90.000000
_cell_volume 964.869230
_symmetry_space_group_name_H-M "P 2/C"
_symmetry_group_IT_number 13
_symmetry_cell_setting 'monoclinic'
loop_
_space_group_symop_operation_xyz
x,y,z
-x,y,1/2-z
-x,-y,-z
x,-y,1/2+z
loop_
_atom_site_type_symbol
_atom_site_label
_atom_site_fract_x
_atom_site_fract_y
_atom_site_fract_z
Si Si1 0.416625 0.038226 0.081562
Si Si2 0.803300 0.597803 0.224079
Si Si3 0.771446 0.730884 0.508352
Si Si4 0.641428 0.465489 0.898219
Si Si5 0.889526 0.895965 0.461092
O O1 0.316260 0.063557 0.334766
O O2 0.429745 0.290437 0.983946
O O3 0.417955 0.793844 0.004752
O O4 0.500000 0.000000 0.000000
O O5 0.813212 0.635793 0.323558
O O6 0.692306 0.533198 0.409701
O O7 0.871213 0.360632 0.062614
O O8 0.831381 0.864536 0.117095
O O9 0.729826 0.483594 0.649297
O O10 0.856724 0.855937 0.409181
O O11 0.000000 0.964945 0.250000
#
# Coordination Sequence:
#
# PCOD8118250 Si02
#       5
#     4   4   4   4   4
#     4  10  19  37  62  82 118 153 191 248 297 345
#     4  11  21  39  63  83 120 161 198 244 305 362
#     4   9  23  36  64  83 121 158 199 241 305 354
#     4   9  19  37  56  83 117 150 192 241 295 348
#     4  11  24  40  59  90 122 155 204 257 297 356
#
# _framework density 20.728197999999999
#
# number of rings (size 3 to 8) (size 9 to 14) (size 15 to 20)
#    1.200    0.800    2.000    1.200    2.800    1.600 
#    0.000    1.000    0.000    0.000    0.000    0.000 
#    0.000    0.000    0.000    0.000    0.000    0.000 
#
# Total GULP energy -247848.055194 kJ/mol
# GULP energy per Si atom -12392.402760 kJ/mol
# Density = 2.068102 g / cm^3
# Si number density = 20.728198 Si / 1000 Ang^3
#
#
#
# Elastic Constant Matrix: (Units=GPa)
#
#
# Indices 1 2 3 4 5 6 
#
# 1 138.7587 26.4784 43.9412 0.0000 -10.0334 0.0000
# 2 26.4784 129.0259 7.3523 0.0000 3.3383 0.0000
# 3 43.9412 7.3523 35.7834 0.0000 -9.8786 0.0000
# 4 0.0000 0.0000 0.0000 16.4380 0.0000 -8.1277
# 5 -10.0334 3.3383 -9.8786 0.0000 38.8085 0.0000
# 6 0.0000 0.0000 0.0000 -8.1277 0.0000 29.0347
#
#
#
# Elastic Compliance Matrix: (Units=1/GPa)
#
#
# Indices 1 2 3 4 5 6 
#
# 1 0.012142 -0.001642 -0.014700 0.000000 -0.000461 0.000000
# 2 -0.001642 0.008114 0.000043 0.000000 -0.001112 0.000000
# 3 -0.014700 0.000043 0.048335 0.000000 0.008499 0.000000
# 4 0.000000 0.000000 0.000000 0.070607 0.000000 0.019765
# 5 -0.000461 -0.001112 0.008499 0.000000 0.027907 0.000000
# 6 0.000000 0.000000 0.000000 0.019765 0.000000 0.039974
#
#
# Mechanical properties :
#
#
# Convention : Reuss Voigt Hill
#
# Bulk Modulus (GPa) = 27.78457 51.01242 39.39850
# Shear Modulus (GPa) = 19.86686 31.90930 25.88808
#
# Velocity S-wave (km/s) = 3.09924 3.92779 3.53786
# Velocity P-wave (km/s) = 5.12253 6.72560 5.97805
#
# Compressibility (1/GPa) = 0.03599120
#
# Stress axis : x y z
#
# Youngs Moduli (GPa) = 82.36011 123.24807 20.68912
#
# Poissons Ratio (x) = 0.20239 0.30413
# Poissons Ratio (y) = 0.13525 -0.00088
# Poissons Ratio (z) = 1.21068 -0.00524
#
# Static dielectric constant tensor:
#      x y z
#    x 3.750910 0.000000 -0.131710 
#    y 0.000000 3.854000 0.000000 
#    z -0.131710 0.000000 3.261190 
# 
# 
# High freq. dielectric constant tensor:
#      x y z
#    x 1.818960 0.000000 -0.012790 
#    y 0.000000 1.823050 0.000000 
#    z -0.012790 0.000000 1.767870 
# 
# From -- ./inp_files/35413.got.cif
#   From: 2010.06.25/outbox.cif.g09.slc.cpg/sg13_18_cif.got.tgz:35413.got - 2010.06.28 04:50:58.
