data_PCOD8118226
_publ_section_title
;
Structure prediction by ZEFSAII (Michael W. Deem and Ramdas Pophale) SiO2 
 PCOD8118226
Probable space group: P 2/C
;
_chemical_formula_sum "Si O2"
_cell_formula_units_Z 32
_cell_length_a 8.984705
_cell_length_b 11.162234
_cell_length_c 31.208862
_cell_angle_alpha 90.000000
_cell_angle_beta 29.186977
_cell_angle_gamma 90.000000
_cell_volume 1526.339393
_symmetry_space_group_name_H-M "P 2/C"
_symmetry_group_IT_number 13
_symmetry_cell_setting 'monoclinic'
loop_
_space_group_symop_operation_xyz
x,y,z
-x,y,1/2-z
-x,-y,-z
x,-y,1/2+z
loop_
_atom_site_type_symbol
_atom_site_label
_atom_site_fract_x
_atom_site_fract_y
_atom_site_fract_z
Si Si1 0.718603 0.653353 0.297115
Si Si2 0.214181 0.520570 0.302330
Si Si3 0.291340 0.255589 0.971163
Si Si4 0.906528 0.133746 0.835993
Si Si5 0.823352 0.130903 0.334694
Si Si6 0.878662 0.872230 0.515296
Si Si7 0.739561 0.678580 0.924174
Si Si8 0.935372 0.740906 0.416215
O O1 0.641487 0.569796 0.277319
O O2 0.428082 0.652005 0.401838
O O3 0.000000 0.589508 0.250000
O O4 0.840829 0.786035 0.251785
O O5 0.500000 0.444873 0.250000
O O6 0.912582 0.443919 0.368767
O O7 0.161561 0.634191 0.346993
O O8 0.557973 0.156687 0.908756
O O9 0.219906 0.311583 0.035023
O O10 0.969244 0.208906 0.033412
O O11 0.920710 0.157847 0.883207
O O12 0.974395 0.996176 0.808611
O O13 0.473817 0.122099 0.407940
O O14 0.883213 0.211025 0.361705
O O15 0.000000 0.187414 0.250000
O O16 0.042780 0.811658 0.432152
O O17 0.000000 0.000000 0.500000
O O18 0.389250 0.672685 0.997737
#
# Coordination Sequence:
#
# PCOD8118226 Si02
#       8
#     4   4   4   4   4   4   4   4
#     4   9  19  36  64  90 111 153 203 256 300 354
#     4  11  22  41  62  85 120 153 206 263 300 345
#     4  10  19  37  59  91 120 150 201 249 305 346
#     4   9  18  35  61  86 121 157 197 241 297 367
#     4  11  23  40  58  86 124 168 199 235 299 379
#     4  11  22  34  60  92 124 151 194 252 302 354
#     4  10  24  39  62  83 122 166 202 237 299 375
#     4   9  21  39  62  90 116 158 205 245 301 359
#
# _framework density 20.965192999999999
#
# number of rings (size 3 to 8) (size 9 to 14) (size 15 to 20)
#    0.000    2.000    1.250    3.000    1.750    3.000 
#    0.000    5.000    0.000    0.000    0.000    0.000 
#    0.000    0.000    0.000    0.000    0.000    0.000 
#
# Total GULP energy -396439.075842 kJ/mol
# GULP energy per Si atom -12388.721120 kJ/mol
# Density = 2.091748 g / cm^3
# Si number density = 20.965193 Si / 1000 Ang^3
#
#
#
# Elastic Constant Matrix: (Units=GPa)
#
#
# Indices 1 2 3 4 5 6 
#
# 1 117.3997 48.0690 38.5099 0.0000 12.6411 0.0000
# 2 48.0690 73.5085 34.8806 0.0000 12.1252 0.0000
# 3 38.5099 34.8806 85.8608 0.0000 25.4606 0.0000
# 4 0.0000 0.0000 0.0000 -3.7783 0.0000 -3.5029
# 5 12.6411 12.1252 25.4606 0.0000 34.7503 0.0000
# 6 0.0000 0.0000 0.0000 -3.5029 0.0000 22.1108
#
#
#
# Elastic Compliance Matrix: (Units=1/GPa)
#
#
# Indices 1 2 3 4 5 6 
#
# 1 0.012135 -0.006628 -0.002717 0.000000 -0.000111 0.000000
# 2 -0.006628 0.020505 -0.005048 0.000000 -0.001046 0.000000
# 3 -0.002717 -0.005048 0.018015 0.000000 -0.010449 0.000000
# 4 0.000000 0.000000 0.000000 -0.230776 0.000000 -0.036560
# 5 -0.000111 -0.001046 -0.010449 0.000000 0.036838 0.000000
# 6 0.000000 0.000000 0.000000 -0.036560 0.000000 0.039435
#
#
# Mechanical properties :
#
#
# Convention : Reuss Voigt Hill
#
# Bulk Modulus (GPa) = 45.72524 57.74312 51.73418
# Shear Modulus (GPa) = -73.77472 20.97054 -26.40209
#
# Velocity S-wave (km/s) = -5.93848 3.16611 -3.55255
# Velocity P-wave (km/s) = 5.01630 6.40061 2.81110
#
# Compressibility (1/GPa) = 0.02186976
#
# Stress axis : x y z
#
# Youngs Moduli (GPa) = 82.40732 48.76760 55.51051
#
# Poissons Ratio (x) = 0.32321 0.15084
# Poissons Ratio (y) = 0.54616 0.28020
# Poissons Ratio (z) = 0.22393 0.24616
#
# Static dielectric constant tensor:
#      x y z
#    x 3.965470 0.000000 0.121460 
#    y 0.000000 3.508850 0.000000 
#    z 0.121460 0.000000 3.585500 
# 
# 
# High freq. dielectric constant tensor:
#      x y z
#    x 1.836860 0.000000 0.010910 
#    y 0.000000 1.791680 0.000000 
#    z 0.010910 0.000000 1.817440 
# 
# From -- ./inp_files/96109.got.cif
#   From: 2010.06.25/outbox.cif.g09.slc.cpg/sg13_49_cif.got.tgz:96109.got - 2010.06.28 04:50:58.
