data_PCOD8118203
_publ_section_title
;
Structure prediction by ZEFSAII (Michael W. Deem and Ramdas Pophale) SiO2 
 PCOD8118203
Probable space group: P 2/C
;
_chemical_formula_sum "Si O2"
_cell_formula_units_Z 28
_cell_length_a 19.439323
_cell_length_b 11.013762
_cell_length_c 8.562503
_cell_angle_alpha 90.000000
_cell_angle_beta 120.681852
_cell_angle_gamma 90.000000
_cell_volume 1576.605548
_symmetry_space_group_name_H-M "P 2/C"
_symmetry_group_IT_number 13
_symmetry_cell_setting 'monoclinic'
loop_
_space_group_symop_operation_xyz
x,y,z
-x,y,1/2-z
-x,-y,-z
x,-y,1/2+z
loop_
_atom_site_type_symbol
_atom_site_label
_atom_site_fract_x
_atom_site_fract_y
_atom_site_fract_z
Si Si1 0.153120 0.374256 0.519664
Si Si2 0.311134 0.986906 0.824661
Si Si3 0.056918 0.560958 0.189977
Si Si4 0.411368 0.593490 0.611656
Si Si5 0.591086 0.864882 0.815863
Si Si6 0.670997 0.393902 0.799027
Si Si7 0.751743 0.167187 0.987514
O O1 0.105421 0.459984 0.344857
O O2 0.113224 0.354999 0.645985
O O3 0.240416 0.430720 0.660561
O O4 0.165933 0.243028 0.448302
O O5 0.252685 0.058050 0.641089
O O6 0.384070 0.919831 0.821772
O O7 0.349694 0.082732 0.986459
O O8 0.254576 0.888768 0.846722
O O9 0.000000 0.632854 0.250000
O O10 0.000000 0.500000 0.000000
O O11 0.500000 0.546078 0.750000
O O12 0.396862 0.720543 0.681995
O O13 0.349945 0.492189 0.595715
O O14 0.397237 0.608891 0.411275
O O15 0.500000 0.899342 0.750000
O O16 0.675786 0.258638 0.878957
#
# Coordination Sequence:
#
# PCOD8118203 Si02
#       7
#     4   4   4   4   4   4   4
#     4   9  18  32  53  81 112 143 179 208 267 321
#     4  10  19  37  51  74  98 137 185 243 270 315
#     4   9  17  31  53  86 121 144 163 202 259 328
#     4  11  22  35  50  73 108 143 185 232 286 339
#     4  10  20  33  51  69  98 133 183 233 294 330
#     4  10  21  36  51  77 106 142 181 227 277 336
#     4   9  21  34  56  74 105 135 186 227 275 316
#
# _framework density 17.759674
#
# number of rings (size 3 to 8) (size 9 to 14) (size 15 to 20)
#    0.857    1.429    1.429    1.714    2.000    0.000 
#    0.000    5.000    0.000    0.000    0.000   13.000 
#    0.000    0.000    0.000    0.000    0.000    0.000 
#
# Total GULP energy -346886.668121 kJ/mol
# GULP energy per Si atom -12388.809576 kJ/mol
# Density = 1.771925 g / cm^3
# Si number density = 17.759674 Si / 1000 Ang^3
#
#
#
# Elastic Constant Matrix: (Units=GPa)
#
#
# Indices 1 2 3 4 5 6 
#
# 1 111.6745 52.0120 26.3148 0.0000 -24.6716 0.0000
# 2 52.0120 81.9900 16.8811 0.0000 -14.6699 0.0000
# 3 26.3148 16.8811 65.2351 0.0000 -2.4712 0.0000
# 4 0.0000 0.0000 0.0000 22.6354 0.0000 -8.7247
# 5 -24.6716 -14.6699 -2.4712 0.0000 28.9263 0.0000
# 6 0.0000 0.0000 0.0000 -8.7247 0.0000 14.4748
#
#
#
# Elastic Compliance Matrix: (Units=1/GPa)
#
#
# Indices 1 2 3 4 5 6 
#
# 1 0.015245 -0.007253 -0.003932 0.000000 0.008988 0.000000
# 2 -0.007253 0.017576 -0.001524 0.000000 0.002597 0.000000
# 3 -0.003932 -0.001524 0.017209 0.000000 -0.002657 0.000000
# 4 0.000000 0.000000 0.000000 0.057549 0.000000 0.034687
# 5 0.008988 0.002597 -0.002657 0.000000 0.043327 0.000000
# 6 0.000000 0.000000 0.000000 0.034687 0.000000 0.089993
#
#
# Mechanical properties :
#
#
# Convention : Reuss Voigt Hill
#
# Bulk Modulus (GPa) = 40.63126 49.92393 45.27759
# Shear Modulus (GPa) = 18.21347 24.12010 21.16679
#
# Velocity S-wave (km/s) = 3.20590 3.68929 3.45606
# Velocity P-wave (km/s) = 6.05242 6.80586 6.44016
#
# Compressibility (1/GPa) = 0.02461159
#
# Stress axis : x y z
#
# Youngs Moduli (GPa) = 65.59509 56.89480 58.10882
#
# Poissons Ratio (x) = 0.41267 0.22849
# Poissons Ratio (y) = 0.47577 0.08856
# Poissons Ratio (z) = 0.25793 0.08671
#
# Static dielectric constant tensor:
#      x y z
#    x 3.573680 0.000000 -0.217680 
#    y 0.000000 3.058110 0.000000 
#    z -0.217680 0.000000 3.231630 
# 
# 
# High freq. dielectric constant tensor:
#      x y z
#    x 1.680980 0.000000 -0.013780 
#    y 0.000000 1.670080 0.000000 
#    z -0.013780 0.000000 1.686250 
# 
# From -- ./inp_files/23138.got.cif
#   From: 2010.06.25/outbox.cif.g09.slc.cpg/sg13_12_cif.got.tgz:23138.got - 2010.06.28 04:50:58.
