data_PCOD8118179
_publ_section_title
;
Structure prediction by ZEFSAII (Michael W. Deem and Ramdas Pophale) SiO2 
 PCOD8118179
Probable space group: P 2/C
;
_chemical_formula_sum "Si O2"
_cell_formula_units_Z 32
_cell_length_a 19.463829
_cell_length_b 13.307441
_cell_length_c 13.280846
_cell_angle_alpha 90.000000
_cell_angle_beta 26.908450
_cell_angle_gamma 90.000000
_cell_volume 1556.792433
_symmetry_space_group_name_H-M "P 2/C"
_symmetry_group_IT_number 13
_symmetry_cell_setting 'monoclinic'
loop_
_space_group_symop_operation_xyz
x,y,z
-x,y,1/2-z
-x,-y,-z
x,-y,1/2+z
loop_
_atom_site_type_symbol
_atom_site_label
_atom_site_fract_x
_atom_site_fract_y
_atom_site_fract_z
Si Si1 0.639524 0.017448 0.889882
Si Si2 0.354173 0.778064 0.001523
Si Si3 0.092099 0.309286 0.725673
Si Si4 0.091404 0.668843 0.838785
Si Si5 0.222610 0.316425 0.859950
Si Si6 0.669075 0.844276 0.001297
Si Si7 0.822937 0.112400 0.489171
Si Si8 0.836642 0.521363 0.915534
O O1 0.785215 0.039733 0.630844
O O2 0.617054 0.109115 0.997310
O O3 0.500000 0.000000 0.000000
O O4 0.665115 0.912188 0.908547
O O5 0.500000 0.741249 0.750000
O O6 0.203338 0.774971 0.127313
O O7 0.333917 0.697631 0.118983
O O8 0.199310 0.403196 0.550308
O O9 0.000000 0.265022 0.750000
O O10 0.968393 0.348846 0.969392
O O11 0.217683 0.754446 0.672323
O O12 0.169484 0.569514 0.688821
O O13 0.950811 0.695812 0.950569
O O14 0.244807 0.224238 0.906844
O O15 0.265009 0.417444 0.868542
O O16 0.500000 0.805526 0.250000
O O17 0.738036 0.917957 0.997313
O O18 0.000000 0.109102 0.250000
O O19 0.000000 0.530797 0.750000
#
# Coordination Sequence:
#
# PCOD8118179 Si02
#       8
#     4   4   4   4   4   4   4   4
#     4  11  25  42  63  88 122 173 215 252 321 390
#     4  10  23  42  63  86 126 172 214 260 322 380
#     4  10  22  40  59  92 128 162 206 257 318 381
#     4  10  19  36  62  91 123 156 207 260 303 369
#     4   9  17  36  65  91 116 160 208 258 309 366
#     4  12  23  39  63  93 125 162 211 257 316 386
#     4  11  20  40  64  91 125 154 211 268 308 368
#     4   9  16  33  66  92 117 160 208 258 314 374
#
# _framework density 20.555084000000001
#
# number of rings (size 3 to 8) (size 9 to 14) (size 15 to 20)
#    0.000    1.750    3.750    1.125    0.000    2.500 
#    0.000    1.250    0.000    0.000    0.000    2.625 
#    0.000    0.000    0.000    0.000    0.000    0.000 
#
# Total GULP energy -396562.493669 kJ/mol
# GULP energy per Si atom -12392.577927 kJ/mol
# Density = 2.050830 g / cm^3
# Si number density = 20.555084 Si / 1000 Ang^3
#
#
#
# Elastic Constant Matrix: (Units=GPa)
#
#
# Indices 1 2 3 4 5 6 
#
# 1 122.6141 34.7775 37.2117 0.0000 4.5955 0.0000
# 2 34.7775 85.6180 30.9767 0.0000 -1.5098 0.0000
# 3 37.2117 30.9767 114.4987 0.0000 4.1015 0.0000
# 4 0.0000 0.0000 0.0000 -41.5054 0.0000 -21.4749
# 5 4.5955 -1.5098 4.1015 0.0000 21.6506 0.0000
# 6 0.0000 0.0000 0.0000 -21.4749 0.0000 22.5506
#
#
#
# Elastic Compliance Matrix: (Units=1/GPa)
#
#
# Indices 1 2 3 4 5 6 
#
# 1 0.009820 -0.003206 -0.002257 0.000000 -0.001880 0.000000
# 2 -0.003206 0.014047 -0.002837 0.000000 0.002197 0.000000
# 3 -0.002257 -0.002837 0.010295 0.000000 -0.001669 0.000000
# 4 0.000000 0.000000 0.000000 -0.016141 0.000000 -0.015371
# 5 -0.001880 0.002197 -0.001669 0.000000 0.047057 0.000000
# 6 0.000000 0.000000 0.000000 -0.015371 0.000000 0.029707
#
#
# Mechanical properties :
#
#
# Convention : Reuss Voigt Hill
#
# Bulk Modulus (GPa) = 56.93949 58.74029 57.83989
# Shear Modulus (GPa) = 42.64784 15.19015 28.91899
#
# Velocity S-wave (km/s) = 4.55995 2.72140 3.75494
# Velocity P-wave (km/s) = 7.44884 6.20594 6.85562
#
# Compressibility (1/GPa) = 0.01756250
#
# Stress axis : x y z
#
# Youngs Moduli (GPa) = 101.82979 71.18893 97.13808
#
# Poissons Ratio (x) = 0.22820 0.21924
# Poissons Ratio (y) = 0.32642 0.27561
# Poissons Ratio (z) = 0.22983 0.20198
#
# Static dielectric constant tensor:
#      x y z
#    x 5.852610 0.000000 1.923790 
#    y 0.000000 5.073960 0.000000 
#    z 1.923790 0.000000 5.093770 
# 
# 
# High freq. dielectric constant tensor:
#      x y z
#    x 1.811920 0.000000 0.023660 
#    y 0.000000 1.783940 0.000000 
#    z 0.023660 0.000000 1.791950 
# 
# From -- ./inp_files/39469.got.cif
#   From: 2010.06.25/outbox.cif.g09.slc.cpg/sg13_20_cif.got.tgz:39469.got - 2010.06.28 04:50:58.
