data_PCOD8118329
_publ_section_title
;
Structure prediction by ZEFSAII (Michael W. Deem and Ramdas Pophale) SiO2 
 PCOD8118329
Probable space group: P 2/C
;
_chemical_formula_sum "Si O2"
_cell_formula_units_Z 30
_cell_length_a 11.906429
_cell_length_b 9.116277
_cell_length_c 29.515922
_cell_angle_alpha 90.000000
_cell_angle_beta 153.082627
_cell_angle_gamma 90.000000
_cell_volume 1450.343178
_symmetry_space_group_name_H-M "P 2/C"
_symmetry_group_IT_number 13
_symmetry_cell_setting 'monoclinic'
loop_
_space_group_symop_operation_xyz
x,y,z
-x,y,1/2-z
-x,-y,-z
x,-y,1/2+z
loop_
_atom_site_type_symbol
_atom_site_label
_atom_site_fract_x
_atom_site_fract_y
_atom_site_fract_z
Si Si1 0.721432 0.872499 0.295224
Si Si2 0.967964 0.584297 0.097147
Si Si3 0.863074 0.603558 0.915798
Si Si4 0.997158 0.334838 0.170311
Si Si5 0.000000 0.143548 0.250000
Si Si6 0.064035 0.863081 0.937638
Si Si7 0.550632 0.321760 0.380560
Si Si8 0.549780 0.997986 0.639327
O O1 0.500000 0.827282 0.250000
O O2 0.901615 0.737797 0.346779
O O3 0.613128 0.923463 0.208806
O O4 0.886742 0.996140 0.378942
O O5 0.169624 0.482640 0.143262
O O6 0.891139 0.493021 0.115402
O O7 0.721619 0.593636 0.978175
O O8 0.604284 0.640840 0.847046
O O9 0.013819 0.754885 0.961884
O O10 0.000000 0.500000 0.000000
O O11 0.861530 0.250857 0.163261
O O12 0.269649 0.366183 0.288685
O O13 0.007280 0.215917 0.134358
O O14 0.203944 0.036141 0.301249
O O15 0.356506 0.901817 0.041871
O O16 0.598455 0.149952 0.403624
#
# Coordination Sequence:
#
# PCOD8118329 Si02
#       8
#     4   4   4   4   2   4   4   4
#     4  12  25  37  63 102 136 174 212 267 324 398
#     4  10  23  38  60  95 132 169 216 263 326 390
#     4   9  21  35  58  92 129 178 208 245 320 397
#     4  10  23  42  65  91 126 172 226 267 328 389
#     4  10  22  48  70  92 124 178 220 286 332 376
#     4  11  22  40  64  94 132 173 220 265 330 391
#     4  10  19  38  61  87 134 170 209 264 316 395
#     4  11  24  42  67  97 129 166 227 279 323 390
#
# _framework density 20.684759
#
# number of rings (size 3 to 8) (size 9 to 14) (size 15 to 20)
#    0.000    1.600    4.000    0.800    5.600    4.800 
#    0.000    3.333    0.000    0.000    0.000    0.000 
#    0.000    0.000    0.000    0.000    0.000    0.000 
#
# Total GULP energy -371738.072262 kJ/mol
# GULP energy per Si atom -12391.269075 kJ/mol
# Density = 2.063768 g / cm^3
# Si number density = 20.684759 Si / 1000 Ang^3
#
#
#
# Elastic Constant Matrix: (Units=GPa)
#
#
# Indices 1 2 3 4 5 6 
#
# 1 76.1919 13.1530 28.8126 0.0000 -4.9829 0.0000
# 2 13.1530 97.8036 31.9427 0.0000 -5.7295 0.0000
# 3 28.8126 31.9427 100.4431 0.0000 -6.0237 0.0000
# 4 0.0000 0.0000 0.0000 25.3281 0.0000 -1.3712
# 5 -4.9829 -5.7295 -6.0237 0.0000 20.6860 0.0000
# 6 0.0000 0.0000 0.0000 -1.3712 0.0000 19.3458
#
#
#
# Elastic Compliance Matrix: (Units=1/GPa)
#
#
# Indices 1 2 3 4 5 6 
#
# 1 0.014865 -0.000578 -0.003944 0.000000 0.002272 0.000000
# 2 -0.000578 0.011526 -0.003376 0.000000 0.002070 0.000000
# 3 -0.003944 -0.003376 0.012262 0.000000 0.001686 0.000000
# 4 0.000000 0.000000 0.000000 0.039634 0.000000 0.002809
# 5 0.002272 0.002070 0.001686 0.000000 0.049953 0.000000
# 6 0.000000 0.000000 0.000000 0.002809 0.000000 0.051890
#
#
# Mechanical properties :
#
#
# Convention : Reuss Voigt Hill
#
# Bulk Modulus (GPa) = 43.74902 46.91726 45.33314
# Shear Modulus (GPa) = 24.56477 26.44067 25.50272
#
# Velocity S-wave (km/s) = 3.44986 3.57917 3.51511
# Velocity P-wave (km/s) = 6.08811 6.30966 6.19987
#
# Compressibility (1/GPa) = 0.02285766
#
# Stress axis : x y z
#
# Youngs Moduli (GPa) = 67.27421 86.76015 81.55407
#
# Poissons Ratio (x) = 0.05013 0.32164
# Poissons Ratio (y) = 0.03887 0.27529
# Poissons Ratio (z) = 0.26533 0.29286
#
# Static dielectric constant tensor:
#      x y z
#    x 4.007540 0.000000 -0.144950 
#    y 0.000000 3.991940 0.000000 
#    z -0.144950 0.000000 3.588400 
# 
# 
# High freq. dielectric constant tensor:
#      x y z
#    x 1.794240 0.000000 -0.012930 
#    y 0.000000 1.819080 0.000000 
#    z -0.012930 0.000000 1.804340 
# 
# From -- ./inp_files/96633.got.cif
#   From: 2010.06.25/outbox.cif.g09.slc.cpg/sg13_49_cif.got.tgz:96633.got - 2010.06.28 04:50:58.
