data_PCOD8118784
_publ_section_title
;
Structure prediction by ZEFSAII (Michael W. Deem and Ramdas Pophale) SiO2 
 PCOD8118784
Probable space group: P 2/C
;
_chemical_formula_sum "Si O2"
_cell_formula_units_Z 20
_cell_length_a 7.736376
_cell_length_b 7.750452
_cell_length_c 18.063475
_cell_angle_alpha 90.000000
_cell_angle_beta 59.531478
_cell_angle_gamma 90.000000
_cell_volume 933.526709
_symmetry_space_group_name_H-M "P 2/C"
_symmetry_group_IT_number 13
_symmetry_cell_setting 'monoclinic'
loop_
_space_group_symop_operation_xyz
x,y,z
-x,y,1/2-z
-x,-y,-z
x,-y,1/2+z
loop_
_atom_site_type_symbol
_atom_site_label
_atom_site_fract_x
_atom_site_fract_y
_atom_site_fract_z
Si Si1 0.883049 0.742821 0.529161
Si Si2 0.000000 0.376116 0.750000
Si Si3 0.167564 0.445221 0.861673
Si Si4 0.661838 0.114805 0.863537
Si Si5 0.745034 0.921183 0.982509
Si Si6 0.500000 0.817550 0.250000
O O1 0.757227 0.615863 0.610897
O O2 0.969682 0.633539 0.442467
O O3 0.062847 0.810101 0.541424
O O4 0.747056 0.897400 0.528000
O O5 0.105662 0.491292 0.790434
O O6 0.170373 0.261428 0.673542
O O7 0.340875 0.302529 0.826810
O O8 0.607025 0.065177 0.789754
O O9 0.746556 0.954657 0.893360
O O10 0.458533 0.177745 0.949805
#
# Coordination Sequence:
#
# PCOD8118784 Si02
#       6
#     4   2   4   4   4   2
#     4  10  20  37  61  85 114 151 187 237 275 347
#     4  10  20  38  58  84 110 158 182 240 282 338
#     4  10  20  38  59  81 115 150 194 225 288 334
#     4  10  20  35  59  83 115 148 193 225 288 339
#     4  10  20  38  58  90 110 152 190 232 280 348
#     4  10  20  38  58  84 110 158 182 240 282 338
#
# _framework density 21.424132
#
# number of rings (size 3 to 8) (size 9 to 14) (size 15 to 20)
#    0.000    2.000    4.000    0.000    0.000    0.000 
#    0.000   16.000    0.000    0.000    0.000    0.000 
#    0.000    0.000    0.000    0.000    0.000    0.000 
#
# Total GULP energy -247833.320275 kJ/mol
# GULP energy per Si atom -12391.666014 kJ/mol
# Density = 2.137537 g / cm^3
# Si number density = 21.424132 Si / 1000 Ang^3
#
#
#
# Elastic Constant Matrix: (Units=GPa)
#
#
# Indices 1 2 3 4 5 6 
#
# 1 98.3412 16.0118 35.4109 0.0000 24.2109 0.0000
# 2 16.0118 54.9653 37.5437 0.0000 9.2035 0.0000
# 3 35.4109 37.5437 101.5049 0.0000 13.8247 0.0000
# 4 0.0000 0.0000 0.0000 34.5081 0.0000 4.5068
# 5 24.2109 9.2035 13.8247 0.0000 47.0985 0.0000
# 6 0.0000 0.0000 0.0000 4.5068 0.0000 13.6733
#
#
#
# Elastic Compliance Matrix: (Units=1/GPa)
#
#
# Indices 1 2 3 4 5 6 
#
# 1 0.012880 -0.000367 -0.003610 0.000000 -0.005489 0.000000
# 2 -0.000367 0.024575 -0.008680 0.000000 -0.002066 0.000000
# 3 -0.003610 -0.008680 0.014414 0.000000 -0.000679 0.000000
# 4 0.000000 0.000000 0.000000 0.030282 0.000000 -0.009981
# 5 -0.005489 -0.002066 -0.000679 0.000000 0.024657 0.000000
# 6 0.000000 0.000000 0.000000 -0.009981 0.000000 0.076425
#
#
# Mechanical properties :
#
#
# Convention : Reuss Voigt Hill
#
# Bulk Modulus (GPa) = 37.65817 48.08269 42.87043
# Shear Modulus (GPa) = 22.99922 30.11231 26.55577
#
# Velocity S-wave (km/s) = 3.28001 3.75311 3.52451
# Velocity P-wave (km/s) = 5.65334 6.42441 6.05117
#
# Compressibility (1/GPa) = 0.02655466
#
# Stress axis : x y z
#
# Youngs Moduli (GPa) = 77.64126 40.69170 69.37665
#
# Poissons Ratio (x) = 0.01494 0.25043
# Poissons Ratio (y) = 0.02851 0.60220
# Poissons Ratio (z) = 0.28027 0.35321
#
# Static dielectric constant tensor:
#      x y z
#    x 4.047990 0.000000 0.249720 
#    y 0.000000 3.501930 0.000000 
#    z 0.249720 0.000000 4.044880 
# 
# 
# High freq. dielectric constant tensor:
#      x y z
#    x 1.858090 0.000000 0.017230 
#    y 0.000000 1.786880 0.000000 
#    z 0.017230 0.000000 1.844650 
# 
# From -- ./inp_files/62691.got.cif
#   From: 2010.06.25/outbox.cif.g09.slc.cpg/sg13_32_cif.got.tgz:62691.got - 2010.06.28 04:50:58.
