data_PCOD8118584
_publ_section_title
;
Structure prediction by ZEFSAII (Michael W. Deem and Ramdas Pophale) SiO2 
 PCOD8118584
Probable space group: P 2/C
;
_chemical_formula_sum "Si O2"
_cell_formula_units_Z 26
_cell_length_a 16.982880
_cell_length_b 4.895766
_cell_length_c 20.755488
_cell_angle_alpha 90.000000
_cell_angle_beta 133.123924
_cell_angle_gamma 90.000000
_cell_volume 1259.547548
_symmetry_space_group_name_H-M "P 2/C"
_symmetry_group_IT_number 13
_symmetry_cell_setting 'monoclinic'
loop_
_space_group_symop_operation_xyz
x,y,z
-x,y,1/2-z
-x,-y,-z
x,-y,1/2+z
loop_
_atom_site_type_symbol
_atom_site_label
_atom_site_fract_x
_atom_site_fract_y
_atom_site_fract_z
Si Si1 0.000000 0.108439 0.750000
Si Si2 0.461541 0.893640 0.409355
Si Si3 0.905780 0.843447 0.818454
Si Si4 0.311305 0.279686 0.478085
Si Si5 0.991760 0.356139 0.564180
Si Si6 0.181791 0.225976 0.944280
Si Si7 0.677669 0.358395 0.165678
O O1 0.915309 0.285953 0.661028
O O2 0.925115 0.932708 0.755969
O O3 0.566073 0.783200 0.429857
O O4 0.366027 0.667238 0.358394
O O5 0.500000 0.000000 0.500000
O O6 0.409344 0.161160 0.347421
O O7 0.789621 0.699185 0.764888
O O8 0.988415 0.598861 0.874784
O O9 0.926220 0.097868 0.879771
O O10 0.282729 0.578822 0.487956
O O11 0.304877 0.263742 0.397790
O O12 0.225170 0.079545 0.462094
O O13 0.869897 0.255046 0.512979
O O14 0.000000 0.500000 0.500000
#
# Coordination Sequence:
#
# PCOD8118584 Si02
#       7
#     2   4   4   4   4   4   4
#     4  10  22  36  52  90 120 146 186 238 292 358
#     4  10  20  34  49  78 122 161 185 225 280 358
#     4  11  23  37  61  84 116 155 192 245 298 350
#     4  11  20  33  52  83 116 154 186 224 286 354
#     4  11  25  42  57  82 116 156 204 243 291 351
#     4  11  22  33  57  80 115 152 189 233 291 341
#     4  11  20  33  54  82 118 154 191 228 290 354
#
# _framework density 20.642334000000002
#
# number of rings (size 3 to 8) (size 9 to 14) (size 15 to 20)
#    0.000    1.231    1.538    7.846    4.308    1.231 
#    0.000    0.000    0.000    0.000    0.000   16.154 
#    0.000    0.000    0.000    0.000    0.000    0.000 
#
# Total GULP energy -322135.085205 kJ/mol
# GULP energy per Si atom -12389.810969 kJ/mol
# Density = 2.059535 g / cm^3
# Si number density = 20.642334 Si / 1000 Ang^3
#
#
#
# Elastic Constant Matrix: (Units=GPa)
#
#
# Indices 1 2 3 4 5 6 
#
# 1 76.0713 14.3733 30.5595 0.0000 13.9078 0.0000
# 2 14.3733 113.0969 21.3929 0.0000 6.6437 0.0000
# 3 30.5595 21.3929 44.3067 0.0000 11.7376 0.0000
# 4 0.0000 0.0000 0.0000 38.4851 0.0000 18.3199
# 5 13.9078 6.6437 11.7376 0.0000 17.2373 0.0000
# 6 0.0000 0.0000 0.0000 18.3199 0.0000 31.1315
#
#
#
# Elastic Compliance Matrix: (Units=1/GPa)
#
#
# Indices 1 2 3 4 5 6 
#
# 1 0.019013 0.000145 -0.011109 0.000000 -0.007832 0.000000
# 2 0.000145 0.009738 -0.004608 0.000000 -0.000733 0.000000
# 3 -0.011109 -0.004608 0.036129 0.000000 -0.013863 0.000000
# 4 0.000000 0.000000 0.000000 0.036095 0.000000 -0.021241
# 5 -0.007832 -0.000733 -0.013863 0.000000 0.074055 0.000000
# 6 0.000000 0.000000 0.000000 -0.021241 0.000000 0.044621
#
#
# Mechanical properties :
#
#
# Convention : Reuss Voigt Hill
#
# Bulk Modulus (GPa) = 29.64113 40.68070 35.16092
# Shear Modulus (GPa) = 19.08099 28.51405 23.79752
#
# Velocity S-wave (km/s) = 3.04363 3.72067 3.39905
# Velocity P-wave (km/s) = 5.17128 6.18126 5.69869
#
# Compressibility (1/GPa) = 0.03373690
#
# Stress axis : x y z
#
# Youngs Moduli (GPa) = 52.59661 102.68837 27.67828
#
# Poissons Ratio (x) = -0.01490 0.30747
# Poissons Ratio (y) = -0.00763 0.12754
# Poissons Ratio (z) = 0.58429 0.47318
#
# Static dielectric constant tensor:
#      x y z
#    x 3.822420 0.000000 0.540240 
#    y 0.000000 3.989600 0.000000 
#    z 0.540240 0.000000 3.683820 
# 
# 
# High freq. dielectric constant tensor:
#      x y z
#    x 1.792030 0.000000 0.042240 
#    y 0.000000 1.831970 0.000000 
#    z 0.042240 0.000000 1.763030 
# 
# From -- ./inp_files/80628.got.cif
#   From: 2010.06.25/outbox.cif.g09.slc.cpg/sg13_41_cif.got.tgz:80628.got - 2010.06.28 04:50:58.
