data_PCOD8118774
_publ_section_title
;
Structure prediction by ZEFSAII (Michael W. Deem and Ramdas Pophale) SiO2 
 PCOD8118774
Probable space group: P 2/C
;
_chemical_formula_sum "Si O2"
_cell_formula_units_Z 24
_cell_length_a 13.010914
_cell_length_b 9.838006
_cell_length_c 14.038584
_cell_angle_alpha 90.000000
_cell_angle_beta 41.072292
_cell_angle_gamma 90.000000
_cell_volume 1180.621449
_symmetry_space_group_name_H-M "P 2/C"
_symmetry_group_IT_number 13
_symmetry_cell_setting 'monoclinic'
loop_
_space_group_symop_operation_xyz
x,y,z
-x,y,1/2-z
-x,-y,-z
x,-y,1/2+z
loop_
_atom_site_type_symbol
_atom_site_label
_atom_site_fract_x
_atom_site_fract_y
_atom_site_fract_z
Si Si1 0.296077 0.363400 0.592324
Si Si2 0.788921 0.982975 0.570887
Si Si3 0.827797 0.865120 0.864996
Si Si4 0.134814 0.109434 0.792832
Si Si5 0.326910 0.296768 0.365500
Si Si6 0.334002 0.349448 0.152165
O O1 0.191603 0.261653 0.729052
O O2 0.238370 0.353854 0.521799
O O3 0.479844 0.330629 0.471898
O O4 0.269719 0.514169 0.649409
O O5 0.660815 0.867318 0.641240
O O6 0.952807 0.899033 0.448838
O O7 0.766804 0.110403 0.514751
O O8 0.763723 0.048869 0.691531
O O9 0.716811 0.773612 0.879427
O O10 0.000000 0.797960 0.750000
O O11 0.835775 0.017749 0.819414
O O12 0.500000 0.358501 0.250000
O O13 0.255503 0.342297 0.312741
#
# Coordination Sequence:
#
# PCOD8118774 Si02
#       6
#     4   4   4   4   4   4
#     4  10  22  39  60  84 115 160 192 237 293 351
#     4  10  20  35  58  86 119 149 194 242 281 345
#     4  10  20  36  57  84 117 150 183 238 289 333
#     4  10  20  36  59  83 116 152 193 235 290 338
#     4  10  20  36  59  84 112 150 191 238 292 340
#     4  10  22  40  58  84 122 149 195 244 288 348
#
# _framework density 20.328277
#
# number of rings (size 3 to 8) (size 9 to 14) (size 15 to 20)
#    0.000    2.000    3.333    0.000    0.000    3.333 
#    3.000    2.500    0.000    0.000    0.000    0.000 
#    0.000    0.000    0.000    0.000    0.000    0.000 
#
# Total GULP energy -297457.045747 kJ/mol
# GULP energy per Si atom -12394.043573 kJ/mol
# Density = 2.028201 g / cm^3
# Si number density = 20.328277 Si / 1000 Ang^3
#
#
#
# Elastic Constant Matrix: (Units=GPa)
#
#
# Indices 1 2 3 4 5 6 
#
# 1 88.3519 32.0755 25.4263 0.0000 31.4363 0.0000
# 2 32.0755 92.5345 29.6433 0.0000 12.4944 0.0000
# 3 25.4263 29.6433 66.4823 0.0000 27.2165 0.0000
# 4 0.0000 0.0000 0.0000 25.2910 0.0000 0.1061
# 5 31.4363 12.4944 27.2165 0.0000 35.1566 0.0000
# 6 0.0000 0.0000 0.0000 0.1061 0.0000 32.2459
#
#
#
# Elastic Compliance Matrix: (Units=1/GPa)
#
#
# Indices 1 2 3 4 5 6 
#
# 1 0.018196 -0.004686 0.001624 0.000000 -0.015863 0.000000
# 2 -0.004686 0.013815 -0.005963 0.000000 0.003896 0.000000
# 3 0.001624 -0.005963 0.024604 0.000000 -0.018380 0.000000
# 4 0.000000 0.000000 0.000000 0.039540 0.000000 -0.000130
# 5 -0.015863 0.003896 -0.018380 0.000000 0.055472 0.000000
# 6 0.000000 0.000000 0.000000 -0.000130 0.000000 0.031012
#
#
# Mechanical properties :
#
#
# Convention : Reuss Voigt Hill
#
# Bulk Modulus (GPa) = 25.92998 46.85100 36.39049
# Shear Modulus (GPa) = 23.41437 29.22028 26.31732
#
# Velocity S-wave (km/s) = 3.39752 3.79545 3.60198
# Velocity P-wave (km/s) = 5.30793 6.50419 5.93627
#
# Compressibility (1/GPa) = 0.03856540
#
# Stress axis : x y z
#
# Youngs Moduli (GPa) = 54.95649 72.38431 40.64445
#
# Poissons Ratio (x) = 0.33918 -0.06600
# Poissons Ratio (y) = 0.25752 0.24236
# Poissons Ratio (z) = -0.08925 0.43162
#
# Static dielectric constant tensor:
#      x y z
#    x 3.841620 0.000000 0.275350 
#    y 0.000000 3.413840 0.000000 
#    z 0.275350 0.000000 3.648680 
# 
# 
# High freq. dielectric constant tensor:
#      x y z
#    x 1.802380 0.000000 0.025940 
#    y 0.000000 1.774200 0.000000 
#    z 0.025940 0.000000 1.784780 
# 
# From -- ./inp_files/52852.got.cif
#   From: 2010.06.25/outbox.cif.g09.slc.cpg/sg13_27_cif.got.tgz:52852.got - 2010.06.28 04:50:58.
