data_PCOD8118727
_publ_section_title
;
Structure prediction by ZEFSAII (Michael W. Deem and Ramdas Pophale) SiO2 
 PCOD8118727
Probable space group: P 2/C
;
_chemical_formula_sum "Si O2"
_cell_formula_units_Z 20
_cell_length_a 8.990055
_cell_length_b 21.412741
_cell_length_c 5.208998
_cell_angle_alpha 90.000000
_cell_angle_beta 116.837488
_cell_angle_gamma 90.000000
_cell_volume 894.736455
_symmetry_space_group_name_H-M "P 2/C"
_symmetry_group_IT_number 13
_symmetry_cell_setting 'monoclinic'
loop_
_space_group_symop_operation_xyz
x,y,z
-x,y,1/2-z
-x,-y,-z
x,-y,1/2+z
loop_
_atom_site_type_symbol
_atom_site_label
_atom_site_fract_x
_atom_site_fract_y
_atom_site_fract_z
Si Si1 0.198178 0.250839 0.400732
Si Si2 0.927668 0.069729 0.441880
Si Si3 0.802366 0.675878 0.098177
Si Si4 0.199020 0.535594 0.399297
Si Si5 0.603437 0.127774 0.077821
O O1 0.261320 0.282221 0.713808
O O2 0.288181 0.185229 0.437139
O O3 0.000000 0.241230 0.250000
O O4 0.258908 0.294726 0.215932
O O5 0.727200 0.072139 0.269392
O O6 0.000000 0.105466 0.250000
O O7 0.000000 0.000000 0.500000
O O8 0.000000 0.105073 0.750000
O O9 0.730186 0.605926 0.064664
O O10 0.000000 0.672900 0.250000
O O11 0.267256 0.503179 0.710066
O O12 0.000000 0.536177 0.250000
O O13 0.500000 0.146520 0.250000
O O14 0.500000 0.103398 0.750000
#
# Coordination Sequence:
#
# PCOD8118727 Si02
#       5
#     4   4   4   4   4
#     4  10  20  35  56  79 113 158 199 242 297 367
#     4  10  22  44  69  93 124 166 206 239 288 364
#     4   9  17  29  47  75 108 150 201 243 292 364
#     4   9  15  23  38  64 104 147 184 236 304 358
#     4  12  25  41  63  95 128 157 200 257 310 355
#
# _framework density 22.352951000000001
#
# number of rings (size 3 to 8) (size 9 to 14) (size 15 to 20)
#    0.000    2.000    0.000    4.200    0.000    7.200 
#    0.000   12.000    0.000    0.000    0.000    0.000 
#    0.000   56.000    0.000    0.000    0.000    0.000 
#
# Total GULP energy -247914.414692 kJ/mol
# GULP energy per Si atom -12395.720735 kJ/mol
# Density = 2.230207 g / cm^3
# Si number density = 22.352951 Si / 1000 Ang^3
#
#
#
# Elastic Constant Matrix: (Units=GPa)
#
#
# Indices 1 2 3 4 5 6 
#
# 1 80.3048 46.9208 68.0403 0.0000 -18.5239 0.0000
# 2 46.9208 117.9293 44.2283 0.0000 -3.4738 0.0000
# 3 68.0403 44.2283 192.4168 0.0000 -31.8642 0.0000
# 4 0.0000 0.0000 0.0000 10.3210 0.0000 -2.5505
# 5 -18.5239 -3.4738 -31.8642 0.0000 45.2286 0.0000
# 6 0.0000 0.0000 0.0000 -2.5505 0.0000 9.7835
#
#
#
# Elastic Compliance Matrix: (Units=1/GPa)
#
#
# Indices 1 2 3 4 5 6 
#
# 1 0.022025 -0.006559 -0.005513 0.000000 0.004632 0.000000
# 2 -0.006559 0.011265 -0.000647 0.000000 -0.002277 0.000000
# 3 -0.005513 -0.000647 0.007826 0.000000 0.003206 0.000000
# 4 0.000000 0.000000 0.000000 0.103562 0.000000 0.026999
# 5 0.004632 -0.002277 0.003206 0.000000 0.026091 0.000000
# 6 0.000000 0.000000 0.000000 0.026999 0.000000 0.109252
#
#
# Mechanical properties :
#
#
# Convention : Reuss Voigt Hill
#
# Bulk Modulus (GPa) = 63.78697 78.78108 71.28403
# Shear Modulus (GPa) = 16.09347 28.49738 22.29542
#
# Velocity S-wave (km/s) = 2.68614 3.57442 3.16163
# Velocity P-wave (km/s) = 6.18212 7.23574 6.72959
#
# Compressibility (1/GPa) = 0.01567718
#
# Stress axis : x y z
#
# Youngs Moduli (GPa) = 45.40352 88.77174 127.77436
#
# Poissons Ratio (x) = 0.58224 0.70447
# Poissons Ratio (y) = 0.29779 0.08268
# Poissons Ratio (z) = 0.25033 0.05744
#
# Static dielectric constant tensor:
#      x y z
#    x 3.463680 0.000000 0.684360 
#    y 0.000000 5.385200 0.000000 
#    z 0.684360 0.000000 2.300740 
# 
# 
# High freq. dielectric constant tensor:
#      x y z
#    x 1.855070 0.000000 -0.027160 
#    y 0.000000 1.873520 0.000000 
#    z -0.027160 0.000000 1.895820 
# 
# From -- ./inp_files/2161.got.cif
#   From: 2010.06.25/outbox.cif.g09.slc.cpg/sg13_2_cif.got.tgz:2161.got - 2010.06.28 04:50:58.
