data_PCOD8118667
_publ_section_title
;
Structure prediction by ZEFSAII (Michael W. Deem and Ramdas Pophale) SiO2 
 PCOD8118667
Probable space group: P 2/C
;
_chemical_formula_sum "Si O2"
_cell_formula_units_Z 26
_cell_length_a 8.357926
_cell_length_b 22.776912
_cell_length_c 7.965229
_cell_angle_alpha 90.000000
_cell_angle_beta 117.081025
_cell_angle_gamma 90.000000
_cell_volume 1350.078555
_symmetry_space_group_name_H-M "P 2/C"
_symmetry_group_IT_number 13
_symmetry_cell_setting 'monoclinic'
loop_
_space_group_symop_operation_xyz
x,y,z
-x,y,1/2-z
-x,-y,-z
x,-y,1/2+z
loop_
_atom_site_type_symbol
_atom_site_label
_atom_site_fract_x
_atom_site_fract_y
_atom_site_fract_z
Si Si1 0.099049 0.222517 0.621367
Si Si2 0.500000 0.817269 0.250000
Si Si3 0.699156 0.429428 0.303664
Si Si4 0.650823 0.083323 0.030993
Si Si5 0.500000 0.992190 0.750000
Si Si6 0.302449 0.558436 0.087804
Si Si7 0.000000 0.853169 0.750000
Si Si8 0.987071 0.650500 0.543609
O O1 0.319700 0.218969 0.722253
O O2 0.020199 0.184485 0.429607
O O3 0.000000 0.202690 0.750000
O O4 0.042010 0.289025 0.564517
O O5 0.547966 0.856989 0.432634
O O6 0.500000 0.409664 0.250000
O O7 0.757193 0.492038 0.405430
O O8 0.828091 0.378382 0.433521
O O9 0.711196 0.434812 0.113766
O O10 0.538618 0.050391 0.116822
O O11 0.839173 0.101485 0.196852
O O12 0.663100 0.037219 0.879698
O O13 0.500000 0.571626 0.250000
O O14 0.167805 0.606667 0.097038
O O15 0.000000 0.660056 0.750000
#
# Coordination Sequence:
#
# PCOD8118667 Si02
#       8
#     4   2   4   4   2   4   2   4
#     4  11  24  42  64  89 119 167 216 255 313 360
#     4   9  22  42  60  90 126 160 211 260 300 368
#     4  10  20  36  55  83 114 148 190 239 311 378
#     4   9  19  36  60  89 127 163 195 257 298 360
#     4   9  18  34  60  94 122 160 207 232 314 366
#     4  10  20  34  58  81 114 150 184 244 311 365
#     4  10  22  42  60  88 132 160 210 260 292 364
#     4  10  22  40  56  80 118 150 197 262 298 360
#
# _framework density 19.258140999999998
#
# number of rings (size 3 to 8) (size 9 to 14) (size 15 to 20)
#    0.000    2.154    0.769    2.308    3.231    3.077 
#    2.769    0.000    0.000    0.000    0.000    0.000 
#    0.000    0.000    0.000    0.000    0.000    0.000 
#
# Total GULP energy -322108.647195 kJ/mol
# GULP energy per Si atom -12388.794123 kJ/mol
# Density = 1.921431 g / cm^3
# Si number density = 19.258141 Si / 1000 Ang^3
#
#
#
# Elastic Constant Matrix: (Units=GPa)
#
#
# Indices 1 2 3 4 5 6 
#
# 1 87.5878 51.3540 48.7130 0.0000 9.5334 0.0000
# 2 51.3540 114.9831 46.0950 0.0000 15.2267 0.0000
# 3 48.7130 46.0950 82.7074 0.0000 14.3604 0.0000
# 4 0.0000 0.0000 0.0000 28.1320 0.0000 2.1196
# 5 9.5334 15.2267 14.3604 0.0000 31.1797 0.0000
# 6 0.0000 0.0000 0.0000 2.1196 0.0000 20.5873
#
#
#
# Elastic Compliance Matrix: (Units=1/GPa)
#
#
# Indices 1 2 3 4 5 6 
#
# 1 0.019118 -0.005231 -0.008449 0.000000 0.000600 0.000000
# 2 -0.005231 0.012863 -0.003560 0.000000 -0.003043 0.000000
# 3 -0.008449 -0.003560 0.019891 0.000000 -0.004840 0.000000
# 4 0.000000 0.000000 0.000000 0.035825 0.000000 -0.003688
# 5 0.000600 -0.003043 -0.004840 0.000000 0.035604 0.000000
# 6 0.000000 0.000000 0.000000 -0.003688 0.000000 0.048953
#
#
# Mechanical properties :
#
#
# Convention : Reuss Voigt Hill
#
# Bulk Modulus (GPa) = 57.49414 64.17803 60.83609
# Shear Modulus (GPa) = 23.52608 25.25422 24.39015
#
# Velocity S-wave (km/s) = 3.49896 3.62519 3.56263
# Velocity P-wave (km/s) = 6.80021 7.13584 6.97004
#
# Compressibility (1/GPa) = 0.01739308
#
# Stress axis : x y z
#
# Youngs Moduli (GPa) = 52.30778 77.74146 50.27335
#
# Poissons Ratio (x) = 0.40665 0.42475
# Poissons Ratio (y) = 0.27361 0.17896
# Poissons Ratio (z) = 0.44194 0.27674
#
# Static dielectric constant tensor:
#      x y z
#    x 3.423840 0.000000 0.021750 
#    y 0.000000 3.354750 0.000000 
#    z 0.021750 0.000000 3.785130 
# 
# 
# High freq. dielectric constant tensor:
#      x y z
#    x 1.737020 0.000000 0.005190 
#    y 0.000000 1.754250 0.000000 
#    z 0.005190 0.000000 1.764330 
# 
# From -- ./inp_files/13356.got.cif
#   From: 2010.06.25/outbox.cif.g09.slc.cpg/sg13_7_cif.got.tgz:13356.got - 2010.06.28 04:50:58.
