data_PCOD8118141
_publ_section_title
;
Structure prediction by ZEFSAII (Michael W. Deem and Ramdas Pophale) SiO2 
 PCOD8118141
Probable space group: P 2/C
;
_chemical_formula_sum "Si O2"
_cell_formula_units_Z 30
_cell_length_a 11.907380
_cell_length_b 8.715394
_cell_length_c 15.820822
_cell_angle_alpha 90.000000
_cell_angle_beta 120.299574
_cell_angle_gamma 90.000000
_cell_volume 1417.568245
_symmetry_space_group_name_H-M "P 2/C"
_symmetry_group_IT_number 13
_symmetry_cell_setting 'monoclinic'
loop_
_space_group_symop_operation_xyz
x,y,z
-x,y,1/2-z
-x,-y,-z
x,-y,1/2+z
loop_
_atom_site_type_symbol
_atom_site_label
_atom_site_fract_x
_atom_site_fract_y
_atom_site_fract_z
Si Si1 0.779142 0.153404 0.806607
Si Si2 0.122760 0.186881 0.138234
Si Si3 0.074996 0.402137 0.361855
Si Si4 0.789811 0.893980 0.122880
Si Si5 0.039306 0.715981 0.430398
Si Si6 0.500000 0.064260 0.750000
Si Si7 0.720820 0.237661 0.147915
Si Si8 0.538166 0.111832 0.439346
O O1 0.763061 0.190748 0.701368
O O2 0.634168 0.162940 0.792897
O O3 0.882306 0.273474 0.886297
O O4 0.854056 0.993904 0.850885
O O5 0.233714 0.265828 0.238019
O O6 0.984969 0.243505 0.124327
O O7 0.127386 0.239207 0.043492
O O8 0.072656 0.538868 0.427503
O O9 0.224494 0.367534 0.393661
O O10 0.000000 0.457052 0.250000
O O11 0.924930 0.832170 0.133992
O O12 0.780591 0.075617 0.136439
O O13 0.684675 0.836051 0.012616
O O14 0.482946 0.961244 0.660623
O O15 0.564994 0.250272 0.090468
O O16 0.500000 0.000000 0.500000
#
# Coordination Sequence:
#
# PCOD8118141 Si02
#       8
#     4   4   4   4   4   2   4   4
#     4  11  22  37  59  89 123 154 198 249 306 362
#     4  10  20  38  57  88 115 155 203 245 297 363
#     4  10  21  37  59  81 120 163 201 246 302 360
#     4  10  20  37  60  90 122 151 199 249 309 360
#     4  12  23  36  58  93 123 155 197 259 304 353
#     4  12  20  36  58  90 122 154 198 250 304 362
#     4   9  19  38  59  85 117 161 203 243 296 370
#     4  10  19  36  59  89 120 157 199 250 302 361
#
# _framework density 21.163001999999999
#
# number of rings (size 3 to 8) (size 9 to 14) (size 15 to 20)
#    0.000    1.600    4.000    3.600    0.000    4.267 
#    0.000    0.667    0.000    0.800    0.000    0.000 
#    0.000    0.000    0.000    0.000    0.000    0.000 
#
# Total GULP energy -371654.609079 kJ/mol
# GULP energy per Si atom -12388.486969 kJ/mol
# Density = 2.111483 g / cm^3
# Si number density = 21.163002 Si / 1000 Ang^3
#
#
#
# Elastic Constant Matrix: (Units=GPa)
#
#
# Indices 1 2 3 4 5 6 
#
# 1 136.7296 36.4965 50.3651 0.0000 7.7889 0.0000
# 2 36.4965 50.7826 26.6150 0.0000 2.6778 0.0000
# 3 50.3651 26.6150 118.1374 0.0000 -4.7782 0.0000
# 4 0.0000 0.0000 0.0000 14.3167 0.0000 -4.7494
# 5 7.7889 2.6778 -4.7782 0.0000 29.5172 0.0000
# 6 0.0000 0.0000 0.0000 -4.7494 0.0000 24.6797
#
#
#
# Elastic Compliance Matrix: (Units=1/GPa)
#
#
# Indices 1 2 3 4 5 6 
#
# 1 0.010093 -0.005442 -0.003185 0.000000 -0.002685 0.000000
# 2 -0.005442 0.025505 -0.003484 0.000000 -0.001442 0.000000
# 3 -0.003185 -0.003484 0.010725 0.000000 0.002893 0.000000
# 4 0.000000 0.000000 0.000000 0.074612 0.000000 0.014358
# 5 -0.002685 -0.001442 0.002893 0.000000 0.035186 0.000000
# 6 0.000000 0.000000 0.000000 0.014358 0.000000 0.043282
#
#
# Mechanical properties :
#
#
# Convention : Reuss Voigt Hill
#
# Bulk Modulus (GPa) = 45.25115 59.17809 52.21462
# Shear Modulus (GPa) = 21.64573 26.51427 24.08000
#
# Velocity S-wave (km/s) = 3.20161 3.54342 3.37684
# Velocity P-wave (km/s) = 5.92416 6.69065 6.31904
#
# Compressibility (1/GPa) = 0.02209889
#
# Stress axis : x y z
#
# Youngs Moduli (GPa) = 99.08151 39.20774 93.24360
#
# Poissons Ratio (x) = 0.21339 0.29701
# Poissons Ratio (y) = 0.53925 0.32487
# Poissons Ratio (z) = 0.31560 0.13660
#
# Static dielectric constant tensor:
#      x y z
#    x 4.192110 0.000000 0.194490 
#    y 0.000000 3.328010 0.000000 
#    z 0.194490 0.000000 4.183840 
# 
# 
# High freq. dielectric constant tensor:
#      x y z
#    x 1.832850 0.000000 -0.002870 
#    y 0.000000 1.776230 0.000000 
#    z -0.002870 0.000000 1.846160 
# 
# From -- ./inp_files/50399.got.cif
#   From: 2010.06.25/outbox.cif.g09.slc.cpg/sg13_26_cif.got.tgz:50399.got - 2010.06.28 04:50:58.
