data_PCOD8118338
_publ_section_title
;
Structure prediction by ZEFSAII (Michael W. Deem and Ramdas Pophale) SiO2 
 PCOD8118338
Probable space group: P 2/C
;
_chemical_formula_sum "Si O2"
_cell_formula_units_Z 22
_cell_length_a 21.885305
_cell_length_b 9.624077
_cell_length_c 12.845028
_cell_angle_alpha 90.000000
_cell_angle_beta 24.336267
_cell_angle_gamma 90.000000
_cell_volume 1114.910644
_symmetry_space_group_name_H-M "P 2/C"
_symmetry_group_IT_number 13
_symmetry_cell_setting 'monoclinic'
loop_
_space_group_symop_operation_xyz
x,y,z
-x,y,1/2-z
-x,-y,-z
x,-y,1/2+z
loop_
_atom_site_type_symbol
_atom_site_label
_atom_site_fract_x
_atom_site_fract_y
_atom_site_fract_z
Si Si1 0.274953 0.513633 0.943844
Si Si2 0.154046 0.058611 0.566636
Si Si3 0.727071 0.712157 0.743394
Si Si4 0.115403 0.758212 0.663000
Si Si5 0.500000 0.595614 0.250000
Si Si6 0.971746 0.707800 0.105889
O O1 0.316627 0.604936 0.779392
O O2 0.414252 0.507262 0.805240
O O3 0.241195 0.358080 0.957622
O O4 0.132660 0.571800 0.228142
O O5 0.272400 0.130550 0.303903
O O6 0.128276 0.161438 0.703476
O O7 0.000000 0.030493 0.750000
O O8 0.205073 0.905322 0.523800
O O9 0.892914 0.678866 0.525360
O O10 0.611929 0.698672 0.016100
O O11 0.000000 0.739972 0.750000
O O12 0.024518 0.742030 0.909693
#
# Coordination Sequence:
#
# PCOD8118338 Si02
#       6
#     4   4   4   4   2   4
#     4  11  23  37  60  88 116 154 195 249 284 349
#     4   8  18  35  59  87 114 147 185 249 293 344
#     4  10  21  41  60  84 118 154 196 237 298 347
#     4  11  20  32  59  94 115 140 194 249 291 338
#     4  12  24  38  60  82 122 166 196 230 296 352
#     4  10  19  38  62  86 118 148 194 243 302 337
#
# _framework density 19.732523
#
# number of rings (size 3 to 8) (size 9 to 14) (size 15 to 20)
#    0.000    1.818    1.818    4.364    2.545    0.000 
#    0.000    0.909    0.000    5.455    0.000    0.000 
#    0.000    0.000    0.000    0.000    0.000    0.000 
#
# Total GULP energy -272788.232563 kJ/mol
# GULP energy per Si atom -12399.465117 kJ/mol
# Density = 1.968761 g / cm^3
# Si number density = 19.732523 Si / 1000 Ang^3
#
#
#
# Elastic Constant Matrix: (Units=GPa)
#
#
# Indices 1 2 3 4 5 6 
#
# 1 109.3710 41.0941 26.6835 0.0000 -1.3312 0.0000
# 2 41.0941 147.4439 40.5162 0.0000 -2.4149 0.0000
# 3 26.6835 40.5162 76.9033 0.0000 7.2134 0.0000
# 4 0.0000 0.0000 0.0000 15.5749 0.0000 9.1219
# 5 -1.3312 -2.4149 7.2134 0.0000 38.4741 0.0000
# 6 0.0000 0.0000 0.0000 9.1219 0.0000 31.9853
#
#
#
# Elastic Compliance Matrix: (Units=1/GPa)
#
#
# Indices 1 2 3 4 5 6 
#
# 1 0.010621 -0.002242 -0.002570 0.000000 0.000709 0.000000
# 2 -0.002242 0.008469 -0.003793 0.000000 0.001165 0.000000
# 3 -0.002570 -0.003793 0.016209 0.000000 -0.003366 0.000000
# 4 0.000000 0.000000 0.000000 0.077081 0.000000 -0.021983
# 5 0.000709 0.001165 -0.003366 0.000000 0.026720 0.000000
# 6 0.000000 0.000000 0.000000 -0.021983 0.000000 0.037534
#
#
# Mechanical properties :
#
#
# Convention : Reuss Voigt Hill
#
# Bulk Modulus (GPa) = 55.28576 61.14508 58.21542
# Shear Modulus (GPa) = 25.01565 32.23515 28.62540
#
# Velocity S-wave (km/s) = 3.56439 4.04617 3.81290
# Velocity P-wave (km/s) = 6.70956 7.27206 6.99647
#
# Compressibility (1/GPa) = 0.01808784
#
# Stress axis : x y z
#
# Youngs Moduli (GPa) = 94.14893 118.08421 61.69335
#
# Poissons Ratio (x) = 0.26479 0.15858
# Poissons Ratio (y) = 0.21112 0.23399
# Poissons Ratio (z) = 0.24201 0.44788
#
# Static dielectric constant tensor:
#      x y z
#    x 3.694560 0.000000 0.122630 
#    y 0.000000 3.898400 0.000000 
#    z 0.122630 0.000000 3.387170 
# 
# 
# High freq. dielectric constant tensor:
#      x y z
#    x 1.775210 0.000000 0.015260 
#    y 0.000000 1.773280 0.000000 
#    z 0.015260 0.000000 1.744390 
# 
# From -- ./inp_files/58641.got.cif
#   From: 2010.06.25/outbox.cif.g09.slc.cpg/sg13_30_cif.got.tgz:58641.got - 2010.06.28 04:50:58.
