data_PCOD8118012
_publ_section_title
;
Structure prediction by ZEFSAII (Michael W. Deem and Ramdas Pophale) SiO2 
 PCOD8118012
Probable space group: P 2/C
;
_chemical_formula_sum "Si O2"
_cell_formula_units_Z 24
_cell_length_a 16.871606
_cell_length_b 14.654115
_cell_length_c 8.507924
_cell_angle_alpha 90.000000
_cell_angle_beta 34.855625
_cell_angle_gamma 90.000000
_cell_volume 1202.164330
_symmetry_space_group_name_H-M "P 2/C"
_symmetry_group_IT_number 13
_symmetry_cell_setting 'monoclinic'
loop_
_space_group_symop_operation_xyz
x,y,z
-x,y,1/2-z
-x,-y,-z
x,-y,1/2+z
loop_
_atom_site_type_symbol
_atom_site_label
_atom_site_fract_x
_atom_site_fract_y
_atom_site_fract_z
Si Si1 0.441360 0.706700 0.547997
Si Si2 0.000000 0.687073 0.250000
Si Si3 0.500000 0.028853 0.250000
Si Si4 0.779158 0.264321 0.343327
Si Si5 0.285535 0.409800 0.839287
Si Si6 0.230883 0.601671 0.068260
Si Si7 0.613819 0.120887 0.783807
O O1 0.366332 0.699835 0.498917
O O2 0.564750 0.636727 0.385134
O O3 0.482619 0.812101 0.489738
O O4 0.327955 0.687400 0.867394
O O5 0.079773 0.621062 0.241297
O O6 0.897099 0.752189 0.519669
O O7 0.386998 0.088610 0.532643
O O8 0.405769 0.967870 0.290233
O O9 0.823515 0.348810 0.382598
O O10 0.751324 0.174440 0.496944
O O11 0.225806 0.410675 0.761596
O O12 0.295958 0.512275 0.882788
#
# Coordination Sequence:
#
# PCOD8118012 Si02
#       7
#     4   2   2   4   4   4   4
#     4  10  20  36  56  86 122 149 186 242 301 350
#     4  10  24  42  58  78 112 168 204 238 274 330
#     4  10  20  32  60  92 120 144 178 236 308 364
#     4  10  21  39  59  81 121 160 195 239 282 345
#     4  11  22  35  57  83 114 151 199 249 292 335
#     4  11  23  36  56  83 114 160 200 241 283 340
#     4  10  19  35  57  91 118 148 180 236 299 358
#
# _framework density 19.963992999999999
#
# number of rings (size 3 to 8) (size 9 to 14) (size 15 to 20)
#    0.000    1.667    1.667    4.500    4.667    4.667 
#    0.000    0.000    0.000    1.000    0.000    0.000 
#    0.000    0.000    0.000    0.000    0.000    0.000 
#
# Total GULP energy -297397.548094 kJ/mol
# GULP energy per Si atom -12391.564504 kJ/mol
# Density = 1.991855 g / cm^3
# Si number density = 19.963993 Si / 1000 Ang^3
#
#
#
# Elastic Constant Matrix: (Units=GPa)
#
#
# Indices 1 2 3 4 5 6 
#
# 1 114.2034 43.8259 54.9993 0.0000 21.8477 0.0000
# 2 43.8259 89.2516 53.6293 0.0000 16.2510 0.0000
# 3 54.9993 53.6293 118.1180 0.0000 17.1870 0.0000
# 4 0.0000 0.0000 0.0000 21.8351 0.0000 12.8954
# 5 21.8477 16.2510 17.1870 0.0000 36.9222 0.0000
# 6 0.0000 0.0000 0.0000 12.8954 0.0000 25.8192
#
#
#
# Elastic Compliance Matrix: (Units=1/GPa)
#
#
# Indices 1 2 3 4 5 6 
#
# 1 0.012623 -0.003105 -0.003840 0.000000 -0.004315 0.000000
# 2 -0.003105 0.016680 -0.005713 0.000000 -0.002845 0.000000
# 3 -0.003840 -0.005713 0.013034 0.000000 -0.001281 0.000000
# 4 0.000000 0.000000 0.000000 0.064958 0.000000 -0.032444
# 5 -0.004315 -0.002845 -0.001281 0.000000 0.031485 0.000000
# 6 0.000000 0.000000 0.000000 -0.032444 0.000000 0.054935
#
#
# Mechanical properties :
#
#
# Convention : Reuss Voigt Hill
#
# Bulk Modulus (GPa) = 58.75370 69.60911 64.18140
# Shear Modulus (GPa) = 22.25127 28.18986 25.22056
#
# Velocity S-wave (km/s) = 3.34214 3.76178 3.55815
# Velocity P-wave (km/s) = 6.66235 7.33560 7.00707
#
# Compressibility (1/GPa) = 0.01702021
#
# Stress axis : x y z
#
# Youngs Moduli (GPa) = 79.22287 59.95149 76.71986
#
# Poissons Ratio (x) = 0.18617 0.29458
# Poissons Ratio (y) = 0.24601 0.43834
# Poissons Ratio (z) = 0.30419 0.34253
#
# Static dielectric constant tensor:
#      x y z
#    x 3.668330 0.000000 0.348490 
#    y 0.000000 3.602570 0.000000 
#    z 0.348490 0.000000 3.740500 
# 
# 
# High freq. dielectric constant tensor:
#      x y z
#    x 1.772590 0.000000 0.033280 
#    y 0.000000 1.767770 0.000000 
#    z 0.033280 0.000000 1.776840 
# 
# From -- ./inp_files/21923.got.cif
#   From: 2010.06.25/outbox.cif.g09.slc.cpg/sg13_11_cif.got.tgz:21923.got - 2010.06.28 04:50:58.
