data_PCOD8118650
_publ_section_title
;
Structure prediction by ZEFSAII (Michael W. Deem and Ramdas Pophale) SiO2 
 PCOD8118650
Probable space group: P 2/C
;
_chemical_formula_sum "Si O2"
_cell_formula_units_Z 32
_cell_length_a 11.557846
_cell_length_b 11.411825
_cell_length_c 17.562338
_cell_angle_alpha 90.000000
_cell_angle_beta 135.788957
_cell_angle_gamma 90.000000
_cell_volume 1615.236190
_symmetry_space_group_name_H-M "P 2/C"
_symmetry_group_IT_number 13
_symmetry_cell_setting 'monoclinic'
loop_
_space_group_symop_operation_xyz
x,y,z
-x,y,1/2-z
-x,-y,-z
x,-y,1/2+z
loop_
_atom_site_type_symbol
_atom_site_label
_atom_site_fract_x
_atom_site_fract_y
_atom_site_fract_z
Si Si1 0.010159 0.281323 0.984970
Si Si2 0.619513 0.779965 0.017366
Si Si3 0.161601 0.943671 0.111091
Si Si4 0.823552 0.962890 0.203179
Si Si5 0.752906 0.771606 0.635323
Si Si6 0.909507 0.610453 0.132928
Si Si7 0.978707 0.651512 0.635720
Si Si8 0.346574 0.860764 0.630616
O O1 0.850854 0.194960 0.910351
O O2 0.997913 0.354091 0.901368
O O3 0.995442 0.361829 0.052788
O O4 0.183932 0.213923 0.072211
O O5 0.724152 0.662597 0.048197
O O6 0.695269 0.861428 0.118886
O O7 0.438721 0.733882 0.955521
O O8 0.609937 0.860794 0.937681
O O9 0.162171 0.967335 0.200366
O O10 0.319608 0.004309 0.145191
O O11 0.000000 0.000000 0.000000
O O12 0.761791 0.089362 0.148174
O O13 0.000000 0.931033 0.250000
O O14 0.835824 0.743580 0.592661
O O15 0.848923 0.697987 0.746346
O O16 0.915525 0.470785 0.140387
O O17 0.000000 0.663538 0.250000
O O18 0.500000 0.806284 0.750000
#
# Coordination Sequence:
#
# PCOD8118650 Si02
#       8
#     4   4   4   4   4   4   4   4
#     4  10  21  36  63  87 117 154 209 257 301 364
#     4  11  24  38  62  94 124 162 203 261 315 374
#     4  10  20  34  56  86 121 163 195 245 306 369
#     4  12  21  37  62  94 128 160 203 252 314 386
#     4  11  23  39  63  90 127 162 205 253 310 379
#     4  11  22  43  64  88 118 160 214 255 315 367
#     4  11  22  42  63  89 118 168 210 258 304 367
#     4  10  20  35  57  86 122 157 197 249 310 375
#
# _framework density 19.811344999999999
#
# number of rings (size 3 to 8) (size 9 to 14) (size 15 to 20)
#    0.000    1.250    2.500    7.125    1.750    0.500 
#    0.000    0.000    0.000    0.000    0.000    0.000 
#    0.000    0.000    0.000    0.000    0.000    0.000 
#
# Total GULP energy -396726.069077 kJ/mol
# GULP energy per Si atom -12397.689659 kJ/mol
# Density = 1.976625 g / cm^3
# Si number density = 19.811345 Si / 1000 Ang^3
#
#
#
# Elastic Constant Matrix: (Units=GPa)
#
#
# Indices 1 2 3 4 5 6 
#
# 1 99.7812 17.8587 66.6524 0.0000 -6.4608 0.0000
# 2 17.8587 91.9449 33.4770 0.0000 7.7323 0.0000
# 3 66.6524 33.4770 100.8607 0.0000 -6.7783 0.0000
# 4 0.0000 0.0000 0.0000 36.3572 0.0000 -13.2306
# 5 -6.4608 7.7323 -6.7783 0.0000 39.4004 0.0000
# 6 0.0000 0.0000 0.0000 -13.2306 0.0000 22.8987
#
#
#
# Elastic Compliance Matrix: (Units=1/GPa)
#
#
# Indices 1 2 3 4 5 6 
#
# 1 0.018033 0.000865 -0.012157 0.000000 0.000696 0.000000
# 2 0.000865 0.012817 -0.005044 0.000000 -0.003241 0.000000
# 3 -0.012157 -0.005044 0.019784 0.000000 0.002400 0.000000
# 4 0.000000 0.000000 0.000000 0.034828 0.000000 0.020123
# 5 0.000696 -0.003241 0.002400 0.000000 0.026543 0.000000
# 6 0.000000 0.000000 0.000000 0.020123 0.000000 0.055297
#
#
# Mechanical properties :
#
#
# Convention : Reuss Voigt Hill
#
# Bulk Modulus (GPa) = 55.67152 58.72921 57.20036
# Shear Modulus (GPa) = 24.27636 31.37118 27.82377
#
# Velocity S-wave (km/s) = 3.50434 3.98363 3.75165
# Velocity P-wave (km/s) = 6.67350 7.13216 6.90664
#
# Compressibility (1/GPa) = 0.01796251
#
# Stress axis : x y z
#
# Youngs Moduli (GPa) = 55.45386 78.02130 50.54574
#
# Poissons Ratio (x) = -0.06752 0.61450
# Poissons Ratio (y) = -0.04799 0.25494
# Poissons Ratio (z) = 0.67417 0.39352
#
# Static dielectric constant tensor:
#      x y z
#    x 3.783150 0.000000 -0.029280 
#    y 0.000000 3.698500 0.000000 
#    z -0.029280 0.000000 3.699500 
# 
# 
# High freq. dielectric constant tensor:
#      x y z
#    x 1.772410 0.000000 -0.014260 
#    y 0.000000 1.763810 0.000000 
#    z -0.014260 0.000000 1.774080 
# 
# From -- ./inp_files/66674.got.cif
#   From: 2010.06.25/outbox.cif.g09.slc.cpg/sg13_34_cif.got.tgz:66674.got - 2010.06.28 04:50:58.
