data_PCOD8118706
_publ_section_title
;
Structure prediction by ZEFSAII (Michael W. Deem and Ramdas Pophale) SiO2 
 PCOD8118706
Probable space group: P 2/C
;
_chemical_formula_sum "Si O2"
_cell_formula_units_Z 24
_cell_length_a 13.703872
_cell_length_b 5.095083
_cell_length_c 26.202587
_cell_angle_alpha 90.000000
_cell_angle_beta 50.575465
_cell_angle_gamma 90.000000
_cell_volume 1413.239229
_symmetry_space_group_name_H-M "P 2/C"
_symmetry_group_IT_number 13
_symmetry_cell_setting 'monoclinic'
loop_
_space_group_symop_operation_xyz
x,y,z
-x,y,1/2-z
-x,-y,-z
x,-y,1/2+z
loop_
_atom_site_type_symbol
_atom_site_label
_atom_site_fract_x
_atom_site_fract_y
_atom_site_fract_z
Si Si1 0.747379 0.904089 0.351674
Si Si2 0.972172 0.573759 0.626003
Si Si3 0.509833 0.752049 0.032003
Si Si4 0.871024 0.397967 0.268492
Si Si5 0.991000 0.058269 0.943758
Si Si6 0.216420 0.144356 0.050542
O O1 0.605960 0.783604 0.389640
O O2 0.841485 0.672733 0.305232
O O3 0.767048 0.168270 0.311528
O O4 0.770932 0.970736 0.402873
O O5 0.884565 0.535747 0.704255
O O6 0.955181 0.338803 0.591135
O O7 0.120304 0.611461 0.593442
O O8 0.925832 0.837349 0.612750
O O9 0.500000 0.500000 0.000000
O O10 0.647243 0.748603 0.013616
O O11 0.500000 0.000000 0.000000
O O12 0.000000 0.285737 0.250000
O O13 0.844149 0.033547 0.974387
O O14 0.000000 0.000000 0.000000
#
# Coordination Sequence:
#
# PCOD8118706 Si02
#       6
#     4   4   4   4   4   4
#     4  11  21  32  49  76 106 147 169 200 255 317
#     4  10  21  33  52  77 107 132 172 211 268 306
#     4  10  21  33  49  72 107 142 177 208 247 306
#     4  12  20  32  49  73 108 141 171 205 252 322
#     4  10  20  35  54  78 101 131 174 224 273 308
#     4   9  21  33  52  75 108 134 173 215 256 301
#
# _framework density 16.982263
#
# number of rings (size 3 to 8) (size 9 to 14) (size 15 to 20)
#    1.000    0.667    1.667    5.000    4.667    0.000 
#    0.000    0.000    0.000    0.000    0.000    7.000 
#    0.000    0.000    0.000    0.000    0.000    0.000 
#
# Total GULP energy -297351.149968 kJ/mol
# GULP energy per Si atom -12389.631249 kJ/mol
# Density = 1.694361 g / cm^3
# Si number density = 16.982263 Si / 1000 Ang^3
#
#
#
# Elastic Constant Matrix: (Units=GPa)
#
#
# Indices 1 2 3 4 5 6 
#
# 1 60.3530 21.0619 47.0316 0.0000 8.5305 0.0000
# 2 21.0619 120.8389 38.2053 0.0000 2.8820 0.0000
# 3 47.0316 38.2053 100.5624 0.0000 4.9725 0.0000
# 4 0.0000 0.0000 0.0000 33.6358 0.0000 5.3602
# 5 8.5305 2.8820 4.9725 0.0000 22.2164 0.0000
# 6 0.0000 0.0000 0.0000 5.3602 0.0000 18.0004
#
#
#
# Elastic Compliance Matrix: (Units=1/GPa)
#
#
# Indices 1 2 3 4 5 6 
#
# 1 0.027379 -0.000751 -0.012139 0.000000 -0.007698 0.000000
# 2 -0.000751 0.009430 -0.003221 0.000000 -0.000214 0.000000
# 3 -0.012139 -0.003221 0.016779 0.000000 0.001323 0.000000
# 4 0.000000 0.000000 0.000000 0.031211 0.000000 -0.009294
# 5 -0.007698 -0.000214 0.001323 0.000000 0.047699 0.000000
# 6 0.000000 0.000000 0.000000 -0.009294 0.000000 0.058322
#
#
# Mechanical properties :
#
#
# Convention : Reuss Voigt Hill
#
# Bulk Modulus (GPa) = 46.80030 54.92801 50.86416
# Shear Modulus (GPa) = 21.72367 26.46755 24.09561
#
# Velocity S-wave (km/s) = 3.58047 3.95212 3.77087
# Velocity P-wave (km/s) = 6.68664 7.29659 6.99826
#
# Compressibility (1/GPa) = 0.02136738
#
# Stress axis : x y z
#
# Youngs Moduli (GPa) = 36.52475 106.04729 59.59659
#
# Poissons Ratio (x) = 0.07959 0.72343
# Poissons Ratio (y) = 0.02741 0.19196
# Poissons Ratio (z) = 0.44337 0.34157
#
# Static dielectric constant tensor:
#      x y z
#    x 3.156770 0.000000 -0.555730 
#    y 0.000000 3.251500 0.000000 
#    z -0.555730 0.000000 3.734230 
# 
# 
# High freq. dielectric constant tensor:
#      x y z
#    x 1.607340 0.000000 -0.006970 
#    y 0.000000 1.675620 0.000000 
#    z -0.006970 0.000000 1.645860 
# 
# From -- ./inp_files/91816.got.cif
#   From: 2010.06.25/outbox.cif.g09.slc.cpg/sg13_46_cif.got.tgz:91816.got - 2010.06.28 04:50:58.
