data_PCOD8118220
_publ_section_title
;
Structure prediction by ZEFSAII (Michael W. Deem and Ramdas Pophale) SiO2 
 PCOD8118220
Probable space group: P 2/C
;
_chemical_formula_sum "Si O2"
_cell_formula_units_Z 28
_cell_length_a 14.221802
_cell_length_b 8.721350
_cell_length_c 14.606537
_cell_angle_alpha 90.000000
_cell_angle_beta 129.317466
_cell_angle_gamma 90.000000
_cell_volume 1401.614254
_symmetry_space_group_name_H-M "P 2/C"
_symmetry_group_IT_number 13
_symmetry_cell_setting 'monoclinic'
loop_
_space_group_symop_operation_xyz
x,y,z
-x,y,1/2-z
-x,-y,-z
x,-y,1/2+z
loop_
_atom_site_type_symbol
_atom_site_label
_atom_site_fract_x
_atom_site_fract_y
_atom_site_fract_z
Si Si1 0.701549 0.381111 0.433336
Si Si2 0.542226 0.330706 0.511552
Si Si3 0.170111 0.121592 0.094877
Si Si4 0.095498 0.790158 0.039735
Si Si5 0.293842 0.576509 0.236589
Si Si6 0.721451 0.735368 0.669636
Si Si7 0.883913 0.613032 0.623436
O O1 0.606676 0.328608 0.452270
O O2 0.739372 0.220949 0.411005
O O3 0.650387 0.503735 0.324538
O O4 0.817460 0.458668 0.551194
O O5 0.500000 0.500000 0.500000
O O6 0.622147 0.302591 0.653307
O O7 0.422118 0.222785 0.433265
O O8 0.213675 0.138753 0.226939
O O9 0.177872 0.941927 0.076302
O O10 0.031933 0.174494 0.989965
O O11 0.169676 0.666217 0.143271
O O12 0.061525 0.715928 0.922864
O O13 0.259136 0.433920 0.277797
O O14 0.790120 0.728367 0.615673
O O15 0.000000 0.555312 0.750000
#
# Coordination Sequence:
#
# PCOD8118220 Si02
#       7
#     4   4   4   4   4   4   4
#     4  10  21  35  62  88 115 150 196 238 290 343
#     4  10  19  37  58  90 117 148 193 240 292 339
#     4  10  22  39  57  82 117 159 185 239 289 351
#     4  10  22  40  56  82 121 153 194 230 299 345
#     4   9  20  35  61  86 113 150 189 242 279 348
#     4  10  20  37  61  84 116 148 191 238 292 339
#     4  11  20  35  60  90 113 148 189 246 290 349
#
# _framework density 19.976966000000001
#
# number of rings (size 3 to 8) (size 9 to 14) (size 15 to 20)
#    0.000    2.000    4.286    0.000    2.000    6.857 
#    2.571    1.429    3.143    0.000    0.000    0.000 
#    0.000    0.000    0.000    0.000    0.000    0.000 
#
# Total GULP energy -346928.155203 kJ/mol
# GULP energy per Si atom -12390.291257 kJ/mol
# Density = 1.993150 g / cm^3
# Si number density = 19.976966 Si / 1000 Ang^3
#
#
#
# Elastic Constant Matrix: (Units=GPa)
#
#
# Indices 1 2 3 4 5 6 
#
# 1 82.9006 -1.6610 18.4828 0.0000 -0.2254 0.0000
# 2 -1.6610 42.3313 13.3373 0.0000 6.5636 0.0000
# 3 18.4828 13.3373 116.2072 0.0000 4.7103 0.0000
# 4 0.0000 0.0000 0.0000 12.1350 0.0000 4.4652
# 5 -0.2254 6.5636 4.7103 0.0000 26.4671 0.0000
# 6 0.0000 0.0000 0.0000 4.4652 0.0000 17.4942
#
#
#
# Elastic Compliance Matrix: (Units=1/GPa)
#
#
# Indices 1 2 3 4 5 6 
#
# 1 0.012562 0.001134 -0.002137 0.000000 0.000206 0.000000
# 2 0.001134 0.025470 -0.002869 0.000000 -0.005796 0.000000
# 3 -0.002137 -0.002869 0.009313 0.000000 -0.000964 0.000000
# 4 0.000000 0.000000 0.000000 0.090948 0.000000 -0.023214
# 5 0.000206 -0.005796 -0.000964 0.000000 0.039394 0.000000
# 6 0.000000 0.000000 0.000000 -0.023214 0.000000 0.063087
#
#
# Mechanical properties :
#
#
# Convention : Reuss Voigt Hill
#
# Bulk Modulus (GPa) = 25.25014 33.52860 29.38937
# Shear Modulus (GPa) = 19.10454 25.30459 22.20456
#
# Velocity S-wave (km/s) = 3.09581 3.56292 3.33755
# Velocity P-wave (km/s) = 5.04438 5.80912 5.44021
#
# Compressibility (1/GPa) = 0.03960374
#
# Stress axis : x y z
#
# Youngs Moduli (GPa) = 79.60349 39.26149 107.37141
#
# Poissons Ratio (x) = -0.04453 0.22940
# Poissons Ratio (y) = -0.09028 0.30802
# Poissons Ratio (z) = 0.17008 0.11263
#
# Static dielectric constant tensor:
#      x y z
#    x 3.822820 0.000000 0.704310 
#    y 0.000000 3.315340 0.000000 
#    z 0.704310 0.000000 6.220000 
# 
# 
# High freq. dielectric constant tensor:
#      x y z
#    x 1.774390 0.000000 0.000480 
#    y 0.000000 1.742160 0.000000 
#    z 0.000480 0.000000 1.797750 
# 
# From -- ./inp_files/53110.got.cif
#   From: 2010.06.25/outbox.cif.g09.slc.cpg/sg13_27_cif.got.tgz:53110.got - 2010.06.28 04:50:58.
