data_PCOD8118163
_publ_section_title
;
Structure prediction by ZEFSAII (Michael W. Deem and Ramdas Pophale) SiO2 
 PCOD8118163
Probable space group: P 2/C
;
_chemical_formula_sum "Si O2"
_cell_formula_units_Z 22
_cell_length_a 6.562778
_cell_length_b 10.179991
_cell_length_c 16.784636
_cell_angle_alpha 90.000000
_cell_angle_beta 66.518713
_cell_angle_gamma 90.000000
_cell_volume 1028.505144
_symmetry_space_group_name_H-M "P 2/C"
_symmetry_group_IT_number 13
_symmetry_cell_setting 'monoclinic'
loop_
_space_group_symop_operation_xyz
x,y,z
-x,y,1/2-z
-x,-y,-z
x,-y,1/2+z
loop_
_atom_site_type_symbol
_atom_site_label
_atom_site_fract_x
_atom_site_fract_y
_atom_site_fract_z
Si Si1 0.533781 0.761628 0.988574
Si Si2 0.000000 0.705536 0.750000
Si Si3 0.470281 0.373757 0.168728
Si Si4 0.060290 0.824406 0.065338
Si Si5 0.025008 0.109968 0.097542
Si Si6 0.204202 0.585725 0.435083
O O1 0.449765 0.719445 0.914199
O O2 0.706000 0.882348 0.955845
O O3 0.302585 0.799038 0.067607
O O4 0.657303 0.640484 0.011774
O O5 0.203914 0.607937 0.698917
O O6 0.946371 0.799444 0.682819
O O7 0.500000 0.304960 0.250000
O O8 0.620191 0.505160 0.145506
O O9 0.891749 0.702941 0.105780
O O10 0.963015 0.956719 0.121231
O O11 0.091063 0.841921 0.965243
O O12 0.000000 0.500000 0.500000
#
# Coordination Sequence:
#
# PCOD8118163 Si02
#       6
#     4   2   4   4   4   4
#     4  10  20  36  61  87 114 161 199 251 297 356
#     4  10  22  38  58  88 120 156 206 246 314 356
#     4  11  23  36  59  89 123 155 199 256 303 362
#     4  10  19  36  61  84 122 150 204 248 296 356
#     4   9  20  36  58  88 114 155 202 250 297 361
#     4  11  23  37  60  91 123 158 206 247 304 362
#
# _framework density 21.390270000000001
#
# number of rings (size 3 to 8) (size 9 to 14) (size 15 to 20)
#    0.000    1.818    1.818    2.182    5.091    0.000 
#    0.000    1.818    0.000    0.000    0.000    0.000 
#    0.000    0.000    0.000    0.000    0.000    0.000 
#
# Total GULP energy -272596.351791 kJ/mol
# GULP energy per Si atom -12390.743263 kJ/mol
# Density = 2.134158 g / cm^3
# Si number density = 21.390270 Si / 1000 Ang^3
#
#
#
# Elastic Constant Matrix: (Units=GPa)
#
#
# Indices 1 2 3 4 5 6 
#
# 1 111.7923 63.0146 24.7366 0.0000 -21.6483 0.0000
# 2 63.0146 115.5666 18.3792 0.0000 -18.9628 0.0000
# 3 24.7366 18.3792 53.3515 0.0000 -4.2712 0.0000
# 4 0.0000 0.0000 0.0000 12.9778 0.0000 -4.8101
# 5 -21.6483 -18.9628 -4.2712 0.0000 40.5514 0.0000
# 6 0.0000 0.0000 0.0000 -4.8101 0.0000 36.0003
#
#
#
# Elastic Compliance Matrix: (Units=1/GPa)
#
#
# Indices 1 2 3 4 5 6 
#
# 1 0.014298 -0.006463 -0.004068 0.000000 0.004182 0.000000
# 2 -0.006463 0.012761 -0.001208 0.000000 0.002390 0.000000
# 3 -0.004068 -0.001208 0.021004 0.000000 -0.000524 0.000000
# 4 0.000000 0.000000 0.000000 0.081070 0.000000 0.010832
# 5 0.004182 0.002390 -0.000524 0.000000 0.027955 0.000000
# 6 0.000000 0.000000 0.000000 0.010832 0.000000 0.029225
#
#
# Mechanical properties :
#
#
# Convention : Reuss Voigt Hill
#
# Bulk Modulus (GPa) = 40.67553 54.77458 47.72505
# Shear Modulus (GPa) = 22.93711 29.54458 26.24084
#
# Velocity S-wave (km/s) = 3.27817 3.72050 3.50632
# Velocity P-wave (km/s) = 5.77804 6.64222 6.22514
#
# Compressibility (1/GPa) = 0.02458481
#
# Stress axis : x y z
#
# Youngs Moduli (GPa) = 69.93812 78.36087 47.60986
#
# Poissons Ratio (x) = 0.50646 0.19368
# Poissons Ratio (y) = 0.45202 0.05752
# Poissons Ratio (z) = 0.28452 0.09468
#
# Static dielectric constant tensor:
#      x y z
#    x 4.165340 0.000000 0.000610 
#    y 0.000000 3.795360 0.000000 
#    z 0.000610 0.000000 3.515020 
# 
# 
# High freq. dielectric constant tensor:
#      x y z
#    x 1.865470 0.000000 -0.001490 
#    y 0.000000 1.825420 0.000000 
#    z -0.001490 0.000000 1.797560 
# 
# From -- ./inp_files/61039.got.cif
#   From: 2010.06.25/outbox.cif.g09.slc.cpg/sg13_31_cif.got.tgz:61039.got - 2010.06.28 04:50:58.
