data_PCOD8118186
_publ_section_title
;
Structure prediction by ZEFSAII (Michael W. Deem and Ramdas Pophale) SiO2 
 PCOD8118186
Probable space group: P 2/C
;
_chemical_formula_sum "Si O2"
_cell_formula_units_Z 24
_cell_length_a 9.019575
_cell_length_b 16.651010
_cell_length_c 16.528127
_cell_angle_alpha 90.000000
_cell_angle_beta 149.041452
_cell_angle_gamma 90.000000
_cell_volume 1276.927637
_symmetry_space_group_name_H-M "P 2/C"
_symmetry_group_IT_number 13
_symmetry_cell_setting 'monoclinic'
loop_
_space_group_symop_operation_xyz
x,y,z
-x,y,1/2-z
-x,-y,-z
x,-y,1/2+z
loop_
_atom_site_type_symbol
_atom_site_label
_atom_site_fract_x
_atom_site_fract_y
_atom_site_fract_z
Si Si1 0.725674 0.346187 0.922061
Si Si2 0.347076 0.163015 0.594935
Si Si3 0.813338 0.941067 0.858611
Si Si4 0.195614 0.426867 0.064027
Si Si5 0.294951 0.046994 0.844682
Si Si6 0.767667 0.516169 0.572733
O O1 0.500000 0.378545 0.750000
O O2 0.643217 0.258089 0.914034
O O3 0.730821 0.404112 0.001738
O O4 0.035750 0.346063 0.020406
O O5 0.500000 0.136847 0.750000
O O6 0.531617 0.123246 0.609245
O O7 0.010067 0.137948 0.438207
O O8 0.500000 0.919582 0.750000
O O9 0.777530 0.982208 0.756449
O O10 0.000000 0.000000 0.000000
O O11 0.500000 0.431772 0.250000
O O12 0.203143 0.436268 0.970214
O O13 0.000000 0.500000 0.000000
O O14 0.000000 0.076779 0.750000
O O15 0.500000 0.000000 0.000000
O O16 0.500000 0.500000 0.500000
O O17 0.000000 0.529470 0.750000
#
# Coordination Sequence:
#
# PCOD8118186 Si02
#       6
#     4   4   4   4   4   4
#     4  10  22  41  59  83 121 161 201 244 296 352
#     4  11  23  41  62  87 121 162 205 257 302 356
#     4  12  20  38  64  86 115 153 209 245 290 366
#     4  10  19  36  63  88 115 160 205 237 285 360
#     4  12  22  37  62  91 115 154 198 253 311 367
#     4  11  20  35  61  90 118 150 193 241 291 349
#
# _framework density 18.795113000000001
#
# number of rings (size 3 to 8) (size 9 to 14) (size 15 to 20)
#    0.000    1.000    5.000    5.000    0.000    0.667 
#    3.000    4.167    0.000    0.000    0.000    0.000 
#    0.000    0.000    0.000    0.000    0.000    0.000 
#
# Total GULP energy -297400.539628 kJ/mol
# GULP energy per Si atom -12391.689151 kJ/mol
# Density = 1.875233 g / cm^3
# Si number density = 18.795113 Si / 1000 Ang^3
#
#
#
# Elastic Constant Matrix: (Units=GPa)
#
#
# Indices 1 2 3 4 5 6 
#
# 1 169.0716 59.1824 71.8842 0.0000 11.6047 0.0000
# 2 59.1824 85.9353 53.7262 0.0000 -2.7092 0.0000
# 3 71.8842 53.7262 168.3152 0.0000 -2.4532 0.0000
# 4 0.0000 0.0000 0.0000 72.0381 0.0000 -1.2761
# 5 11.6047 -2.7092 -2.4532 0.0000 50.7243 0.0000
# 6 0.0000 0.0000 0.0000 -1.2761 0.0000 31.2325
#
#
#
# Elastic Compliance Matrix: (Units=1/GPa)
#
#
# Indices 1 2 3 4 5 6 
#
# 1 0.008651 -0.004623 -0.002253 0.000000 -0.002335 0.000000
# 2 -0.004623 0.017024 -0.003433 0.000000 0.001801 0.000000
# 3 -0.002253 -0.003433 0.008010 0.000000 0.000719 0.000000
# 4 0.000000 0.000000 0.000000 0.013892 0.000000 0.000568
# 5 -0.002335 0.001801 0.000719 0.000000 0.020380 0.000000
# 6 0.000000 0.000000 0.000000 0.000568 0.000000 0.032041
#
#
# Mechanical properties :
#
#
# Convention : Reuss Voigt Hill
#
# Bulk Modulus (GPa) = 76.53485 88.10087 82.31786
# Shear Modulus (GPa) = 40.00929 46.70095 43.35512
#
# Velocity S-wave (km/s) = 4.61880 4.99012 4.80805
# Velocity P-wave (km/s) = 8.32186 8.95421 8.64382
#
# Compressibility (1/GPa) = 0.01306594
#
# Stress axis : x y z
#
# Youngs Moduli (GPa) = 115.59236 58.74185 124.84519
#
# Poissons Ratio (x) = 0.27156 0.28129
# Poissons Ratio (y) = 0.53437 0.42864
# Poissons Ratio (z) = 0.26044 0.20168
#
# Static dielectric constant tensor:
#      x y z
#    x 4.092150 0.000000 0.165980 
#    y 0.000000 3.269070 0.000000 
#    z 0.165980 0.000000 3.769530 
# 
# 
# High freq. dielectric constant tensor:
#      x y z
#    x 1.745010 0.000000 0.005060 
#    y 0.000000 1.703810 0.000000 
#    z 0.005060 0.000000 1.752970 
# 
# From -- ./inp_files/48131.got.cif
#   From: 2010.06.25/outbox.cif.g09.slc.cpg/sg13_25_cif.got.tgz:48131.got - 2010.06.28 04:50:58.
