data_PCOD8118382
_publ_section_title
;
Structure prediction by ZEFSAII (Michael W. Deem and Ramdas Pophale) SiO2 
 PCOD8118382
Probable space group: P 2/C
;
_chemical_formula_sum "Si O2"
_cell_formula_units_Z 20
_cell_length_a 24.280004
_cell_length_b 8.741577
_cell_length_c 30.242496
_cell_angle_alpha 90.000000
_cell_angle_beta 8.944845
_cell_angle_gamma 90.000000
_cell_volume 998.023536
_symmetry_space_group_name_H-M "P 2/C"
_symmetry_group_IT_number 13
_symmetry_cell_setting 'monoclinic'
loop_
_space_group_symop_operation_xyz
x,y,z
-x,y,1/2-z
-x,-y,-z
x,-y,1/2+z
loop_
_atom_site_type_symbol
_atom_site_label
_atom_site_fract_x
_atom_site_fract_y
_atom_site_fract_z
Si Si1 0.495204 0.631661 0.946900
Si Si2 0.776475 0.064939 0.385997
Si Si3 0.201963 0.225018 0.523107
Si Si4 0.431966 0.284654 0.594400
Si Si5 0.704057 0.819423 0.702046
O O1 0.562837 0.715844 0.940114
O O2 0.077030 0.639421 0.265893
O O3 0.624597 0.457808 0.845074
O O4 0.740474 0.716651 0.716901
O O5 0.720375 0.203698 0.396716
O O6 0.000000 0.129626 0.250000
O O7 0.400781 0.994009 0.701497
O O8 0.986181 0.933399 0.193488
O O9 0.381366 0.249438 0.428624
O O10 0.500000 0.220360 0.250000
O O11 0.067286 0.188338 0.886767
#
# Coordination Sequence:
#
# PCOD8118382 Si02
#       5
#     4   4   4   4   4
#     4  10  22  36  58  86 113 151 188 227 286 339
#     4   9  21  37  57  85 113 148 192 233 288 331
#     4  10  19  39  59  79 112 153 189 227 282 344
#     4  11  21  38  57  86 118 142 190 240 277 335
#     4  10  20  38  61  81 110 153 189 229 284 343
#
# _framework density 20.039607
#
# number of rings (size 3 to 8) (size 9 to 14) (size 15 to 20)
#    0.000    2.000    2.000    3.000    0.000    4.800 
#    7.200    1.000    0.000    0.000    0.000    0.000 
#    0.000    0.000    0.000    0.000    0.000    0.000 
#
# Total GULP energy -248021.923917 kJ/mol
# GULP energy per Si atom -12401.096196 kJ/mol
# Density = 1.999400 g / cm^3
# Si number density = 20.039607 Si / 1000 Ang^3
#
#
#
# Elastic Constant Matrix: (Units=GPa)
#
#
# Indices 1 2 3 4 5 6 
#
# 1 115.7447 50.0228 5.5273 0.0000 -7.9908 0.0000
# 2 50.0228 61.0526 12.8106 0.0000 -1.0143 0.0000
# 3 5.5273 12.8106 57.9290 0.0000 4.1734 0.0000
# 4 0.0000 0.0000 0.0000 14.2384 0.0000 -6.5463
# 5 -7.9908 -1.0143 4.1734 0.0000 31.8390 0.0000
# 6 0.0000 0.0000 0.0000 -6.5463 0.0000 30.7835
#
#
#
# Elastic Compliance Matrix: (Units=1/GPa)
#
#
# Indices 1 2 3 4 5 6 
#
# 1 0.013725 -0.011407 0.001000 0.000000 0.002950 0.000000
# 2 -0.011407 0.026691 -0.004714 0.000000 -0.001395 0.000000
# 3 0.001000 -0.004714 0.018376 0.000000 -0.002308 0.000000
# 4 0.000000 0.000000 0.000000 0.077844 0.000000 0.016554
# 5 0.002950 -0.001395 -0.002308 0.000000 0.032406 0.000000
# 6 0.000000 0.000000 0.000000 0.016554 0.000000 0.036005
#
#
# Mechanical properties :
#
#
# Convention : Reuss Voigt Hill
#
# Bulk Modulus (GPa) = 35.02354 41.27195 38.14774
# Shear Modulus (GPa) = 20.42443 26.46323 23.44383
#
# Velocity S-wave (km/s) = 3.19596 3.63787 3.42405
# Velocity P-wave (km/s) = 5.57978 6.18752 5.89149
#
# Compressibility (1/GPa) = 0.02855223
#
# Stress axis : x y z
#
# Youngs Moduli (GPa) = 72.85802 37.46569 54.41960
#
# Poissons Ratio (x) = 0.42736 -0.05444
# Poissons Ratio (y) = 0.83106 0.25652
# Poissons Ratio (z) = -0.07288 0.17660
#
# Static dielectric constant tensor:
#      x y z
#    x 3.909070 0.000000 -0.058010 
#    y 0.000000 3.327020 0.000000 
#    z -0.058010 0.000000 3.550020 
# 
# 
# High freq. dielectric constant tensor:
#      x y z
#    x 1.803630 0.000000 0.000240 
#    y 0.000000 1.754160 0.000000 
#    z 0.000240 0.000000 1.776370 
# 
# From -- ./inp_files/45922.got.cif
#   From: 2010.06.25/outbox.cif.g09.slc.cpg/sg13_23_cif.got.tgz:45922.got - 2010.06.28 04:50:58.
