data_PCOD8118536
_publ_section_title
;
Structure prediction by ZEFSAII (Michael W. Deem and Ramdas Pophale) SiO2 
 PCOD8118536
Probable space group: P 2/C
;
_chemical_formula_sum "Si O2"
_cell_formula_units_Z 32
_cell_length_a 22.198012
_cell_length_b 16.248642
_cell_length_c 22.780767
_cell_angle_alpha 90.000000
_cell_angle_beta 167.367645
_cell_angle_gamma 90.000000
_cell_volume 1796.954058
_symmetry_space_group_name_H-M "P 2/C"
_symmetry_group_IT_number 13
_symmetry_cell_setting 'monoclinic'
loop_
_space_group_symop_operation_xyz
x,y,z
-x,y,1/2-z
-x,-y,-z
x,-y,1/2+z
loop_
_atom_site_type_symbol
_atom_site_label
_atom_site_fract_x
_atom_site_fract_y
_atom_site_fract_z
Si Si1 0.881893 0.903217 0.768539
Si Si2 0.163135 0.655362 0.644471
Si Si3 0.666804 0.441692 0.615579
Si Si4 0.118107 0.596783 0.731461
Si Si5 0.448827 0.154799 0.767409
Si Si6 0.163136 0.844638 0.644472
Si Si7 0.551173 0.654799 0.232591
Si Si8 0.666806 0.941692 0.115580
O O1 0.726893 0.858259 0.568258
O O2 0.805265 0.856257 0.755667
O O3 0.207461 0.898798 0.066918
O O4 0.799263 0.000158 0.691506
O O5 0.116272 0.750000 0.583839
O O6 0.905249 0.603658 0.377566
O O7 0.194735 0.643743 0.744333
O O8 0.444751 0.624446 0.880056
O O9 0.500000 0.500000 0.500000
O O10 0.799264 0.499842 0.691507
O O11 0.792540 0.601202 0.433082
O O12 0.273107 0.641741 0.931743
O O13 0.500000 0.124461 0.750000
O O14 0.361193 0.250000 0.685277
O O15 0.905253 0.896343 0.377569
O O16 0.444753 0.875553 0.880059
O O17 0.500000 0.624461 0.250000
O O18 0.500000 0.000000 0.000000
#
# Coordination Sequence:
#
# PCOD8118536 Si02
#       8
#     4   4   4   4   4   4   4   4
#     4  11  20  34  51  69 100 138 165 195 246 289
#     4  11  20  32  51  75 102 132 166 198 239 296
#     4  10  20  33  48  72 101 131 165 202 239 290
#     4  11  20  34  51  69 100 138 165 195 246 289
#     4  11  22  34  49  72 100 131 171 209 235 274
#     4  11  20  32  51  75 102 132 166 198 239 296
#     4  11  22  34  49  72 100 131 171 209 235 274
#     4  10  20  33  48  72 101 131 165 202 239 290
#
# _framework density 17.807912000000002
#
# number of rings (size 3 to 8) (size 9 to 14) (size 15 to 20)
#    0.000    1.250    0.000   11.250    0.000    2.000 
#    0.000    0.000    0.000    0.000    0.000    0.000 
#    0.000   70.000    0.000    0.000    0.000    0.000 
#
# Total GULP energy -396845.598706 kJ/mol
# GULP energy per Si atom -12401.424960 kJ/mol
# Density = 1.776738 g / cm^3
# Si number density = 17.807912 Si / 1000 Ang^3
#
#
#
# Elastic Constant Matrix: (Units=GPa)
#
#
# Indices 1 2 3 4 5 6 
#
# 1 43.0857 35.3344 13.3147 0.0000 1.8915 0.0000
# 2 35.3344 98.7992 32.7982 0.0000 -1.1329 0.0000
# 3 13.3147 32.7982 102.6663 0.0000 -10.1924 0.0000
# 4 0.0000 0.0000 0.0000 28.8554 0.0000 -0.4226
# 5 1.8915 -1.1329 -10.1924 0.0000 19.0593 0.0000
# 6 0.0000 0.0000 0.0000 -0.4226 0.0000 17.2273
#
#
#
# Elastic Compliance Matrix: (Units=1/GPa)
#
#
# Indices 1 2 3 4 5 6 
#
# 1 0.033241 -0.011588 -0.001061 0.000000 -0.004555 0.000000
# 2 -0.011588 0.015394 -0.003390 0.000000 0.000252 0.000000
# 3 -0.001061 -0.003390 0.011565 0.000000 0.006089 0.000000
# 4 0.000000 0.000000 0.000000 0.034668 0.000000 0.000850
# 5 -0.004555 0.000252 0.006089 0.000000 0.056191 0.000000
# 6 0.000000 0.000000 0.000000 0.000850 0.000000 0.058068
#
#
# Mechanical properties :
#
#
# Convention : Reuss Voigt Hill
#
# Bulk Modulus (GPa) = 35.55975 45.27177 40.41576
# Shear Modulus (GPa) = 19.95368 23.90199 21.92783
#
# Velocity S-wave (km/s) = 3.35101 3.66760 3.51287
# Velocity P-wave (km/s) = 5.91475 6.58881 6.26086
#
# Compressibility (1/GPa) = 0.02812169
#
# Stress axis : x y z
#
# Youngs Moduli (GPa) = 30.08344 64.95964 86.46505
#
# Poissons Ratio (x) = 0.75276 0.09176
# Poissons Ratio (y) = 0.34861 0.29312
# Poissons Ratio (z) = 0.03192 0.22021
#
# Static dielectric constant tensor:
#      x y z
#    x 3.138670 0.000000 0.220810 
#    y 0.000000 3.679240 0.000000 
#    z 0.220810 0.000000 3.571330 
# 
# 
# High freq. dielectric constant tensor:
#      x y z
#    x 1.643170 0.000000 0.006630 
#    y 0.000000 1.686990 0.000000 
#    z 0.006630 0.000000 1.717430 
# 
# From -- ./inp_files/89290.got.cif
#   From: 2010.06.25/outbox.cif.g09.slc.cpg/sg13_45_cif.got.tgz:89290.got - 2010.06.28 04:50:58.
