data_PCOD8118307
_publ_section_title
;
Structure prediction by ZEFSAII (Michael W. Deem and Ramdas Pophale) SiO2 
 PCOD8118307
Probable space group: P 2/C
;
_chemical_formula_sum "Si O2"
_cell_formula_units_Z 28
_cell_length_a 10.779238
_cell_length_b 13.696099
_cell_length_c 9.723054
_cell_angle_alpha 90.000000
_cell_angle_beta 114.331069
_cell_angle_gamma 90.000000
_cell_volume 1307.952048
_symmetry_space_group_name_H-M "P 2/C"
_symmetry_group_IT_number 13
_symmetry_cell_setting 'monoclinic'
loop_
_space_group_symop_operation_xyz
x,y,z
-x,y,1/2-z
-x,-y,-z
x,-y,1/2+z
loop_
_atom_site_type_symbol
_atom_site_label
_atom_site_fract_x
_atom_site_fract_y
_atom_site_fract_z
Si Si1 0.574490 0.801161 0.152013
Si Si2 0.395499 0.193030 0.308544
Si Si3 0.877216 0.943127 0.593769
Si Si4 0.631648 0.598596 0.131961
Si Si5 0.725269 0.002444 0.773628
Si Si6 0.848891 0.727450 0.646394
Si Si7 0.329383 0.437015 0.546036
O O1 0.500000 0.752676 0.250000
O O2 0.676177 0.713459 0.148643
O O3 0.648846 0.895210 0.247859
O O4 0.467445 0.829426 0.986351
O O5 0.500000 0.248132 0.250000
O O6 0.253270 0.251899 0.269981
O O7 0.362116 0.090477 0.215797
O O8 0.861476 0.992305 0.434978
O O9 0.869844 0.826880 0.569472
O O10 0.000000 0.975515 0.750000
O O11 0.750333 0.981252 0.624703
O O12 0.707626 0.539862 0.045242
O O13 0.661780 0.542719 0.288065
O O14 0.467465 0.601282 0.035769
O O15 0.787011 0.643294 0.524569
O O16 0.000000 0.689745 0.750000
#
# Coordination Sequence:
#
# PCOD8118307 Si02
#       7
#     4   4   4   4   4   4   4
#     4  12  20  36  57  86 120 159 197 250 305 371
#     4  11  22  36  56  94 127 154 201 256 308 344
#     4  10  21  37  57  82 117 165 210 243 292 365
#     4  10  20  34  60  85 117 144 196 250 306 352
#     4  11  21  34  56  84 120 160 199 255 301 346
#     4  10  21  40  63  86 121 166 204 239 296 374
#     4  10  19  38  57  89 114 150 195 249 301 358
#
# _framework density 21.407511
#
# number of rings (size 3 to 8) (size 9 to 14) (size 15 to 20)
#    0.000    1.429    2.857    4.714    0.000    1.143 
#    0.000    0.714    0.000    0.857    0.000    0.000 
#    0.000    0.000    0.000    0.000    0.000    0.000 
#
# Total GULP energy -346941.039361 kJ/mol
# GULP energy per Si atom -12390.751406 kJ/mol
# Density = 2.135879 g / cm^3
# Si number density = 21.407511 Si / 1000 Ang^3
#
#
#
# Elastic Constant Matrix: (Units=GPa)
#
#
# Indices 1 2 3 4 5 6 
#
# 1 52.9392 10.5350 33.5498 0.0000 13.1113 0.0000
# 2 10.5350 84.0131 37.6193 0.0000 8.3571 0.0000
# 3 33.5498 37.6193 128.7357 0.0000 14.7050 0.0000
# 4 0.0000 0.0000 0.0000 24.5742 0.0000 2.3037
# 5 13.1113 8.3571 14.7050 0.0000 19.8439 0.0000
# 6 0.0000 0.0000 0.0000 2.3037 0.0000 17.0986
#
#
#
# Elastic Compliance Matrix: (Units=1/GPa)
#
#
# Indices 1 2 3 4 5 6 
#
# 1 0.025361 0.000472 -0.005255 0.000000 -0.013061 0.000000
# 2 0.000472 0.013876 -0.003796 0.000000 -0.003343 0.000000
# 3 -0.005255 -0.003796 0.010562 0.000000 -0.002755 0.000000
# 4 0.000000 0.000000 0.000000 0.041214 0.000000 -0.005553
# 5 -0.013061 -0.003343 -0.002755 0.000000 0.062473 0.000000
# 6 0.000000 0.000000 0.000000 -0.005553 0.000000 0.059233
#
#
# Mechanical properties :
#
#
# Convention : Reuss Voigt Hill
#
# Bulk Modulus (GPa) = 30.63725 47.67736 39.15731
# Shear Modulus (GPa) = 20.76793 24.56892 22.66843
#
# Velocity S-wave (km/s) = 3.11806 3.39141 3.25761
# Velocity P-wave (km/s) = 5.22547 6.13639 5.69916
#
# Compressibility (1/GPa) = 0.03264001
#
# Stress axis : x y z
#
# Youngs Moduli (GPa) = 39.43072 72.06672 94.68343
#
# Poissons Ratio (x) = -0.03404 0.49760
# Poissons Ratio (y) = -0.01862 0.35943
# Poissons Ratio (z) = 0.20722 0.27357
#
# Static dielectric constant tensor:
#      x y z
#    x 3.674770 0.000000 0.036170 
#    y 0.000000 3.853440 0.000000 
#    z 0.036170 0.000000 3.889850 
# 
# 
# High freq. dielectric constant tensor:
#      x y z
#    x 1.800120 0.000000 0.000940 
#    y 0.000000 1.837400 0.000000 
#    z 0.000940 0.000000 1.844940 
# 
# From -- ./inp_files/16869.got.cif
#   From: 2010.06.25/outbox.cif.g09.slc.cpg/sg13_9_cif.got.tgz:16869.got - 2010.06.28 04:50:58.
