data_PCOD8118393
_publ_section_title
;
Structure prediction by ZEFSAII (Michael W. Deem and Ramdas Pophale) SiO2 
 PCOD8118393
Probable space group: P 2/C
;
_chemical_formula_sum "Si O2"
_cell_formula_units_Z 30
_cell_length_a 17.098367
_cell_length_b 5.275615
_cell_length_c 20.075699
_cell_angle_alpha 90.000000
_cell_angle_beta 126.412452
_cell_angle_gamma 90.000000
_cell_volume 1457.361805
_symmetry_space_group_name_H-M "P 2/C"
_symmetry_group_IT_number 13
_symmetry_cell_setting 'monoclinic'
loop_
_space_group_symop_operation_xyz
x,y,z
-x,y,1/2-z
-x,-y,-z
x,-y,1/2+z
loop_
_atom_site_type_symbol
_atom_site_label
_atom_site_fract_x
_atom_site_fract_y
_atom_site_fract_z
Si Si1 0.717769 0.431608 0.772232
Si Si2 0.000000 0.963048 0.750000
Si Si3 0.276020 0.626812 0.075015
Si Si4 0.382989 0.868851 0.585233
Si Si5 0.671466 0.049541 0.079971
Si Si6 0.168398 0.372027 0.395026
Si Si7 0.160403 0.748311 0.278855
Si Si8 0.601854 0.071458 0.179961
O O1 0.759893 0.393377 0.867342
O O2 0.811597 0.431687 0.769164
O O3 0.668541 0.706296 0.743409
O O4 0.641217 0.208822 0.717432
O O5 0.080047 0.811243 0.832226
O O6 0.055169 0.118812 0.718919
O O7 0.352080 0.402319 0.098297
O O8 0.324025 0.902623 0.089387
O O9 0.179093 0.592577 0.980052
O O10 0.366388 0.863172 0.496694
O O11 0.495912 0.907306 0.658913
O O12 0.752370 0.943773 0.171607
O O13 0.722283 0.289404 0.071417
O O14 0.588641 0.114989 0.092658
O O15 0.149342 0.628424 0.346625
#
# Coordination Sequence:
#
# PCOD8118393 Si02
#       8
#     4   2   4   4   4   4   4   4
#     4  11  24  40  60  88 126 167 201 244 302 358
#     4  10  22  36  68  94 114 144 200 254 306 366
#     4  11  24  40  60  88 126 167 201 244 302 358
#     4  11  22  37  60  88 124 166 213 256 291 342
#     4   9  19  35  57  90 120 160 203 255 305 345
#     4  10  19  39  62  88 118 153 197 248 304 366
#     4  10  19  39  62  88 118 153 197 248 304 366
#     4  11  22  37  60  88 124 166 213 256 291 342
#
# _framework density 20.585141
#
# number of rings (size 3 to 8) (size 9 to 14) (size 15 to 20)
#    0.000    1.600    2.667    2.400    0.000    3.200 
#    0.000    4.667    0.000    3.200    0.000    0.000 
#    0.000    0.000    0.000    0.000    0.000    0.000 
#
# Total GULP energy -371712.644290 kJ/mol
# GULP energy per Si atom -12390.421476 kJ/mol
# Density = 2.053829 g / cm^3
# Si number density = 20.585141 Si / 1000 Ang^3
#
#
#
# Elastic Constant Matrix: (Units=GPa)
#
#
# Indices 1 2 3 4 5 6 
#
# 1 73.0930 7.8616 35.9191 0.0000 4.3303 0.0000
# 2 7.8616 75.4625 5.4800 0.0000 3.6673 0.0000
# 3 35.9191 5.4800 101.1651 0.0000 -25.1400 0.0000
# 4 0.0000 0.0000 0.0000 16.0444 0.0000 -3.9423
# 5 4.3303 3.6673 -25.1400 0.0000 25.5313 0.0000
# 6 0.0000 0.0000 0.0000 -3.9423 0.0000 19.6971
#
#
#
# Elastic Compliance Matrix: (Units=1/GPa)
#
#
# Indices 1 2 3 4 5 6 
#
# 1 0.019552 -0.000651 -0.010205 0.000000 -0.013271 0.000000
# 2 -0.000651 0.013562 -0.001271 0.000000 -0.003089 0.000000
# 3 -0.010205 -0.001271 0.018605 0.000000 0.020233 0.000000
# 4 0.000000 0.000000 0.000000 0.065551 0.000000 0.013120
# 5 -0.013271 -0.003089 0.020233 0.000000 0.061785 0.000000
# 6 0.000000 0.000000 0.000000 0.013120 0.000000 0.053395
#
#
# Mechanical properties :
#
#
# Convention : Reuss Voigt Hill
#
# Bulk Modulus (GPa) = 36.40966 38.69355 37.55161
# Shear Modulus (GPa) = 18.80695 25.61855 22.21275
#
# Velocity S-wave (km/s) = 3.02589 3.53160 3.28848
# Velocity P-wave (km/s) = 5.47118 5.95544 5.71843
#
# Compressibility (1/GPa) = 0.02746524
#
# Stress axis : x y z
#
# Youngs Moduli (GPa) = 51.14498 73.73609 53.74893
#
# Poissons Ratio (x) = 0.04800 0.54850
# Poissons Ratio (y) = 0.03329 0.06833
# Poissons Ratio (z) = 0.52192 0.09374
#
# Static dielectric constant tensor:
#      x y z
#    x 3.927210 0.000000 -0.213900 
#    y 0.000000 3.724410 0.000000 
#    z -0.213900 0.000000 3.894890 
# 
# 
# High freq. dielectric constant tensor:
#      x y z
#    x 1.791850 0.000000 -0.010400 
#    y 0.000000 1.810630 0.000000 
#    z -0.010400 0.000000 1.795280 
# 
# From -- ./inp_files/67596.got.cif
#   From: 2010.06.25/outbox.cif.g09.slc.cpg/sg13_34_cif.got.tgz:67596.got - 2010.06.28 04:50:58.
