data_PCOD8118808
_publ_section_title
;
Structure prediction by ZEFSAII (Michael W. Deem and Ramdas Pophale) SiO2 
 PCOD8118808
Probable space group: P 2/C
;
_chemical_formula_sum "Si O2"
_cell_formula_units_Z 24
_cell_length_a 13.732037
_cell_length_b 9.235678
_cell_length_c 13.878036
_cell_angle_alpha 90.000000
_cell_angle_beta 141.469333
_cell_angle_gamma 90.000000
_cell_volume 1096.411031
_symmetry_space_group_name_H-M "P 2/C"
_symmetry_group_IT_number 13
_symmetry_cell_setting 'monoclinic'
loop_
_space_group_symop_operation_xyz
x,y,z
-x,y,1/2-z
-x,-y,-z
x,-y,1/2+z
loop_
_atom_site_type_symbol
_atom_site_label
_atom_site_fract_x
_atom_site_fract_y
_atom_site_fract_z
Si Si1 0.495215 0.952162 0.861228
Si Si2 0.234722 0.261323 0.180122
Si Si3 0.959674 0.766128 0.614543
Si Si4 0.287081 0.155358 0.816962
Si Si5 0.039379 0.910476 0.385720
Si Si6 0.823681 0.569298 0.367434
O O1 0.500000 0.959719 0.750000
O O2 0.391616 0.822711 0.823594
O O3 0.418843 0.101680 0.842542
O O4 0.661730 0.903965 0.036514
O O5 0.286062 0.429516 0.207199
O O6 0.119301 0.239729 0.179313
O O7 0.161678 0.200565 0.025043
O O8 0.822179 0.670613 0.460864
O O9 0.000000 0.702758 0.750000
O O10 0.889680 0.928346 0.567136
O O11 0.117279 0.081056 0.668294
O O12 0.245175 0.328487 0.772823
O O13 0.000000 0.847395 0.250000
O O14 0.000000 0.500000 0.500000
#
# Coordination Sequence:
#
# PCOD8118808 Si02
#       6
#     4   4   4   4   4   4
#     4  11  25  43  64  92 127 174 218 259 311 376
#     4  11  21  41  61  91 130 159 209 264 310 381
#     4  10  20  35  60  95 126 157 205 262 325 370
#     4  11  22  43  63  92 132 164 213 265 313 376
#     4  11  20  35  67  94 117 163 210 269 317 364
#     4  10  21  39  64  93 129 165 199 268 325 375
#
# _framework density 21.889602
#
# number of rings (size 3 to 8) (size 9 to 14) (size 15 to 20)
#    0.000    1.333    5.000    2.500    0.000    2.667 
#    6.000    0.833    0.000    0.000    0.000    0.000 
#    0.000    0.000    0.000    0.000    0.000    0.000 
#
# Total GULP energy -297328.228635 kJ/mol
# GULP energy per Si atom -12388.676193 kJ/mol
# Density = 2.183978 g / cm^3
# Si number density = 21.889602 Si / 1000 Ang^3
#
#
#
# Elastic Constant Matrix: (Units=GPa)
#
#
# Indices 1 2 3 4 5 6 
#
# 1 45.7827 12.6032 7.6254 0.0000 -23.1642 0.0000
# 2 12.6032 142.7834 39.0925 0.0000 -7.7332 0.0000
# 3 7.6254 39.0925 79.5399 0.0000 -12.2071 0.0000
# 4 0.0000 0.0000 0.0000 35.8855 0.0000 -7.3223
# 5 -23.1642 -7.7332 -12.2071 0.0000 43.1912 0.0000
# 6 0.0000 0.0000 0.0000 -7.3223 0.0000 5.8381
#
#
#
# Elastic Compliance Matrix: (Units=1/GPa)
#
#
# Indices 1 2 3 4 5 6 
#
# 1 0.030456 -0.001956 0.000517 0.000000 0.016130 0.000000
# 2 -0.001956 0.008223 -0.003961 0.000000 -0.000696 0.000000
# 3 0.000517 -0.003961 0.015056 0.000000 0.003824 0.000000
# 4 0.000000 0.000000 0.000000 0.037451 0.000000 0.046972
# 5 0.016130 -0.000696 0.003824 0.000000 0.032760 0.000000
# 6 0.000000 0.000000 0.000000 0.046972 0.000000 0.230202
#
#
# Mechanical properties :
#
#
# Convention : Reuss Voigt Hill
#
# Bulk Modulus (GPa) = 23.29085 42.97200 33.13142
# Shear Modulus (GPa) = 13.18359 30.90197 22.04278
#
# Velocity S-wave (km/s) = 2.45679 3.76136 3.17677
# Velocity P-wave (km/s) = 4.32562 6.20787 5.35017
#
# Compressibility (1/GPa) = 0.04293532
#
# Stress axis : x y z
#
# Youngs Moduli (GPa) = 32.83445 121.61020 66.41795
#
# Poissons Ratio (x) = 0.23790 -0.03435
# Poissons Ratio (y) = 0.06423 0.26307
# Poissons Ratio (z) = -0.01698 0.48167
#
# Static dielectric constant tensor:
#      x y z
#    x 3.792250 0.000000 -0.077100 
#    y 0.000000 4.557810 0.000000 
#    z -0.077100 0.000000 4.118030 
# 
# 
# High freq. dielectric constant tensor:
#      x y z
#    x 1.833910 0.000000 -0.012060 
#    y 0.000000 1.860800 0.000000 
#    z -0.012060 0.000000 1.864640 
# 
# From -- ./inp_files/53170.got.cif
#   From: 2010.06.25/outbox.cif.g09.slc.cpg/sg13_27_cif.got.tgz:53170.got - 2010.06.28 04:50:58.
