data_PCOD8118460
_publ_section_title
;
Structure prediction by ZEFSAII (Michael W. Deem and Ramdas Pophale) SiO2 
 PCOD8118460
Probable space group: P 2/C
;
_chemical_formula_sum "Si O2"
_cell_formula_units_Z 26
_cell_length_a 16.549978
_cell_length_b 8.473421
_cell_length_c 13.793405
_cell_angle_alpha 90.000000
_cell_angle_beta 139.613880
_cell_angle_gamma 90.000000
_cell_volume 1253.312585
_symmetry_space_group_name_H-M "P 2/C"
_symmetry_group_IT_number 13
_symmetry_cell_setting 'monoclinic'
loop_
_space_group_symop_operation_xyz
x,y,z
-x,y,1/2-z
-x,-y,-z
x,-y,1/2+z
loop_
_atom_site_type_symbol
_atom_site_label
_atom_site_fract_x
_atom_site_fract_y
_atom_site_fract_z
Si Si1 0.846428 0.166817 0.252959
Si Si2 0.500000 0.687749 0.250000
Si Si3 0.000000 0.950702 0.250000
Si Si4 0.573065 0.061360 0.973267
Si Si5 0.890952 0.514441 0.228059
Si Si6 0.920325 0.724802 0.016883
Si Si7 0.500000 0.176285 0.250000
Si Si8 0.698303 0.421891 0.402297
O O1 0.915273 0.061885 0.237526
O O2 0.844771 0.349450 0.225273
O O3 0.914369 0.159973 0.419163
O O4 0.708343 0.101448 0.136783
O O5 0.482930 0.788571 0.135881
O O6 0.623691 0.587159 0.336279
O O7 0.914034 0.838146 0.105380
O O8 0.575605 0.921601 0.898143
O O9 0.500000 0.000000 0.000000
O O10 0.000000 0.485931 0.250000
O O11 0.948463 0.627615 0.364460
O O12 0.769768 0.596855 0.070346
O O13 0.804506 0.598823 0.915750
O O14 0.601746 0.283946 0.290532
#
# Coordination Sequence:
#
# PCOD8118460 Si02
#       8
#     4   2   2   4   4   4   2   4
#     4  12  24  41  66  98 132 173 219 270 327 395
#     4  10  22  42  70  92 126 178 224 266 328 378
#     4  12  24  42  66  94 140 170 212 264 338 394
#     4  11  24  42  61  96 132 169 215 268 329 392
#     4  10  20  41  66  90 129 165 216 269 323 379
#     4  11  23  42  66  99 129 169 218 271 328 393
#     4  10  22  40  64  86 126 172 214 262 324 376
#     4  10  19  42  67  91 124 172 219 271 317 379
#
# _framework density 20.745024999999998
#
# number of rings (size 3 to 8) (size 9 to 14) (size 15 to 20)
#    0.000    1.231    4.615    2.769    0.000    1.231 
#    2.769    3.846    0.000    0.000    0.000    0.000 
#    0.000    0.000    0.000    0.000    0.000    0.000 
#
# Total GULP energy -322213.183193 kJ/mol
# GULP energy per Si atom -12392.814738 kJ/mol
# Density = 2.069781 g / cm^3
# Si number density = 20.745025 Si / 1000 Ang^3
#
#
#
# Elastic Constant Matrix: (Units=GPa)
#
#
# Indices 1 2 3 4 5 6 
#
# 1 86.7045 46.1189 36.3234 0.0000 -0.9575 0.0000
# 2 46.1189 123.1185 50.0872 0.0000 2.8193 0.0000
# 3 36.3234 50.0872 107.0520 0.0000 7.7254 0.0000
# 4 0.0000 0.0000 0.0000 28.9737 0.0000 18.4182
# 5 -0.9575 2.8193 7.7254 0.0000 35.4198 0.0000
# 6 0.0000 0.0000 0.0000 18.4182 0.0000 16.8506
#
#
#
# Elastic Compliance Matrix: (Units=1/GPa)
#
#
# Indices 1 2 3 4 5 6 
#
# 1 0.015256 -0.004445 -0.003202 0.000000 0.001465 0.000000
# 2 -0.004445 0.011329 -0.003778 0.000000 -0.000198 0.000000
# 3 -0.003202 -0.003778 0.012375 0.000000 -0.002485 0.000000
# 4 0.000000 0.000000 0.000000 0.113095 0.000000 -0.123615
# 5 0.001465 -0.000198 -0.002485 0.000000 0.028830 0.000000
# 6 0.000000 0.000000 0.000000 -0.123615 0.000000 0.194460
#
#
# Mechanical properties :
#
#
# Convention : Reuss Voigt Hill
#
# Bulk Modulus (GPa) = 62.07968 64.65932 63.36950
# Shear Modulus (GPa) = 12.38962 28.53855 20.46408
#
# Velocity S-wave (km/s) = 2.44649 3.71304 3.14420
# Velocity P-wave (km/s) = 6.16202 7.04404 6.61774
#
# Compressibility (1/GPa) = 0.01610833
#
# Stress axis : x y z
#
# Youngs Moduli (GPa) = 65.54954 88.26954 80.81035
#
# Poissons Ratio (x) = 0.39240 0.25876
# Poissons Ratio (y) = 0.29140 0.30529
# Poissons Ratio (z) = 0.20990 0.33347
#
# Static dielectric constant tensor:
#      x y z
#    x 3.756360 0.000000 -0.215010 
#    y 0.000000 3.972800 0.000000 
#    z -0.215010 0.000000 3.932920 
# 
# 
# High freq. dielectric constant tensor:
#      x y z
#    x 1.791750 0.000000 0.000440 
#    y 0.000000 1.823220 0.000000 
#    z 0.000440 0.000000 1.827450 
# 
# From -- ./inp_files/53413.got.cif
#   From: 2010.06.25/outbox.cif.g09.slc.cpg/sg13_27_cif.got.tgz:53413.got - 2010.06.28 04:50:58.
