data_PCOD8118718
_publ_section_title
;
Structure prediction by ZEFSAII (Michael W. Deem and Ramdas Pophale) SiO2 
 PCOD8118718
Probable space group: P 2/C
;
_chemical_formula_sum "Si O2"
_cell_formula_units_Z 28
_cell_length_a 8.498479
_cell_length_b 11.769249
_cell_length_c 15.155827
_cell_angle_alpha 90.000000
_cell_angle_beta 65.686771
_cell_angle_gamma 90.000000
_cell_volume 1381.449114
_symmetry_space_group_name_H-M "P 2/C"
_symmetry_group_IT_number 13
_symmetry_cell_setting 'monoclinic'
loop_
_space_group_symop_operation_xyz
x,y,z
-x,y,1/2-z
-x,-y,-z
x,-y,1/2+z
loop_
_atom_site_type_symbol
_atom_site_label
_atom_site_fract_x
_atom_site_fract_y
_atom_site_fract_z
Si Si1 0.320711 0.954697 0.140285
Si Si2 0.812386 0.270002 0.542787
Si Si3 0.861984 0.407548 0.704529
Si Si4 0.436138 0.271939 0.671293
Si Si5 0.066448 0.660240 0.832735
Si Si6 0.295826 0.874490 0.796995
Si Si7 0.730019 0.019335 0.536784
O O1 0.299921 0.820479 0.164434
O O2 0.525456 0.967838 0.087617
O O3 0.240524 0.038587 0.232077
O O4 0.219157 0.982974 0.073853
O O5 0.889318 0.321227 0.615949
O O6 0.608033 0.299692 0.574822
O O7 0.830390 0.133708 0.540334
O O8 0.911408 0.319704 0.436385
O O9 0.672379 0.387228 0.790443
O O10 0.862002 0.534321 0.665980
O O11 0.000000 0.387737 0.750000
O O12 0.500000 0.220323 0.750000
O O13 0.220011 0.749525 0.805508
O O14 0.000000 0.670356 0.750000
O O15 0.500000 0.860848 0.750000
O O16 0.216991 0.922505 0.906289
#
# Coordination Sequence:
#
# PCOD8118718 Si02
#       7
#     4   4   4   4   4   4   4
#     4   9  16  32  56  84 114 143 178 231 279 329
#     4  10  20  39  62  84 113 150 188 234 285 336
#     4  10  22  40  59  83 112 145 191 244 287 329
#     4   9  18  36  64  86 108 148 194 233 279 336
#     4  11  24  40  55  80 119 155 189 234 285 336
#     4  10  20  35  55  82 116 152 188 229 279 335
#     4   9  18  32  56  85 112 143 184 225 279 340
#
# _framework density 20.268571999999999
#
# number of rings (size 3 to 8) (size 9 to 14) (size 15 to 20)
#    0.000    2.286    0.000    4.286    0.000    4.571 
#    0.000    7.143    0.000    0.000    0.000    0.000 
#    0.000    0.000    0.000    0.000    0.000    0.000 
#
# Total GULP energy -347088.042299 kJ/mol
# GULP energy per Si atom -12396.001511 kJ/mol
# Density = 2.022244 g / cm^3
# Si number density = 20.268572 Si / 1000 Ang^3
#
#
#
# Elastic Constant Matrix: (Units=GPa)
#
#
# Indices 1 2 3 4 5 6 
#
# 1 58.1888 60.1426 54.1399 0.0000 5.8747 0.0000
# 2 60.1426 155.3594 62.5842 0.0000 11.1811 0.0000
# 3 54.1399 62.5842 132.1949 0.0000 9.8647 0.0000
# 4 0.0000 0.0000 0.0000 27.9772 0.0000 3.0135
# 5 5.8747 11.1811 9.8647 0.0000 37.0368 0.0000
# 6 0.0000 0.0000 0.0000 3.0135 0.0000 31.3240
#
#
#
# Elastic Compliance Matrix: (Units=1/GPa)
#
#
# Indices 1 2 3 4 5 6 
#
# 1 0.037675 -0.010339 -0.010531 0.000000 -0.000050 0.000000
# 2 -0.010339 0.010865 -0.000803 0.000000 -0.001426 0.000000
# 3 -0.010531 -0.000803 0.012361 0.000000 -0.001379 0.000000
# 4 0.000000 0.000000 0.000000 0.036118 0.000000 -0.003475
# 5 -0.000050 -0.001426 -0.001379 0.000000 0.027806 0.000000
# 6 0.000000 0.000000 0.000000 -0.003475 0.000000 0.032259
#
#
# Mechanical properties :
#
#
# Convention : Reuss Voigt Hill
#
# Bulk Modulus (GPa) = 56.96568 77.71960 67.34264
# Shear Modulus (GPa) = 24.23877 30.52600 27.38239
#
# Velocity S-wave (km/s) = 3.46190 3.88503 3.67955
# Velocity P-wave (km/s) = 6.64425 7.65198 7.16585
#
# Compressibility (1/GPa) = 0.01755443
#
# Stress axis : x y z
#
# Youngs Moduli (GPa) = 26.54298 92.03682 80.90071
#
# Poissons Ratio (x) = 0.95154 0.85199
# Poissons Ratio (y) = 0.27442 0.06498
# Poissons Ratio (z) = 0.27953 0.07393
#
# Static dielectric constant tensor:
#      x y z
#    x 3.532120 0.000000 0.017700 
#    y 0.000000 3.829040 0.000000 
#    z 0.017700 0.000000 3.990460 
# 
# 
# High freq. dielectric constant tensor:
#      x y z
#    x 1.774680 0.000000 0.001420 
#    y 0.000000 1.789950 0.000000 
#    z 0.001420 0.000000 1.800340 
# 
# From -- ./inp_files/46872.got.cif
#   From: 2010.06.25/outbox.cif.g09.slc.cpg/sg13_24_cif.got.tgz:46872.got - 2010.06.28 04:50:58.
