data_PCOD8118221
_publ_section_title
;
Structure prediction by ZEFSAII (Michael W. Deem and Ramdas Pophale) SiO2 
 PCOD8118221
Probable space group: P 2/C
;
_chemical_formula_sum "Si O2"
_cell_formula_units_Z 32
_cell_length_a 6.189096
_cell_length_b 18.815526
_cell_length_c 13.821692
_cell_angle_alpha 90.000000
_cell_angle_beta 94.931470
_cell_angle_gamma 90.000000
_cell_volume 1603.593004
_symmetry_space_group_name_H-M "P 2/C"
_symmetry_group_IT_number 13
_symmetry_cell_setting 'monoclinic'
loop_
_space_group_symop_operation_xyz
x,y,z
-x,y,1/2-z
-x,-y,-z
x,-y,1/2+z
loop_
_atom_site_type_symbol
_atom_site_label
_atom_site_fract_x
_atom_site_fract_y
_atom_site_fract_z
Si Si1 0.620522 0.837474 0.568292
Si Si2 0.913481 0.949589 0.642361
Si Si3 0.942446 0.551596 0.357943
Si Si4 0.306991 0.447873 0.022940
Si Si5 0.656800 0.310982 0.845575
Si Si6 0.223564 0.082285 0.977296
Si Si7 0.021746 0.215063 0.563047
Si Si8 0.380334 0.706764 0.525151
O O1 0.749136 0.882846 0.654662
O O2 0.468065 0.893204 0.505716
O O3 0.801922 0.809356 0.505318
O O4 0.484351 0.767989 0.600114
O O5 0.000000 0.973180 0.750000
O O6 0.108098 0.930182 0.576640
O O7 0.775327 0.013300 0.589868
O O8 0.842033 0.480450 0.399375
O O9 0.760285 0.611544 0.359639
O O10 0.000000 0.535873 0.250000
O O11 0.163794 0.571079 0.422669
O O12 0.395106 0.372859 0.069523
O O13 0.500000 0.500000 0.000000
O O14 0.500000 0.305565 0.750000
O O15 0.854244 0.253998 0.843206
O O16 0.514971 0.292244 0.932097
O O17 0.109593 0.145151 0.910142
O O18 0.867679 0.272857 0.505137
#
# Coordination Sequence:
#
# PCOD8118221 Si02
#       8
#     4   4   4   4   4   4   4   4
#     4   9  19  35  61  81 112 156 198 244 302 355
#     4  10  20  36  59  88 116 156 203 247 300 358
#     4  11  24  37  57  89 121 153 202 258 303 369
#     4  11  22  39  63  84 113 161 203 250 311 365
#     4  11  21  33  56  88 118 156 195 240 299 376
#     4   9  19  38  58  83 123 156 190 253 300 349
#     4   9  19  36  55  84 116 154 189 239 296 360
#     4  10  19  37  59  83 111 157 202 243 299 365
#
# _framework density 19.955189000000001
#
# number of rings (size 3 to 8) (size 9 to 14) (size 15 to 20)
#    0.000    2.000    2.500    1.125    0.000    0.500 
#    6.750    0.000    0.000   18.000    0.000    0.000 
#    0.000    0.000    0.000    0.000    0.000    0.000 
#
# Total GULP energy -396539.971042 kJ/mol
# GULP energy per Si atom -12391.874095 kJ/mol
# Density = 1.990977 g / cm^3
# Si number density = 19.955189 Si / 1000 Ang^3
#
#
#
# Elastic Constant Matrix: (Units=GPa)
#
#
# Indices 1 2 3 4 5 6 
#
# 1 99.3576 40.0389 23.5407 0.0000 6.3262 0.0000
# 2 40.0389 130.9482 28.8255 0.0000 4.2105 0.0000
# 3 23.5407 28.8255 70.7127 0.0000 7.7589 0.0000
# 4 0.0000 0.0000 0.0000 16.0712 0.0000 5.8606
# 5 6.3262 4.2105 7.7589 0.0000 18.5071 0.0000
# 6 0.0000 0.0000 0.0000 5.8606 0.0000 43.0128
#
#
#
# Elastic Compliance Matrix: (Units=1/GPa)
#
#
# Indices 1 2 3 4 5 6 
#
# 1 0.012039 -0.003054 -0.002503 0.000000 -0.002371 0.000000
# 2 -0.003054 0.009168 -0.002732 0.000000 0.000103 0.000000
# 3 -0.002503 -0.002732 0.016695 0.000000 -0.005522 0.000000
# 4 0.000000 0.000000 0.000000 0.065476 0.000000 -0.008921
# 5 -0.002371 0.000103 -0.005522 0.000000 0.057135 0.000000
# 6 0.000000 0.000000 0.000000 -0.008921 0.000000 0.024464
#
#
# Mechanical properties :
#
#
# Convention : Reuss Voigt Hill
#
# Bulk Modulus (GPa) = 46.89451 53.98097 50.43774
# Shear Modulus (GPa) = 23.96190 29.42578 26.69384
#
# Velocity S-wave (km/s) = 3.46899 3.84421 3.66141
# Velocity P-wave (km/s) = 6.29255 6.84206 6.57305
#
# Compressibility (1/GPa) = 0.02132446
#
# Stress axis : x y z
#
# Youngs Moduli (GPa) = 83.06123 109.06925 59.89977
#
# Poissons Ratio (x) = 0.33309 0.14992
# Poissons Ratio (y) = 0.25367 0.16365
# Poissons Ratio (z) = 0.20789 0.29799
#
# Static dielectric constant tensor:
#      x y z
#    x 4.070460 0.000000 0.227660 
#    y 0.000000 4.278820 0.000000 
#    z 0.227660 0.000000 3.239710 
# 
# 
# High freq. dielectric constant tensor:
#      x y z
#    x 1.802080 0.000000 0.006410 
#    y 0.000000 1.800820 0.000000 
#    z 0.006410 0.000000 1.723090 
# 
# From -- ./inp_files/44465.got.cif
#   From: 2010.06.25/outbox.cif.g09.slc.cpg/sg13_23_cif.got.tgz:44465.got - 2010.06.28 04:50:58.
