data_PCOD8118708
_publ_section_title
;
Structure prediction by ZEFSAII (Michael W. Deem and Ramdas Pophale) SiO2 
 PCOD8118708
Probable space group: P 2/C
;
_chemical_formula_sum "Si O2"
_cell_formula_units_Z 32
_cell_length_a 13.453559
_cell_length_b 9.449552
_cell_length_c 13.088903
_cell_angle_alpha 90.000000
_cell_angle_beta 115.143212
_cell_angle_gamma 90.000000
_cell_volume 1506.327916
_symmetry_space_group_name_H-M "P 2/C"
_symmetry_group_IT_number 13
_symmetry_cell_setting 'monoclinic'
loop_
_space_group_symop_operation_xyz
x,y,z
-x,y,1/2-z
-x,-y,-z
x,-y,1/2+z
loop_
_atom_site_type_symbol
_atom_site_label
_atom_site_fract_x
_atom_site_fract_y
_atom_site_fract_z
Si Si1 0.076275 0.961049 0.875008
Si Si2 0.370079 0.367713 0.577134
Si Si3 0.743183 0.976529 0.704061
Si Si4 0.711532 0.343598 0.169681
Si Si5 0.909598 0.150049 0.902446
Si Si6 0.477447 0.664434 0.628918
Si Si7 0.413945 0.787778 0.403323
Si Si8 0.238221 0.378813 0.721562
O O1 0.194794 0.995068 0.878180
O O2 0.000000 0.897965 0.750000
O O3 0.082604 0.848954 0.970750
O O4 0.023845 0.104807 0.899054
O O5 0.278259 0.340282 0.448900
O O6 0.395069 0.533765 0.595645
O O7 0.478269 0.268144 0.610769
O O8 0.312102 0.333068 0.657365
O O9 0.728232 0.811438 0.724041
O O10 0.813735 0.040663 0.827390
O O11 0.623650 0.052914 0.644343
O O12 0.589420 0.402728 0.135111
O O13 0.787913 0.456766 0.263328
O O14 0.880133 0.305690 0.847138
O O15 0.500000 0.731654 0.750000
O O16 0.438007 0.787501 0.535364
O O17 0.307092 0.687569 0.344754
#
# Coordination Sequence:
#
# PCOD8118708 Si02
#       8
#     4   4   4   4   4   4   4   4
#     4   9  18  40  64  84 114 151 188 238 313 365
#     4  11  19  34  56  79 118 168 199 241 291 337
#     4  10  22  36  57  88 120 152 191 254 299 348
#     4  11  21  34  54  85 119 155 202 243 293 345
#     4   9  20  37  65  88 108 150 197 239 299 375
#     4  11  19  33  52  79 115 167 202 241 287 326
#     4  10  20  35  54  80 114 162 205 237 281 351
#     4  11  19  35  60  85 115 150 206 241 288 353
#
# _framework density 21.243714000000001
#
# number of rings (size 3 to 8) (size 9 to 14) (size 15 to 20)
#    0.000    1.750    3.750    1.875    0.000    3.000 
#    0.000    2.500    0.000   18.750    0.000    0.000 
#    0.000    0.000    0.000    0.000    0.000    0.000 
#
# Total GULP energy -396558.509185 kJ/mol
# GULP energy per Si atom -12392.453412 kJ/mol
# Density = 2.119536 g / cm^3
# Si number density = 21.243714 Si / 1000 Ang^3
#
#
#
# Elastic Constant Matrix: (Units=GPa)
#
#
# Indices 1 2 3 4 5 6 
#
# 1 58.2062 19.7917 14.2008 0.0000 -3.9248 0.0000
# 2 19.7917 136.7664 39.4465 0.0000 7.6867 0.0000
# 3 14.2008 39.4465 120.8961 0.0000 -17.2361 0.0000
# 4 0.0000 0.0000 0.0000 28.4568 0.0000 7.5324
# 5 -3.9248 7.6867 -17.2361 0.0000 23.5776 0.0000
# 6 0.0000 0.0000 0.0000 7.5324 0.0000 20.2040
#
#
#
# Elastic Compliance Matrix: (Units=1/GPa)
#
#
# Indices 1 2 3 4 5 6 
#
# 1 0.018501 -0.002620 -0.000846 0.000000 0.003316 0.000000
# 2 -0.002620 0.009028 -0.003483 0.000000 -0.005926 0.000000
# 3 -0.000846 -0.003483 0.010772 0.000000 0.008869 0.000000
# 4 0.000000 0.000000 0.000000 0.038989 0.000000 -0.014536
# 5 0.003316 -0.005926 0.008869 0.000000 0.051381 0.000000
# 6 0.000000 0.000000 0.000000 -0.014536 0.000000 0.054914
#
#
# Mechanical properties :
#
#
# Convention : Reuss Voigt Hill
#
# Bulk Modulus (GPa) = 40.97603 51.41628 46.19616
# Shear Modulus (GPa) = 24.31710 30.60966 27.46338
#
# Velocity S-wave (km/s) = 3.38697 3.80001 3.59942
# Velocity P-wave (km/s) = 5.88437 6.59614 6.25040
#
# Compressibility (1/GPa) = 0.02440451
#
# Stress axis : x y z
#
# Youngs Moduli (GPa) = 54.05123 110.76112 92.83471
#
# Poissons Ratio (x) = 0.29016 0.07851
# Poissons Ratio (y) = 0.14160 0.32334
# Poissons Ratio (z) = 0.04571 0.38577
#
# Static dielectric constant tensor:
#      x y z
#    x 3.706960 0.000000 -0.090200 
#    y 0.000000 3.586450 0.000000 
#    z -0.090200 0.000000 4.182740 
# 
# 
# High freq. dielectric constant tensor:
#      x y z
#    x 1.805260 0.000000 -0.011140 
#    y 0.000000 1.809270 0.000000 
#    z -0.011140 0.000000 1.843740 
# 
# From -- ./inp_files/53077.got.cif
#   From: 2010.06.25/outbox.cif.g09.slc.cpg/sg13_27_cif.got.tgz:53077.got - 2010.06.28 04:50:58.
