data_PCOD8118078
_publ_section_title
;
Structure prediction by ZEFSAII (Michael W. Deem and Ramdas Pophale) SiO2 
 PCOD8118078
Probable space group: P 2/C
;
_chemical_formula_sum "Si O2"
_cell_formula_units_Z 24
_cell_length_a 9.594997
_cell_length_b 17.723179
_cell_length_c 9.202569
_cell_angle_alpha 90.000000
_cell_angle_beta 43.902302
_cell_angle_gamma 90.000000
_cell_volume 1085.172209
_symmetry_space_group_name_H-M "P 2/C"
_symmetry_group_IT_number 13
_symmetry_cell_setting 'monoclinic'
loop_
_space_group_symop_operation_xyz
x,y,z
-x,y,1/2-z
-x,-y,-z
x,-y,1/2+z
loop_
_atom_site_type_symbol
_atom_site_label
_atom_site_fract_x
_atom_site_fract_y
_atom_site_fract_z
Si Si1 0.654038 0.495626 0.255618
Si Si2 0.270312 0.099783 0.424107
Si Si3 0.200532 0.030201 0.175349
Si Si4 0.936560 0.777609 0.579812
Si Si5 0.015142 0.611515 0.566113
Si Si6 0.695742 0.174337 0.526851
O O1 0.500000 0.468945 0.250000
O O2 0.500000 0.500000 0.500000
O O3 0.827609 0.434784 0.146957
O O4 0.769726 0.574376 0.135823
O O5 0.500000 0.123124 0.250000
O O6 0.205796 0.039673 0.346094
O O7 0.146119 0.177781 0.500501
O O8 0.232175 0.057195 0.606375
O O9 0.000000 0.061080 0.250000
O O10 0.361691 0.089333 0.985986
O O11 0.001781 0.692258 0.496126
O O12 0.128197 0.825019 0.486930
O O13 0.763528 0.777025 0.834848
O O14 0.000000 0.620610 0.750000
O O15 0.500000 0.210382 0.750000
#
# Coordination Sequence:
#
# PCOD8118078 Si02
#       6
#     4   4   4   4   4   4
#     4  11  24  42  72 107 137 175 224 269 329 399
#     4  11  23  40  64  92 132 174 225 284 342 394
#     4  11  21  40  63  88 126 171 227 291 331 393
#     4  10  22  41  59  97 135 171 222 277 326 405
#     4  11  22  41  71  99 140 180 221 275 332 405
#     4  10  19  35  63  90 123 168 226 276 330 388
#
# _framework density 22.116304
#
# number of rings (size 3 to 8) (size 9 to 14) (size 15 to 20)
#    0.000    1.333    6.667    1.500    0.000    4.000 
#    0.000    0.000    3.667    0.000    0.000    0.000 
#    0.000    0.000    0.000    0.000    0.000    0.000 
#
# Total GULP energy -297355.456470 kJ/mol
# GULP energy per Si atom -12389.810686 kJ/mol
# Density = 2.206597 g / cm^3
# Si number density = 22.116304 Si / 1000 Ang^3
#
#
#
# Elastic Constant Matrix: (Units=GPa)
#
#
# Indices 1 2 3 4 5 6 
#
# 1 98.8900 23.6746 6.7968 0.0000 -4.2428 0.0000
# 2 23.6746 132.6760 10.9952 0.0000 2.6673 0.0000
# 3 6.7968 10.9952 83.7230 0.0000 -10.3619 0.0000
# 4 0.0000 0.0000 0.0000 14.7810 0.0000 3.3817
# 5 -4.2428 2.6673 -10.3619 0.0000 31.1275 0.0000
# 6 0.0000 0.0000 0.0000 3.3817 0.0000 14.5080
#
#
#
# Elastic Compliance Matrix: (Units=1/GPa)
#
#
# Indices 1 2 3 4 5 6 
#
# 1 0.010659 -0.001896 -0.000434 0.000000 0.001471 0.000000
# 2 -0.001896 0.007989 -0.001055 0.000000 -0.001294 0.000000
# 3 -0.000434 -0.001055 0.012643 0.000000 0.004240 0.000000
# 4 0.000000 0.000000 0.000000 0.071465 0.000000 -0.016658
# 5 0.001471 -0.001294 0.004240 0.000000 0.033849 0.000000
# 6 0.000000 0.000000 0.000000 -0.016658 0.000000 0.072810
#
#
# Mechanical properties :
#
#
# Convention : Reuss Voigt Hill
#
# Bulk Modulus (GPa) = 40.78320 44.24688 42.51504
# Shear Modulus (GPa) = 22.28574 30.33815 26.31194
#
# Velocity S-wave (km/s) = 3.17781 3.70774 3.45296
# Velocity P-wave (km/s) = 5.65199 6.19513 5.92978
#
# Compressibility (1/GPa) = 0.02451990
#
# Stress axis : x y z
#
# Youngs Moduli (GPa) = 93.81743 125.17384 79.09666
#
# Poissons Ratio (x) = 0.23727 0.03436
# Poissons Ratio (y) = 0.17784 0.08348
# Poissons Ratio (z) = 0.04075 0.13212
#
# Static dielectric constant tensor:
#      x y z
#    x 4.050390 0.000000 -0.151600 
#    y 0.000000 3.887740 0.000000 
#    z -0.151600 0.000000 4.063930 
# 
# 
# High freq. dielectric constant tensor:
#      x y z
#    x 1.879070 0.000000 -0.010740 
#    y 0.000000 1.852000 0.000000 
#    z -0.010740 0.000000 1.861660 
# 
# From -- ./inp_files/13457.got.cif
#   From: 2010.06.25/outbox.cif.g09.slc.cpg/sg13_7_cif.got.tgz:13457.got - 2010.06.28 04:50:58.
