data_PCOD8118274
_publ_section_title
;
Structure prediction by ZEFSAII (Michael W. Deem and Ramdas Pophale) SiO2 
 PCOD8118274
Probable space group: P 2/C
;
_chemical_formula_sum "Si O2"
_cell_formula_units_Z 32
_cell_length_a 13.843460
_cell_length_b 11.877298
_cell_length_c 16.260250
_cell_angle_alpha 90.000000
_cell_angle_beta 33.362893
_cell_angle_gamma 90.000000
_cell_volume 1470.296039
_symmetry_space_group_name_H-M "P 2/C"
_symmetry_group_IT_number 13
_symmetry_cell_setting 'monoclinic'
loop_
_space_group_symop_operation_xyz
x,y,z
-x,y,1/2-z
-x,-y,-z
x,-y,1/2+z
loop_
_atom_site_type_symbol
_atom_site_label
_atom_site_fract_x
_atom_site_fract_y
_atom_site_fract_z
Si Si1 0.889239 0.896682 0.405695
Si Si2 0.200208 0.288518 0.096953
Si Si3 0.126681 0.545113 0.288415
Si Si4 0.763467 0.474649 0.971316
Si Si5 0.576297 0.740412 0.614042
Si Si6 0.709349 0.887702 0.103008
Si Si7 0.077505 0.232897 0.914100
Si Si8 0.246073 0.698811 0.744603
O O1 0.747747 0.811033 0.466321
O O2 0.019643 0.831342 0.373466
O O3 0.000000 0.946389 0.250000
O O4 0.794230 0.991533 0.526980
O O5 0.308914 0.397689 0.987519
O O6 0.257820 0.247307 0.145572
O O7 0.000000 0.333196 0.250000
O O8 0.218366 0.188670 0.021339
O O9 0.192956 0.575379 0.150150
O O10 0.225876 0.436354 0.254807
O O11 0.919305 0.522194 0.427487
O O12 0.159524 0.647393 0.328365
O O13 0.621928 0.388281 0.107308
O O14 0.500000 0.798923 0.750000
O O15 0.431444 0.739158 0.647023
O O16 0.500000 0.895328 0.250000
O O17 0.771957 0.838008 0.145987
O O18 0.912132 0.247355 0.091890
#
# Coordination Sequence:
#
# PCOD8118274 Si02
#       8
#     4   4   4   4   4   4   4   4
#     4  12  27  50  76  97 134 187 239 290 356 422
#     4  11  21  44  69  98 142 196 227 276 347 423
#     4  10  19  37  64 103 141 187 226 271 338 427
#     4  10  19  37  67  98 146 187 224 274 341 411
#     4  12  24  41  66 108 142 179 234 300 342 402
#     4  12  29  48  71 103 140 175 238 304 351 412
#     4  12  23  43  75 100 140 185 235 279 360 419
#     4  11  23  39  71 106 144 187 228 287 345 418
#
# _framework density 21.764323999999998
#
# number of rings (size 3 to 8) (size 9 to 14) (size 15 to 20)
#    0.000    0.750    6.250    2.250    0.000    6.500 
#    0.000    1.250    0.000    0.000    0.000    0.000 
#    0.000    0.000    0.000    0.000    0.000    0.000 
#
# Total GULP energy -396791.292077 kJ/mol
# GULP energy per Si atom -12399.727877 kJ/mol
# Density = 2.171479 g / cm^3
# Si number density = 21.764324 Si / 1000 Ang^3
#
#
#
# Elastic Constant Matrix: (Units=GPa)
#
#
# Indices 1 2 3 4 5 6 
#
# 1 149.0425 35.3491 34.3316 0.0000 -11.6847 0.0000
# 2 35.3491 73.6316 20.1952 0.0000 4.3400 0.0000
# 3 34.3316 20.1952 64.3209 0.0000 -6.5753 0.0000
# 4 0.0000 0.0000 0.0000 -24.4483 0.0000 69.1076
# 5 -11.6847 4.3400 -6.5753 0.0000 30.2990 0.0000
# 6 0.0000 0.0000 0.0000 69.1076 0.0000 -39.2553
#
#
#
# Elastic Compliance Matrix: (Units=1/GPa)
#
#
# Indices 1 2 3 4 5 6 
#
# 1 0.008479 -0.003388 -0.003148 0.000000 0.003072 0.000000
# 2 -0.003388 0.016527 -0.003841 0.000000 -0.004508 0.000000
# 3 -0.003148 -0.003841 0.018782 0.000000 0.003412 0.000000
# 4 0.000000 0.000000 0.000000 0.010287 0.000000 0.018109
# 5 0.003072 -0.004508 0.003412 0.000000 0.035575 0.000000
# 6 0.000000 0.000000 0.000000 0.018109 0.000000 0.006407
#
#
# Mechanical properties :
#
#
# Convention : Reuss Voigt Hill
#
# Bulk Modulus (GPa) = 43.41557 51.86075 47.63816
# Shear Modulus (GPa) = 40.16396 6.46034 23.31215
#
# Velocity S-wave (km/s) = 4.30048 1.72475 3.27634
# Velocity P-wave (km/s) = 6.68208 5.27697 6.02065
#
# Compressibility (1/GPa) = 0.02303321
#
# Stress axis : x y z
#
# Youngs Moduli (GPa) = 117.93731 60.50672 53.24213
#
# Poissons Ratio (x) = 0.20502 0.16760
# Poissons Ratio (y) = 0.39961 0.20452
# Poissons Ratio (z) = 0.37125 0.23243
#
# Static dielectric constant tensor:
#      x y z
#    x 4.050320 0.000000 0.061450 
#    y 0.000000 3.873870 0.000000 
#    z 0.061450 0.000000 3.795610 
# 
# 
# High freq. dielectric constant tensor:
#      x y z
#    x 1.864470 0.000000 0.008180 
#    y 0.000000 1.852180 0.000000 
#    z 0.008180 0.000000 1.843750 
# 
# From -- ./inp_files/68637.got.cif
#   From: 2010.06.25/outbox.cif.g09.slc.cpg/sg13_35_cif.got.tgz:68637.got - 2010.06.28 04:50:58.
