data_PCOD8118928
_publ_section_title
;
Structure prediction by ZEFSAII (Michael W. Deem and Ramdas Pophale) SiO2 
 PCOD8118928
Probable space group: P 2/C
;
_chemical_formula_sum "Si O2"
_cell_formula_units_Z 28
_cell_length_a 14.018965
_cell_length_b 6.595943
_cell_length_c 24.874497
_cell_angle_alpha 90.000000
_cell_angle_beta 140.092643
_cell_angle_gamma 90.000000
_cell_volume 1475.626339
_symmetry_space_group_name_H-M "P 2/C"
_symmetry_group_IT_number 13
_symmetry_cell_setting 'monoclinic'
loop_
_space_group_symop_operation_xyz
x,y,z
-x,y,1/2-z
-x,-y,-z
x,-y,1/2+z
loop_
_atom_site_type_symbol
_atom_site_label
_atom_site_fract_x
_atom_site_fract_y
_atom_site_fract_z
Si Si1 0.128101 0.254209 0.265576
Si Si2 0.905058 0.434119 0.840124
Si Si3 0.712040 0.942100 0.239838
Si Si4 0.861203 0.186623 0.389121
Si Si5 0.419514 0.009625 0.550410
Si Si6 0.876957 0.883026 0.018224
Si Si7 0.415261 0.701918 0.953177
O O1 0.064352 0.428460 0.198946
O O2 0.262005 0.348838 0.357417
O O3 0.000000 0.179204 0.250000
O O4 0.182515 0.054652 0.257816
O O5 0.764298 0.289014 0.769057
O O6 0.865438 0.580142 0.872708
O O7 0.048734 0.300371 0.916542
O O8 0.725935 0.065332 0.301960
O O9 0.541501 0.934284 0.148036
O O10 0.833025 0.191946 0.440133
O O11 0.014827 0.076091 0.439191
O O12 0.270088 0.945785 0.514839
O O13 0.477823 0.832053 0.538105
O O14 0.382334 0.199172 0.496613
O O15 0.500000 0.500000 0.000000
#
# Coordination Sequence:
#
# PCOD8118928 Si02
#       7
#     4   4   4   4   4   4   4
#     4  10  22  34  55  84 112 151 194 241 288 345
#     4  10  20  36  59  83 116 151 193 238 291 343
#     4   9  20  39  55  80 117 148 190 242 287 349
#     4   9  20  38  58  86 116 149 189 245 288 342
#     4  10  22  37  58  83 112 155 190 234 294 346
#     4  10  21  36  61  86 116 149 193 241 292 353
#     4  10  22  38  56  79 119 149 192 238 287 343
#
# _framework density 18.974993000000001
#
# number of rings (size 3 to 8) (size 9 to 14) (size 15 to 20)
#    0.000    2.286    0.000    1.286    8.000    1.143 
#    0.000    0.000    0.000   15.429    0.000    0.000 
#    0.000    0.000    0.000    0.000    0.000    0.000 
#
# Total GULP energy -347250.787701 kJ/mol
# GULP energy per Si atom -12401.813846 kJ/mol
# Density = 1.893180 g / cm^3
# Si number density = 18.974993 Si / 1000 Ang^3
#
#
#
# Elastic Constant Matrix: (Units=GPa)
#
#
# Indices 1 2 3 4 5 6 
#
# 1 104.7218 43.1745 64.8443 0.0000 0.3911 0.0000
# 2 43.1745 112.8391 48.5725 0.0000 -7.1685 0.0000
# 3 64.8443 48.5725 130.4538 0.0000 -24.4874 0.0000
# 4 0.0000 0.0000 0.0000 32.1984 0.0000 -1.1775
# 5 0.3911 -7.1685 -24.4874 0.0000 15.4795 0.0000
# 6 0.0000 0.0000 0.0000 -1.1775 0.0000 5.5559
#
#
#
# Elastic Compliance Matrix: (Units=1/GPa)
#
#
# Indices 1 2 3 4 5 6 
#
# 1 0.018180 -0.003232 -0.011664 0.000000 -0.020408 0.000000
# 2 -0.003232 0.011167 -0.002227 0.000000 0.001731 0.000000
# 3 -0.011664 -0.002227 0.020133 0.000000 0.031112 0.000000
# 4 0.000000 0.000000 0.000000 0.031300 0.000000 0.006634
# 5 -0.020408 0.001731 0.031112 0.000000 0.115135 0.000000
# 6 0.000000 0.000000 0.000000 0.006634 0.000000 0.181396
#
#
# Mechanical properties :
#
#
# Convention : Reuss Voigt Hill
#
# Bulk Modulus (GPa) = 65.64024 73.46637 69.55331
# Shear Modulus (GPa) = 12.00091 23.40830 17.70460
#
# Velocity S-wave (km/s) = 2.51760 3.51613 3.05790
# Velocity P-wave (km/s) = 6.56652 7.43544 7.01445
#
# Compressibility (1/GPa) = 0.01523456
#
# Stress axis : x y z
#
# Youngs Moduli (GPa) = 55.00455 89.54859 49.67071
#
# Poissons Ratio (x) = 0.28939 0.57938
# Poissons Ratio (y) = 0.17775 0.11060
# Poissons Ratio (z) = 0.64159 0.19940
#
# Static dielectric constant tensor:
#      x y z
#    x 3.221300 0.000000 -0.238180 
#    y 0.000000 3.710760 0.000000 
#    z -0.238180 0.000000 3.623030 
# 
# 
# High freq. dielectric constant tensor:
#      x y z
#    x 1.717940 0.000000 -0.015580 
#    y 0.000000 1.741180 0.000000 
#    z -0.015580 0.000000 1.759370 
# 
# From -- ./inp_files/67613.got.cif
#   From: 2010.06.25/outbox.cif.g09.slc.cpg/sg13_34_cif.got.tgz:67613.got - 2010.06.28 04:50:58.
