data_PCOD8118897
_publ_section_title
;
Structure prediction by ZEFSAII (Michael W. Deem and Ramdas Pophale) SiO2 
 PCOD8118897
Probable space group: P 2/C
;
_chemical_formula_sum "Si O2"
_cell_formula_units_Z 24
_cell_length_a 14.351584
_cell_length_b 8.187042
_cell_length_c 14.852163
_cell_angle_alpha 90.000000
_cell_angle_beta 136.872226
_cell_angle_gamma 90.000000
_cell_volume 1192.988273
_symmetry_space_group_name_H-M "P 2/C"
_symmetry_group_IT_number 13
_symmetry_cell_setting 'monoclinic'
loop_
_space_group_symop_operation_xyz
x,y,z
-x,y,1/2-z
-x,-y,-z
x,-y,1/2+z
loop_
_atom_site_type_symbol
_atom_site_label
_atom_site_fract_x
_atom_site_fract_y
_atom_site_fract_z
Si Si1 0.040295 0.366642 0.377774
Si Si2 0.273997 0.394012 0.003148
Si Si3 0.364381 0.861479 0.703423
Si Si4 0.871001 0.891190 0.423992
Si Si5 0.193348 0.395941 0.741842
Si Si6 0.449827 0.552436 0.866304
O O1 0.162250 0.493458 0.467852
O O2 0.097406 0.204289 0.462480
O O3 0.000000 0.313615 0.250000
O O4 0.911326 0.451803 0.335119
O O5 0.276894 0.232734 0.065910
O O6 0.423908 0.481821 0.112670
O O7 0.240331 0.353210 0.875924
O O8 0.500000 0.931832 0.750000
O O9 0.406136 0.742719 0.817357
O O10 0.271237 0.009714 0.673100
O O11 0.871470 0.768546 0.340340
O O12 0.000000 0.000000 0.500000
O O13 0.315298 0.442790 0.758115
O O14 0.500000 0.500000 0.000000
#
# Coordination Sequence:
#
# PCOD8118897 Si02
#       6
#     4   4   4   4   4   4
#     4  10  21  37  58  80 104 143 193 230 266 325
#     4   9  19  37  59  79 104 141 185 229 269 320
#     4  10  21  37  55  81 115 145 176 222 282 334
#     4  12  24  35  53  82 116 147 176 225 283 332
#     4  10  20  36  58  81 105 143 189 230 269 321
#     4   9  18  36  60  81 103 139 185 226 263 316
#
# _framework density 20.117549
#
# number of rings (size 3 to 8) (size 9 to 14) (size 15 to 20)
#    0.000    2.000    0.000    3.500    0.000    2.667 
#    0.000    7.500    0.000    0.000    0.000    0.000 
#    0.000    0.000    0.000    0.000    0.000    0.000 
#
# Total GULP energy -297359.875320 kJ/mol
# GULP energy per Si atom -12389.994805 kJ/mol
# Density = 2.007176 g / cm^3
# Si number density = 20.117549 Si / 1000 Ang^3
#
#
#
# Elastic Constant Matrix: (Units=GPa)
#
#
# Indices 1 2 3 4 5 6 
#
# 1 69.9464 23.9478 36.0595 0.0000 18.5264 0.0000
# 2 23.9478 78.0634 49.0387 0.0000 -1.6924 0.0000
# 3 36.0595 49.0387 106.7029 0.0000 4.2458 0.0000
# 4 0.0000 0.0000 0.0000 37.9196 0.0000 13.8955
# 5 18.5264 -1.6924 4.2458 0.0000 31.1409 0.0000
# 6 0.0000 0.0000 0.0000 13.8955 0.0000 9.6133
#
#
#
# Elastic Compliance Matrix: (Units=1/GPa)
#
#
# Indices 1 2 3 4 5 6 
#
# 1 0.021400 -0.003646 -0.005069 0.000000 -0.012238 0.000000
# 2 -0.003646 0.018771 -0.007563 0.000000 0.004220 0.000000
# 3 -0.005069 -0.007563 0.014536 0.000000 0.000623 0.000000
# 4 0.000000 0.000000 0.000000 0.056071 0.000000 -0.081048
# 5 -0.012238 0.004220 0.000623 0.000000 0.039537 0.000000
# 6 0.000000 0.000000 0.000000 -0.081048 0.000000 0.221172
#
#
# Mechanical properties :
#
#
# Convention : Reuss Voigt Hill
#
# Bulk Modulus (GPa) = 45.14480 52.53387 48.83933
# Shear Modulus (GPa) = 12.15287 25.44589 18.79938
#
# Velocity S-wave (km/s) = 2.46050 3.56035 3.06024
# Velocity P-wave (km/s) = 5.52823 6.56289 6.06765
#
# Compressibility (1/GPa) = 0.02215095
#
# Stress axis : x y z
#
# Youngs Moduli (GPa) = 46.72955 53.27442 68.79540
#
# Poissons Ratio (x) = 0.19422 0.34876
# Poissons Ratio (y) = 0.17036 0.52027
# Poissons Ratio (z) = 0.23689 0.40289
#
# Static dielectric constant tensor:
#      x y z
#    x 4.075840 0.000000 0.241780 
#    y 0.000000 3.352430 0.000000 
#    z 0.241780 0.000000 3.973960 
# 
# 
# High freq. dielectric constant tensor:
#      x y z
#    x 1.799120 0.000000 0.013420 
#    y 0.000000 1.756830 0.000000 
#    z 0.013420 0.000000 1.807390 
# 
# From -- ./inp_files/53220.got.cif
#   From: 2010.06.25/outbox.cif.g09.slc.cpg/sg13_27_cif.got.tgz:53220.got - 2010.06.28 04:50:58.
