data_PCOD8118693
_publ_section_title
;
Structure prediction by ZEFSAII (Michael W. Deem and Ramdas Pophale) SiO2 
 PCOD8118693
Probable space group: P 2/C
;
_chemical_formula_sum "Si O2"
_cell_formula_units_Z 32
_cell_length_a 5.135373
_cell_length_b 19.073799
_cell_length_c 15.627911
_cell_angle_alpha 90.000000
_cell_angle_beta 84.486510
_cell_angle_gamma 90.000000
_cell_volume 1523.688691
_symmetry_space_group_name_H-M "P 2/C"
_symmetry_group_IT_number 13
_symmetry_cell_setting 'monoclinic'
loop_
_space_group_symop_operation_xyz
x,y,z
-x,y,1/2-z
-x,-y,-z
x,-y,1/2+z
loop_
_atom_site_type_symbol
_atom_site_label
_atom_site_fract_x
_atom_site_fract_y
_atom_site_fract_z
Si Si1 0.006370 0.257871 0.849352
Si Si2 0.924224 0.400879 0.923994
Si Si3 0.465495 0.211384 0.949610
Si Si4 0.547418 0.667938 0.558680
Si Si5 0.781938 0.253687 0.196409
Si Si6 0.541101 0.929413 0.947849
Si Si7 0.074953 0.097357 0.341892
Si Si8 0.721478 0.460899 0.440343
O O1 0.057930 0.342488 0.858785
O O2 0.737502 0.234189 0.899559
O O3 0.000000 0.239625 0.750000
O O4 0.239022 0.213420 0.885514
O O5 0.859698 0.476607 0.879826
O O6 0.662793 0.364981 0.968386
O O7 0.090478 0.421028 0.000703
O O8 0.383638 0.264282 0.030290
O O9 0.514519 0.134808 0.986661
O O10 0.765326 0.694217 0.617344
O O11 0.387159 0.604998 0.611729
O O12 0.500000 0.243101 0.250000
O O13 0.899964 0.180793 0.160906
O O14 0.000000 0.288851 0.250000
O O15 0.348619 0.931241 0.871260
O O16 0.841400 0.924987 0.910884
O O17 0.500000 0.000000 0.000000
O O18 0.000000 0.067861 0.250000
O O19 0.500000 0.500000 0.500000
#
# Coordination Sequence:
#
# PCOD8118693 Si02
#       8
#     4   4   4   4   4   4   4   4
#     4  11  23  41  64  93 127 167 218 276 328 380
#     4   9  19  33  59  87 116 163 216 258 320 385
#     4  11  23  40  65  95 120 164 218 270 320 376
#     4  10  20  34  63  84 123 158 213 262 312 380
#     4  11  24  37  61  95 130 165 205 263 327 380
#     4  12  25  44  68 100 135 172 222 269 318 397
#     4  11  23  42  67  97 133 173 212 260 327 390
#     4   9  17  33  57  86 115 156 212 261 316 381
#
# _framework density 21.001664000000002
#
# number of rings (size 3 to 8) (size 9 to 14) (size 15 to 20)
#    0.000    1.500    2.500    3.375    3.500    0.000 
#    0.000    3.750    8.250    0.000    0.000    0.000 
#    0.000    0.000    0.000    0.000    0.000    0.000 
#
# Total GULP energy -396431.622572 kJ/mol
# GULP energy per Si atom -12388.488205 kJ/mol
# Density = 2.095386 g / cm^3
# Si number density = 21.001664 Si / 1000 Ang^3
#
#
#
# Elastic Constant Matrix: (Units=GPa)
#
#
# Indices 1 2 3 4 5 6 
#
# 1 101.0529 31.7467 22.5968 0.0000 15.3620 0.0000
# 2 31.7467 130.8303 53.0226 0.0000 2.2978 0.0000
# 3 22.5968 53.0226 81.1060 0.0000 24.8193 0.0000
# 4 0.0000 0.0000 0.0000 19.4240 0.0000 9.3549
# 5 15.3620 2.2978 24.8193 0.0000 38.4942 0.0000
# 6 0.0000 0.0000 0.0000 9.3549 0.0000 21.6398
#
#
#
# Elastic Compliance Matrix: (Units=1/GPa)
#
#
# Indices 1 2 3 4 5 6 
#
# 1 0.011410 -0.002638 -0.000136 0.000000 -0.004308 0.000000
# 2 -0.002638 0.011735 -0.008776 0.000000 0.006010 0.000000
# 3 -0.000136 -0.008776 0.022334 0.000000 -0.013822 0.000000
# 4 0.000000 0.000000 0.000000 0.065020 0.000000 -0.028108
# 5 -0.004308 0.006010 -0.013822 0.000000 0.036250 0.000000
# 6 0.000000 0.000000 0.000000 -0.028108 0.000000 0.058362
#
#
# Mechanical properties :
#
#
# Convention : Reuss Voigt Hill
#
# Bulk Modulus (GPa) = 44.68408 58.63572 51.65990
# Shear Modulus (GPa) = 21.21610 29.61981 25.41796
#
# Velocity S-wave (km/s) = 3.18183 3.75954 3.48269
# Velocity P-wave (km/s) = 5.90096 6.84293 6.38933
#
# Compressibility (1/GPa) = 0.02237934
#
# Stress axis : x y z
#
# Youngs Moduli (GPa) = 87.64338 85.21775 44.77434
#
# Poissons Ratio (x) = 0.22479 0.00609
# Poissons Ratio (y) = 0.23119 0.39293
# Poissons Ratio (z) = 0.01192 0.74785
#
# Static dielectric constant tensor:
#      x y z
#    x 4.135430 0.000000 0.355380 
#    y 0.000000 4.075510 0.000000 
#    z 0.355380 0.000000 3.833210 
# 
# 
# High freq. dielectric constant tensor:
#      x y z
#    x 1.838020 0.000000 0.014590 
#    y 0.000000 1.828590 0.000000 
#    z 0.014590 0.000000 1.785300 
# 
# From -- ./inp_files/44453.got.cif
#   From: 2010.06.25/outbox.cif.g09.slc.cpg/sg13_23_cif.got.tgz:44453.got - 2010.06.28 04:50:58.
