data_PCOD8118458
_publ_section_title
;
Structure prediction by ZEFSAII (Michael W. Deem and Ramdas Pophale) SiO2 
 PCOD8118458
Probable space group: P 2/C
;
_chemical_formula_sum "Si O2"
_cell_formula_units_Z 30
_cell_length_a 9.720513
_cell_length_b 12.614813
_cell_length_c 11.865870
_cell_angle_alpha 90.000000
_cell_angle_beta 71.347509
_cell_angle_gamma 90.000000
_cell_volume 1378.598225
_symmetry_space_group_name_H-M "P 2/C"
_symmetry_group_IT_number 13
_symmetry_cell_setting 'monoclinic'
loop_
_space_group_symop_operation_xyz
x,y,z
-x,y,1/2-z
-x,-y,-z
x,-y,1/2+z
loop_
_atom_site_type_symbol
_atom_site_label
_atom_site_fract_x
_atom_site_fract_y
_atom_site_fract_z
Si Si1 0.000000 0.562716 0.250000
Si Si2 0.622184 0.387474 0.304604
Si Si3 0.572066 0.161073 0.396370
Si Si4 0.157861 0.664806 0.402450
Si Si5 0.286113 0.907534 0.850190
Si Si6 0.642465 0.132567 0.633857
Si Si7 0.843720 0.305051 0.073227
Si Si8 0.759029 0.492010 0.957757
O O1 0.884452 0.636708 0.214217
O O2 0.917641 0.488823 0.360735
O O3 0.500000 0.428843 0.250000
O O4 0.556007 0.287284 0.387703
O O5 0.775207 0.353443 0.206578
O O6 0.640956 0.480459 0.392409
O O7 0.706332 0.120167 0.284913
O O8 0.434901 0.104444 0.378787
O O9 0.589738 0.128398 0.519717
O O10 0.258787 0.766519 0.369235
O O11 0.252622 0.569414 0.431595
O O12 0.015967 0.679189 0.518447
O O13 0.176442 0.822005 0.933811
O O14 0.249846 0.031975 0.872381
O O15 0.500000 0.130897 0.750000
O O16 0.755738 0.368686 0.997332
#
# Coordination Sequence:
#
# PCOD8118458 Si02
#       8
#     2   4   4   4   4   4   4   4
#     4  10  22  44  64  90 140 182 210 260 338 394
#     4  11  20  39  66  97 132 168 222 264 322 391
#     4  10  19  42  63  94 126 169 218 263 319 403
#     4  11  24  42  64  99 128 173 225 266 331 384
#     4  10  21  41  67  94 126 176 217 262 341 386
#     4  12  25  41  70  96 130 168 221 280 329 398
#     4  10  22  40  66  91 130 175 213 269 322 390
#     4  11  21  40  66  93 131 177 220 267 318 397
#
# _framework density 21.761236
#
# number of rings (size 3 to 8) (size 9 to 14) (size 15 to 20)
#    0.000    1.333    5.333    3.600    0.000    3.200 
#    0.000    2.667    0.000    0.000    0.000    0.000 
#    0.000    0.000    0.000    0.000    0.000    0.000 
#
# Total GULP energy -371737.576747 kJ/mol
# GULP energy per Si atom -12391.252558 kJ/mol
# Density = 2.171171 g / cm^3
# Si number density = 21.761236 Si / 1000 Ang^3
#
#
#
# Elastic Constant Matrix: (Units=GPa)
#
#
# Indices 1 2 3 4 5 6 
#
# 1 60.8559 35.4857 35.6205 0.0000 12.6570 0.0000
# 2 35.4857 121.9259 44.4572 0.0000 2.8512 0.0000
# 3 35.6205 44.4572 110.3969 0.0000 27.8682 0.0000
# 4 0.0000 0.0000 0.0000 -185.2000 0.0000 -289.1365
# 5 12.6570 2.8512 27.8682 0.0000 34.4322 0.0000
# 6 0.0000 0.0000 0.0000 -289.1365 0.0000 -355.4448
#
#
#
# Elastic Compliance Matrix: (Units=1/GPa)
#
#
# Indices 1 2 3 4 5 6 
#
# 1 0.022733 -0.004988 -0.004174 0.000000 -0.004565 0.000000
# 2 -0.004988 0.010950 -0.003813 0.000000 0.004013 0.000000
# 3 -0.004174 -0.003813 0.014420 0.000000 -0.009821 0.000000
# 4 0.000000 0.000000 0.000000 0.020001 0.000000 -0.016270
# 5 -0.004565 0.004013 -0.009821 0.000000 0.038337 0.000000
# 6 0.000000 0.000000 0.000000 -0.016270 0.000000 0.010421
#
#
# Mechanical properties :
#
#
# Convention : Reuss Voigt Hill
#
# Bulk Modulus (GPa) = 45.14088 58.25616 51.69852
# Shear Modulus (GPa) = 33.28975 -89.40151 -28.05588
#
# Velocity S-wave (km/s) = 3.91547 -6.41655 -3.59452
# Velocity P-wave (km/s) = 6.42106 5.29787 2.56540
#
# Compressibility (1/GPa) = 0.02215287
#
# Stress axis : x y z
#
# Youngs Moduli (GPa) = 43.98832 91.32511 69.34917
#
# Poissons Ratio (x) = 0.45550 0.28947
# Poissons Ratio (y) = 0.21940 0.26445
# Poissons Ratio (z) = 0.18361 0.34825
#
# Static dielectric constant tensor:
#      x y z
#    x 3.669300 0.000000 -0.001380 
#    y 0.000000 4.067940 0.000000 
#    z -0.001380 0.000000 4.242380 
# 
# 
# High freq. dielectric constant tensor:
#      x y z
#    x 1.827670 0.000000 0.003880 
#    y 0.000000 1.856970 0.000000 
#    z 0.003880 0.000000 1.863290 
# 
# From -- ./inp_files/33801.got.cif
#   From: 2010.06.25/outbox.cif.g09.slc.cpg/sg13_17_cif.got.tgz:33801.got - 2010.06.28 04:50:58.
