data_PCOD8118735
_publ_section_title
;
Structure prediction by ZEFSAII (Michael W. Deem and Ramdas Pophale) SiO2 
 PCOD8118735
Probable space group: P 2/C
;
_chemical_formula_sum "Si O2"
_cell_formula_units_Z 28
_cell_length_a 15.246549
_cell_length_b 8.524914
_cell_length_c 14.730055
_cell_angle_alpha 90.000000
_cell_angle_beta 131.334269
_cell_angle_gamma 90.000000
_cell_volume 1437.574123
_symmetry_space_group_name_H-M "P 2/C"
_symmetry_group_IT_number 13
_symmetry_cell_setting 'monoclinic'
loop_
_space_group_symop_operation_xyz
x,y,z
-x,y,1/2-z
-x,-y,-z
x,-y,1/2+z
loop_
_atom_site_type_symbol
_atom_site_label
_atom_site_fract_x
_atom_site_fract_y
_atom_site_fract_z
Si Si1 0.836254 0.849205 0.513914
Si Si2 0.727120 0.140880 0.356941
Si Si3 0.261916 0.655077 0.910218
Si Si4 0.885507 0.917501 0.208376
Si Si5 0.549275 0.839607 0.574867
Si Si6 0.684938 0.703767 0.020921
Si Si7 0.090383 0.198274 0.156618
O O1 0.755680 0.710429 0.497777
O O2 0.952016 0.772472 0.546455
O O3 0.759209 0.959892 0.397529
O O4 0.875633 0.947473 0.627291
O O5 0.619661 0.129500 0.215045
O O6 0.693414 0.244000 0.421621
O O7 0.840067 0.225826 0.389716
O O8 0.370460 0.751243 0.943117
O O9 0.286111 0.473517 0.937070
O O10 0.145738 0.685002 0.769929
O O11 0.774842 0.806166 0.141322
O O12 0.000000 0.821439 0.250000
O O13 0.895485 0.012049 0.309532
O O14 0.443520 0.727663 0.528786
O O15 0.500000 0.000000 0.500000
#
# Coordination Sequence:
#
# PCOD8118735 Si02
#       7
#     4   4   4   4   4   4   4
#     4   9  17  34  57  82 110 142 185 232 271 319
#     4  10  20  35  56  83 110 142 187 239 281 321
#     4  10  21  35  54  81 113 149 181 218 279 345
#     4   8  16  31  54  79 105 144 189 224 264 323
#     4  11  22  40  61  78 102 146 197 238 276 332
#     4  11  21  35  53  81 117 146 178 230 286 334
#     4   9  17  34  58  82 110 147 185 225 268 326
#
# _framework density 19.477255
#
# number of rings (size 3 to 8) (size 9 to 14) (size 15 to 20)
#    0.000    2.286    0.000    6.000    0.000    1.143 
#    0.000    9.286    0.000    0.000    0.000    0.000 
#    0.000    0.000    0.000    0.000    0.000    0.000 
#
# Total GULP energy -346987.195524 kJ/mol
# GULP energy per Si atom -12392.399840 kJ/mol
# Density = 1.943292 g / cm^3
# Si number density = 19.477255 Si / 1000 Ang^3
#
#
#
# Elastic Constant Matrix: (Units=GPa)
#
#
# Indices 1 2 3 4 5 6 
#
# 1 107.5788 44.8098 38.1386 0.0000 21.7811 0.0000
# 2 44.8098 102.5063 41.9033 0.0000 6.9457 0.0000
# 3 38.1386 41.9033 66.9431 0.0000 12.3325 0.0000
# 4 0.0000 0.0000 0.0000 13.6910 0.0000 2.6756
# 5 21.7811 6.9457 12.3325 0.0000 31.0330 0.0000
# 6 0.0000 0.0000 0.0000 2.6756 0.0000 22.2345
#
#
#
# Elastic Compliance Matrix: (Units=1/GPa)
#
#
# Indices 1 2 3 4 5 6 
#
# 1 0.013829 -0.003869 -0.004131 0.000000 -0.007199 0.000000
# 2 -0.003869 0.014196 -0.007118 0.000000 0.002367 0.000000
# 3 -0.004131 -0.007118 0.022572 0.000000 -0.004478 0.000000
# 4 0.000000 0.000000 0.000000 0.074800 0.000000 -0.009001
# 5 -0.007199 0.002367 -0.004478 0.000000 0.038526 0.000000
# 6 0.000000 0.000000 0.000000 -0.009001 0.000000 0.046058
#
#
# Mechanical properties :
#
#
# Convention : Reuss Voigt Hill
#
# Bulk Modulus (GPa) = 49.11157 58.52574 53.81865
# Shear Modulus (GPa) = 20.24263 23.53678 21.88971
#
# Velocity S-wave (km/s) = 3.22731 3.48001 3.35604
# Velocity P-wave (km/s) = 6.25755 6.80153 6.53520
#
# Compressibility (1/GPa) = 0.02036180
#
# Stress axis : x y z
#
# Youngs Moduli (GPa) = 72.31242 70.44180 44.30308
#
# Poissons Ratio (x) = 0.27253 0.18300
# Poissons Ratio (y) = 0.27977 0.31535
# Poissons Ratio (z) = 0.29870 0.50140
#
# Static dielectric constant tensor:
#      x y z
#    x 4.086790 0.000000 0.119550 
#    y 0.000000 3.293750 0.000000 
#    z 0.119550 0.000000 3.553010 
# 
# 
# High freq. dielectric constant tensor:
#      x y z
#    x 1.782520 0.000000 0.008710 
#    y 0.000000 1.729360 0.000000 
#    z 0.008710 0.000000 1.744880 
# 
# From -- ./inp_files/53103.got.cif
#   From: 2010.06.25/outbox.cif.g09.slc.cpg/sg13_27_cif.got.tgz:53103.got - 2010.06.28 04:50:58.
