data_PCOD8118246
_publ_section_title
;
Structure prediction by ZEFSAII (Michael W. Deem and Ramdas Pophale) SiO2 
 PCOD8118246
Probable space group: P 2/C
;
_chemical_formula_sum "Si O2"
_cell_formula_units_Z 24
_cell_length_a 26.074818
_cell_length_b 8.141917
_cell_length_c 5.310427
_cell_angle_alpha 90.000000
_cell_angle_beta 96.062099
_cell_angle_gamma 90.000000
_cell_volume 1121.093973
_symmetry_space_group_name_H-M "P 2/C"
_symmetry_group_IT_number 13
_symmetry_cell_setting 'monoclinic'
loop_
_space_group_symop_operation_xyz
x,y,z
-x,y,1/2-z
-x,-y,-z
x,-y,1/2+z
loop_
_atom_site_type_symbol
_atom_site_label
_atom_site_fract_x
_atom_site_fract_y
_atom_site_fract_z
Si Si1 0.942355 0.930252 0.970113
Si Si2 0.442633 0.600301 0.193874
Si Si3 0.892601 0.609098 0.944443
Si Si4 0.626028 0.091938 0.809187
Si Si5 0.745838 0.840124 0.369402
Si Si6 0.212278 0.801796 0.608847
O O1 0.942229 0.730444 0.970071
O O2 0.913820 0.000002 0.705318
O O3 0.000000 0.000000 0.000000
O O4 0.500000 0.677472 0.250000
O O5 0.435342 0.463367 0.405498
O O6 0.398481 0.730454 0.222860
O O7 0.892472 0.499913 0.694465
O O8 0.845698 0.737701 0.919899
O O9 0.606730 0.991086 0.556714
O O10 0.687396 0.102197 0.836964
O O11 0.758947 0.733281 0.127373
O O12 0.783158 0.000108 0.389666
O O13 0.758533 0.733675 0.625693
#
# Coordination Sequence:
#
# PCOD8118246 Si02
#       6
#     4   4   4   4   4   4
#     4  10  23  45  70  99 124 170 223 250 308 395
#     4  10  23  43  62  87 127 170 207 256 332 401
#     4  12  26  43  65 103 137 164 208 274 322 362
#     4  12  21  38  65  95 126 157 220 272 316 363
#     4  10  19  37  61  90 116 167 210 257 293 374
#     4  10  20  36  61  86 126 167 202 245 315 365
#
# _framework density 21.407658999999999
#
# number of rings (size 3 to 8) (size 9 to 14) (size 15 to 20)
#    0.000    1.333    3.333    3.000    4.667    0.667 
#    0.000   15.000    0.000    0.000    0.000    0.000 
#    0.000    0.000    0.000    0.000    0.000    0.000 
#
# Total GULP energy -297449.941621 kJ/mol
# GULP energy per Si atom -12393.747568 kJ/mol
# Density = 2.135893 g / cm^3
# Si number density = 21.407659 Si / 1000 Ang^3
#
#
#
# Elastic Constant Matrix: (Units=GPa)
#
#
# Indices 1 2 3 4 5 6 
#
# 1 70.2926 56.3906 39.5033 0.0000 -2.8957 0.0000
# 2 56.3906 103.9560 43.9056 0.0000 2.9101 0.0000
# 3 39.5033 43.9056 206.0863 0.0000 -37.4730 0.0000
# 4 0.0000 0.0000 0.0000 29.5379 0.0000 -2.3414
# 5 -2.8957 2.9101 -37.4730 0.0000 22.9969 0.0000
# 6 0.0000 0.0000 0.0000 -2.3414 0.0000 18.9194
#
#
#
# Elastic Compliance Matrix: (Units=1/GPa)
#
#
# Indices 1 2 3 4 5 6 
#
# 1 0.026117 -0.013494 -0.001738 0.000000 0.002164 0.000000
# 2 -0.013494 0.018430 -0.002946 0.000000 -0.008831 0.000000
# 3 -0.001738 -0.002946 0.008300 0.000000 0.013679 0.000000
# 4 0.000000 0.000000 0.000000 0.034190 0.000000 0.004231
# 5 0.002164 -0.008831 0.013679 0.000000 0.067164 0.000000
# 6 0.000000 0.000000 0.000000 0.004231 0.000000 0.053379
#
#
# Mechanical properties :
#
#
# Convention : Reuss Voigt Hill
#
# Bulk Modulus (GPa) = 60.63183 73.32599 66.97891
# Shear Modulus (GPa) = 20.04536 30.32655 25.18596
#
# Velocity S-wave (km/s) = 3.06333 3.76789 3.43373
# Velocity P-wave (km/s) = 6.39499 7.29766 6.86119
#
# Compressibility (1/GPa) = 0.01649299
#
# Stress axis : x y z
#
# Youngs Moduli (GPa) = 38.28903 54.25797 120.47650
#
# Poissons Ratio (x) = 0.73214 0.20938
# Poissons Ratio (y) = 0.51666 0.35490
# Poissons Ratio (z) = 0.06654 0.15983
#
# Static dielectric constant tensor:
#      x y z
#    x 3.810940 0.000000 -0.674800 
#    y 0.000000 3.528320 0.000000 
#    z -0.674800 0.000000 6.264540 
# 
# 
# High freq. dielectric constant tensor:
#      x y z
#    x 1.828730 0.000000 -0.015370 
#    y 0.000000 1.805930 0.000000 
#    z -0.015370 0.000000 1.882840 
# 
# From -- ./inp_files/7359.got.cif
#   From: 2010.06.25/outbox.cif.g09.slc.cpg/sg13_4_cif.got.tgz:7359.got - 2010.06.28 04:50:58.
