data_PCOD8118660
_publ_section_title
;
Structure prediction by ZEFSAII (Michael W. Deem and Ramdas Pophale) SiO2 
 PCOD8118660
Probable space group: P 2/C
;
_chemical_formula_sum "Si O2"
_cell_formula_units_Z 20
_cell_length_a 12.468133
_cell_length_b 16.389695
_cell_length_c 4.932925
_cell_angle_alpha 90.000000
_cell_angle_beta 85.549959
_cell_angle_gamma 90.000000
_cell_volume 1004.998919
_symmetry_space_group_name_H-M "P 2/C"
_symmetry_group_IT_number 13
_symmetry_cell_setting 'monoclinic'
loop_
_space_group_symop_operation_xyz
x,y,z
-x,y,1/2-z
-x,-y,-z
x,-y,1/2+z
loop_
_atom_site_type_symbol
_atom_site_label
_atom_site_fract_x
_atom_site_fract_y
_atom_site_fract_z
Si Si1 0.283062 0.055411 0.413533
Si Si2 0.124274 0.552937 0.217583
Si Si3 0.570080 0.801174 0.496436
Si Si4 0.123814 0.188391 0.270193
Si Si5 0.213498 0.723819 0.230602
O O1 0.383417 0.116876 0.372614
O O2 0.174430 0.104871 0.372957
O O3 0.287256 0.022047 0.717642
O O4 0.150570 0.477776 0.411394
O O5 0.198832 0.628381 0.294561
O O6 0.000000 0.580387 0.250000
O O7 0.500000 0.824088 0.250000
O O8 0.664308 0.740229 0.385055
O O9 0.500000 0.758769 0.750000
O O10 0.133283 0.257272 0.498138
O O11 0.000000 0.169735 0.250000
O O12 0.184958 0.218838 0.989809
#
# Coordination Sequence:
#
# PCOD8118660 Si02
#       5
#     4   4   4   4   4
#     4  11  23  38  56  84 115 144 189 242 291 343
#     4  10  20  34  57  89 120 149 179 219 278 337
#     4  11  23  40  61  82 107 149 199 244 291 332
#     4  11  22  37  59  84 115 157 192 225 280 346
#     4  11  22  39  60  85 118 150 193 238 274 337
#
# _framework density 19.900517000000001
#
# number of rings (size 3 to 8) (size 9 to 14) (size 15 to 20)
#    0.000    1.200    0.000    9.000    0.000    4.800 
#    0.000    0.000    0.000    3.600    0.000    0.000 
#    0.000    0.000    0.000    0.000    0.000    0.000 
#
# Total GULP energy -248045.959188 kJ/mol
# GULP energy per Si atom -12402.297959 kJ/mol
# Density = 1.985522 g / cm^3
# Si number density = 19.900517 Si / 1000 Ang^3
#
#
#
# Elastic Constant Matrix: (Units=GPa)
#
#
# Indices 1 2 3 4 5 6 
#
# 1 109.4368 51.9413 38.7288 0.0000 9.6481 0.0000
# 2 51.9413 99.4390 24.7643 0.0000 -4.7871 0.0000
# 3 38.7288 24.7643 112.3282 0.0000 0.7709 0.0000
# 4 0.0000 0.0000 0.0000 21.9464 0.0000 1.5869
# 5 9.6481 -4.7871 0.7709 0.0000 34.5474 0.0000
# 6 0.0000 0.0000 0.0000 1.5869 0.0000 15.3523
#
#
#
# Elastic Compliance Matrix: (Units=1/GPa)
#
#
# Indices 1 2 3 4 5 6 
#
# 1 0.013876 -0.006658 -0.003284 0.000000 -0.004725 0.000000
# 2 -0.006658 0.013916 -0.000799 0.000000 0.003805 0.000000
# 3 -0.003284 -0.000799 0.010207 0.000000 0.000579 0.000000
# 4 0.000000 0.000000 0.000000 0.045909 0.000000 -0.004745
# 5 -0.004725 0.003805 0.000579 0.000000 0.030780 0.000000
# 6 0.000000 0.000000 0.000000 -0.004745 0.000000 0.065627
#
#
# Mechanical properties :
#
#
# Convention : Reuss Voigt Hill
#
# Bulk Modulus (GPa) = 60.53876 61.34144 60.94010
# Shear Modulus (GPa) = 24.11934 28.08716 26.10325
#
# Velocity S-wave (km/s) = 3.48515 3.76091 3.62565
# Velocity P-wave (km/s) = 6.83241 7.05338 6.94377
#
# Compressibility (1/GPa) = 0.01651834
#
# Stress axis : x y z
#
# Youngs Moduli (GPa) = 72.06479 71.85883 97.97303
#
# Poissons Ratio (x) = 0.47842 0.32175
# Poissons Ratio (y) = 0.47979 0.07824
# Poissons Ratio (z) = 0.23667 0.05739
#
# Static dielectric constant tensor:
#      x y z
#    x 3.570260 0.000000 0.080730 
#    y 0.000000 3.388850 0.000000 
#    z 0.080730 0.000000 3.861580 
# 
# 
# High freq. dielectric constant tensor:
#      x y z
#    x 1.767770 0.000000 0.006930 
#    y 0.000000 1.760670 0.000000 
#    z 0.006930 0.000000 1.801090 
# 
# From -- ./inp_files/3250.got.cif
#   From: 2010.06.25/outbox.cif.g09.slc.cpg/sg13_2_cif.got.tgz:3250.got - 2010.06.28 04:50:58.
