data_PCOD8118381
_publ_section_title
;
Structure prediction by ZEFSAII (Michael W. Deem and Ramdas Pophale) SiO2 
 PCOD8118381
Probable space group: P 2/C
;
_chemical_formula_sum "Si O2"
_cell_formula_units_Z 30
_cell_length_a 14.184791
_cell_length_b 6.387958
_cell_length_c 17.365045
_cell_angle_alpha 90.000000
_cell_angle_beta 111.626657
_cell_angle_gamma 90.000000
_cell_volume 1462.713975
_symmetry_space_group_name_H-M "P 2/C"
_symmetry_group_IT_number 13
_symmetry_cell_setting 'monoclinic'
loop_
_space_group_symop_operation_xyz
x,y,z
-x,y,1/2-z
-x,-y,-z
x,-y,1/2+z
loop_
_atom_site_type_symbol
_atom_site_label
_atom_site_fract_x
_atom_site_fract_y
_atom_site_fract_z
Si Si1 0.304848 0.276074 0.263796
Si Si2 0.350580 0.067647 0.590146
Si Si3 0.500000 0.075751 0.250000
Si Si4 0.122288 0.040075 0.706948
Si Si5 0.218174 0.686757 0.509500
Si Si6 0.719068 0.692640 0.566390
Si Si7 0.211072 0.617931 0.139315
Si Si8 0.897835 0.999900 0.625230
O O1 0.409112 0.213341 0.255504
O O2 0.322212 0.298593 0.359884
O O3 0.277231 0.503319 0.223869
O O4 0.215686 0.112451 0.215124
O O5 0.360685 0.171725 0.508580
O O6 0.276754 0.210809 0.616596
O O7 0.458650 0.063445 0.666273
O O8 0.306161 0.832715 0.571419
O O9 0.124180 0.255780 0.658792
O O10 0.124819 0.098225 0.797828
O O11 0.015296 0.930699 0.653033
O O12 0.272230 0.544382 0.460852
O O13 0.169339 0.546848 0.563389
O O14 0.128985 0.825109 0.446107
O O15 0.831160 0.793145 0.592422
#
# Coordination Sequence:
#
# PCOD8118381 Si02
#       8
#     4   4   2   4   4   4   4   4
#     4  11  23  40  62  92 120 158 209 251 296 360
#     4  10  22  41  62  88 124 159 198 252 303 359
#     4  12  22  42  66  86 120 160 202 254 304 358
#     4  10  20  38  58  91 121 161 202 250 294 358
#     4  10  19  39  58  88 122 162 197 245 296 364
#     4   9  21  40  64  89 124 161 196 249 301 353
#     4  11  20  37  62  85 124 160 199 252 298 349
#     4   9  20  36  61  86 126 161 200 242 302 354
#
# _framework density 20.509820999999999
#
# number of rings (size 3 to 8) (size 9 to 14) (size 15 to 20)
#    0.000    1.867    2.667    0.800    0.000    2.667 
#    0.000   12.667    0.000    0.000    0.000    0.000 
#    0.000    0.000    0.000    0.000    0.000    0.000 
#
# Total GULP energy -371937.930408 kJ/mol
# GULP energy per Si atom -12397.931014 kJ/mol
# Density = 2.046314 g / cm^3
# Si number density = 20.509821 Si / 1000 Ang^3
#
#
#
# Elastic Constant Matrix: (Units=GPa)
#
#
# Indices 1 2 3 4 5 6 
#
# 1 103.2462 34.9789 47.9823 0.0000 2.7668 0.0000
# 2 34.9789 99.2887 51.7196 0.0000 -4.7318 0.0000
# 3 47.9823 51.7196 138.3827 0.0000 1.4034 0.0000
# 4 0.0000 0.0000 0.0000 42.8346 0.0000 -2.4283
# 5 2.7668 -4.7318 1.4034 0.0000 33.5609 0.0000
# 6 0.0000 0.0000 0.0000 -2.4283 0.0000 7.2306
#
#
#
# Elastic Compliance Matrix: (Units=1/GPa)
#
#
# Indices 1 2 3 4 5 6 
#
# 1 0.012103 -0.002662 -0.003189 0.000000 -0.001240 0.000000
# 2 -0.002662 0.013222 -0.004042 0.000000 0.002253 0.000000
# 3 -0.003189 -0.004042 0.009850 0.000000 -0.000719 0.000000
# 4 0.000000 0.000000 0.000000 0.023799 0.000000 0.007992
# 5 -0.001240 0.002253 -0.000719 0.000000 0.030246 0.000000
# 6 0.000000 0.000000 0.000000 0.007992 0.000000 0.140985
#
#
# Mechanical properties :
#
#
# Convention : Reuss Voigt Hill
#
# Bulk Modulus (GPa) = 64.97748 67.80880 66.39314
# Shear Modulus (GPa) = 19.59866 30.47434 25.03650
#
# Velocity S-wave (km/s) = 3.09459 3.85884 3.49765
# Velocity P-wave (km/s) = 6.67222 7.27926 6.98234
#
# Compressibility (1/GPa) = 0.01538995
#
# Stress axis : x y z
#
# Youngs Moduli (GPa) = 82.62677 75.63203 101.52362
#
# Poissons Ratio (x) = 0.20130 0.32377
# Poissons Ratio (y) = 0.21992 0.41032
# Poissons Ratio (z) = 0.26351 0.30567
#
# Static dielectric constant tensor:
#      x y z
#    x 3.389530 0.000000 -0.034760 
#    y 0.000000 3.811680 0.000000 
#    z -0.034760 0.000000 4.306890 
# 
# 
# High freq. dielectric constant tensor:
#      x y z
#    x 1.769170 0.000000 -0.010020 
#    y 0.000000 1.800420 0.000000 
#    z -0.010020 0.000000 1.830190 
# 
# From -- ./inp_files/67603.got.cif
#   From: 2010.06.25/outbox.cif.g09.slc.cpg/sg13_34_cif.got.tgz:67603.got - 2010.06.28 04:50:58.
