data_PCOD8118518
_publ_section_title
;
Structure prediction by ZEFSAII (Michael W. Deem and Ramdas Pophale) SiO2 
 PCOD8118518
Probable space group: P 2/C
;
_chemical_formula_sum "Si O2"
_cell_formula_units_Z 30
_cell_length_a 15.235612
_cell_length_b 8.805260
_cell_length_c 24.452446
_cell_angle_alpha 90.000000
_cell_angle_beta 153.611422
_cell_angle_gamma 90.000000
_cell_volume 1457.987381
_symmetry_space_group_name_H-M "P 2/C"
_symmetry_group_IT_number 13
_symmetry_cell_setting 'monoclinic'
loop_
_space_group_symop_operation_xyz
x,y,z
-x,y,1/2-z
-x,-y,-z
x,-y,1/2+z
loop_
_atom_site_type_symbol
_atom_site_label
_atom_site_fract_x
_atom_site_fract_y
_atom_site_fract_z
Si Si1 0.528115 0.759561 0.428465
Si Si2 0.833522 0.001135 0.068784
Si Si3 0.352522 0.540561 0.545421
Si Si4 0.936382 0.504807 0.271724
Si Si5 0.429118 0.694839 0.924458
Si Si6 0.732984 0.041387 0.229647
Si Si7 0.477539 0.822547 0.674140
Si Si8 0.000000 0.790369 0.250000
O O1 0.734826 0.845772 0.535621
O O2 0.525108 0.617179 0.384954
O O3 0.520174 0.684172 0.483862
O O4 0.342840 0.867969 0.312900
O O5 0.035750 0.043666 0.151740
O O6 0.854002 0.895563 0.133585
O O7 0.700035 0.922007 0.948798
O O8 0.385365 0.635108 0.507197
O O9 0.428046 0.644095 0.637770
O O10 0.117848 0.506062 0.416337
O O11 0.754304 0.413764 0.195457
O O12 0.000000 0.422671 0.250000
O O13 0.878869 0.681516 0.224981
O O14 0.379877 0.868876 0.881743
O O15 0.680774 0.126983 0.257385
O O16 0.500000 0.857447 0.750000
#
# Coordination Sequence:
#
# PCOD8118518 Si02
#       8
#     4   4   4   4   4   4   4   2
#     4  11  22  36  57  90 127 164 193 244 296 368
#     4  11  22  38  61  91 129 157 199 245 297 374
#     4  11  22  37  59  87 115 161 211 243 300 353
#     4  10  20  32  54  84 121 164 197 232 286 343
#     4  11  22  36  56  88 132 166 197 242 292 369
#     4  10  24  36  61  92 119 162 201 245 308 357
#     4  10  23  46  64  84 117 158 209 260 303 350
#     4  10  20  32  58  90 124 160 194 230 296 360
#
# _framework density 20.576312000000001
#
# number of rings (size 3 to 8) (size 9 to 14) (size 15 to 20)
#    0.400    1.067    2.667    2.400    3.733    0.533 
#    0.000    2.667    0.000   11.200    0.000    0.000 
#    0.000    0.000    0.000    0.000    0.000    0.000 
#
# Total GULP energy -371940.093216 kJ/mol
# GULP energy per Si atom -12398.003107 kJ/mol
# Density = 2.052948 g / cm^3
# Si number density = 20.576312 Si / 1000 Ang^3
#
#
#
# Elastic Constant Matrix: (Units=GPa)
#
#
# Indices 1 2 3 4 5 6 
#
# 1 65.9093 5.4536 29.8445 0.0000 2.5370 0.0000
# 2 5.4536 89.5267 12.0648 0.0000 -4.7036 0.0000
# 3 29.8445 12.0648 61.5018 0.0000 0.0054 0.0000
# 4 0.0000 0.0000 0.0000 26.1308 0.0000 7.3124
# 5 2.5370 -4.7036 0.0054 0.0000 37.8167 0.0000
# 6 0.0000 0.0000 0.0000 7.3124 0.0000 18.2153
#
#
#
# Elastic Compliance Matrix: (Units=1/GPa)
#
#
# Indices 1 2 3 4 5 6 
#
# 1 0.019510 0.000019 -0.009471 0.000000 -0.001305 0.000000
# 2 0.000019 0.011551 -0.002275 0.000000 0.001436 0.000000
# 3 -0.009471 -0.002275 0.021302 0.000000 0.000349 0.000000
# 4 0.000000 0.000000 0.000000 0.043112 0.000000 -0.017307
# 5 -0.001305 0.001436 0.000349 0.000000 0.026709 0.000000
# 6 0.000000 0.000000 0.000000 -0.017307 0.000000 0.061847
#
#
# Mechanical properties :
#
#
# Convention : Reuss Voigt Hill
#
# Bulk Modulus (GPa) = 34.59229 34.62928 34.61078
# Shear Modulus (GPa) = 23.02866 27.73754 25.38310
#
# Velocity S-wave (km/s) = 3.34905 3.67554 3.51609
# Velocity P-wave (km/s) = 5.63942 5.90584 5.77417
#
# Compressibility (1/GPa) = 0.02890818
#
# Stress axis : x y z
#
# Youngs Moduli (GPa) = 51.25698 86.57452 46.94414
#
# Poissons Ratio (x) = -0.00167 0.44460
# Poissons Ratio (y) = -0.00099 0.10682
# Poissons Ratio (z) = 0.48545 0.19699
#
# Static dielectric constant tensor:
#      x y z
#    x 3.494960 0.000000 0.340990 
#    y 0.000000 3.977450 0.000000 
#    z 0.340990 0.000000 3.432000 
# 
# 
# High freq. dielectric constant tensor:
#      x y z
#    x 1.770920 0.000000 0.039740 
#    y 0.000000 1.826660 0.000000 
#    z 0.039740 0.000000 1.781290 
# 
# From -- ./inp_files/87333.got.cif
#   From: 2010.06.25/outbox.cif.g09.slc.cpg/sg13_44_cif.got.tgz:87333.got - 2010.06.28 04:50:58.
