data_PCOD8118102
_publ_section_title
;
Structure prediction by ZEFSAII (Michael W. Deem and Ramdas Pophale) SiO2 
 PCOD8118102
Probable space group: P 2/C
;
_chemical_formula_sum "Si O2"
_cell_formula_units_Z 24
_cell_length_a 29.000367
_cell_length_b 9.623824
_cell_length_c 9.033602
_cell_angle_alpha 90.000000
_cell_angle_beta 29.330965
_cell_angle_gamma 90.000000
_cell_volume 1235.032811
_symmetry_space_group_name_H-M "P 2/C"
_symmetry_group_IT_number 13
_symmetry_cell_setting 'monoclinic'
loop_
_space_group_symop_operation_xyz
x,y,z
-x,y,1/2-z
-x,-y,-z
x,-y,1/2+z
loop_
_atom_site_type_symbol
_atom_site_label
_atom_site_fract_x
_atom_site_fract_y
_atom_site_fract_z
Si Si1 0.500000 0.523533 0.750000
Si Si2 0.000000 0.802423 0.750000
Si Si3 0.797671 0.126258 0.737736
Si Si4 0.801848 0.567460 0.203766
Si Si5 0.255042 0.140730 0.290720
Si Si6 0.622117 0.622823 0.150016
Si Si7 0.113175 0.636211 0.227751
O O1 0.558577 0.622136 0.475160
O O2 0.433262 0.424825 0.840531
O O3 0.091721 0.896164 0.525929
O O4 0.016096 0.697290 0.565156
O O5 0.788912 0.275148 0.679121
O O6 0.758999 0.010719 0.737553
O O7 0.734107 0.122903 0.063035
O O8 0.709319 0.480409 0.428963
O O9 0.819937 0.579662 0.327384
O O10 0.892807 0.490832 0.871846
O O11 0.164376 0.234059 0.505044
O O12 0.345920 0.218306 0.968009
#
# Coordination Sequence:
#
# PCOD8118102 Si02
#       7
#     2   2   4   4   4   4   4
#     4  10  20  32  62  86 102 132 162 224 276 302
#     4   8  18  34  50  78 112 134 184 228 254 294
#     4  10  20  33  54  76 105 147 177 216 259 294
#     4   9  18  33  53  77 106 140 173 209 261 317
#     4   9  20  35  52  75 105 142 178 209 255 319
#     4  10  19  36  56  82 107 129 174 213 261 326
#     4   9  18  31  51  75 106 142 173 220 261 295
#
# _framework density 19.432682
#
# number of rings (size 3 to 8) (size 9 to 14) (size 15 to 20)
#    0.000    3.000    0.000    3.000    0.000    9.333 
#    0.000    0.000    0.000   45.000    0.000    0.000 
#    0.000    0.000    0.000    0.000    0.000    0.000 
#
# Total GULP energy -297354.099056 kJ/mol
# GULP energy per Si atom -12389.754127 kJ/mol
# Density = 1.938845 g / cm^3
# Si number density = 19.432682 Si / 1000 Ang^3
#
#
#
# Elastic Constant Matrix: (Units=GPa)
#
#
# Indices 1 2 3 4 5 6 
#
# 1 40.9244 9.4425 8.6885 0.0000 5.9248 0.0000
# 2 9.4425 108.3790 26.7884 0.0000 21.4568 0.0000
# 3 8.6885 26.7884 90.0535 0.0000 20.6211 0.0000
# 4 0.0000 0.0000 0.0000 7.3057 0.0000 10.6675
# 5 5.9248 21.4568 20.6211 0.0000 25.0142 0.0000
# 6 0.0000 0.0000 0.0000 10.6675 0.0000 28.5688
#
#
#
# Elastic Compliance Matrix: (Units=1/GPa)
#
#
# Indices 1 2 3 4 5 6 
#
# 1 0.025541 -0.001117 -0.001191 0.000000 -0.004109 0.000000
# 2 -0.001117 0.011305 -0.001350 0.000000 -0.008320 0.000000
# 3 -0.001191 -0.001350 0.013919 0.000000 -0.010034 0.000000
# 4 0.000000 0.000000 0.000000 0.300983 0.000000 -0.112386
# 5 -0.004109 -0.008320 -0.010034 0.000000 0.056359 0.000000
# 6 0.000000 0.000000 0.000000 -0.112386 0.000000 0.076968
#
#
# Mechanical properties :
#
#
# Convention : Reuss Voigt Hill
#
# Bulk Modulus (GPa) = 23.01589 36.57731 29.79660
# Shear Modulus (GPa) = 9.86440 25.14023 17.50231
#
# Velocity S-wave (km/s) = 2.25548 3.60072 3.00436
# Velocity P-wave (km/s) = 4.31886 6.01252 5.23464
#
# Compressibility (1/GPa) = 0.04344825
#
# Stress axis : x y z
#
# Youngs Moduli (GPa) = 39.15293 88.45610 71.84577
#
# Poissons Ratio (x) = 0.09883 0.08556
# Poissons Ratio (y) = 0.04375 0.09699
# Poissons Ratio (z) = 0.04662 0.11942
#
# Static dielectric constant tensor:
#      x y z
#    x 3.264790 0.000000 0.185010 
#    y 0.000000 3.536740 0.000000 
#    z 0.185010 0.000000 3.804160 
# 
# 
# High freq. dielectric constant tensor:
#      x y z
#    x 1.731830 0.000000 0.014580 
#    y 0.000000 1.747750 0.000000 
#    z 0.014580 0.000000 1.764600 
# 
# From -- ./inp_files/24849.got.cif
#   From: 2010.06.25/outbox.cif.g09.slc.cpg/sg13_13_cif.got.tgz:24849.got - 2010.06.28 04:50:58.
