data_PCOD8118742
_publ_section_title
;
Structure prediction by ZEFSAII (Michael W. Deem and Ramdas Pophale) SiO2 
 PCOD8118742
Probable space group: P 2/C
;
_chemical_formula_sum "Si O2"
_cell_formula_units_Z 28
_cell_length_a 18.488273
_cell_length_b 11.431582
_cell_length_c 21.591798
_cell_angle_alpha 90.000000
_cell_angle_beta 17.657124
_cell_angle_gamma 90.000000
_cell_volume 1384.180230
_symmetry_space_group_name_H-M "P 2/C"
_symmetry_group_IT_number 13
_symmetry_cell_setting 'monoclinic'
loop_
_space_group_symop_operation_xyz
x,y,z
-x,y,1/2-z
-x,-y,-z
x,-y,1/2+z
loop_
_atom_site_type_symbol
_atom_site_label
_atom_site_fract_x
_atom_site_fract_y
_atom_site_fract_z
Si Si1 0.434705 0.162891 0.561325
Si Si2 0.104545 0.040537 0.349370
Si Si3 0.664120 0.776925 0.994078
Si Si4 0.698902 0.419492 0.866374
Si Si5 0.642818 0.515527 0.038204
Si Si6 0.833884 0.457236 0.510051
Si Si7 0.155654 0.196114 0.026490
O O1 0.682523 0.138792 0.321110
O O2 0.480051 0.156744 0.598931
O O3 0.325739 0.287159 0.633850
O O4 0.230477 0.068650 0.711792
O O5 0.878219 0.088973 0.494016
O O6 0.000000 0.000000 0.500000
O O7 0.622507 0.639073 0.019779
O O8 0.630861 0.815528 0.094713
O O9 0.925793 0.803804 0.757031
O O10 0.941696 0.478146 0.642817
O O11 0.500000 0.500000 0.000000
O O12 0.694628 0.418020 0.944591
O O13 0.393680 0.483399 0.273645
O O14 0.844833 0.521063 0.926666
O O15 0.822853 0.316657 0.530117
#
# Coordination Sequence:
#
# PCOD8118742 Si02
#       7
#     4   4   4   4   4   4   4
#     4  10  22  38  57  85 116 153 192 241 300 355
#     4  10  22  39  58  81 116 154 197 249 297 341
#     4   9  16  34  57  84 116 143 195 246 287 344
#     4  12  21  35  58  89 124 154 190 239 309 363
#     4  10  20  35  56  88 120 155 193 240 295 354
#     4  10  21  35  58  89 118 155 199 241 294 353
#     4   9  17  33  61  85 111 151 199 246 291 342
#
# _framework density 20.228577999999999
#
# number of rings (size 3 to 8) (size 9 to 14) (size 15 to 20)
#    0.000    2.000    2.857    1.286    2.000    1.714 
#    0.000    0.000   18.857    0.000    0.000    0.000 
#    0.000    0.000    0.000    0.000    0.000    0.000 
#
# Total GULP energy -347012.947509 kJ/mol
# GULP energy per Si atom -12393.319554 kJ/mol
# Density = 2.018254 g / cm^3
# Si number density = 20.228578 Si / 1000 Ang^3
#
#
#
# Elastic Constant Matrix: (Units=GPa)
#
#
# Indices 1 2 3 4 5 6 
#
# 1 96.4885 52.9982 34.8057 0.0000 -2.2512 0.0000
# 2 52.9982 102.7919 25.6506 0.0000 -17.4258 0.0000
# 3 34.8057 25.6506 28.9217 0.0000 -5.6559 0.0000
# 4 0.0000 0.0000 0.0000 20.8462 0.0000 2.4356
# 5 -2.2512 -17.4258 -5.6559 0.0000 35.4192 0.0000
# 6 0.0000 0.0000 0.0000 2.4356 0.0000 28.4754
#
#
#
# Elastic Compliance Matrix: (Units=1/GPa)
#
#
# Indices 1 2 3 4 5 6 
#
# 1 0.021499 -0.006766 -0.020909 0.000000 -0.005301 0.000000
# 2 -0.006766 0.015365 -0.004223 0.000000 0.006455 0.000000
# 3 -0.020909 -0.004223 0.064842 0.000000 0.006948 0.000000
# 4 0.000000 0.000000 0.000000 0.048455 0.000000 -0.004144
# 5 -0.005301 0.006455 0.006948 0.000000 0.032182 0.000000
# 6 0.000000 0.000000 0.000000 -0.004144 0.000000 0.035472
#
#
# Mechanical properties :
#
#
# Convention : Reuss Voigt Hill
#
# Bulk Modulus (GPa) = 26.37694 50.56791 38.47243
# Shear Modulus (GPa) = 16.99263 24.59801 20.79532
#
# Velocity S-wave (km/s) = 2.90147 3.49091 3.20975
# Velocity P-wave (km/s) = 4.92874 6.42659 5.72685
#
# Compressibility (1/GPa) = 0.03791190
#
# Stress axis : x y z
#
# Youngs Moduli (GPa) = 46.51450 65.08489 15.42202
#
# Poissons Ratio (x) = 0.44033 0.32246
# Poissons Ratio (y) = 0.31469 0.06512
# Poissons Ratio (z) = 0.97256 0.27482
#
# Static dielectric constant tensor:
#      x y z
#    x 2.191500 0.000000 0.623320 
#    y 0.000000 3.560640 0.000000 
#    z 0.623320 0.000000 3.499370 
# 
# 
# High freq. dielectric constant tensor:
#      x y z
#    x 1.788790 0.000000 0.001780 
#    y 0.000000 1.752190 0.000000 
#    z 0.001780 0.000000 1.806470 
# 
# From -- ./inp_files/81028.got.cif
#   From: 2010.06.25/outbox.cif.g09.slc.cpg/sg13_41_cif.got.tgz:81028.got - 2010.06.28 04:50:58.
