data_PCOD8118595
_publ_section_title
;
Structure prediction by ZEFSAII (Michael W. Deem and Ramdas Pophale) SiO2 
 PCOD8118595
Probable space group: P 2/C
;
_chemical_formula_sum "Si O2"
_cell_formula_units_Z 30
_cell_length_a 14.401890
_cell_length_b 13.055964
_cell_length_c 9.438701
_cell_angle_alpha 90.000000
_cell_angle_beta 113.763282
_cell_angle_gamma 90.000000
_cell_volume 1624.296314
_symmetry_space_group_name_H-M "P 2/C"
_symmetry_group_IT_number 13
_symmetry_cell_setting 'monoclinic'
loop_
_space_group_symop_operation_xyz
x,y,z
-x,y,1/2-z
-x,-y,-z
x,-y,1/2+z
loop_
_atom_site_type_symbol
_atom_site_label
_atom_site_fract_x
_atom_site_fract_y
_atom_site_fract_z
Si Si1 0.000000 0.253257 0.250000
Si Si2 0.567084 0.054895 0.925983
Si Si3 0.860255 0.133100 0.992354
Si Si4 0.760566 0.070897 0.435381
Si Si5 0.116756 0.793367 0.294948
Si Si6 0.114383 0.564478 0.354909
Si Si7 0.286002 0.802999 0.860452
Si Si8 0.826677 0.385856 0.286012
O O1 0.917130 0.321622 0.274401
O O2 0.030838 0.176568 0.396238
O O3 0.500000 0.082491 0.750000
O O4 0.659466 0.978853 0.940507
O O5 0.602730 0.164747 0.014050
O O6 0.500000 0.000000 0.000000
O O7 0.837812 0.157627 0.817203
O O8 0.851221 0.011372 0.002697
O O9 0.783530 0.195063 0.044249
O O10 0.804089 0.171585 0.537259
O O11 0.742126 0.104796 0.263447
O O12 0.126202 0.672159 0.284846
O O13 0.000000 0.826254 0.250000
O O14 0.191058 0.484471 0.326006
O O15 0.142310 0.575419 0.538148
O O16 0.000000 0.524957 0.250000
O O17 0.273405 0.689452 0.780516
#
# Coordination Sequence:
#
# PCOD8118595 Si02
#       8
#     2   4   4   4   4   4   4   4
#     4  10  20  34  52  74 114 158 206 250 288 330
#     4  11  22  40  68  93 118 154 191 241 307 369
#     4  10  22  33  54  76 114 163 199 233 293 348
#     4  11  22  41  56  86 128 153 196 245 290 364
#     4  11  24  37  54  83 121 167 212 244 286 345
#     4  11  22  35  57  79 112 158 216 255 288 334
#     4  10  22  39  56  86 122 146 192 251 302 361
#     4  11  22  37  54  80 115 156 205 258 293 333
#
# _framework density 18.469536000000002
#
# number of rings (size 3 to 8) (size 9 to 14) (size 15 to 20)
#    0.000    1.333    3.333    3.600    8.400    0.533 
#    0.000    0.000    0.000    0.000    0.000    4.667 
#    0.000    0.000    0.000    0.000    0.000    0.000 
#
# Total GULP energy -371738.172772 kJ/mol
# GULP energy per Si atom -12391.272426 kJ/mol
# Density = 1.842750 g / cm^3
# Si number density = 18.469536 Si / 1000 Ang^3
#
#
#
# Elastic Constant Matrix: (Units=GPa)
#
#
# Indices 1 2 3 4 5 6 
#
# 1 59.5792 35.8949 36.6859 0.0000 -0.2213 0.0000
# 2 35.8949 97.0900 39.1691 0.0000 8.6248 0.0000
# 3 36.6859 39.1691 127.8483 0.0000 3.1945 0.0000
# 4 0.0000 0.0000 0.0000 18.6672 0.0000 0.5229
# 5 -0.2213 8.6248 3.1945 0.0000 32.5291 0.0000
# 6 0.0000 0.0000 0.0000 0.5229 0.0000 24.3409
#
#
#
# Elastic Compliance Matrix: (Units=1/GPa)
#
#
# Indices 1 2 3 4 5 6 
#
# 1 0.024065 -0.007201 -0.004763 0.000000 0.002541 0.000000
# 2 -0.007201 0.014162 -0.002183 0.000000 -0.003589 0.000000
# 3 -0.004763 -0.002183 0.009868 0.000000 -0.000423 0.000000
# 4 0.000000 0.000000 0.000000 0.053602 0.000000 -0.001151
# 5 0.002541 -0.003589 -0.000423 0.000000 0.031752 0.000000
# 6 0.000000 0.000000 0.000000 -0.001151 0.000000 0.041108
#
#
# Mechanical properties :
#
#
# Convention : Reuss Voigt Hill
#
# Bulk Modulus (GPa) = 50.50230 56.44637 53.47433
# Shear Modulus (GPa) = 23.87205 26.62526 25.24866
#
# Velocity S-wave (km/s) = 3.59905 3.80093 3.70137
# Velocity P-wave (km/s) = 6.68385 7.06335 6.87622
#
# Compressibility (1/GPa) = 0.01980108
#
# Stress axis : x y z
#
# Youngs Moduli (GPa) = 41.55405 70.61396 101.34127
#
# Poissons Ratio (x) = 0.50852 0.48265
# Poissons Ratio (y) = 0.29925 0.22119
# Poissons Ratio (z) = 0.19791 0.15412
#
# Static dielectric constant tensor:
#      x y z
#    x 3.318340 0.000000 0.074180 
#    y 0.000000 4.131490 0.000000 
#    z 0.074180 0.000000 3.648420 
# 
# 
# High freq. dielectric constant tensor:
#      x y z
#    x 1.677490 0.000000 -0.015090 
#    y 0.000000 1.717650 0.000000 
#    z -0.015090 0.000000 1.737680 
# 
# From -- ./inp_files/19000.got.cif
#   From: 2010.06.25/outbox.cif.g09.slc.cpg/sg13_10_cif.got.tgz:19000.got - 2010.06.28 04:50:58.
