data_PCOD8118132
_publ_section_title
;
Structure prediction by ZEFSAII (Michael W. Deem and Ramdas Pophale) SiO2 
 PCOD8118132
Probable space group: P 2/C
;
_chemical_formula_sum "Si O2"
_cell_formula_units_Z 32
_cell_length_a 15.192860
_cell_length_b 21.166366
_cell_length_c 14.406348
_cell_angle_alpha 90.000000
_cell_angle_beta 160.322521
_cell_angle_gamma 90.000000
_cell_volume 1559.966683
_symmetry_space_group_name_H-M "P 2/C"
_symmetry_group_IT_number 13
_symmetry_cell_setting 'monoclinic'
loop_
_space_group_symop_operation_xyz
x,y,z
-x,y,1/2-z
-x,-y,-z
x,-y,1/2+z
loop_
_atom_site_type_symbol
_atom_site_label
_atom_site_fract_x
_atom_site_fract_y
_atom_site_fract_z
Si Si1 0.650149 0.345503 0.305060
Si Si2 0.520970 0.992929 0.129479
Si Si3 0.450691 0.481311 0.303537
Si Si4 0.495002 0.135405 0.349968
Si Si5 0.993751 0.174156 0.962874
Si Si6 0.139843 0.311075 0.695627
Si Si7 0.185491 0.558215 0.186354
Si Si8 0.021256 0.088445 0.168977
O O1 0.500000 0.329363 0.250000
O O2 0.740498 0.420011 0.389601
O O3 0.929128 0.310233 0.571586
O O4 0.445282 0.320055 0.024059
O O5 0.773540 0.954072 0.405120
O O6 0.558213 0.061190 0.211944
O O7 0.270709 0.957014 0.919958
O O8 0.500000 0.000000 0.000000
O O9 0.500000 0.508153 0.250000
O O10 0.382035 0.542795 0.296570
O O11 0.697897 0.445837 0.594361
O O12 0.500000 0.163641 0.250000
O O13 0.266313 0.171346 0.178205
O O14 0.769506 0.143970 0.675785
O O15 0.037908 0.140215 0.104909
O O16 0.904804 0.245203 0.901129
O O17 0.065507 0.371359 0.554862
O O18 0.000000 0.500000 0.000000
O O19 0.000000 0.120913 0.250000
#
# Coordination Sequence:
#
# PCOD8118132 Si02
#       8
#     4   4   4   4   4   4   4   4
#     4  10  20  35  57  87 115 152 198 246 300 373
#     4  12  22  43  68  96 125 159 203 261 307 355
#     4   9  19  34  57  86 117 146 190 250 313 362
#     4  12  25  41  64  95 130 161 199 247 312 366
#     4  12  25  42  60  88 128 170 205 250 297 374
#     4  11  23  37  59  83 119 162 202 245 303 358
#     4  10  19  36  59  84 115 153 197 252 308 353
#     4  12  24  42  68  92 124 165 212 256 305 351
#
# _framework density 20.513259999999999
#
# number of rings (size 3 to 8) (size 9 to 14) (size 15 to 20)
#    0.000    1.000    3.750    3.750    0.000    3.500 
#    0.000    0.000    2.750    0.000    0.000    0.000 
#    0.000    0.000    0.000    0.000    0.000    0.000 
#
# Total GULP energy -396465.155561 kJ/mol
# GULP energy per Si atom -12389.536111 kJ/mol
# Density = 2.046657 g / cm^3
# Si number density = 20.513260 Si / 1000 Ang^3
#
#
#
# Elastic Constant Matrix: (Units=GPa)
#
#
# Indices 1 2 3 4 5 6 
#
# 1 128.3461 32.4605 29.3426 0.0000 -13.4785 0.0000
# 2 32.4605 132.3185 13.5247 0.0000 4.9035 0.0000
# 3 29.3426 13.5247 82.0011 0.0000 12.6269 0.0000
# 4 0.0000 0.0000 0.0000 30.0607 0.0000 4.3047
# 5 -13.4785 4.9035 12.6269 0.0000 30.1467 0.0000
# 6 0.0000 0.0000 0.0000 4.3047 0.0000 10.9384
#
#
#
# Elastic Compliance Matrix: (Units=1/GPa)
#
#
# Indices 1 2 3 4 5 6 
#
# 1 0.010031 -0.002274 -0.004235 0.000000 0.006628 0.000000
# 2 -0.002274 0.008219 -0.000192 0.000000 -0.002273 0.000000
# 3 -0.004235 -0.000192 0.014996 0.000000 -0.008143 0.000000
# 4 0.000000 0.000000 0.000000 0.035253 0.000000 -0.013873
# 5 0.006628 -0.002273 -0.008143 0.000000 0.039915 0.000000
# 6 0.000000 0.000000 0.000000 -0.013873 0.000000 0.096881
#
#
# Mechanical properties :
#
#
# Convention : Reuss Voigt Hill
#
# Bulk Modulus (GPa) = 50.39135 54.81349 52.60242
# Shear Modulus (GPa) = 22.19158 32.05167 27.12162
#
# Velocity S-wave (km/s) = 3.29267 3.95712 3.64008
# Velocity P-wave (km/s) = 6.25093 6.90343 6.58527
#
# Compressibility (1/GPa) = 0.01984467
#
# Stress axis : x y z
#
# Youngs Moduli (GPa) = 99.69357 121.66743 66.68443
#
# Poissons Ratio (x) = 0.27661 0.28241
# Poissons Ratio (y) = 0.22665 0.01281
# Poissons Ratio (z) = 0.42220 0.02337
#
# Static dielectric constant tensor:
#      x y z
#    x 5.017410 0.000000 1.195550 
#    y 0.000000 4.256970 0.000000 
#    z 1.195550 0.000000 4.471440 
# 
# 
# High freq. dielectric constant tensor:
#      x y z
#    x 1.790970 0.000000 0.010180 
#    y 0.000000 1.797010 0.000000 
#    z 0.010180 0.000000 1.812460 
# 
# From -- ./inp_files/54022.got.cif
#   From: 2010.06.25/outbox.cif.g09.slc.cpg/sg13_28_cif.got.tgz:54022.got - 2010.06.28 04:50:58.
