data_PCOD8118969
_publ_section_title
;
Structure prediction by ZEFSAII (Michael W. Deem and Ramdas Pophale) SiO2 
 PCOD8118969
Probable space group: P 2/C
;
_chemical_formula_sum "Si O2"
_cell_formula_units_Z 26
_cell_length_a 17.455844
_cell_length_b 8.131087
_cell_length_c 9.270003
_cell_angle_alpha 90.000000
_cell_angle_beta 85.640186
_cell_angle_gamma 90.000000
_cell_volume 1311.930419
_symmetry_space_group_name_H-M "P 2/C"
_symmetry_group_IT_number 13
_symmetry_cell_setting 'monoclinic'
loop_
_space_group_symop_operation_xyz
x,y,z
-x,y,1/2-z
-x,-y,-z
x,-y,1/2+z
loop_
_atom_site_type_symbol
_atom_site_label
_atom_site_fract_x
_atom_site_fract_y
_atom_site_fract_z
Si Si1 0.000000 0.957061 0.250000
Si Si2 0.448583 0.590643 0.892641
Si Si3 0.217342 0.687724 0.830404
Si Si4 0.900238 0.883273 0.518025
Si Si5 0.239684 0.118704 0.044154
Si Si6 0.335540 0.812644 0.037175
Si Si7 0.698158 0.621285 0.177231
O O1 0.940622 0.850423 0.356107
O O2 0.958544 0.067631 0.136009
O O3 0.500000 0.640099 0.750000
O O4 0.378968 0.469843 0.861720
O O5 0.500000 0.500000 0.000000
O O6 0.420120 0.763611 0.967233
O O7 0.135474 0.709731 0.923179
O O8 0.220552 0.828552 0.709071
O O9 0.237000 0.505410 0.768719
O O10 0.279756 0.711736 0.943823
O O11 0.833370 0.021521 0.510660
O O12 0.316557 0.006075 0.033456
O O13 0.259536 0.283886 0.957195
O O14 0.324510 0.754118 0.201478
#
# Coordination Sequence:
#
# PCOD8118969 Si02
#       7
#     2   4   4   4   4   4   4
#     4  10  20  36  60  92 126 168 202 238 314 368
#     4  11  22  41  62  86 127 169 200 239 317 373
#     4  10  20  36  60  89 118 157 202 256 300 349
#     4  10  20  37  62  90 123 165 207 248 297 372
#     4  11  22  39  62  94 117 155 214 262 298 355
#     4  10  21  37  60  89 117 157 204 257 291 362
#     4  11  23  39  64  89 120 158 206 261 309 360
#
# _framework density 19.818124999999998
#
# number of rings (size 3 to 8) (size 9 to 14) (size 15 to 20)
#    0.000    1.538    3.077    3.692    4.308    0.000 
#    0.000    1.538    0.000    5.538    0.000    0.000 
#    0.000    0.000    0.000    0.000    0.000    0.000 
#
# Total GULP energy -322167.456197 kJ/mol
# GULP energy per Si atom -12391.056008 kJ/mol
# Density = 1.977302 g / cm^3
# Si number density = 19.818125 Si / 1000 Ang^3
#
#
#
# Elastic Constant Matrix: (Units=GPa)
#
#
# Indices 1 2 3 4 5 6 
#
# 1 91.2734 37.9942 46.2776 0.0000 -16.1150 0.0000
# 2 37.9942 85.9564 25.8751 0.0000 -12.7850 0.0000
# 3 46.2776 25.8751 124.6406 0.0000 -20.4941 0.0000
# 4 0.0000 0.0000 0.0000 38.0454 0.0000 0.7517
# 5 -16.1150 -12.7850 -20.4941 0.0000 44.5240 0.0000
# 6 0.0000 0.0000 0.0000 0.7517 0.0000 27.9450
#
#
#
# Elastic Compliance Matrix: (Units=1/GPa)
#
#
# Indices 1 2 3 4 5 6 
#
# 1 0.015788 -0.005333 -0.004400 0.000000 0.002158 0.000000
# 2 -0.005333 0.014489 -0.000715 0.000000 0.001901 0.000000
# 3 -0.004400 -0.000715 0.010288 0.000000 0.002938 0.000000
# 4 0.000000 0.000000 0.000000 0.026298 0.000000 -0.000707
# 5 0.002158 0.001901 0.002938 0.000000 0.025139 0.000000
# 6 0.000000 0.000000 0.000000 -0.000707 0.000000 0.035804
#
#
# Mechanical properties :
#
#
# Convention : Reuss Voigt Hill
#
# Bulk Modulus (GPa) = 50.84202 58.01823 54.43013
# Shear Modulus (GPa) = 32.20427 34.88446 33.54436
#
# Velocity S-wave (km/s) = 4.03549 4.20006 4.11860
# Velocity P-wave (km/s) = 6.88648 7.27046 7.08107
#
# Compressibility (1/GPa) = 0.01966877
#
# Stress axis : x y z
#
# Youngs Moduli (GPa) = 63.33963 69.01699 97.19850
#
# Poissons Ratio (x) = 0.36807 0.42767
# Poissons Ratio (y) = 0.33780 0.06952
# Poissons Ratio (z) = 0.27869 0.04936
#
# Static dielectric constant tensor:
#      x y z
#    x 3.916070 0.000000 -0.301810 
#    y 0.000000 3.426050 0.000000 
#    z -0.301810 0.000000 3.940580 
# 
# 
# High freq. dielectric constant tensor:
#      x y z
#    x 1.767860 0.000000 -0.005700 
#    y 0.000000 1.747260 0.000000 
#    z -0.005700 0.000000 1.799210 
# 
# From -- ./inp_files/21115.got.cif
#   From: 2010.06.25/outbox.cif.g09.slc.cpg/sg13_11_cif.got.tgz:21115.got - 2010.06.28 04:50:58.
