data_PCOD8118219
_publ_section_title
;
Structure prediction by ZEFSAII (Michael W. Deem and Ramdas Pophale) SiO2 
 PCOD8118219
Probable space group: P 2/C
;
_chemical_formula_sum "Si O2"
_cell_formula_units_Z 20
_cell_length_a 9.155083
_cell_length_b 7.550818
_cell_length_c 14.362648
_cell_angle_alpha 90.000000
_cell_angle_beta 81.889007
_cell_angle_gamma 90.000000
_cell_volume 982.934347
_symmetry_space_group_name_H-M "P 2/C"
_symmetry_group_IT_number 13
_symmetry_cell_setting 'monoclinic'
loop_
_space_group_symop_operation_xyz
x,y,z
-x,y,1/2-z
-x,-y,-z
x,-y,1/2+z
loop_
_atom_site_type_symbol
_atom_site_label
_atom_site_fract_x
_atom_site_fract_y
_atom_site_fract_z
Si Si1 0.210849 0.864839 0.156065
Si Si2 0.662235 0.434595 0.963247
Si Si3 0.117794 0.230587 0.858175
Si Si4 0.105106 0.595431 0.915282
Si Si5 0.830636 0.784445 0.935848
O O1 0.335637 0.723893 0.112852
O O2 0.204137 0.872042 0.268868
O O3 0.055329 0.810381 0.125358
O O4 0.247543 0.060617 0.115268
O O5 0.748870 0.603833 0.915324
O O6 0.500000 0.500000 0.000000
O O7 0.740545 0.353264 0.049326
O O8 0.136886 0.442731 0.835762
O O9 0.185759 0.176311 0.951986
O O10 0.006379 0.763567 0.890001
O O11 0.000000 0.500000 0.000000
#
# Coordination Sequence:
#
# PCOD8118219 Si02
#       5
#     4   4   4   4   4
#     4  11  19  33  58  86 114 141 194 234 278 339
#     4  10  20  36  56  79 112 150 186 230 283 341
#     4   9  18  34  55  87 112 142 184 244 278 323
#     4   8  15  35  56  77 107 141 184 229 281 326
#     4  10  19  37  58  81 112 150 186 235 285 330
#
# _framework density 20.347238000000001
#
# number of rings (size 3 to 8) (size 9 to 14) (size 15 to 20)
#    0.000    2.800    6.000    0.600    0.000    0.800 
#    7.200    4.000    0.000    0.000    0.000    0.000 
#    0.000    0.000    0.000    0.000    0.000    0.000 
#
# Total GULP energy -247782.066999 kJ/mol
# GULP energy per Si atom -12389.103350 kJ/mol
# Density = 2.030093 g / cm^3
# Si number density = 20.347238 Si / 1000 Ang^3
#
#
#
# Elastic Constant Matrix: (Units=GPa)
#
#
# Indices 1 2 3 4 5 6 
#
# 1 86.2089 24.5948 9.4806 0.0000 -10.1867 0.0000
# 2 24.5948 119.2288 55.1866 0.0000 -6.9649 0.0000
# 3 9.4806 55.1866 83.4767 0.0000 -4.4780 0.0000
# 4 0.0000 0.0000 0.0000 28.6214 0.0000 0.8138
# 5 -10.1867 -6.9649 -4.4780 0.0000 15.2112 0.0000
# 6 0.0000 0.0000 0.0000 0.8138 0.0000 19.8044
#
#
#
# Elastic Compliance Matrix: (Units=1/GPa)
#
#
# Indices 1 2 3 4 5 6 
#
# 1 0.013185 -0.002541 0.000603 0.000000 0.007844 0.000000
# 2 -0.002541 0.012733 -0.008035 0.000000 0.001763 0.000000
# 3 0.000603 -0.008035 0.017321 0.000000 0.001824 0.000000
# 4 0.000000 0.000000 0.000000 0.034980 0.000000 -0.001437
# 5 0.007844 0.001763 0.001824 0.000000 0.072339 0.000000
# 6 0.000000 0.000000 0.000000 -0.001437 0.000000 0.050553
#
#
# Mechanical properties :
#
#
# Convention : Reuss Voigt Hill
#
# Bulk Modulus (GPa) = 42.92972 51.93761 47.43367
# Shear Modulus (GPa) = 21.85119 26.03755 23.94437
#
# Velocity S-wave (km/s) = 3.28062 3.58111 3.43415
# Velocity P-wave (km/s) = 5.95771 6.53301 6.25198
#
# Compressibility (1/GPa) = 0.02329389
#
# Stress axis : x y z
#
# Youngs Moduli (GPa) = 75.84288 78.53328 57.73455
#
# Poissons Ratio (x) = 0.19954 -0.03482
# Poissons Ratio (y) = 0.19270 0.46389
# Poissons Ratio (z) = -0.04574 0.63101
#
# Static dielectric constant tensor:
#      x y z
#    x 3.560860 0.000000 0.095450 
#    y 0.000000 4.129800 0.000000 
#    z 0.095450 0.000000 3.452460 
# 
# 
# High freq. dielectric constant tensor:
#      x y z
#    x 1.747880 0.000000 0.006790 
#    y 0.000000 1.796950 0.000000 
#    z 0.006790 0.000000 1.769250 
# 
# From -- ./inp_files/45827.got.cif
#   From: 2010.06.25/outbox.cif.g09.slc.cpg/sg13_23_cif.got.tgz:45827.got - 2010.06.28 04:50:58.
