data_PCOD8118468
_publ_section_title
;
Structure prediction by ZEFSAII (Michael W. Deem and Ramdas Pophale) SiO2 
 PCOD8118468
Probable space group: P 2/C
;
_chemical_formula_sum "Si O2"
_cell_formula_units_Z 28
_cell_length_a 13.769924
_cell_length_b 6.365009
_cell_length_c 17.568532
_cell_angle_alpha 90.000000
_cell_angle_beta 121.300997
_cell_angle_gamma 90.000000
_cell_volume 1315.687010
_symmetry_space_group_name_H-M "P 2/C"
_symmetry_group_IT_number 13
_symmetry_cell_setting 'monoclinic'
loop_
_space_group_symop_operation_xyz
x,y,z
-x,y,1/2-z
-x,-y,-z
x,-y,1/2+z
loop_
_atom_site_type_symbol
_atom_site_label
_atom_site_fract_x
_atom_site_fract_y
_atom_site_fract_z
Si Si1 0.357973 0.564553 0.611334
Si Si2 0.799290 0.901117 0.920819
Si Si3 0.223713 0.807339 0.224178
Si Si4 0.387347 0.545216 0.803315
Si Si5 0.798441 0.193665 0.194566
Si Si6 0.071691 0.577420 0.629985
Si Si7 0.169991 0.275969 0.468126
O O1 0.298388 0.787157 0.568254
O O2 0.368199 0.566352 0.706021
O O3 0.480227 0.549055 0.620496
O O4 0.282109 0.370243 0.552692
O O5 0.880726 0.720958 0.919362
O O6 0.741379 0.033980 0.829118
O O7 0.864562 0.057382 0.004806
O O8 0.331366 0.679286 0.300793
O O9 0.124776 0.656005 0.149966
O O10 0.181873 0.947328 0.278590
O O11 0.323805 0.730006 0.822750
O O12 0.898917 0.322884 0.276248
O O13 0.802734 0.230976 0.107621
O O14 0.935665 0.563632 0.566086
#
# Coordination Sequence:
#
# PCOD8118468 Si02
#       7
#     4   4   4   4   4   4   4
#     4  11  23  40  65  94 125 168 218 267 311 377
#     4  11  21  40  60  97 124 164 213 261 317 371
#     4  10  19  43  68  89 122 171 212 258 315 377
#     4  10  21  44  64  90 126 170 217 262 318 381
#     4  10  23  43  64  92 129 167 210 260 324 388
#     4  10  22  42  64  89 131 168 207 257 316 387
#     4  12  25  40  63  98 131 163 214 266 321 375
#
# _framework density 21.281658
#
# number of rings (size 3 to 8) (size 9 to 14) (size 15 to 20)
#    0.000    1.429    5.714    0.857    0.000    8.571 
#    0.000    7.143    0.000    0.000    0.000    0.000 
#    0.000    0.000    0.000    0.000    0.000    0.000 
#
# Total GULP energy -347116.450941 kJ/mol
# GULP energy per Si atom -12397.016105 kJ/mol
# Density = 2.123322 g / cm^3
# Si number density = 21.281658 Si / 1000 Ang^3
#
#
#
# Elastic Constant Matrix: (Units=GPa)
#
#
# Indices 1 2 3 4 5 6 
#
# 1 112.8496 43.6740 54.0588 0.0000 23.7935 0.0000
# 2 43.6740 115.5622 28.6129 0.0000 0.3766 0.0000
# 3 54.0588 28.6129 75.8922 0.0000 -0.5539 0.0000
# 4 0.0000 0.0000 0.0000 18.7565 0.0000 1.7573
# 5 23.7935 0.3766 -0.5539 0.0000 35.3829 0.0000
# 6 0.0000 0.0000 0.0000 1.7573 0.0000 20.6146
#
#
#
# Elastic Compliance Matrix: (Units=1/GPa)
#
#
# Indices 1 2 3 4 5 6 
#
# 1 0.018938 -0.004138 -0.012024 0.000000 -0.012879 0.000000
# 2 -0.004138 0.010449 -0.000973 0.000000 0.002656 0.000000
# 3 -0.012024 -0.000973 0.022169 0.000000 0.008443 0.000000
# 4 0.000000 0.000000 0.000000 0.053744 0.000000 -0.004581
# 5 -0.012879 0.002656 0.008443 0.000000 0.037027 0.000000
# 6 0.000000 0.000000 0.000000 -0.004581 0.000000 0.048900
#
#
# Mechanical properties :
#
#
# Convention : Reuss Voigt Hill
#
# Bulk Modulus (GPa) = 57.84303 61.88838 59.86570
# Shear Modulus (GPa) = 21.62071 26.81466 24.21768
#
# Velocity S-wave (km/s) = 3.19083 3.55348 3.37703
# Velocity P-wave (km/s) = 6.38858 6.78086 6.58764
#
# Compressibility (1/GPa) = 0.01728817
#
# Stress axis : x y z
#
# Youngs Moduli (GPa) = 52.80346 95.69885 45.10708
#
# Poissons Ratio (x) = 0.39602 0.54235
# Poissons Ratio (y) = 0.21851 0.04387
# Poissons Ratio (z) = 0.63489 0.09307
#
# Static dielectric constant tensor:
#      x y z
#    x 3.937030 0.000000 0.114350 
#    y 0.000000 4.121300 0.000000 
#    z 0.114350 0.000000 3.734120 
# 
# 
# High freq. dielectric constant tensor:
#      x y z
#    x 1.820660 0.000000 0.001770 
#    y 0.000000 1.844150 0.000000 
#    z 0.001770 0.000000 1.821490 
# 
# From -- ./inp_files/67629.got.cif
#   From: 2010.06.25/outbox.cif.g09.slc.cpg/sg13_34_cif.got.tgz:67629.got - 2010.06.28 04:50:58.
