data_PCOD8118756
_publ_section_title
;
Structure prediction by ZEFSAII (Michael W. Deem and Ramdas Pophale) SiO2 
 PCOD8118756
Probable space group: P 2/C
;
_chemical_formula_sum "Si O2"
_cell_formula_units_Z 24
_cell_length_a 12.664633
_cell_length_b 15.496101
_cell_length_c 19.791279
_cell_angle_alpha 90.000000
_cell_angle_beta 18.182171
_cell_angle_gamma 90.000000
_cell_volume 1211.987660
_symmetry_space_group_name_H-M "P 2/C"
_symmetry_group_IT_number 13
_symmetry_cell_setting 'monoclinic'
loop_
_space_group_symop_operation_xyz
x,y,z
-x,y,1/2-z
-x,-y,-z
x,-y,1/2+z
loop_
_atom_site_type_symbol
_atom_site_label
_atom_site_fract_x
_atom_site_fract_y
_atom_site_fract_z
Si Si1 0.120676 0.919619 0.468807
Si Si2 0.277913 0.426712 0.819815
Si Si3 0.981072 0.167792 0.183785
Si Si4 0.273669 0.766030 0.283471
Si Si5 0.704034 0.256188 0.875460
Si Si6 0.607599 0.428357 0.485603
O O1 0.500000 0.943896 0.250000
O O2 0.082120 0.831243 0.449718
O O3 0.949851 0.908987 0.647146
O O4 0.000000 0.000000 0.500000
O O5 0.500000 0.416655 0.750000
O O6 0.145981 0.330077 0.881423
O O7 0.513233 0.461965 0.617023
O O8 0.000000 0.500000 0.000000
O O9 0.637873 0.221337 0.382834
O O10 0.000000 0.132721 0.250000
O O11 0.312407 0.225896 0.963635
O O12 0.174959 0.793591 0.266312
O O13 0.000000 0.256234 0.750000
O O14 0.623990 0.349534 0.895114
O O15 0.500000 0.500000 0.500000
O O16 0.000000 0.403056 0.250000
#
# Coordination Sequence:
#
# PCOD8118756 Si02
#       6
#     4   4   4   4   4   4
#     4  10  21  38  60  86 116 151 192 237 292 348
#     4  11  22  37  57  84 114 150 193 237 286 344
#     4   9  18  37  62  82 109 153 194 229 282 349
#     4   9  20  40  59  80 115 156 189 229 287 352
#     4  10  20  35  57  85 111 144 190 237 287 339
#     4  11  22  37  56  79 112 152 194 241 292 348
#
# _framework density 19.802182999999999
#
# number of rings (size 3 to 8) (size 9 to 14) (size 15 to 20)
#    0.000    2.000    0.000    5.500    0.000    4.000 
#    0.000    9.167    0.000    0.000    0.000    0.000 
#    0.000    0.000    0.000    0.000    0.000    0.000 
#
# Total GULP energy -297343.907749 kJ/mol
# GULP energy per Si atom -12389.329490 kJ/mol
# Density = 1.975711 g / cm^3
# Si number density = 19.802183 Si / 1000 Ang^3
#
#
#
# Elastic Constant Matrix: (Units=GPa)
#
#
# Indices 1 2 3 4 5 6 
#
# 1 160.5588 50.6483 59.2101 0.0000 11.9501 0.0000
# 2 50.6483 103.6719 42.8859 0.0000 14.4446 0.0000
# 3 59.2101 42.8859 87.3711 0.0000 18.1819 0.0000
# 4 0.0000 0.0000 0.0000 1.3222 0.0000 6.0026
# 5 11.9501 14.4446 18.1819 0.0000 40.5671 0.0000
# 6 0.0000 0.0000 0.0000 6.0026 0.0000 38.5051
#
#
#
# Elastic Compliance Matrix: (Units=1/GPa)
#
#
# Indices 1 2 3 4 5 6 
#
# 1 0.008718 -0.002307 -0.004866 0.000000 0.000434 0.000000
# 2 -0.002307 0.012836 -0.004332 0.000000 -0.001950 0.000000
# 3 -0.004866 -0.004332 0.017922 0.000000 -0.005056 0.000000
# 4 0.000000 0.000000 0.000000 2.587962 0.000000 -0.403439
# 5 0.000434 -0.001950 -0.005056 0.000000 0.027483 0.000000
# 6 0.000000 0.000000 0.000000 -0.403439 0.000000 0.088863
#
#
# Mechanical properties :
#
#
# Convention : Reuss Voigt Hill
#
# Bulk Modulus (GPa) = 60.72849 73.01005 66.86927
# Shear Modulus (GPa) = 1.80357 29.33605 15.56981
#
# Velocity S-wave (km/s) = 0.95539 3.85314 2.80709
# Velocity P-wave (km/s) = 5.65254 7.53295 6.65945
#
# Compressibility (1/GPa) = 0.01646673
#
# Stress axis : x y z
#
# Youngs Moduli (GPa) = 114.70348 77.90421 55.79820
#
# Poissons Ratio (x) = 0.17970 0.27153
# Poissons Ratio (y) = 0.26458 0.24170
# Poissons Ratio (z) = 0.55818 0.33746
#
# Static dielectric constant tensor:
#      x y z
#    x 3.520820 0.000000 0.108330 
#    y 0.000000 3.407940 0.000000 
#    z 0.108330 0.000000 3.484720 
# 
# 
# High freq. dielectric constant tensor:
#      x y z
#    x 1.795010 0.000000 0.020950 
#    y 0.000000 1.753960 0.000000 
#    z 0.020950 0.000000 1.762670 
# 
# From -- ./inp_files/12422.got.cif
#   From: 2010.06.25/outbox.cif.g09.slc.cpg/sg13_7_cif.got.tgz:12422.got - 2010.06.28 04:50:58.
