data_PCOD8118843
_publ_section_title
;
Structure prediction by ZEFSAII (Michael W. Deem and Ramdas Pophale) SiO2 
 PCOD8118843
Probable space group: P 2/C
;
_chemical_formula_sum "Si O2"
_cell_formula_units_Z 32
_cell_length_a 12.210631
_cell_length_b 24.044634
_cell_length_c 18.064865
_cell_angle_alpha 90.000000
_cell_angle_beta 19.305559
_cell_angle_gamma 90.000000
_cell_volume 1753.483481
_symmetry_space_group_name_H-M "P 2/C"
_symmetry_group_IT_number 13
_symmetry_cell_setting 'monoclinic'
loop_
_space_group_symop_operation_xyz
x,y,z
-x,y,1/2-z
-x,-y,-z
x,-y,1/2+z
loop_
_atom_site_type_symbol
_atom_site_label
_atom_site_fract_x
_atom_site_fract_y
_atom_site_fract_z
Si Si1 0.360536 0.864688 0.223532
Si Si2 0.477695 0.254221 0.613751
Si Si3 0.111909 0.254221 0.296641
Si Si4 0.128518 0.640119 0.285394
Si Si5 0.472876 0.640120 0.613216
Si Si6 0.024257 0.864689 0.891669
Si Si7 0.171443 0.556186 0.914280
Si Si8 0.663147 0.942703 0.918428
O O1 0.265527 0.802516 0.257615
O O2 0.087401 0.886271 0.456301
O O3 0.385717 0.908838 0.141362
O O4 0.720215 0.859485 0.029783
O O5 0.684773 0.248196 0.407615
O O6 0.228814 0.305817 0.768256
O O7 0.723882 0.263894 0.526118
O O8 0.240539 0.305816 0.262391
O O9 0.172961 0.197483 0.303893
O O10 0.783952 0.654442 0.466050
O O11 0.085942 0.589673 0.369817
O O12 0.407566 0.624198 0.046215
O O13 0.262898 0.589676 0.781343
O O14 0.277399 0.908838 0.695519
O O15 0.500000 0.541605 0.750000
O O16 0.000000 0.500000 0.000000
O O17 0.000000 0.952508 0.750000
O O18 0.500000 0.000000 0.000000
#
# Coordination Sequence:
#
# PCOD8118843 Si02
#       8
#     4   4   4   4   4   4   4   4
#     4   9  17  30  50  75 101 132 166 205 254 299
#     4   9  16  29  51  78 103 127 165 209 246 296
#     4   9  16  29  51  78 103 127 165 209 246 296
#     4   9  19  35  52  73 104 138 164 199 256 306
#     4   9  19  35  52  73 104 138 164 199 256 306
#     4   9  17  30  50  75 101 132 166 205 254 299
#     4  10  22  38  54  74 102 136 175 210 247 298
#     4  10  20  36  54  72 100 136 173 212 251 296
#
# _framework density 18.249388
#
# number of rings (size 3 to 8) (size 9 to 14) (size 15 to 20)
#    0.000    2.750    1.250    0.000    1.750    2.000 
#    0.000    1.250    0.000    1.500    0.000    0.000 
#    0.000    0.000    0.000    0.000    0.000    0.000 
#
# Total GULP energy -396724.879973 kJ/mol
# GULP energy per Si atom -12397.652499 kJ/mol
# Density = 1.820785 g / cm^3
# Si number density = 18.249388 Si / 1000 Ang^3
#
#
#
# Elastic Constant Matrix: (Units=GPa)
#
#
# Indices 1 2 3 4 5 6 
#
# 1 65.5102 71.0357 45.3381 0.0000 17.9096 0.0000
# 2 71.0357 176.5634 76.7141 0.0000 15.3944 0.0000
# 3 45.3381 76.7141 80.1684 0.0000 21.8086 0.0000
# 4 0.0000 0.0000 0.0000 27.3783 0.0000 -6.6347
# 5 17.9096 15.3944 21.8086 0.0000 23.9525 0.0000
# 6 0.0000 0.0000 0.0000 -6.6347 0.0000 29.8344
#
#
#
# Elastic Compliance Matrix: (Units=1/GPa)
#
#
# Indices 1 2 3 4 5 6 
#
# 1 0.033716 -0.009749 -0.006095 0.000000 -0.013395 0.000000
# 2 -0.009749 0.012672 -0.008480 0.000000 0.006866 0.000000
# 3 -0.006095 -0.008480 0.028330 0.000000 -0.015787 0.000000
# 4 0.000000 0.000000 0.000000 0.038606 0.000000 0.008585
# 5 -0.013395 0.006866 -0.015787 0.000000 0.061726 0.000000
# 6 0.000000 0.000000 0.000000 0.008585 0.000000 0.035428
#
#
# Mechanical properties :
#
#
# Convention : Reuss Voigt Hill
#
# Bulk Modulus (GPa) = 38.35888 78.71308 58.53598
# Shear Modulus (GPa) = 18.66958 24.84330 21.75644
#
# Velocity S-wave (km/s) = 3.20195 3.69361 3.45653
# Velocity P-wave (km/s) = 5.89363 7.83683 6.93364
#
# Compressibility (1/GPa) = 0.02606958
#
# Stress axis : x y z
#
# Youngs Moduli (GPa) = 29.65959 78.91587 35.29778
#
# Poissons Ratio (x) = 0.76932 0.21515
# Poissons Ratio (y) = 0.28914 0.29934
# Poissons Ratio (z) = 0.18078 0.66924
#
# Static dielectric constant tensor:
#      x y z
#    x 3.287570 0.000000 0.288330 
#    y 0.000000 3.316140 0.000000 
#    z 0.288330 0.000000 3.394050 
# 
# 
# High freq. dielectric constant tensor:
#      x y z
#    x 1.691010 0.000000 0.025010 
#    y 0.000000 1.704410 0.000000 
#    z 0.025010 0.000000 1.700240 
# 
# From -- ./inp_files/67020.got.cif
#   From: 2010.06.25/outbox.cif.g09.slc.cpg/sg13_34_cif.got.tgz:67020.got - 2010.06.28 04:50:58.
