data_PCOD8118500
_publ_section_title
;
Structure prediction by ZEFSAII (Michael W. Deem and Ramdas Pophale) SiO2 
 PCOD8118500
Probable space group: P 2/C
;
_chemical_formula_sum "Si O2"
_cell_formula_units_Z 28
_cell_length_a 14.268594
_cell_length_b 14.166733
_cell_length_c 9.720468
_cell_angle_alpha 90.000000
_cell_angle_beta 47.058669
_cell_angle_gamma 90.000000
_cell_volume 1438.400401
_symmetry_space_group_name_H-M "P 2/C"
_symmetry_group_IT_number 13
_symmetry_cell_setting 'monoclinic'
loop_
_space_group_symop_operation_xyz
x,y,z
-x,y,1/2-z
-x,-y,-z
x,-y,1/2+z
loop_
_atom_site_type_symbol
_atom_site_label
_atom_site_fract_x
_atom_site_fract_y
_atom_site_fract_z
Si Si1 0.645307 0.923135 0.755694
Si Si2 0.646625 0.585460 0.947430
Si Si3 0.645307 0.076865 0.953692
Si Si4 0.251604 0.785109 0.655144
Si Si5 0.646625 0.414540 0.759319
Si Si6 0.748396 0.214891 0.658352
Si Si7 1.000000 0.904449 0.590986
O O1 0.712678 0.919033 0.537322
O O2 0.648218 0.824326 0.833024
O O3 0.716278 0.000000 0.783722
O O4 0.500000 0.954332 0.877874
O O5 0.744944 0.672417 0.827241
O O6 0.694867 0.500000 0.805132
O O7 0.500000 0.615152 0.057685
O O8 0.653850 0.549538 0.096150
O O9 0.648218 0.175674 0.870540
O O10 0.294250 0.809357 0.455750
O O11 0.117517 0.834440 0.825033
O O12 0.744945 0.327583 0.682870
O O13 0.882483 0.165561 0.560066
O O14 0.000000 0.936007 0.750000
O O15 0.000000 0.000000 0.500000
#
# Coordination Sequence:
#
# PCOD8118500 Si02
#       7
#     4   4   4   4   4   4   4
#     4  10  20  32  48  73 103 133 167 211 263 318
#     4   9  18  33  54  79 106 136 170 212 264 319
#     4  10  20  32  48  73 103 133 167 211 263 318
#     4  10  20  35  54  75 102 138 178 218 262 311
#     4   9  18  33  54  79 106 136 170 212 264 319
#     4  10  20  35  54  75 102 138 178 218 262 311
#     4  10  22  38  55  76 104 140 181 224 265 308
#
# _framework density 19.466068
#
# number of rings (size 3 to 8) (size 9 to 14) (size 15 to 20)
#    0.000    2.286    0.000    2.571    0.000    7.429 
#    0.000    3.571    0.000    0.000    0.000    0.000 
#    0.000    0.000    0.000    0.000    0.000    0.000 
#
# Total GULP energy -346957.769484 kJ/mol
# GULP energy per Si atom -12391.348910 kJ/mol
# Density = 1.942176 g / cm^3
# Si number density = 19.466068 Si / 1000 Ang^3
#
#
#
# Elastic Constant Matrix: (Units=GPa)
#
#
# Indices 1 2 3 4 5 6 
#
# 1 73.2578 65.1295 51.9706 0.0000 19.6037 0.0000
# 2 65.1295 150.3405 75.7289 0.0000 22.1186 0.0000
# 3 51.9706 75.7289 96.6888 0.0000 29.2911 0.0000
# 4 0.0000 0.0000 0.0000 37.0318 0.0000 4.0675
# 5 19.6037 22.1186 29.2911 0.0000 35.5560 0.0000
# 6 0.0000 0.0000 0.0000 4.0675 0.0000 35.0825
#
#
#
# Elastic Compliance Matrix: (Units=1/GPa)
#
#
# Indices 1 2 3 4 5 6 
#
# 1 0.026215 -0.007070 -0.007338 0.000000 -0.004010 0.000000
# 2 -0.007070 0.012896 -0.006730 0.000000 0.001420 0.000000
# 3 -0.007338 -0.006730 0.022739 0.000000 -0.010500 0.000000
# 4 0.000000 0.000000 0.000000 0.027352 0.000000 -0.003171
# 5 -0.004010 0.001420 -0.010500 0.000000 0.038102 0.000000
# 6 0.000000 0.000000 0.000000 -0.003171 0.000000 0.028872
#
#
# Mechanical properties :
#
#
# Convention : Reuss Voigt Hill
#
# Bulk Modulus (GPa) = 51.09303 78.43833 64.76568
# Shear Modulus (GPa) = 24.39296 30.03128 27.21212
#
# Velocity S-wave (km/s) = 3.54376 3.93205 3.74294
# Velocity P-wave (km/s) = 6.56114 7.81006 7.21268
#
# Compressibility (1/GPa) = 0.01957214
#
# Stress axis : x y z
#
# Youngs Moduli (GPa) = 38.14548 77.54553 43.97780
#
# Poissons Ratio (x) = 0.54828 0.32272
# Poissons Ratio (y) = 0.26971 0.29597
# Poissons Ratio (z) = 0.27992 0.52189
#
# Static dielectric constant tensor:
#      x y z
#    x 3.549750 0.000000 0.275920 
#    y 0.000000 3.481870 0.000000 
#    z 0.275920 0.000000 3.681980 
# 
# 
# High freq. dielectric constant tensor:
#      x y z
#    x 1.744360 0.000000 0.020390 
#    y 0.000000 1.749880 0.000000 
#    z 0.020390 0.000000 1.754130 
# 
# From -- ./inp_files/19588.got.cif
#   From: 2010.06.25/outbox.cif.g09.slc.cpg/sg13_10_cif.got.tgz:19588.got - 2010.06.28 04:50:58.
