data_PCOD8118629
_publ_section_title
;
Structure prediction by ZEFSAII (Michael W. Deem and Ramdas Pophale) SiO2 
 PCOD8118629
Probable space group: P 2/C
;
_chemical_formula_sum "Si O2"
_cell_formula_units_Z 28
_cell_length_a 25.694194
_cell_length_b 10.255046
_cell_length_c 26.172789
_cell_angle_alpha 90.000000
_cell_angle_beta 11.397515
_cell_angle_gamma 90.000000
_cell_volume 1362.831416
_symmetry_space_group_name_H-M "P 2/C"
_symmetry_group_IT_number 13
_symmetry_cell_setting 'monoclinic'
loop_
_space_group_symop_operation_xyz
x,y,z
-x,y,1/2-z
-x,-y,-z
x,-y,1/2+z
loop_
_atom_site_type_symbol
_atom_site_label
_atom_site_fract_x
_atom_site_fract_y
_atom_site_fract_z
Si Si1 0.718149 0.979437 0.499266
Si Si2 0.581942 0.864566 0.029040
Si Si3 0.973587 0.744843 0.504347
Si Si4 0.555623 0.879319 0.498164
Si Si5 0.127876 0.412955 0.500014
Si Si6 0.657030 0.723272 0.502660
Si Si7 0.934824 0.699885 0.971907
O O1 0.705947 0.823298 0.501808
O O2 0.000000 0.018469 0.250000
O O3 0.674761 0.059447 0.489614
O O4 0.500000 0.020753 0.750000
O O5 0.298340 0.802331 0.313090
O O6 0.557094 0.964983 0.005278
O O7 0.792793 0.754584 0.812374
O O8 0.928570 0.643526 0.501960
O O9 0.722879 0.835421 0.756317
O O10 0.035097 0.666268 0.496966
O O11 0.215621 0.841266 0.260970
O O12 0.600454 0.809278 0.508115
O O13 0.130764 0.568247 0.494948
O O14 0.406212 0.367435 0.255054
O O15 0.909757 0.367334 0.750488
#
# Coordination Sequence:
#
# PCOD8118629 Si02
#       7
#     4   4   4   4   4   4   4
#     4  11  22  41  69  90 106 133 181 240 289 347
#     4  11  24  38  55  86 116 150 187 227 294 344
#     4  10  20  34  55  81 109 157 206 236 262 300
#     4   9  19  35  53  78 114 146 189 246 277 307
#     4  10  20  37  56  80 117 153 191 232 265 316
#     4   9  19  36  60  84 107 138 180 236 293 317
#     4  12  23  35  55  81 121 163 191 216 264 342
#
# _framework density 20.545459999999999
#
# number of rings (size 3 to 8) (size 9 to 14) (size 15 to 20)
#    0.000    1.714    0.000    4.714    0.000    8.000 
#    0.000    5.714    0.000   17.143    0.000    0.000 
#    0.000    0.000    0.000    0.000    0.000    0.000 
#
# Total GULP energy -347300.342689 kJ/mol
# GULP energy per Si atom -12403.583667 kJ/mol
# Density = 2.049870 g / cm^3
# Si number density = 20.545460 Si / 1000 Ang^3
#
#
#
# Elastic Constant Matrix: (Units=GPa)
#
#
# Indices 1 2 3 4 5 6 
#
# 1 37.2491 0.5054 6.0936 0.0000 -6.6238 0.0000
# 2 0.5054 85.8621 17.9536 0.0000 0.1432 0.0000
# 3 6.0936 17.9536 150.6959 0.0000 -2.5616 0.0000
# 4 0.0000 0.0000 0.0000 34.2284 0.0000 -7.4109
# 5 -6.6238 0.1432 -2.5616 0.0000 28.5514 0.0000
# 6 0.0000 0.0000 0.0000 -7.4109 0.0000 29.7797
#
#
#
# Elastic Compliance Matrix: (Units=1/GPa)
#
#
# Indices 1 2 3 4 5 6 
#
# 1 0.028160 0.000040 -0.001034 0.000000 0.006440 0.000000
# 2 0.000040 0.011945 -0.001428 0.000000 -0.000179 0.000000
# 3 -0.001034 -0.001428 0.006854 0.000000 0.000382 0.000000
# 4 0.000000 0.000000 0.000000 0.030879 0.000000 0.007685
# 5 0.006440 -0.000179 0.000382 0.000000 0.036554 0.000000
# 6 0.000000 0.000000 0.000000 0.007685 0.000000 0.035492
#
#
# Mechanical properties :
#
#
# Convention : Reuss Voigt Hill
#
# Bulk Modulus (GPa) = 23.74423 35.87914 29.81169
# Shear Modulus (GPa) = 29.62657 35.12888 32.37772
#
# Velocity S-wave (km/s) = 3.80149 4.13947 3.97408
# Velocity P-wave (km/s) = 5.55432 6.35202 5.96652
#
# Compressibility (1/GPa) = 0.04211549
#
# Stress axis : x y z
#
# Youngs Moduli (GPa) = 35.51128 83.71568 145.89407
#
# Poissons Ratio (x) = -0.00332 0.15085
# Poissons Ratio (y) = -0.00141 0.20830
# Poissons Ratio (z) = 0.03672 0.11953
#
# Static dielectric constant tensor:
#      x y z
#    x 3.556350 0.000000 -0.096810 
#    y 0.000000 3.579840 0.000000 
#    z -0.096810 0.000000 3.712190 
# 
# 
# High freq. dielectric constant tensor:
#      x y z
#    x 1.792270 0.000000 -0.002760 
#    y 0.000000 1.795980 0.000000 
#    z -0.002760 0.000000 1.822340 
# 
# From -- ./inp_files/98043.got.cif
#   From: 2010.06.25/outbox.cif.g09.slc.cpg/sg13_50_cif.got.tgz:98043.got - 2010.06.28 04:50:58.
