data_PCOD8118989
_publ_section_title
;
Structure prediction by ZEFSAII (Michael W. Deem and Ramdas Pophale) SiO2 
 PCOD8118989
Probable space group: P 2/C
;
_chemical_formula_sum "Si O2"
_cell_formula_units_Z 28
_cell_length_a 9.347668
_cell_length_b 15.711260
_cell_length_c 21.147539
_cell_angle_alpha 90.000000
_cell_angle_beta 28.019310
_cell_angle_gamma 90.000000
_cell_volume 1459.011064
_symmetry_space_group_name_H-M "P 2/C"
_symmetry_group_IT_number 13
_symmetry_cell_setting 'monoclinic'
loop_
_space_group_symop_operation_xyz
x,y,z
-x,y,1/2-z
-x,-y,-z
x,-y,1/2+z
loop_
_atom_site_type_symbol
_atom_site_label
_atom_site_fract_x
_atom_site_fract_y
_atom_site_fract_z
Si Si1 0.364713 0.730607 0.209337
Si Si2 0.981960 0.714670 0.031902
Si Si3 0.183470 0.553391 0.241035
Si Si4 0.208941 0.115479 0.402611
Si Si5 0.742824 0.911450 0.301797
Si Si6 0.178487 0.461724 0.489549
Si Si7 0.164095 0.005851 0.533931
O O1 0.685395 0.689867 0.106549
O O2 0.140125 0.752365 0.354626
O O3 0.228924 0.655678 0.218344
O O4 0.406701 0.821713 0.159921
O O5 0.209300 0.637225 0.958153
O O6 0.168402 0.783409 0.918935
O O7 0.000000 0.524021 0.250000
O O8 0.009565 0.528174 0.372654
O O9 0.497096 0.502263 0.123153
O O10 0.500000 0.088079 0.250000
O O11 0.928298 0.068560 0.478948
O O12 0.242003 0.088898 0.462702
O O13 0.481813 0.968516 0.438073
O O14 0.000000 0.885379 0.250000
O O15 0.901981 0.969613 0.185705
O O16 0.000000 0.500000 0.500000
#
# Coordination Sequence:
#
# PCOD8118989 Si02
#       7
#     4   4   4   4   4   4   4
#     4  10  20  37  62  89 114 157 204 250 301 358
#     4  10  20  36  61  87 119 148 203 257 298 354
#     4  11  23  41  64  93 129 164 204 252 314 376
#     4  11  21  35  60  83 116 149 189 259 305 344
#     4  12  23  39  59  83 123 163 199 245 297 365
#     4  11  22  40  65  94 121 163 206 258 303 366
#     4  11  23  37  57  88 112 152 203 245 301 360
#
# _framework density 19.191081000000001
#
# number of rings (size 3 to 8) (size 9 to 14) (size 15 to 20)
#    0.000    1.143    5.714    1.714    0.000    1.143 
#    0.000    0.000    0.000    0.857    0.000    0.000 
#    0.000    0.000    0.000    0.000    0.000    0.000 
#
# Total GULP energy -347018.331811 kJ/mol
# GULP energy per Si atom -12393.511850 kJ/mol
# Density = 1.914740 g / cm^3
# Si number density = 19.191081 Si / 1000 Ang^3
#
#
#
# Elastic Constant Matrix: (Units=GPa)
#
#
# Indices 1 2 3 4 5 6 
#
# 1 91.2368 40.1426 21.3957 0.0000 -6.2074 0.0000
# 2 40.1426 102.7722 49.5684 0.0000 -5.1226 0.0000
# 3 21.3957 49.5684 89.0284 0.0000 -5.8241 0.0000
# 4 0.0000 0.0000 0.0000 32.9567 0.0000 -1.6889
# 5 -6.2074 -5.1226 -5.8241 0.0000 30.0123 0.0000
# 6 0.0000 0.0000 0.0000 -1.6889 0.0000 22.6979
#
#
#
# Elastic Compliance Matrix: (Units=1/GPa)
#
#
# Indices 1 2 3 4 5 6 
#
# 1 0.013347 -0.004966 -0.000322 0.000000 0.001850 0.000000
# 2 -0.004966 0.015171 -0.007243 0.000000 0.000157 0.000000
# 3 -0.000322 -0.007243 0.015453 0.000000 0.001696 0.000000
# 4 0.000000 0.000000 0.000000 0.030459 0.000000 0.002266
# 5 0.001850 0.000157 0.001696 0.000000 0.034058 0.000000
# 6 0.000000 0.000000 0.000000 0.002266 0.000000 0.044226
#
#
# Mechanical properties :
#
#
# Convention : Reuss Voigt Hill
#
# Bulk Modulus (GPa) = 52.88223 56.13900 54.51061
# Shear Modulus (GPa) = 27.16227 28.59543 27.87885
#
# Velocity S-wave (km/s) = 3.76621 3.86429 3.81556
# Velocity P-wave (km/s) = 6.82113 7.01616 6.91933
#
# Compressibility (1/GPa) = 0.01890994
#
# Stress axis : x y z
#
# Youngs Moduli (GPa) = 74.92499 65.91434 64.71052
#
# Poissons Ratio (x) = 0.32732 0.02082
# Poissons Ratio (y) = 0.37206 0.46871
# Poissons Ratio (z) = 0.02410 0.47743
#
# Static dielectric constant tensor:
#      x y z
#    x 4.323630 0.000000 0.577410 
#    y 0.000000 3.507480 0.000000 
#    z 0.577410 0.000000 3.894160 
# 
# 
# High freq. dielectric constant tensor:
#      x y z
#    x 1.739170 0.000000 -0.004580 
#    y 0.000000 1.752110 0.000000 
#    z -0.004580 0.000000 1.742760 
# 
# From -- ./inp_files/76718.got.cif
#   From: 2010.06.25/outbox.cif.g09.slc.cpg/sg13_39_cif.got.tgz:76718.got - 2010.06.28 04:50:58.
