data_PCOD8118388
_publ_section_title
;
Structure prediction by ZEFSAII (Michael W. Deem and Ramdas Pophale) SiO2 
 PCOD8118388
Probable space group: P 2/C
;
_chemical_formula_sum "Si O2"
_cell_formula_units_Z 32
_cell_length_a 23.065582
_cell_length_b 14.553336
_cell_length_c 8.608229
_cell_angle_alpha 90.000000
_cell_angle_beta 149.632485
_cell_angle_gamma 90.000000
_cell_volume 1460.832141
_symmetry_space_group_name_H-M "P 2/C"
_symmetry_group_IT_number 13
_symmetry_cell_setting 'monoclinic'
loop_
_space_group_symop_operation_xyz
x,y,z
-x,y,1/2-z
-x,-y,-z
x,-y,1/2+z
loop_
_atom_site_type_symbol
_atom_site_label
_atom_site_fract_x
_atom_site_fract_y
_atom_site_fract_z
Si Si1 0.990264 0.214871 0.545983
Si Si2 0.150489 0.627503 0.344686
Si Si3 0.423195 0.233882 0.818823
Si Si4 0.235146 0.499924 0.300057
Si Si5 0.342721 0.231042 0.289520
Si Si6 0.819628 0.075945 0.504818
Si Si7 0.614904 0.416687 0.597643
Si Si8 0.776523 0.887517 0.558010
O O1 0.037341 0.308833 0.577496
O O2 0.000000 0.232461 0.750000
O O3 0.857944 0.197751 0.190911
O O4 0.063510 0.124166 0.663058
O O5 0.139867 0.546883 0.191969
O O6 0.174053 0.585765 0.571492
O O7 0.258238 0.689155 0.538927
O O8 0.379706 0.261927 0.547821
O O9 0.404910 0.311549 0.904090
O O10 0.355551 0.144969 0.730604
O O11 0.558425 0.216594 0.110251
O O12 0.347599 0.470920 0.660181
O O13 0.279818 0.573804 0.278418
O O14 0.285798 0.131614 0.167151
O O15 0.825922 0.079269 0.335045
O O16 0.796177 0.970258 0.486342
O O17 0.500000 0.457575 0.250000
#
# Coordination Sequence:
#
# PCOD8118388 Si02
#       8
#     4   4   4   4   4   4   4   4
#     4   9  19  36  66  83 113 153 200 236 301 353
#     4  10  19  39  60  87 116 156 196 250 288 355
#     4  10  20  35  57  82 123 160 195 232 294 359
#     4  10  22  35  60  84 119 152 202 245 298 339
#     4   9  18  35  58  83 116 165 195 230 294 361
#     4   9  19  36  60  86 115 150 199 241 292 348
#     4  11  21  36  55  86 118 156 199 243 286 345
#     4  10  20  38  61  88 115 156 193 244 290 360
#
# _framework density 21.905325000000001
#
# number of rings (size 3 to 8) (size 9 to 14) (size 15 to 20)
#    0.000    2.250    1.250    2.250    0.000    1.500 
#    6.750    0.625    0.000    0.000    0.000    0.000 
#    0.000    0.000    0.000    0.000    0.000    0.000 
#
# Total GULP energy -396580.995292 kJ/mol
# GULP energy per Si atom -12393.156103 kJ/mol
# Density = 2.185547 g / cm^3
# Si number density = 21.905325 Si / 1000 Ang^3
#
#
#
# Elastic Constant Matrix: (Units=GPa)
#
#
# Indices 1 2 3 4 5 6 
#
# 1 96.3084 56.0537 35.5404 0.0000 13.5996 0.0000
# 2 56.0537 100.4351 35.7395 0.0000 10.7933 0.0000
# 3 35.5404 35.7395 51.9623 0.0000 11.0609 0.0000
# 4 0.0000 0.0000 0.0000 17.9344 0.0000 5.2670
# 5 13.5996 10.7933 11.0609 0.0000 25.6823 0.0000
# 6 0.0000 0.0000 0.0000 5.2670 0.0000 37.8210
#
#
#
# Elastic Compliance Matrix: (Units=1/GPa)
#
#
# Indices 1 2 3 4 5 6 
#
# 1 0.017279 -0.007053 -0.006221 0.000000 -0.003507 0.000000
# 2 -0.007053 0.016138 -0.006195 0.000000 -0.000379 0.000000
# 3 -0.006221 -0.006195 0.029180 0.000000 -0.006670 0.000000
# 4 0.000000 0.000000 0.000000 0.058136 0.000000 -0.008096
# 5 -0.003507 -0.000379 -0.006670 0.000000 0.043826 0.000000
# 6 0.000000 0.000000 0.000000 -0.008096 0.000000 0.027568
#
#
# Mechanical properties :
#
#
# Convention : Reuss Voigt Hill
#
# Bulk Modulus (GPa) = 42.26588 55.93034 49.09811
# Shear Modulus (GPa) = 20.92463 24.37904 22.65184
#
# Velocity S-wave (km/s) = 3.09403 3.33968 3.21920
# Velocity P-wave (km/s) = 5.66575 6.36077 6.02330
#
# Compressibility (1/GPa) = 0.02365975
#
# Stress axis : x y z
#
# Youngs Moduli (GPa) = 57.87300 61.96409 34.26980
#
# Poissons Ratio (x) = 0.43704 0.21319
# Poissons Ratio (y) = 0.40819 0.21230
# Poissons Ratio (z) = 0.36002 0.38387
#
# Static dielectric constant tensor:
#      x y z
#    x 3.966880 0.000000 0.192530 
#    y 0.000000 3.781900 0.000000 
#    z 0.192530 0.000000 3.915200 
# 
# 
# High freq. dielectric constant tensor:
#      x y z
#    x 1.866370 0.000000 0.011490 
#    y 0.000000 1.851390 0.000000 
#    z 0.011490 0.000000 1.835080 
# 
# From -- ./inp_files/24252.got.cif
#   From: 2010.06.25/outbox.cif.g09.slc.cpg/sg13_13_cif.got.tgz:24252.got - 2010.06.28 04:50:58.
