data_PCOD8118090
_publ_section_title
;
Structure prediction by ZEFSAII (Michael W. Deem and Ramdas Pophale) SiO2 
 PCOD8118090
Probable space group: P 2/C
;
_chemical_formula_sum "Si O2"
_cell_formula_units_Z 32
_cell_length_a 18.282671
_cell_length_b 18.786043
_cell_length_c 17.590173
_cell_angle_alpha 90.000000
_cell_angle_beta 163.897568
_cell_angle_gamma 90.000000
_cell_volume 1675.643967
_symmetry_space_group_name_H-M "P 2/C"
_symmetry_group_IT_number 13
_symmetry_cell_setting 'monoclinic'
loop_
_space_group_symop_operation_xyz
x,y,z
-x,y,1/2-z
-x,-y,-z
x,-y,1/2+z
loop_
_atom_site_type_symbol
_atom_site_label
_atom_site_fract_x
_atom_site_fract_y
_atom_site_fract_z
Si Si1 0.748643 0.906765 0.949925
Si Si2 0.629750 0.333543 0.158693
Si Si3 0.868074 0.674727 0.434157
Si Si4 0.246540 0.926068 0.045320
Si Si5 0.361329 0.829193 0.816002
Si Si6 0.859518 0.162513 0.912077
Si Si7 0.000358 0.452838 0.161260
Si Si8 0.493273 0.477045 0.406302
O O1 0.500000 0.883083 0.750000
O O2 0.728549 0.868251 0.849496
O O3 0.753299 0.990353 0.937985
O O4 0.000000 0.882112 0.250000
O O5 0.623514 0.254680 0.187348
O O6 0.534987 0.390907 0.126774
O O7 0.929688 0.346918 0.431302
O O8 0.430519 0.343404 0.888319
O O9 0.869654 0.757928 0.455777
O O10 0.963658 0.630141 0.602577
O O11 0.500000 0.901900 0.250000
O O12 0.227257 0.889396 0.107638
O O13 0.000000 0.901449 0.750000
O O14 0.150450 0.852343 0.669814
O O15 0.650197 0.850529 0.134936
O O16 0.000000 0.457816 0.250000
O O17 0.258922 0.491238 0.389101
O O18 0.761795 0.495264 0.889077
O O19 0.500000 0.500000 0.500000
#
# Coordination Sequence:
#
# PCOD8118090 Si02
#       8
#     4   4   4   4   4   4   4   4
#     4  10  21  38  59  81 113 154 193 232 289 348
#     4  10  20  35  59  82 104 140 196 228 269 341
#     4  10  19  36  54  81 110 146 181 223 282 338
#     4  10  21  37  56  82 115 155 194 227 280 354
#     4  10  21  37  57  87 113 142 191 244 278 333
#     4  10  21  35  58  85 116 145 187 236 279 330
#     4  12  24  37  55  87 119 143 187 241 284 333
#     4  12  21  38  63  80 105 156 196 227 280 345
#
# _framework density 19.097135000000002
#
# number of rings (size 3 to 8) (size 9 to 14) (size 15 to 20)
#    0.000    1.500    2.500    3.000    0.000    1.500 
#    0.000    3.125    0.000    0.000    0.000    0.000 
#    0.000    0.000    0.000    0.000    0.000    0.000 
#
# Total GULP energy -396736.138404 kJ/mol
# GULP energy per Si atom -12398.004325 kJ/mol
# Density = 1.905367 g / cm^3
# Si number density = 19.097135 Si / 1000 Ang^3
#
#
#
# Elastic Constant Matrix: (Units=GPa)
#
#
# Indices 1 2 3 4 5 6 
#
# 1 120.4701 57.8870 52.5728 0.0000 -8.3480 0.0000
# 2 57.8870 79.0408 39.3704 0.0000 -6.0343 0.0000
# 3 52.5728 39.3704 138.7833 0.0000 4.8429 0.0000
# 4 0.0000 0.0000 0.0000 56.6919 0.0000 5.3212
# 5 -8.3480 -6.0343 4.8429 0.0000 33.0294 0.0000
# 6 0.0000 0.0000 0.0000 5.3212 0.0000 24.2933
#
#
#
# Elastic Compliance Matrix: (Units=1/GPa)
#
#
# Indices 1 2 3 4 5 6 
#
# 1 0.013811 -0.008486 -0.002907 0.000000 0.002367 0.000000
# 2 -0.008486 0.020320 -0.002618 0.000000 0.001951 0.000000
# 3 -0.002907 -0.002618 0.009138 0.000000 -0.002553 0.000000
# 4 0.000000 0.000000 0.000000 0.018009 0.000000 -0.003945
# 5 0.002367 0.001951 -0.002553 0.000000 0.031605 0.000000
# 6 0.000000 0.000000 0.000000 -0.003945 0.000000 0.042028
#
#
# Mechanical properties :
#
#
# Convention : Reuss Voigt Hill
#
# Bulk Modulus (GPa) = 65.58572 70.88384 68.23478
# Shear Modulus (GPa) = 29.75919 35.36718 32.56318
#
# Velocity S-wave (km/s) = 3.95182 4.30811 4.13381
# Velocity P-wave (km/s) = 7.43238 7.87049 7.65457
#
# Compressibility (1/GPa) = 0.01524722
#
# Stress axis : x y z
#
# Youngs Moduli (GPa) = 72.40557 49.21365 109.42852
#
# Poissons Ratio (x) = 0.41763 0.31811
# Poissons Ratio (y) = 0.61444 0.28646
# Poissons Ratio (z) = 0.21048 0.12883
#
# Static dielectric constant tensor:
#      x y z
#    x 4.057130 0.000000 -0.176050 
#    y 0.000000 3.708240 0.000000 
#    z -0.176050 0.000000 3.865950 
# 
# 
# High freq. dielectric constant tensor:
#      x y z
#    x 1.722680 0.000000 0.008370 
#    y 0.000000 1.747700 0.000000 
#    z 0.008370 0.000000 1.768350 
# 
# From -- ./inp_files/54016.got.cif
#   From: 2010.06.25/outbox.cif.g09.slc.cpg/sg13_28_cif.got.tgz:54016.got - 2010.06.28 04:50:58.
