data_PCOD8118478
_publ_section_title
;
Structure prediction by ZEFSAII (Michael W. Deem and Ramdas Pophale) SiO2 
 PCOD8118478
Probable space group: P 2/C
;
_chemical_formula_sum "Si O2"
_cell_formula_units_Z 24
_cell_length_a 23.868014
_cell_length_b 5.003744
_cell_length_c 26.471900
_cell_angle_alpha 90.000000
_cell_angle_beta 23.211174
_cell_angle_gamma 90.000000
_cell_volume 1246.023480
_symmetry_space_group_name_H-M "P 2/C"
_symmetry_group_IT_number 13
_symmetry_cell_setting 'monoclinic'
loop_
_space_group_symop_operation_xyz
x,y,z
-x,y,1/2-z
-x,-y,-z
x,-y,1/2+z
loop_
_atom_site_type_symbol
_atom_site_label
_atom_site_fract_x
_atom_site_fract_y
_atom_site_fract_z
Si Si1 0.388086 0.911412 0.634804
Si Si2 0.781437 0.292537 0.310731
Si Si3 0.517469 0.386238 0.889568
Si Si4 0.594355 0.695700 0.124826
Si Si5 0.216227 0.792927 0.039826
Si Si6 0.083976 0.784513 0.256616
O O1 0.247550 0.797239 0.723405
O O2 0.448622 0.687345 0.622329
O O3 0.500000 0.000000 0.500000
O O4 0.362018 0.178958 0.689603
O O5 0.633766 0.308105 0.462278
O O6 0.864542 0.574662 0.243365
O O7 0.880937 0.081497 0.255601
O O8 0.510911 0.354777 0.834956
O O9 0.500000 0.789047 0.250000
O O10 0.670318 0.417505 0.074773
O O11 0.714370 0.915562 0.014491
O O12 0.164908 0.707608 0.138029
O O13 0.084982 0.784395 0.110050
#
# Coordination Sequence:
#
# PCOD8118478 Si02
#       6
#     4   4   4   4   4   4
#     4  10  20  30  51  79 114 146 174 218 281 341
#     4  11  18  32  52  84 112 145 173 214 289 338
#     4  11  19  34  50  78 115 145 180 226 267 327
#     4  12  24  39  58  79 111 154 192 225 266 320
#     4  11  22  38  53  83 111 146 188 224 277 327
#     4  11  20  33  58  80 115 146 171 227 283 335
#
# _framework density 19.261272999999999
#
# number of rings (size 3 to 8) (size 9 to 14) (size 15 to 20)
#    0.000    1.000    3.333    7.500    0.000    2.667 
#    0.000    0.000    0.000    0.000    0.000   23.333 
#    0.000    0.000    0.000    0.000    0.000    0.000 
#
# Total GULP energy -297605.834511 kJ/mol
# GULP energy per Si atom -12400.243105 kJ/mol
# Density = 1.921743 g / cm^3
# Si number density = 19.261273 Si / 1000 Ang^3
#
#
#
# Elastic Constant Matrix: (Units=GPa)
#
#
# Indices 1 2 3 4 5 6 
#
# 1 85.1065 17.8765 25.4529 0.0000 -13.9203 0.0000
# 2 17.8765 101.7560 7.4190 0.0000 -3.1929 0.0000
# 3 25.4529 7.4190 35.8769 0.0000 -3.9192 0.0000
# 4 0.0000 0.0000 0.0000 6.0920 0.0000 -11.1019
# 5 -13.9203 -3.1929 -3.9192 0.0000 18.6322 0.0000
# 6 0.0000 0.0000 0.0000 -11.1019 0.0000 43.6478
#
#
#
# Elastic Compliance Matrix: (Units=1/GPa)
#
#
# Indices 1 2 3 4 5 6 
#
# 1 0.016953 -0.001893 -0.010530 0.000000 0.010127 0.000000
# 2 -0.001893 0.010220 -0.000751 0.000000 0.000179 0.000000
# 3 -0.010530 -0.000751 0.035440 0.000000 -0.000541 0.000000
# 4 0.000000 0.000000 0.000000 0.305974 0.000000 0.077825
# 5 0.010127 0.000179 -0.000541 0.000000 0.061153 0.000000
# 6 0.000000 0.000000 0.000000 0.077825 0.000000 0.042706
#
#
# Mechanical properties :
#
#
# Convention : Reuss Voigt Hill
#
# Bulk Modulus (GPa) = 27.57414 36.02624 31.80019
# Shear Modulus (GPa) = 9.78700 25.14047 17.46373
#
# Velocity S-wave (km/s) = 2.25659 3.61672 3.01437
# Velocity P-wave (km/s) = 4.59745 6.01544 5.35360
#
# Compressibility (1/GPa) = 0.03626587
#
# Stress axis : x y z
#
# Youngs Moduli (GPa) = 58.98642 97.84402 28.21703
#
# Poissons Ratio (x) = 0.18520 0.29712
# Poissons Ratio (y) = 0.11165 0.02119
# Poissons Ratio (z) = 0.62111 0.07348
#
# Static dielectric constant tensor:
#      x y z
#    x 3.978850 0.000000 -0.289510 
#    y 0.000000 3.762530 0.000000 
#    z -0.289510 0.000000 2.880260 
# 
# 
# High freq. dielectric constant tensor:
#      x y z
#    x 1.759840 0.000000 -0.029880 
#    y 0.000000 1.775150 0.000000 
#    z -0.029880 0.000000 1.683050 
# 
# From -- ./inp_files/93698.got.cif
#   From: 2010.06.25/outbox.cif.g09.slc.cpg/sg13_47_cif.got.tgz:93698.got - 2010.06.28 04:50:58.
