data_PCOD8118419
_publ_section_title
;
Structure prediction by ZEFSAII (Michael W. Deem and Ramdas Pophale) SiO2 
 PCOD8118419
Probable space group: P 2/C
;
_chemical_formula_sum "Si O2"
_cell_formula_units_Z 24
_cell_length_a 19.477953
_cell_length_b 7.419558
_cell_length_c 24.066429
_cell_angle_alpha 90.000000
_cell_angle_beta 19.445788
_cell_angle_gamma 90.000000
_cell_volume 1157.886815
_symmetry_space_group_name_H-M "P 2/C"
_symmetry_group_IT_number 13
_symmetry_cell_setting 'monoclinic'
loop_
_space_group_symop_operation_xyz
x,y,z
-x,y,1/2-z
-x,-y,-z
x,-y,1/2+z
loop_
_atom_site_type_symbol
_atom_site_label
_atom_site_fract_x
_atom_site_fract_y
_atom_site_fract_z
Si Si1 0.215249 0.573084 0.359640
Si Si2 0.222229 0.985099 0.556689
Si Si3 0.701405 0.139935 0.309274
Si Si4 0.847553 0.914102 0.015983
Si Si5 0.525256 0.214532 0.551408
Si Si6 0.605355 0.220347 0.265762
O O1 0.185007 0.723682 0.429559
O O2 0.344742 0.653593 0.208690
O O3 0.348538 0.421042 0.292043
O O4 0.000000 0.500000 0.500000
O O5 0.220576 0.909268 0.495680
O O6 0.310808 0.816643 0.524249
O O7 0.000000 0.042426 0.750000
O O8 0.364278 0.166113 0.451418
O O9 0.633271 0.277121 0.411205
O O10 0.713489 0.253516 0.243596
O O11 0.542266 0.985257 0.414209
O O12 0.911982 0.038631 0.164485
O O13 0.721469 0.066963 0.143456
#
# Coordination Sequence:
#
# PCOD8118419 Si02
#       6
#     4   4   4   4   4   4
#     4  12  24  42  69 104 131 171 226 280 342 399
#     4  11  23  45  67  92 131 185 224 269 340 402
#     4  10  19  39  68  97 127 174 222 275 332 395
#     4  12  22  43  69  94 136 178 220 280 340 397
#     4  10  22  40  67  96 136 174 222 275 333 400
#     4  11  24  42  66 100 133 170 229 276 334 406
#
# _framework density 20.727416999999999
#
# number of rings (size 3 to 8) (size 9 to 14) (size 15 to 20)
#    0.000    1.000    6.667    2.000    0.000    0.667 
#    6.000    0.833    0.000    0.000    0.000    0.000 
#    0.000    0.000    0.000    0.000    0.000    0.000 
#
# Total GULP energy -297399.453730 kJ/mol
# GULP energy per Si atom -12391.643905 kJ/mol
# Density = 2.068024 g / cm^3
# Si number density = 20.727417 Si / 1000 Ang^3
#
#
#
# Elastic Constant Matrix: (Units=GPa)
#
#
# Indices 1 2 3 4 5 6 
#
# 1 166.5379 44.9278 58.7253 0.0000 14.0725 0.0000
# 2 44.9278 104.6604 44.6112 0.0000 11.2644 0.0000
# 3 58.7253 44.6112 145.7911 0.0000 10.4191 0.0000
# 4 0.0000 0.0000 0.0000 26.1037 0.0000 -2.1667
# 5 14.0725 11.2644 10.4191 0.0000 28.4078 0.0000
# 6 0.0000 0.0000 0.0000 -2.1667 0.0000 4.2818
#
#
#
# Elastic Compliance Matrix: (Units=1/GPa)
#
#
# Indices 1 2 3 4 5 6 
#
# 1 0.007529 -0.002045 -0.002258 0.000000 -0.002091 0.000000
# 2 -0.002045 0.011835 -0.002603 0.000000 -0.002725 0.000000
# 3 -0.002258 -0.002603 0.008638 0.000000 -0.001017 0.000000
# 4 0.000000 0.000000 0.000000 0.039988 0.000000 0.020235
# 5 -0.002091 -0.002725 -0.001017 0.000000 0.037691 0.000000
# 6 0.000000 0.000000 0.000000 0.020235 0.000000 0.243788
#
#
# Mechanical properties :
#
#
# Convention : Reuss Voigt Hill
#
# Bulk Modulus (GPa) = 70.46615 79.27980 74.87297
# Shear Modulus (GPa) = 13.58654 29.67365 21.63010
#
# Velocity S-wave (km/s) = 2.56302 3.78777 3.23391
# Velocity P-wave (km/s) = 6.54440 7.58033 7.08133
#
# Compressibility (1/GPa) = 0.01419121
#
# Stress axis : x y z
#
# Youngs Moduli (GPa) = 132.81953 84.49257 115.77030
#
# Poissons Ratio (x) = 0.17276 0.26137
# Poissons Ratio (y) = 0.27157 0.30137
# Poissons Ratio (z) = 0.29986 0.21995
#
# Static dielectric constant tensor:
#      x y z
#    x 4.481760 0.000000 0.296150 
#    y 0.000000 3.597810 0.000000 
#    z 0.296150 0.000000 4.065980 
# 
# 
# High freq. dielectric constant tensor:
#      x y z
#    x 1.822140 0.000000 0.007650 
#    y 0.000000 1.786110 0.000000 
#    z 0.007650 0.000000 1.826340 
# 
# From -- ./inp_files/87988.got.cif
#   From: 2010.06.25/outbox.cif.g09.slc.cpg/sg13_44_cif.got.tgz:87988.got - 2010.06.28 04:50:58.
