data_PCOD8118955
_publ_section_title
;
Structure prediction by ZEFSAII (Michael W. Deem and Ramdas Pophale) SiO2 
 PCOD8118955
Probable space group: P 2/C
;
_chemical_formula_sum "Si O2"
_cell_formula_units_Z 30
_cell_length_a 19.874294
_cell_length_b 8.898360
_cell_length_c 16.033201
_cell_angle_alpha 90.000000
_cell_angle_beta 30.664760
_cell_angle_gamma 90.000000
_cell_volume 1446.118852
_symmetry_space_group_name_H-M "P 2/C"
_symmetry_group_IT_number 13
_symmetry_cell_setting 'monoclinic'
loop_
_space_group_symop_operation_xyz
x,y,z
-x,y,1/2-z
-x,-y,-z
x,-y,1/2+z
loop_
_atom_site_type_symbol
_atom_site_label
_atom_site_fract_x
_atom_site_fract_y
_atom_site_fract_z
Si Si1 0.139315 0.104808 0.422940
Si Si2 0.712363 0.942624 0.571802
Si Si3 0.586427 0.446503 0.558979
Si Si4 0.169788 0.924321 0.235228
Si Si5 0.500000 0.170783 0.750000
Si Si6 0.820414 0.593468 0.242659
Si Si7 0.901926 0.438246 0.000442
Si Si8 0.669155 0.401922 0.137181
O O1 0.194169 0.028290 0.448950
O O2 0.156783 0.283764 0.398760
O O3 0.986046 0.070597 0.591879
O O4 0.214916 0.038765 0.260582
O O5 0.786166 0.967754 0.404855
O O6 0.652714 0.776986 0.649213
O O7 0.598329 0.066212 0.696877
O O8 0.569761 0.274098 0.605079
O O9 0.700680 0.471518 0.369183
O O10 0.446590 0.522948 0.681940
O O11 0.651465 0.539952 0.563971
O O12 0.232572 0.762000 0.189620
O O13 0.882493 0.576696 0.084566
O O14 0.939368 0.569614 0.184477
O O15 0.814419 0.460216 0.010657
#
# Coordination Sequence:
#
# PCOD8118955 Si02
#       8
#     4   4   4   4   2   4   4   4
#     4   9  21  38  58  91 122 146 199 242 295 359
#     4  11  20  38  62  84 116 161 195 244 296 353
#     4  10  21  38  57  83 113 154 192 249 291 351
#     4  10  20  36  63  88 118 157 190 245 296 356
#     4  10  24  36  58  80 122 152 202 252 292 342
#     4  10  20  36  60  85 116 151 193 235 307 347
#     4   9  20  36  58  87 117 148 186 251 287 360
#     4   9  19  37  59  82 113 147 199 234 294 352
#
# _framework density 20.745183999999998
#
# number of rings (size 3 to 8) (size 9 to 14) (size 15 to 20)
#    0.000    2.400    1.333    1.200    1.867    3.200 
#    0.000    0.667    5.867    0.000    0.000    0.000 
#    0.000    0.000    0.000    0.000    0.000    0.000 
#
# Total GULP energy -371645.155857 kJ/mol
# GULP energy per Si atom -12388.171862 kJ/mol
# Density = 2.069797 g / cm^3
# Si number density = 20.745184 Si / 1000 Ang^3
#
#
#
# Elastic Constant Matrix: (Units=GPa)
#
#
# Indices 1 2 3 4 5 6 
#
# 1 79.9322 24.3684 8.5794 0.0000 6.6032 0.0000
# 2 24.3684 73.0140 10.9664 0.0000 -3.6623 0.0000
# 3 8.5794 10.9664 50.3616 0.0000 1.3191 0.0000
# 4 0.0000 0.0000 0.0000 24.6800 0.0000 1.9259
# 5 6.6032 -3.6623 1.3191 0.0000 26.6723 0.0000
# 6 0.0000 0.0000 0.0000 1.9259 0.0000 25.4743
#
#
#
# Elastic Compliance Matrix: (Units=1/GPa)
#
#
# Indices 1 2 3 4 5 6 
#
# 1 0.014473 -0.004845 -0.001301 0.000000 -0.004184 0.000000
# 2 -0.004845 0.015899 -0.002729 0.000000 0.003517 0.000000
# 3 -0.001301 -0.002729 0.020700 0.000000 -0.001076 0.000000
# 4 0.000000 0.000000 0.000000 0.040759 0.000000 -0.003081
# 5 -0.004184 0.003517 -0.001076 0.000000 0.039064 0.000000
# 6 0.000000 0.000000 0.000000 -0.003081 0.000000 0.039488
#
#
# Mechanical properties :
#
#
# Convention : Reuss Voigt Hill
#
# Bulk Modulus (GPa) = 30.00911 32.34848 31.17879
# Shear Modulus (GPa) = 25.09525 25.99157 25.54341
#
# Velocity S-wave (km/s) = 3.48183 3.54347 3.51279
# Velocity P-wave (km/s) = 5.53726 5.68935 5.61382
#
# Compressibility (1/GPa) = 0.03332321
#
# Stress axis : x y z
#
# Youngs Moduli (GPa) = 69.09485 62.89611 48.30816
#
# Poissons Ratio (x) = 0.30472 0.06285
# Poissons Ratio (y) = 0.33475 0.13183
# Poissons Ratio (z) = 0.08989 0.17164
#
# Static dielectric constant tensor:
#      x y z
#    x 3.890090 0.000000 -0.282640 
#    y 0.000000 3.782390 0.000000 
#    z -0.282640 0.000000 3.986090 
# 
# 
# High freq. dielectric constant tensor:
#      x y z
#    x 1.804460 0.000000 -0.011010 
#    y 0.000000 1.807250 0.000000 
#    z -0.011010 0.000000 1.801770 
# 
# From -- ./inp_files/70553.got.cif
#   From: 2010.06.25/outbox.cif.g09.slc.cpg/sg13_36_cif.got.tgz:70553.got - 2010.06.28 04:50:58.
