data_PCOD8118818
_publ_section_title
;
Structure prediction by ZEFSAII (Michael W. Deem and Ramdas Pophale) SiO2 
 PCOD8118818
Probable space group: P 2/C
;
_chemical_formula_sum "Si O2"
_cell_formula_units_Z 30
_cell_length_a 5.295484
_cell_length_b 15.729242
_cell_length_c 18.503280
_cell_angle_alpha 90.000000
_cell_angle_beta 114.411627
_cell_angle_gamma 90.000000
_cell_volume 1403.426688
_symmetry_space_group_name_H-M "P 2/C"
_symmetry_group_IT_number 13
_symmetry_cell_setting 'monoclinic'
loop_
_space_group_symop_operation_xyz
x,y,z
-x,y,1/2-z
-x,-y,-z
x,-y,1/2+z
loop_
_atom_site_type_symbol
_atom_site_label
_atom_site_fract_x
_atom_site_fract_y
_atom_site_fract_z
Si Si1 0.299732 0.659779 0.587405
Si Si2 0.455658 0.721331 0.397702
Si Si3 0.247547 0.441731 0.947861
Si Si4 0.059732 0.194969 0.485370
Si Si5 0.500000 0.220620 0.750000
Si Si6 0.820845 0.021916 0.048709
Si Si7 0.074464 0.407323 0.340781
Si Si8 0.990501 0.863655 0.136360
O O1 0.133911 0.600616 0.508718
O O2 0.625757 0.639130 0.621684
O O3 0.239196 0.759142 0.560805
O O4 0.163947 0.649788 0.650581
O O5 0.309625 0.633648 0.399168
O O6 0.705101 0.731016 0.485584
O O7 0.542126 0.716962 0.323551
O O8 0.272745 0.805654 0.380676
O O9 0.043015 0.503500 0.880139
O O10 0.500000 0.500000 0.000000
O O11 0.125382 0.123167 0.431938
O O12 0.095138 0.152673 0.567600
O O13 0.769220 0.158722 0.777307
O O14 0.918405 0.964784 0.129284
O O15 0.500000 0.000000 0.000000
O O16 0.000000 0.000000 0.000000
O O17 0.000000 0.425145 0.250000
#
# Coordination Sequence:
#
# PCOD8118818 Si02
#       8
#     4   4   4   4   2   4   4   4
#     4  11  22  42  68  93 128 169 220 274 331 384
#     4  11  20  39  59  91 131 166 220 262 333 393
#     4  10  22  41  64  94 125 169 224 278 328 390
#     4  10  20  35  64  95 119 160 213 274 316 373
#     4  10  24  36  58  88 130 188 194 260 328 410
#     4  10  20  35  61  94 121 150 202 261 312 368
#     4  11  25  43  64  91 130 176 218 274 335 396
#     4  10  20  37  59  87 130 162 211 256 323 386
#
# _framework density 21.376249999999999
#
# number of rings (size 3 to 8) (size 9 to 14) (size 15 to 20)
#    0.000    1.600    2.667    2.800    0.000    2.133 
#    4.800    0.000    2.933    0.000    0.000    0.000 
#    0.000    0.000    0.000    0.000    0.000    0.000 
#
# Total GULP energy -371646.978324 kJ/mol
# GULP energy per Si atom -12388.232611 kJ/mol
# Density = 2.132760 g / cm^3
# Si number density = 21.376250 Si / 1000 Ang^3
#
#
#
# Elastic Constant Matrix: (Units=GPa)
#
#
# Indices 1 2 3 4 5 6 
#
# 1 96.2595 18.3197 13.1741 0.0000 1.1668 0.0000
# 2 18.3197 108.6060 29.4616 0.0000 -1.5109 0.0000
# 3 13.1741 29.4616 80.4509 0.0000 -8.0594 0.0000
# 4 0.0000 0.0000 0.0000 24.6630 0.0000 -1.5951
# 5 1.1668 -1.5109 -8.0594 0.0000 26.0076 0.0000
# 6 0.0000 0.0000 0.0000 -1.5951 0.0000 32.9959
#
#
#
# Elastic Compliance Matrix: (Units=1/GPa)
#
#
# Indices 1 2 3 4 5 6 
#
# 1 0.010866 -0.001485 -0.001335 0.000000 -0.000987 0.000000
# 2 -0.001485 0.010435 -0.003623 0.000000 -0.000450 0.000000
# 3 -0.001335 -0.003623 0.014407 0.000000 0.004314 0.000000
# 4 0.000000 0.000000 0.000000 0.040674 0.000000 0.001966
# 5 -0.000987 -0.000450 0.004314 0.000000 0.039805 0.000000
# 6 0.000000 0.000000 0.000000 0.001966 0.000000 0.030402
#
#
# Mechanical properties :
#
#
# Convention : Reuss Voigt Hill
#
# Bulk Modulus (GPa) = 43.81497 45.24746 44.53122
# Shear Modulus (GPa) = 29.92561 31.69071 30.80816
#
# Velocity S-wave (km/s) = 3.74565 3.85453 3.80048
# Velocity P-wave (km/s) = 6.26482 6.40492 6.33526
#
# Compressibility (1/GPa) = 0.02282325
#
# Stress axis : x y z
#
# Youngs Moduli (GPa) = 92.03242 95.83487 69.40835
#
# Poissons Ratio (x) = 0.14227 0.09263
# Poissons Ratio (y) = 0.13663 0.25148
# Poissons Ratio (z) = 0.12282 0.34723
#
# Static dielectric constant tensor:
#      x y z
#    x 3.861580 0.000000 -0.030960 
#    y 0.000000 4.427340 0.000000 
#    z -0.030960 0.000000 3.903890 
# 
# 
# High freq. dielectric constant tensor:
#      x y z
#    x 1.843180 0.000000 -0.003520 
#    y 0.000000 1.839650 0.000000 
#    z -0.003520 0.000000 1.810330 
# 
# From -- ./inp_files/73935.got.cif
#   From: 2010.06.25/outbox.cif.g09.slc.cpg/sg13_37_cif.got.tgz:73935.got - 2010.06.28 04:50:58.
