data_PCOD8118508
_publ_section_title
;
Structure prediction by ZEFSAII (Michael W. Deem and Ramdas Pophale) SiO2 
 PCOD8118508
Probable space group: P 2/C
;
_chemical_formula_sum "Si O2"
_cell_formula_units_Z 28
_cell_length_a 22.542617
_cell_length_b 14.770911
_cell_length_c 25.150678
_cell_angle_alpha 90.000000
_cell_angle_beta 10.244018
_cell_angle_gamma 90.000000
_cell_volume 1489.336135
_symmetry_space_group_name_H-M "P 2/C"
_symmetry_group_IT_number 13
_symmetry_cell_setting 'monoclinic'
loop_
_space_group_symop_operation_xyz
x,y,z
-x,y,1/2-z
-x,-y,-z
x,-y,1/2+z
loop_
_atom_site_type_symbol
_atom_site_label
_atom_site_fract_x
_atom_site_fract_y
_atom_site_fract_z
Si Si1 0.730246 0.596217 0.373455
Si Si2 0.352092 0.190714 0.679910
Si Si3 0.880601 0.749998 0.412932
Si Si4 0.166375 0.512098 0.410146
Si Si5 0.160100 0.690713 0.807902
Si Si6 0.108054 0.903781 0.288249
Si Si7 0.707255 0.987901 0.216224
O O1 0.556400 0.513715 0.559594
O O2 0.465664 0.645164 0.568995
O O3 0.883164 0.666892 0.279573
O O4 0.021096 0.557572 0.080557
O O5 0.687181 0.249998 0.375211
O O6 0.257731 0.145151 0.707619
O O7 0.424082 0.115412 0.662251
O O8 0.039738 0.250006 0.973504
O O9 0.000000 0.783294 0.250000
O O10 0.906805 0.833089 0.430473
O O11 0.500000 0.716713 0.750000
O O12 0.000000 0.500000 0.500000
O O13 0.093856 0.615407 0.492473
O O14 0.860405 0.986275 0.523594
O O15 0.411166 0.942435 0.987182
O O16 0.000000 0.000000 0.000000
#
# Coordination Sequence:
#
# PCOD8118508 Si02
#       7
#     4   4   4   4   4   4   4
#     4  11  21  36  51  70 112 145 182 224 268 306
#     4  11  19  30  52  79 110 140 177 208 266 338
#     4  12  26  38  56  78 104 150 206 230 258 308
#     4  10  20  32  51  76 104 145 179 209 271 341
#     4  11  19  30  52  79 110 140 177 208 266 338
#     4  11  21  36  51  70 112 145 182 224 268 306
#     4  10  20  32  51  76 104 145 179 209 271 341
#
# _framework density 18.800322000000001
#
# number of rings (size 3 to 8) (size 9 to 14) (size 15 to 20)
#    0.000    1.143    1.429   10.286    2.000    0.000 
#    0.000    0.000    0.000    0.000    0.000    0.000 
#    0.000   64.000    0.000    0.000    0.000    0.000 
#
# Total GULP energy -347149.301163 kJ/mol
# GULP energy per Si atom -12398.189327 kJ/mol
# Density = 1.875753 g / cm^3
# Si number density = 18.800322 Si / 1000 Ang^3
#
#
#
# Elastic Constant Matrix: (Units=GPa)
#
#
# Indices 1 2 3 4 5 6 
#
# 1 53.2648 26.5115 21.0638 0.0000 10.8112 0.0000
# 2 26.5115 99.6025 28.7938 0.0000 1.6458 0.0000
# 3 21.0638 28.7938 94.7785 0.0000 19.2970 0.0000
# 4 0.0000 0.0000 0.0000 40.4391 0.0000 16.2414
# 5 10.8112 1.6458 19.2970 0.0000 29.7149 0.0000
# 6 0.0000 0.0000 0.0000 16.2414 0.0000 18.0687
#
#
#
# Elastic Compliance Matrix: (Units=1/GPa)
#
#
# Indices 1 2 3 4 5 6 
#
# 1 0.023833 -0.005598 -0.002182 0.000000 -0.006944 0.000000
# 2 -0.005598 0.012406 -0.003226 0.000000 0.003445 0.000000
# 3 -0.002182 -0.003226 0.013619 0.000000 -0.007871 0.000000
# 4 0.000000 0.000000 0.000000 0.038699 0.000000 -0.034785
# 5 -0.006944 0.003445 -0.007871 0.000000 0.041101 0.000000
# 6 0.000000 0.000000 0.000000 -0.034785 0.000000 0.086612
#
#
# Mechanical properties :
#
#
# Convention : Reuss Voigt Hill
#
# Bulk Modulus (GPa) = 35.91377 44.48711 40.20044
# Shear Modulus (GPa) = 20.19692 29.06300 24.62996
#
# Velocity S-wave (km/s) = 3.28119 3.93603 3.62343
# Velocity P-wave (km/s) = 5.78784 6.66114 6.23979
#
# Compressibility (1/GPa) = 0.02784447
#
# Stress axis : x y z
#
# Youngs Moduli (GPa) = 41.95885 80.60827 73.42914
#
# Poissons Ratio (x) = 0.45125 0.16023
# Poissons Ratio (y) = 0.23489 0.23689
# Poissons Ratio (z) = 0.09156 0.26005
#
# Static dielectric constant tensor:
#      x y z
#    x 3.245350 0.000000 0.425440 
#    y 0.000000 4.225070 0.000000 
#    z 0.425440 0.000000 3.831320 
# 
# 
# High freq. dielectric constant tensor:
#      x y z
#    x 1.678310 0.000000 0.045000 
#    y 0.000000 1.742220 0.000000 
#    z 0.045000 0.000000 1.740290 
# 
# From -- ./inp_files/93884.got.cif
#   From: 2010.06.25/outbox.cif.g09.slc.cpg/sg13_47_cif.got.tgz:93884.got - 2010.06.28 04:50:58.
