data_PCOD8118191
_publ_section_title
;
Structure prediction by ZEFSAII (Michael W. Deem and Ramdas Pophale) SiO2 
 PCOD8118191
Probable space group: P 2/C
;
_chemical_formula_sum "Si O2"
_cell_formula_units_Z 28
_cell_length_a 19.846615
_cell_length_b 7.868709
_cell_length_c 23.779016
_cell_angle_alpha 90.000000
_cell_angle_beta 160.788585
_cell_angle_gamma 90.000000
_cell_volume 1221.946024
_symmetry_space_group_name_H-M "P 2/C"
_symmetry_group_IT_number 13
_symmetry_cell_setting 'monoclinic'
loop_
_space_group_symop_operation_xyz
x,y,z
-x,y,1/2-z
-x,-y,-z
x,-y,1/2+z
loop_
_atom_site_type_symbol
_atom_site_label
_atom_site_fract_x
_atom_site_fract_y
_atom_site_fract_z
Si Si1 0.261699 0.666329 0.762883
Si Si2 0.313565 0.730823 0.443228
Si Si3 0.869468 0.204711 0.092067
Si Si4 0.170061 0.011904 0.253358
Si Si5 0.873031 0.808538 0.953325
Si Si6 0.542464 0.062114 0.346492
Si Si7 0.985651 0.536266 0.124432
O O1 0.105444 0.715885 0.589600
O O2 0.161902 0.511901 0.717943
O O3 0.290725 0.821916 0.829334
O O4 0.483715 0.619006 0.911762
O O5 0.321225 0.894511 0.408257
O O6 0.316757 0.797806 0.510250
O O7 0.108330 0.621394 0.273102
O O8 0.000000 0.246644 0.250000
O O9 0.851605 0.378101 0.041458
O O10 0.976571 0.058887 0.140022
O O11 0.645930 0.126456 0.930962
O O12 0.080157 0.913448 0.128104
O O13 0.678096 0.936670 0.796457
O O14 0.840189 0.670751 0.978097
O O15 0.500000 0.121800 0.250000
#
# Coordination Sequence:
#
# PCOD8118191 Si02
#       7
#     4   4   4   4   4   4   4
#     4  10  20  36  63  92 128 155 203 253 306 361
#     4  10  21  38  63  91 122 164 207 249 306 365
#     4  11  22  41  63  86 123 158 209 258 300 353
#     4  10  19  36  63  90 120 166 206 247 298 360
#     4  10  21  38  63  92 125 164 201 248 312 364
#     4  11  22  39  65  86 122 162 206 257 293 362
#     4  10  23  40  63  92 126 164 198 252 318 366
#
# _framework density 22.914269000000001
#
# number of rings (size 3 to 8) (size 9 to 14) (size 15 to 20)
#    0.000    1.714    2.857    1.714    0.000    1.143 
#    0.000    3.571    6.286    0.000    0.000    0.000 
#    0.000    0.000    0.000    0.000    0.000    0.000 
#
# Total GULP energy -347147.847196 kJ/mol
# GULP energy per Si atom -12398.137400 kJ/mol
# Density = 2.286212 g / cm^3
# Si number density = 22.914269 Si / 1000 Ang^3
#
#
#
# Elastic Constant Matrix: (Units=GPa)
#
#
# Indices 1 2 3 4 5 6 
#
# 1 56.8538 19.6703 26.3129 0.0000 -14.5212 0.0000
# 2 19.6703 79.7099 28.2163 0.0000 10.9476 0.0000
# 3 26.3129 28.2163 79.5657 0.0000 -14.2193 0.0000
# 4 0.0000 0.0000 0.0000 20.3138 0.0000 4.5944
# 5 -14.5212 10.9476 -14.2193 0.0000 35.3272 0.0000
# 6 0.0000 0.0000 0.0000 4.5944 0.0000 26.5434
#
#
#
# Elastic Compliance Matrix: (Units=1/GPa)
#
#
# Indices 1 2 3 4 5 6 
#
# 1 0.024088 -0.005886 -0.004076 0.000000 0.010085 0.000000
# 2 -0.005886 0.017592 -0.006140 0.000000 -0.010343 0.000000
# 3 -0.004076 -0.006140 0.017385 0.000000 0.007225 0.000000
# 4 0.000000 0.000000 0.000000 0.051233 0.000000 -0.008868
# 5 0.010085 -0.010343 0.007225 0.000000 0.038565 0.000000
# 6 0.000000 0.000000 0.000000 -0.008868 0.000000 0.039209
#
#
# Mechanical properties :
#
#
# Convention : Reuss Voigt Hill
#
# Bulk Modulus (GPa) = 37.23152 40.50317 38.86734
# Shear Modulus (GPa) = 21.81195 25.89886 23.85541
#
# Velocity S-wave (km/s) = 3.08862 3.36557 3.23007
# Velocity P-wave (km/s) = 5.38544 5.72862 5.55968
#
# Compressibility (1/GPa) = 0.02685896
#
# Stress axis : x y z
#
# Youngs Moduli (GPa) = 41.51459 56.84320 57.52071
#
# Poissons Ratio (x) = 0.33460 0.23447
# Poissons Ratio (y) = 0.24437 0.35320
# Poissons Ratio (z) = 0.16923 0.34904
#
# Static dielectric constant tensor:
#      x y z
#    x 4.089340 0.000000 -0.258030 
#    y 0.000000 3.898920 0.000000 
#    z -0.258030 0.000000 4.047830 
# 
# 
# High freq. dielectric constant tensor:
#      x y z
#    x 1.901060 0.000000 -0.020450 
#    y 0.000000 1.887740 0.000000 
#    z -0.020450 0.000000 1.899900 
# 
# From -- ./inp_files/88537.got.cif
#   From: 2010.06.25/outbox.cif.g09.slc.cpg/sg13_45_cif.got.tgz:88537.got - 2010.06.28 04:50:58.
