data_PCOD8118368
_publ_section_title
;
Structure prediction by ZEFSAII (Michael W. Deem and Ramdas Pophale) SiO2 
 PCOD8118368
Probable space group: P 2/C
;
_chemical_formula_sum "Si O2"
_cell_formula_units_Z 30
_cell_length_a 14.383344
_cell_length_b 15.595963
_cell_length_c 19.092364
_cell_angle_alpha 90.000000
_cell_angle_beta 160.335879
_cell_angle_gamma 90.000000
_cell_volume 1441.199535
_symmetry_space_group_name_H-M "P 2/C"
_symmetry_group_IT_number 13
_symmetry_cell_setting 'monoclinic'
loop_
_space_group_symop_operation_xyz
x,y,z
-x,y,1/2-z
-x,-y,-z
x,-y,1/2+z
loop_
_atom_site_type_symbol
_atom_site_label
_atom_site_fract_x
_atom_site_fract_y
_atom_site_fract_z
Si Si1 0.594378 0.887937 0.930145
Si Si2 0.130752 0.324193 0.413418
Si Si3 0.146751 0.610134 0.655019
Si Si4 0.277468 0.053554 0.707822
Si Si5 0.500000 0.182183 0.750000
Si Si6 0.863871 0.846621 0.258849
Si Si7 0.251131 0.252834 0.117167
Si Si8 0.563914 0.527089 0.218298
O O1 0.349416 0.840607 0.714498
O O2 0.524257 0.986590 0.891684
O O3 0.652571 0.835309 0.043996
O O4 0.867457 0.896231 0.077604
O O5 0.283364 0.244892 0.558146
O O6 0.334728 0.402326 0.537497
O O7 0.000000 0.287498 0.250000
O O8 0.878487 0.362079 0.281814
O O9 0.175708 0.695120 0.631163
O O10 0.406812 0.547044 0.820915
O O11 0.858233 0.571166 0.427597
O O12 0.332337 0.121896 0.684779
O O13 0.287085 0.102114 0.787797
O O14 0.000000 0.000000 0.500000
O O15 0.981524 0.757299 0.375495
O O16 0.500000 0.296743 0.250000
O O17 0.500000 0.486860 0.250000
#
# Coordination Sequence:
#
# PCOD8118368 Si02
#       8
#     4   4   4   4   2   4   4   4
#     4  10  22  39  56  85 115 149 196 252 298 363
#     4  11  24  43  64  92 130 166 210 259 315 376
#     4  10  19  38  65  92 121 165 200 249 308 367
#     4  12  23  39  63  83 115 159 205 252 308 368
#     4  12  26  46  60  90 128 164 216 264 316 376
#     4  10  21  38  58  80 116 152 188 249 304 352
#     4  10  20  36  60  84 117 152 195 243 304 360
#     4   9  19  38  66  92 125 160 204 249 304 373
#
# _framework density 20.815992999999999
#
# number of rings (size 3 to 8) (size 9 to 14) (size 15 to 20)
#    0.000    1.600    3.333    2.400    0.933    1.600 
#    4.800    0.000    5.867    0.000    0.000    0.000 
#    0.000    0.000    0.000    0.000    0.000    0.000 
#
# Total GULP energy -371746.920628 kJ/mol
# GULP energy per Si atom -12391.564021 kJ/mol
# Density = 2.076861 g / cm^3
# Si number density = 20.815993 Si / 1000 Ang^3
#
#
#
# Elastic Constant Matrix: (Units=GPa)
#
#
# Indices 1 2 3 4 5 6 
#
# 1 145.5053 61.7453 44.7512 0.0000 0.1126 0.0000
# 2 61.7453 91.8226 35.3744 0.0000 6.6125 0.0000
# 3 44.7512 35.3744 59.1444 0.0000 -11.5231 0.0000
# 4 0.0000 0.0000 0.0000 12.9748 0.0000 7.2749
# 5 0.1126 6.6125 -11.5231 0.0000 39.2954 0.0000
# 6 0.0000 0.0000 0.0000 7.2749 0.0000 38.4869
#
#
#
# Elastic Compliance Matrix: (Units=1/GPa)
#
#
# Indices 1 2 3 4 5 6 
#
# 1 0.010616 -0.005129 -0.005094 0.000000 -0.000661 0.000000
# 2 -0.005129 0.017688 -0.007717 0.000000 -0.005225 0.000000
# 3 -0.005094 -0.007717 0.027187 0.000000 0.009285 0.000000
# 4 0.000000 0.000000 0.000000 0.086209 0.000000 -0.016295
# 5 -0.000661 -0.005225 0.009285 0.000000 0.029052 0.000000
# 6 0.000000 0.000000 0.000000 -0.016295 0.000000 0.029063
#
#
# Mechanical properties :
#
#
# Convention : Reuss Voigt Hill
#
# Bulk Modulus (GPa) = 50.98864 64.46825 57.72845
# Shear Modulus (GPa) = 20.64133 28.45817 24.54975
#
# Velocity S-wave (km/s) = 3.15240 3.70148 3.43792
# Velocity P-wave (km/s) = 6.14803 7.02181 6.59939
#
# Compressibility (1/GPa) = 0.01961221
#
# Stress axis : x y z
#
# Youngs Moduli (GPa) = 94.19595 56.53394 36.78272
#
# Poissons Ratio (x) = 0.28995 0.18737
# Poissons Ratio (y) = 0.48310 0.28385
# Poissons Ratio (z) = 0.47983 0.43627
#
# Static dielectric constant tensor:
#      x y z
#    x 4.167230 0.000000 -0.042310 
#    y 0.000000 3.849640 0.000000 
#    z -0.042310 0.000000 3.122170 
# 
# 
# High freq. dielectric constant tensor:
#      x y z
#    x 1.837040 0.000000 0.015460 
#    y 0.000000 1.805190 0.000000 
#    z 0.015460 0.000000 1.795640 
# 
# From -- ./inp_files/80323.got.cif
#   From: 2010.06.25/outbox.cif.g09.slc.cpg/sg13_41_cif.got.tgz:80323.got - 2010.06.28 04:50:58.
