data_PCOD8118630
_publ_section_title
;
Structure prediction by ZEFSAII (Michael W. Deem and Ramdas Pophale) SiO2 
 PCOD8118630
Probable space group: P 2/C
;
_chemical_formula_sum "Si O2"
_cell_formula_units_Z 32
_cell_length_a 6.705155
_cell_length_b 20.406538
_cell_length_c 12.774604
_cell_angle_alpha 90.000000
_cell_angle_beta 45.803367
_cell_angle_gamma 90.000000
_cell_volume 1253.185680
_symmetry_space_group_name_H-M "P 2/C"
_symmetry_group_IT_number 13
_symmetry_cell_setting 'monoclinic'
loop_
_space_group_symop_operation_xyz
x,y,z
-x,y,1/2-z
-x,-y,-z
x,-y,1/2+z
loop_
_atom_site_type_symbol
_atom_site_label
_atom_site_fract_x
_atom_site_fract_y
_atom_site_fract_z
Si Si1 0.929463 0.250000 0.447136
Si Si2 0.551674 0.750000 0.877826
Si Si3 0.770690 0.357925 0.912320
Si Si4 0.691607 0.116421 0.582697
Si Si5 0.691607 0.616421 0.082697
Si Si6 0.229310 0.857925 0.087680
Si Si7 0.180118 0.499650 0.085580
Si Si8 0.180118 0.999650 0.585580
O O1 0.741463 0.250000 0.412053
O O2 0.865825 0.183855 0.538119
O O3 0.865825 0.316145 0.538119
O O4 0.256151 0.250000 0.295957
O O5 0.333192 0.689675 0.957420
O O6 0.333192 0.810325 0.957420
O O7 0.494106 0.374610 0.951055
O O8 0.905064 0.424572 0.913331
O O9 0.000000 0.325632 0.750000
O O10 0.500000 0.099930 0.750000
O O11 0.505894 0.125390 0.548945
O O12 0.877986 0.051619 0.487986
O O13 0.500000 0.599930 0.250000
O O14 0.877986 0.551619 0.987986
O O15 0.000000 0.825632 0.250000
O O16 0.094936 0.924572 0.086669
O O17 0.000000 0.475888 0.250000
O O18 0.500000 0.500000 0.000000
O O19 0.000000 0.975888 0.750000
O O20 0.500000 0.000000 0.500000
#
# Coordination Sequence:
#
# PCOD8118630 Si02
#       8
#     4   4   4   4   4   4   4   4
#     4   9  19  30  53  83 107 132 180 228 262 310
#     4   9  17  30  57  81 100 141 186 216 255 319
#     4   9  18  34  54  79 107 141 180 216 262 322
#     4  10  20  34  55  82 108 138 175 226 274 310
#     4  10  20  34  55  82 108 138 175 226 274 310
#     4   9  18  34  54  79 107 141 180 216 262 322
#     4   9  19  33  54  77 109 142 179 219 259 321
#     4   9  19  33  54  77 109 142 179 219 259 321
#
# _framework density 25.534924
#
# number of rings (size 3 to 8) (size 9 to 14) (size 15 to 20)
#    0.000    2.750    0.000    0.750   10.500    0.000 
#    0.000   11.250    0.000    1.500    0.000    0.000 
#    0.000    0.000    0.000    0.000    0.000    0.000 
#
# Total GULP energy -396594.289772 kJ/mol
# GULP energy per Si atom -12393.571555 kJ/mol
# Density = 2.547681 g / cm^3
# Si number density = 25.534924 Si / 1000 Ang^3
#
#
#
# Elastic Constant Matrix: (Units=GPa)
#
#
# Indices 1 2 3 4 5 6 
#
# 1 22.8387 -8.2648 -0.3831 0.0000 -16.3765 0.0000
# 2 -8.2648 229.1158 126.0275 0.0000 9.2680 0.0000
# 3 -0.3831 126.0275 245.1576 0.0000 -5.7518 0.0000
# 4 0.0000 0.0000 0.0000 53.9865 0.0000 -9.7527
# 5 -16.3765 9.2680 -5.7518 0.0000 33.6393 0.0000
# 6 0.0000 0.0000 0.0000 -9.7527 0.0000 -2.7473
#
#
#
# Elastic Compliance Matrix: (Units=1/GPa)
#
#
# Indices 1 2 3 4 5 6 
#
# 1 0.067580 0.000883 0.000419 0.000000 0.032728 0.000000
# 2 0.000883 0.006267 -0.003264 0.000000 -0.001855 0.000000
# 3 0.000419 -0.003264 0.005807 0.000000 0.002096 0.000000
# 4 0.000000 0.000000 0.000000 0.011286 0.000000 -0.040064
# 5 0.032728 -0.001855 0.002096 0.000000 0.046529 0.000000
# 6 0.000000 0.000000 0.000000 -0.040064 0.000000 -0.221773
#
#
# Mechanical properties :
#
#
# Convention : Reuss Voigt Hill
#
# Bulk Modulus (GPa) = 13.20468 81.31905 47.26187
# Shear Modulus (GPa) = -90.67951 42.29119 -24.19416
#
# Velocity S-wave (km/s) = -5.96566 4.07407 -3.08148
# Velocity P-wave (km/s) = 6.50151 7.35160 2.42657
#
# Compressibility (1/GPa) = 0.07573073
#
# Stress axis : x y z
#
# Youngs Moduli (GPa) = 14.79738 159.57421 172.21880
#
# Poissons Ratio (x) = -0.14093 -0.07223
# Poissons Ratio (y) = -0.01307 0.56206
# Poissons Ratio (z) = -0.00621 0.52079
#
# Static dielectric constant tensor:
#      x y z
#    x 4.468020 0.000000 -0.202230 
#    y 0.000000 5.978850 0.000000 
#    z -0.202230 0.000000 4.444580 
# 
# 
# High freq. dielectric constant tensor:
#      x y z
#    x 2.024180 0.000000 -0.013010 
#    y 0.000000 2.032390 0.000000 
#    z -0.013010 0.000000 2.016480 
# 
# From -- ./inp_files/48164.got.cif
#   From: 2010.06.25/outbox.cif.g09.slc.cpg/sg13_25_cif.got.tgz:48164.got - 2010.06.28 04:50:58.
