data_PCOD8118890
_publ_section_title
;
Structure prediction by ZEFSAII (Michael W. Deem and Ramdas Pophale) SiO2 
 PCOD8118890
Probable space group: P 2/C
;
_chemical_formula_sum "Si O2"
_cell_formula_units_Z 28
_cell_length_a 16.384379
_cell_length_b 12.340395
_cell_length_c 10.055512
_cell_angle_alpha 90.000000
_cell_angle_beta 128.890033
_cell_angle_gamma 90.000000
_cell_volume 1582.484592
_symmetry_space_group_name_H-M "P 2/C"
_symmetry_group_IT_number 13
_symmetry_cell_setting 'monoclinic'
loop_
_space_group_symop_operation_xyz
x,y,z
-x,y,1/2-z
-x,-y,-z
x,-y,1/2+z
loop_
_atom_site_type_symbol
_atom_site_label
_atom_site_fract_x
_atom_site_fract_y
_atom_site_fract_z
Si Si1 0.944543 0.359247 0.561219
Si Si2 0.295531 0.691924 0.077080
Si Si3 0.924440 0.387058 0.056156
Si Si4 0.421133 0.886846 0.283774
Si Si5 0.282158 0.309514 0.246535
Si Si6 0.441403 0.866860 0.820321
Si Si7 0.570818 0.506394 0.701431
O O1 0.913613 0.484183 0.543971
O O2 0.837817 0.294784 0.422092
O O3 0.000000 0.313728 0.750000
O O4 0.029221 0.341509 0.532817
O O5 0.319010 0.813752 0.152096
O O6 0.387457 0.612741 0.220482
O O7 0.188807 0.662649 0.040262
O O8 0.286044 0.680415 0.909200
O O9 0.000000 0.347264 0.250000
O O10 0.500000 0.850565 0.250000
O O11 0.470623 0.862875 0.476875
O O12 0.394069 0.013740 0.245356
O O13 0.342557 0.204154 0.258878
O O14 0.331902 0.414423 0.226859
O O15 0.500000 0.821873 0.750000
O O16 0.500000 0.551566 0.750000
O O17 0.500000 0.500000 0.500000
#
# Coordination Sequence:
#
# PCOD8118890 Si02
#       7
#     4   4   4   4   4   4   4
#     4  10  22  36  57  83 119 147 193 247 281 339
#     4  12  22  37  62  84 117 159 195 233 291 353
#     4  10  20  36  57  84 112 153 198 233 283 347
#     4  10  20  39  61  85 115 155 197 239 284 345
#     4  12  22  38  60  85 116 159 192 238 295 345
#     4  10  22  38  60  87 116 151 200 243 283 341
#     4  12  24  35  53  87 125 153 186 232 290 351
#
# _framework density 17.693695999999999
#
# number of rings (size 3 to 8) (size 9 to 14) (size 15 to 20)
#    0.000    1.143    5.714    1.714    0.000    2.286 
#    0.000    0.000    0.000    1.714    0.000    0.000 
#    0.000    0.000    0.000    0.000    0.000    0.000 
#
# Total GULP energy -347282.136224 kJ/mol
# GULP energy per Si atom -12402.933437 kJ/mol
# Density = 1.765342 g / cm^3
# Si number density = 17.693696 Si / 1000 Ang^3
#
#
#
# Elastic Constant Matrix: (Units=GPa)
#
#
# Indices 1 2 3 4 5 6 
#
# 1 133.3424 43.8132 61.6309 0.0000 -3.4196 0.0000
# 2 43.8132 63.0963 24.2928 0.0000 4.0429 0.0000
# 3 61.6309 24.2928 123.4634 0.0000 -9.3749 0.0000
# 4 0.0000 0.0000 0.0000 10.6150 0.0000 -6.5281
# 5 -3.4196 4.0429 -9.3749 0.0000 33.9721 0.0000
# 6 0.0000 0.0000 0.0000 -6.5281 0.0000 29.7825
#
#
#
# Elastic Compliance Matrix: (Units=1/GPa)
#
#
# Indices 1 2 3 4 5 6 
#
# 1 0.011731 -0.006444 -0.004535 0.000000 0.000696 0.000000
# 2 -0.006444 0.021000 -0.001179 0.000000 -0.003473 0.000000
# 3 -0.004535 -0.001179 0.010798 0.000000 0.002663 0.000000
# 4 0.000000 0.000000 0.000000 0.108884 0.000000 0.023867
# 5 0.000696 -0.003473 0.002663 0.000000 0.030654 0.000000
# 6 0.000000 0.000000 0.000000 0.023867 0.000000 0.038808
#
#
# Mechanical properties :
#
#
# Convention : Reuss Voigt Hill
#
# Bulk Modulus (GPa) = 52.05033 64.37510 58.21271
# Shear Modulus (GPa) = 19.79447 27.55158 23.67302
#
# Velocity S-wave (km/s) = 3.34837 3.95034 3.66175
# Velocity P-wave (km/s) = 6.66559 7.56763 7.13089
#
# Compressibility (1/GPa) = 0.01921218
#
# Stress axis : x y z
#
# Youngs Moduli (GPa) = 85.24508 47.61897 92.61357
#
# Poissons Ratio (x) = 0.30687 0.42000
# Poissons Ratio (y) = 0.54935 0.10917
# Poissons Ratio (z) = 0.38659 0.05613
#
# Static dielectric constant tensor:
#      x y z
#    x 3.322330 0.000000 -0.133530 
#    y 0.000000 3.186090 0.000000 
#    z -0.133530 0.000000 3.557320 
# 
# 
# High freq. dielectric constant tensor:
#      x y z
#    x 1.692800 0.000000 -0.013250 
#    y 0.000000 1.662510 0.000000 
#    z -0.013250 0.000000 1.695820 
# 
# From -- ./inp_files/18932.got.cif
#   From: 2010.06.25/outbox.cif.g09.slc.cpg/sg13_10_cif.got.tgz:18932.got - 2010.06.28 04:50:58.
