data_PCOD8118562
_publ_section_title
;
Structure prediction by ZEFSAII (Michael W. Deem and Ramdas Pophale) SiO2 
 PCOD8118562
Probable space group: P 2/C
;
_chemical_formula_sum "Si O2"
_cell_formula_units_Z 28
_cell_length_a 14.791386
_cell_length_b 13.966374
_cell_length_c 9.270908
_cell_angle_alpha 90.000000
_cell_angle_beta 51.172149
_cell_angle_gamma 90.000000
_cell_volume 1492.006874
_symmetry_space_group_name_H-M "P 2/C"
_symmetry_group_IT_number 13
_symmetry_cell_setting 'monoclinic'
loop_
_space_group_symop_operation_xyz
x,y,z
-x,y,1/2-z
-x,-y,-z
x,-y,1/2+z
loop_
_atom_site_type_symbol
_atom_site_label
_atom_site_fract_x
_atom_site_fract_y
_atom_site_fract_z
Si Si1 0.240994 0.372447 0.737127
Si Si2 0.253833 0.403318 0.212835
Si Si3 0.376236 0.906521 0.450132
Si Si4 0.364169 0.703909 0.368884
Si Si5 0.377926 0.916842 0.790280
Si Si6 0.998091 0.600572 0.579339
Si Si7 0.364140 0.704731 0.848867
O O1 0.255225 0.485300 0.752651
O O2 0.331135 0.306110 0.734468
O O3 0.273646 0.350714 0.540662
O O4 0.109212 0.339978 0.909709
O O5 0.125103 0.355237 0.348221
O O6 0.346633 0.344804 0.213236
O O7 0.300230 0.387141 0.004655
O O8 0.500000 0.893696 0.250000
O O9 0.314426 0.804047 0.485198
O O10 0.389129 0.930116 0.606816
O O11 0.308452 0.993440 0.433620
O O12 0.500000 0.693536 0.250000
O O13 0.500000 0.920664 0.750000
O O14 0.321532 0.814804 0.883348
O O15 0.000000 0.588939 0.750000
O O16 0.000000 0.500000 0.500000
O O17 0.500000 0.694886 0.750000
#
# Coordination Sequence:
#
# PCOD8118562 Si02
#       7
#     4   4   4   4   4   4   4
#     4  11  24  36  59  81 114 156 194 235 280 331
#     4  11  22  40  56  81 118 151 197 238 278 330
#     4  10  20  33  55  79 110 150 188 233 281 333
#     4  11  22  35  55  84 118 153 187 227 288 348
#     4  10  20  34  54  79 112 147 189 234 278 335
#     4  10  22  39  60  81 106 146 205 251 279 317
#     4  11  24  37  55  87 122 152 189 230 284 354
#
# _framework density 18.766670000000001
#
# number of rings (size 3 to 8) (size 9 to 14) (size 15 to 20)
#    0.000    1.429    2.857    3.429   14.000    3.429 
#    0.000    0.000    0.000    0.000    0.000    6.000 
#    0.000    0.000    0.000    0.000    0.000    0.000 
#
# Total GULP energy -346913.583668 kJ/mol
# GULP energy per Si atom -12389.770845 kJ/mol
# Density = 1.872396 g / cm^3
# Si number density = 18.766670 Si / 1000 Ang^3
#
#
#
# Elastic Constant Matrix: (Units=GPa)
#
#
# Indices 1 2 3 4 5 6 
#
# 1 74.4294 37.2987 29.3360 0.0000 1.8523 0.0000
# 2 37.2987 98.0468 29.1127 0.0000 0.8211 0.0000
# 3 29.3360 29.1127 89.2898 0.0000 -1.3442 0.0000
# 4 0.0000 0.0000 0.0000 24.5060 0.0000 11.8787
# 5 1.8523 0.8211 -1.3442 0.0000 34.4087 0.0000
# 6 0.0000 0.0000 0.0000 11.8787 0.0000 10.2361
#
#
#
# Elastic Compliance Matrix: (Units=1/GPa)
#
#
# Indices 1 2 3 4 5 6 
#
# 1 0.017857 -0.005578 -0.004063 0.000000 -0.000987 0.000000
# 2 -0.005578 0.013041 -0.002421 0.000000 -0.000105 0.000000
# 3 -0.004063 -0.002421 0.013336 0.000000 0.000797 0.000000
# 4 0.000000 0.000000 0.000000 0.093274 0.000000 -0.108242
# 5 -0.000987 -0.000105 0.000797 0.000000 0.029149 0.000000
# 6 0.000000 0.000000 0.000000 -0.108242 0.000000 0.223306
#
#
# Mechanical properties :
#
#
# Convention : Reuss Voigt Hill
#
# Bulk Modulus (GPa) = 49.72806 50.36232 50.04519
# Shear Modulus (GPa) = 11.88240 24.89806 18.39023
#
# Velocity S-wave (km/s) = 2.51901 3.64636 3.13380
# Velocity P-wave (km/s) = 5.91744 6.67999 6.31025
#
# Compressibility (1/GPa) = 0.02010937
#
# Stress axis : x y z
#
# Youngs Moduli (GPa) = 56.00047 76.68106 74.98698
#
# Poissons Ratio (x) = 0.42776 0.30466
# Poissons Ratio (y) = 0.31240 0.18153
# Poissons Ratio (z) = 0.22752 0.18563
#
# Static dielectric constant tensor:
#      x y z
#    x 3.568720 0.000000 -0.008850 
#    y 0.000000 4.036490 0.000000 
#    z -0.008850 0.000000 3.559400 
# 
# 
# High freq. dielectric constant tensor:
#      x y z
#    x 1.715310 0.000000 0.028560 
#    y 0.000000 1.724170 0.000000 
#    z 0.028560 0.000000 1.728450 
# 
# From -- ./inp_files/16675.got.cif
#   From: 2010.06.25/outbox.cif.g09.slc.cpg/sg13_9_cif.got.tgz:16675.got - 2010.06.28 04:50:58.
