data_PCOD8118860
_publ_section_title
;
Structure prediction by ZEFSAII (Michael W. Deem and Ramdas Pophale) SiO2 
 PCOD8118860
Probable space group: P 2/C
;
_chemical_formula_sum "Si O2"
_cell_formula_units_Z 24
_cell_length_a 11.043376
_cell_length_b 12.245272
_cell_length_c 25.426361
_cell_angle_alpha 90.000000
_cell_angle_beta 157.499543
_cell_angle_gamma 90.000000
_cell_volume 1315.838313
_symmetry_space_group_name_H-M "P 2/C"
_symmetry_group_IT_number 13
_symmetry_cell_setting 'monoclinic'
loop_
_space_group_symop_operation_xyz
x,y,z
-x,y,1/2-z
-x,-y,-z
x,-y,1/2+z
loop_
_atom_site_type_symbol
_atom_site_label
_atom_site_fract_x
_atom_site_fract_y
_atom_site_fract_z
Si Si1 0.092087 0.430687 0.873056
Si Si2 0.186875 0.895750 0.094143
Si Si3 0.860602 0.212177 0.558464
Si Si4 0.627400 0.957318 0.605440
Si Si5 0.465842 0.835268 0.364925
Si Si6 0.522831 0.614553 0.076739
O O1 0.155985 0.343381 0.945168
O O2 0.294779 0.391764 0.904693
O O3 0.727506 0.435899 0.707433
O O4 0.197228 0.547145 0.939024
O O5 0.500000 0.936920 0.250000
O O6 0.288605 0.823926 0.084673
O O7 0.969791 0.820506 0.043897
O O8 0.000000 0.000000 0.000000
O O9 0.524820 0.157598 0.437993
O O10 0.106115 0.175251 0.701732
O O11 0.000000 0.940459 0.750000
O O12 0.500000 0.000000 0.500000
O O13 0.511368 0.045281 0.601387
O O14 0.554278 0.741138 0.442376
#
# Coordination Sequence:
#
# PCOD8118860 Si02
#       6
#     4   4   4   4   4   4
#     4   9  18  35  54  77 106 139 175 221 269 318
#     4  10  20  36  56  77 105 148 184 216 262 316
#     4  10  20  37  55  78 110 143 179 221 265 321
#     4  12  22  33  52  81 110 142 174 217 273 323
#     4  10  20  36  57  77 109 146 178 216 273 321
#     4   9  18  34  55  76 105 139 177 218 269 319
#
# _framework density 18.239322000000001
#
# number of rings (size 3 to 8) (size 9 to 14) (size 15 to 20)
#    0.000    2.000    3.333    1.000    2.333    0.000 
#    9.000    0.833    0.000    0.000    0.000    0.000 
#    0.000    0.000    0.000    0.000    0.000    0.000 
#
# Total GULP energy -297570.530411 kJ/mol
# GULP energy per Si atom -12398.772100 kJ/mol
# Density = 1.819781 g / cm^3
# Si number density = 18.239322 Si / 1000 Ang^3
#
#
#
# Elastic Constant Matrix: (Units=GPa)
#
#
# Indices 1 2 3 4 5 6 
#
# 1 85.3656 26.8130 29.2258 0.0000 2.9203 0.0000
# 2 26.8130 75.6029 24.8666 0.0000 -2.7762 0.0000
# 3 29.2258 24.8666 70.4475 0.0000 7.5716 0.0000
# 4 0.0000 0.0000 0.0000 32.5132 0.0000 -7.1168
# 5 2.9203 -2.7762 7.5716 0.0000 21.1402 0.0000
# 6 0.0000 0.0000 0.0000 -7.1168 0.0000 27.5910
#
#
#
# Elastic Compliance Matrix: (Units=1/GPa)
#
#
# Indices 1 2 3 4 5 6 
#
# 1 0.014471 -0.003639 -0.004631 0.000000 -0.000818 0.000000
# 2 -0.003639 0.016214 -0.004676 0.000000 0.004307 0.000000
# 3 -0.004631 -0.004676 0.018475 0.000000 -0.006592 0.000000
# 4 0.000000 0.000000 0.000000 0.032597 0.000000 0.008408
# 5 -0.000818 0.004307 -0.006592 0.000000 0.050343 0.000000
# 6 0.000000 0.000000 0.000000 0.008408 0.000000 0.038413
#
#
# Mechanical properties :
#
#
# Convention : Reuss Voigt Hill
#
# Bulk Modulus (GPa) = 42.97881 43.69187 43.33534
# Shear Modulus (GPa) = 24.49051 26.28292 25.38671
#
# Velocity S-wave (km/s) = 3.66831 3.80017 3.73482
# Velocity P-wave (km/s) = 6.44647 6.57737 6.51225
#
# Compressibility (1/GPa) = 0.02326728
#
# Stress axis : x y z
#
# Youngs Moduli (GPa) = 69.10495 61.67556 54.12649
#
# Poissons Ratio (x) = 0.22444 0.25065
# Poissons Ratio (y) = 0.25148 0.25312
# Poissons Ratio (z) = 0.32001 0.28842
#
# Static dielectric constant tensor:
#      x y z
#    x 3.419530 0.000000 -0.023110 
#    y 0.000000 3.796280 0.000000 
#    z -0.023110 0.000000 3.477900 
# 
# 
# High freq. dielectric constant tensor:
#      x y z
#    x 1.702600 0.000000 -0.005520 
#    y 0.000000 1.696910 0.000000 
#    z -0.005520 0.000000 1.699660 
# 
# From -- ./inp_files/15841.got.cif
#   From: 2010.06.25/outbox.cif.g09.slc.cpg/sg13_8_cif.got.tgz:15841.got - 2010.06.28 04:50:58.
