data_PCOD8118939
_publ_section_title
;
Structure prediction by ZEFSAII (Michael W. Deem and Ramdas Pophale) SiO2 
 PCOD8118939
Probable space group: P 2/C
;
_chemical_formula_sum "Si O2"
_cell_formula_units_Z 26
_cell_length_a 5.310643
_cell_length_b 13.400828
_cell_length_c 17.753303
_cell_angle_alpha 90.000000
_cell_angle_beta 94.002636
_cell_angle_gamma 90.000000
_cell_volume 1260.367797
_symmetry_space_group_name_H-M "P 2/C"
_symmetry_group_IT_number 13
_symmetry_cell_setting 'monoclinic'
loop_
_space_group_symop_operation_xyz
x,y,z
-x,y,1/2-z
-x,-y,-z
x,-y,1/2+z
loop_
_atom_site_type_symbol
_atom_site_label
_atom_site_fract_x
_atom_site_fract_y
_atom_site_fract_z
Si Si1 0.973410 0.994469 0.160565
Si Si2 0.575934 0.258172 0.502022
Si Si3 0.775891 0.358909 0.130553
Si Si4 0.532779 0.933898 0.425583
Si Si5 0.242023 0.536882 0.458832
Si Si6 0.141944 0.194916 0.123548
Si Si7 0.500000 0.256945 0.250000
O O1 0.227439 0.965076 0.119953
O O2 0.000000 0.974315 0.250000
O O3 0.725091 0.938233 0.127788
O O4 0.931704 0.112551 0.140551
O O5 0.393830 0.311426 0.439061
O O6 0.426646 0.184076 0.554685
O O7 0.739879 0.342989 0.550022
O O8 0.760384 0.182808 0.459709
O O9 0.787085 0.479154 0.121920
O O10 0.685337 0.332362 0.211452
O O11 0.050019 0.309381 0.127485
O O12 0.500000 0.000000 0.500000
O O13 0.500000 0.500000 0.500000
O O14 0.000000 0.500000 0.500000
O O15 0.363763 0.182167 0.189467
#
# Coordination Sequence:
#
# PCOD8118939 Si02
#       7
#     4   4   4   4   4   4   2
#     4  12  27  42  64  90 131 174 214 263 334 389
#     4  10  22  37  62  93 121 158 213 261 311 366
#     4  10  20  36  59  88 127 158 199 252 322 379
#     4  12  25  42  66  95 126 168 221 272 316 380
#     4  10  20  36  60  89 119 153 194 248 310 369
#     4  11  21  36  61  88 128 156 204 258 325 380
#     4  10  22  34  54  92 124 162 194 250 320 390
#
# _framework density 20.628900000000002
#
# number of rings (size 3 to 8) (size 9 to 14) (size 15 to 20)
#    0.000    1.231    3.077    3.231    6.462    0.000 
#    0.000    0.000    3.385    0.000    0.000    0.000 
#    0.000    0.000    0.000    0.000    0.000    0.000 
#
# Total GULP energy -322152.886242 kJ/mol
# GULP energy per Si atom -12390.495625 kJ/mol
# Density = 2.058195 g / cm^3
# Si number density = 20.628900 Si / 1000 Ang^3
#
#
#
# Elastic Constant Matrix: (Units=GPa)
#
#
# Indices 1 2 3 4 5 6 
#
# 1 98.6306 14.5286 25.2015 0.0000 -11.0645 0.0000
# 2 14.5286 112.0819 36.8479 0.0000 -2.4430 0.0000
# 3 25.2015 36.8479 86.3322 0.0000 -13.7031 0.0000
# 4 0.0000 0.0000 0.0000 22.3601 0.0000 -1.7354
# 5 -11.0645 -2.4430 -13.7031 0.0000 29.5399 0.0000
# 6 0.0000 0.0000 0.0000 -1.7354 0.0000 28.8659
#
#
#
# Elastic Compliance Matrix: (Units=1/GPa)
#
#
# Indices 1 2 3 4 5 6 
#
# 1 0.011208 -0.000543 -0.002570 0.000000 0.002961 0.000000
# 2 -0.000543 0.010451 -0.004531 0.000000 -0.001441 0.000000
# 3 -0.002570 -0.004531 0.015172 0.000000 0.005701 0.000000
# 4 0.000000 0.000000 0.000000 0.044932 0.000000 0.002701
# 5 0.002961 -0.001441 0.005701 0.000000 0.037487 0.000000
# 6 0.000000 0.000000 0.000000 0.002701 0.000000 0.034805
#
#
# Mechanical properties :
#
#
# Convention : Reuss Voigt Hill
#
# Bulk Modulus (GPa) = 46.41951 50.02231 48.22091
# Shear Modulus (GPa) = 28.32494 30.85095 29.58794
#
# Velocity S-wave (km/s) = 3.70952 3.87139 3.79132
# Velocity P-wave (km/s) = 6.39518 6.65469 6.52623
#
# Compressibility (1/GPa) = 0.02154267
#
# Stress axis : x y z
#
# Youngs Moduli (GPa) = 89.22462 95.68890 65.91143
#
# Poissons Ratio (x) = 0.05200 0.16938
# Poissons Ratio (y) = 0.04849 0.29861
# Poissons Ratio (z) = 0.22929 0.43352
#
# Static dielectric constant tensor:
#      x y z
#    x 3.907650 0.000000 -0.109890 
#    y 0.000000 4.081050 0.000000 
#    z -0.109890 0.000000 3.812770 
# 
# 
# High freq. dielectric constant tensor:
#      x y z
#    x 1.819270 0.000000 -0.006900 
#    y 0.000000 1.798320 0.000000 
#    z -0.006900 0.000000 1.788310 
# 
# From -- ./inp_files/44055.got.cif
#   From: 2010.06.25/outbox.cif.g09.slc.cpg/sg13_23_cif.got.tgz:44055.got - 2010.06.28 04:50:58.
