data_PCOD8118160
_publ_section_title
;
Structure prediction by ZEFSAII (Michael W. Deem and Ramdas Pophale) SiO2 
 PCOD8118160
Probable space group: P 2/C
;
_chemical_formula_sum "Si O2"
_cell_formula_units_Z 24
_cell_length_a 14.488553
_cell_length_b 14.814194
_cell_length_c 9.888773
_cell_angle_alpha 90.000000
_cell_angle_beta 37.053532
_cell_angle_gamma 90.000000
_cell_volume 1278.928955
_symmetry_space_group_name_H-M "P 2/C"
_symmetry_group_IT_number 13
_symmetry_cell_setting 'monoclinic'
loop_
_space_group_symop_operation_xyz
x,y,z
-x,y,1/2-z
-x,-y,-z
x,-y,1/2+z
loop_
_atom_site_type_symbol
_atom_site_label
_atom_site_fract_x
_atom_site_fract_y
_atom_site_fract_z
Si Si1 0.687719 0.562639 0.186628
Si Si2 0.833634 0.769153 0.778730
Si Si3 0.329537 0.592428 0.594015
Si Si4 0.414080 0.876810 0.981724
Si Si5 0.179109 0.742209 0.390988
Si Si6 0.383224 0.077198 0.004256
O O1 0.512005 0.593772 0.390170
O O2 0.726339 0.468825 0.215658
O O3 0.780022 0.636555 0.165946
O O4 0.735676 0.553633 0.972859
O O5 0.733431 0.693868 0.816946
O O6 0.774793 0.867718 0.808108
O O7 0.009669 0.757754 0.530645
O O8 0.808685 0.765961 0.967219
O O9 0.292609 0.803103 0.170878
O O10 0.333656 0.972855 0.041649
O O11 0.500000 0.837079 0.750000
O O12 0.540418 0.900939 0.943394
O O13 0.500000 0.108653 0.750000
#
# Coordination Sequence:
#
# PCOD8118160 Si02
#       6
#     4   4   4   4   4   4
#     4   9  18  34  55  78 108 138 182 226 263 318
#     4  10  20  34  60  81 108 149 185 218 265 331
#     4   9  18  33  55  81 103 140 182 223 268 314
#     4  10  21  36  57  84 109 139 181 231 274 315
#     4  10  20  36  55  84 112 144 182 223 271 322
#     4  10  19  36  61  81 104 144 188 223 265 323
#
# _framework density 18.765702000000001
#
# number of rings (size 3 to 8) (size 9 to 14) (size 15 to 20)
#    0.000    2.333    1.667    1.000    2.333    1.333 
#    9.000    0.833    0.000    0.000    0.000    0.000 
#    0.000    0.000    0.000    0.000    0.000    0.000 
#
# Total GULP energy -297514.676249 kJ/mol
# GULP energy per Si atom -12396.444844 kJ/mol
# Density = 1.872299 g / cm^3
# Si number density = 18.765702 Si / 1000 Ang^3
#
#
#
# Elastic Constant Matrix: (Units=GPa)
#
#
# Indices 1 2 3 4 5 6 
#
# 1 61.4684 37.5718 25.9057 0.0000 -4.4918 0.0000
# 2 37.5718 88.9108 30.8712 0.0000 -5.1254 0.0000
# 3 25.9057 30.8712 74.6257 0.0000 7.0659 0.0000
# 4 0.0000 0.0000 0.0000 24.4213 0.0000 -1.3397
# 5 -4.4918 -5.1254 7.0659 0.0000 23.4946 0.0000
# 6 0.0000 0.0000 0.0000 -1.3397 0.0000 4.4333
#
#
#
# Elastic Compliance Matrix: (Units=1/GPa)
#
#
# Indices 1 2 3 4 5 6 
#
# 1 0.023676 -0.007883 -0.005377 0.000000 0.004424 0.000000
# 2 -0.007883 0.016267 -0.004309 0.000000 0.003337 0.000000
# 3 -0.005377 -0.004309 0.017741 0.000000 -0.007303 0.000000
# 4 0.000000 0.000000 0.000000 0.041638 0.000000 0.012582
# 5 0.004424 0.003337 -0.007303 0.000000 0.046333 0.000000
# 6 0.000000 0.000000 0.000000 0.012582 0.000000 0.229368
#
#
# Mechanical properties :
#
#
# Convention : Reuss Voigt Hill
#
# Bulk Modulus (GPa) = 44.35274 45.96692 45.15983
# Shear Modulus (GPa) = 11.97101 19.18026 15.57563
#
# Velocity S-wave (km/s) = 2.52845 3.20048 2.88411
# Velocity P-wave (km/s) = 5.67542 6.18109 5.93364
#
# Compressibility (1/GPa) = 0.02254652
#
# Stress axis : x y z
#
# Youngs Moduli (GPa) = 42.23629 61.47433 56.36772
#
# Poissons Ratio (x) = 0.48461 0.30308
# Poissons Ratio (y) = 0.33296 0.24287
# Poissons Ratio (z) = 0.22709 0.26488
#
# Static dielectric constant tensor:
#      x y z
#    x 3.425000 0.000000 0.078280 
#    y 0.000000 3.580750 0.000000 
#    z 0.078280 0.000000 3.334330 
# 
# 
# High freq. dielectric constant tensor:
#      x y z
#    x 1.722850 0.000000 0.004740 
#    y 0.000000 1.732360 0.000000 
#    z 0.004740 0.000000 1.709070 
# 
# From -- ./inp_files/19509.got.cif
#   From: 2010.06.25/outbox.cif.g09.slc.cpg/sg13_10_cif.got.tgz:19509.got - 2010.06.28 04:50:58.
