data_PCOD8118932
_publ_section_title
;
Structure prediction by ZEFSAII (Michael W. Deem and Ramdas Pophale) SiO2 
 PCOD8118932
Probable space group: P 2/C
;
_chemical_formula_sum "Si O2"
_cell_formula_units_Z 28
_cell_length_a 8.882422
_cell_length_b 20.365141
_cell_length_c 15.194119
_cell_angle_alpha 90.000000
_cell_angle_beta 28.567019
_cell_angle_gamma 90.000000
_cell_volume 1314.291068
_symmetry_space_group_name_H-M "P 2/C"
_symmetry_group_IT_number 13
_symmetry_cell_setting 'monoclinic'
loop_
_space_group_symop_operation_xyz
x,y,z
-x,y,1/2-z
-x,-y,-z
x,-y,1/2+z
loop_
_atom_site_type_symbol
_atom_site_label
_atom_site_fract_x
_atom_site_fract_y
_atom_site_fract_z
Si Si1 0.141992 0.302995 0.911245
Si Si2 0.771118 0.527256 0.046917
Si Si3 0.897231 0.053931 0.897807
Si Si4 0.265450 0.058612 0.293562
Si Si5 0.113901 0.351617 0.285791
Si Si6 0.847826 0.846002 0.107236
Si Si7 0.805509 0.393351 0.939857
O O1 0.500000 0.320542 0.750000
O O2 0.101467 0.230060 0.894611
O O3 0.008515 0.357160 0.911529
O O4 0.952247 0.302017 0.100606
O O5 0.682797 0.465696 0.030646
O O6 0.925995 0.581476 0.904711
O O7 0.500000 0.556307 0.250000
O O8 0.000000 0.500000 0.000000
O O9 0.000000 0.032509 0.750000
O O10 0.089251 0.117395 0.832776
O O11 0.519984 0.067906 0.084426
O O12 0.994963 0.994412 0.912688
O O13 0.500000 0.033864 0.250000
O O14 0.097816 0.126999 0.406624
O O15 0.000000 0.324360 0.250000
O O16 0.487822 0.354651 0.085091
O O17 0.500000 0.858993 0.250000
O O18 0.000000 0.397871 0.750000
#
# Coordination Sequence:
#
# PCOD8118932 Si02
#       7
#     4   4   4   4   4   4   4
#     4  11  24  45  67  88 122 165 210 264 313 369
#     4  12  23  41  68  95 127 164 205 254 317 371
#     4  11  21  35  59  92 124 155 199 251 302 350
#     4  10  20  36  59  86 120 163 199 241 298 362
#     4  12  26  42  66  94 127 163 207 260 311 375
#     4  10  22  41  63  85 117 162 204 244 303 368
#     4  12  26  42  65  95 125 166 209 255 314 373
#
# _framework density 21.304261
#
# number of rings (size 3 to 8) (size 9 to 14) (size 15 to 20)
#    0.000    0.857    2.857    5.571    2.000    5.143 
#    0.000    3.571    0.000    0.000    0.000    0.000 
#    0.000    0.000    0.000    0.000    0.000    0.000 
#
# Total GULP energy -346959.447323 kJ/mol
# GULP energy per Si atom -12391.408833 kJ/mol
# Density = 2.125577 g / cm^3
# Si number density = 21.304261 Si / 1000 Ang^3
#
#
#
# Elastic Constant Matrix: (Units=GPa)
#
#
# Indices 1 2 3 4 5 6 
#
# 1 83.5007 18.0108 32.5094 0.0000 5.7745 0.0000
# 2 18.0108 96.1758 9.8841 0.0000 -5.0496 0.0000
# 3 32.5094 9.8841 141.0085 0.0000 -0.5095 0.0000
# 4 0.0000 0.0000 0.0000 76.9608 0.0000 73.1213
# 5 5.7745 -5.0496 -0.5095 0.0000 45.8027 0.0000
# 6 0.0000 0.0000 0.0000 73.1213 0.0000 133.0508
#
#
#
# Elastic Compliance Matrix: (Units=1/GPa)
#
#
# Indices 1 2 3 4 5 6 
#
# 1 0.013808 -0.002382 -0.003024 0.000000 -0.002037 0.000000
# 2 -0.002382 0.010945 -0.000213 0.000000 0.001505 0.000000
# 3 -0.003024 -0.000213 0.007805 0.000000 0.000445 0.000000
# 4 0.000000 0.000000 0.000000 0.027192 0.000000 -0.014944
# 5 -0.002037 0.001505 0.000445 0.000000 0.022260 0.000000
# 6 0.000000 0.000000 0.000000 -0.014944 0.000000 0.015729
#
#
# Mechanical properties :
#
#
# Convention : Reuss Voigt Hill
#
# Bulk Modulus (GPa) = 46.90181 49.05483 47.97832
# Shear Modulus (GPa) = 43.07262 68.51491 55.79377
#
# Velocity S-wave (km/s) = 4.50130 5.67715 5.12307
# Velocity P-wave (km/s) = 7.00562 8.12706 7.58709
#
# Compressibility (1/GPa) = 0.02132114
#
# Stress axis : x y z
#
# Youngs Moduli (GPa) = 72.42257 91.36980 128.11629
#
# Poissons Ratio (x) = 0.21764 0.38740
# Poissons Ratio (y) = 0.17251 0.02723
# Poissons Ratio (z) = 0.21899 0.01942
#
# Static dielectric constant tensor:
#      x y z
#    x 3.863950 0.000000 -0.160510 
#    y 0.000000 3.760420 0.000000 
#    z -0.160510 0.000000 4.571320 
# 
# 
# High freq. dielectric constant tensor:
#      x y z
#    x 1.834610 0.000000 -0.009080 
#    y 0.000000 1.820150 0.000000 
#    z -0.009080 0.000000 1.858740 
# 
# From -- ./inp_files/48208.got.cif
#   From: 2010.06.25/outbox.cif.g09.slc.cpg/sg13_25_cif.got.tgz:48208.got - 2010.06.28 04:50:58.
