data_PCOD8118052
_publ_section_title
;
Structure prediction by ZEFSAII (Michael W. Deem and Ramdas Pophale) SiO2 
 PCOD8118052
Probable space group: P 2/C
;
_chemical_formula_sum "Si O2"
_cell_formula_units_Z 32
_cell_length_a 11.961160
_cell_length_b 9.476294
_cell_length_c 30.973326
_cell_angle_alpha 90.000000
_cell_angle_beta 152.305304
_cell_angle_gamma 90.000000
_cell_volume 1631.655571
_symmetry_space_group_name_H-M "P 2/C"
_symmetry_group_IT_number 13
_symmetry_cell_setting 'monoclinic'
loop_
_space_group_symop_operation_xyz
x,y,z
-x,y,1/2-z
-x,-y,-z
x,-y,1/2+z
loop_
_atom_site_type_symbol
_atom_site_label
_atom_site_fract_x
_atom_site_fract_y
_atom_site_fract_z
Si Si1 0.487751 0.778912 0.449391
Si Si2 0.397076 0.835498 0.149040
Si Si3 0.449072 0.599135 0.356565
Si Si4 0.061582 0.355813 0.851462
Si Si5 0.154279 0.332751 0.365526
Si Si6 0.117673 0.842267 0.139534
Si Si7 0.358125 0.701088 0.841664
Si Si8 0.342372 0.980697 0.548580
O O1 0.539049 0.653932 0.433302
O O2 0.242188 0.756727 0.391694
O O3 0.710648 0.779582 0.558430
O O4 0.481421 0.927879 0.421856
O O5 0.420602 0.678545 0.137905
O O6 0.207686 0.810293 0.122182
O O7 0.655475 0.895801 0.254260
O O8 0.296144 0.941973 0.078396
O O9 0.499325 0.432344 0.369428
O O10 0.164500 0.632286 0.257693
O O11 0.172903 0.512071 0.893707
O O12 0.991801 0.297929 0.875208
O O13 0.291791 0.341376 0.367397
O O14 0.884770 0.273223 0.268607
O O15 0.909505 0.959670 0.062883
O O16 0.531280 0.833532 0.897945
#
# Coordination Sequence:
#
# PCOD8118052 Si02
#       8
#     4   4   4   4   4   4   4   4
#     4  11  21  34  58  88 118 151 195 226 288 357
#     4   9  21  42  61  84 112 154 202 249 280 344
#     4   9  19  37  60  82 114 149 194 238 289 338
#     4  10  19  35  60  87 114 153 189 244 285 346
#     4  10  21  35  57  83 125 151 188 235 291 353
#     4  10  21  38  65  82 114 156 202 237 298 337
#     4  10  21  38  55  85 121 156 181 237 301 343
#     4  11  24  37  59  88 121 157 189 243 290 352
#
# _framework density 19.611982999999999
#
# number of rings (size 3 to 8) (size 9 to 14) (size 15 to 20)
#    0.000    2.000    1.250    1.875    3.500    2.000 
#   11.250    0.625    2.750    1.500    0.000    0.000 
#    0.000    0.000    0.000    0.000    0.000    0.000 
#
# Total GULP energy -396745.890854 kJ/mol
# GULP energy per Si atom -12398.309089 kJ/mol
# Density = 1.956735 g / cm^3
# Si number density = 19.611983 Si / 1000 Ang^3
#
#
#
# Elastic Constant Matrix: (Units=GPa)
#
#
# Indices 1 2 3 4 5 6 
#
# 1 97.0557 47.4831 27.2373 0.0000 -0.7455 0.0000
# 2 47.4831 112.9698 38.6891 0.0000 -2.4977 0.0000
# 3 27.2373 38.6891 77.4809 0.0000 -14.2516 0.0000
# 4 0.0000 0.0000 0.0000 28.4392 0.0000 -3.6635
# 5 -0.7455 -2.4977 -14.2516 0.0000 25.2999 0.0000
# 6 0.0000 0.0000 0.0000 -3.6635 0.0000 20.0848
#
#
#
# Elastic Compliance Matrix: (Units=1/GPa)
#
#
# Indices 1 2 3 4 5 6 
#
# 1 0.013347 -0.004753 -0.002602 0.000000 -0.001542 0.000000
# 2 -0.004753 0.012479 -0.004863 0.000000 -0.001648 0.000000
# 3 -0.002602 -0.004863 0.018014 0.000000 0.009590 0.000000
# 4 0.000000 0.000000 0.000000 0.036009 0.000000 0.006568
# 5 -0.001542 -0.001648 0.009590 0.000000 0.044720 0.000000
# 6 0.000000 0.000000 0.000000 0.006568 0.000000 0.050987
#
#
# Mechanical properties :
#
#
# Convention : Reuss Voigt Hill
#
# Bulk Modulus (GPa) = 51.53980 57.14726 54.34353
# Shear Modulus (GPa) = 24.21777 26.37125 25.29451
#
# Velocity S-wave (km/s) = 3.51785 3.67092 3.59520
# Velocity P-wave (km/s) = 6.54501 6.86803 6.70846
#
# Compressibility (1/GPa) = 0.01940248
#
# Stress axis : x y z
#
# Youngs Moduli (GPa) = 74.92273 80.13602 55.51328
#
# Poissons Ratio (x) = 0.38088 0.14446
# Poissons Ratio (y) = 0.35610 0.26998
# Poissons Ratio (z) = 0.19497 0.38973
#
# Static dielectric constant tensor:
#      x y z
#    x 3.462000 0.000000 -0.098940 
#    y 0.000000 3.444920 0.000000 
#    z -0.098940 0.000000 3.752840 
# 
# 
# High freq. dielectric constant tensor:
#      x y z
#    x 1.751560 0.000000 -0.011760 
#    y 0.000000 1.750700 0.000000 
#    z -0.011760 0.000000 1.774800 
# 
# From -- ./inp_files/57289.got.cif
#   From: 2010.06.25/outbox.cif.g09.slc.cpg/sg13_29_cif.got.tgz:57289.got - 2010.06.28 04:50:58.
