data_PCOD8118326
_publ_section_title
;
Structure prediction by ZEFSAII (Michael W. Deem and Ramdas Pophale) SiO2 
 PCOD8118326
Probable space group: P 2/C
;
_chemical_formula_sum "Si O2"
_cell_formula_units_Z 28
_cell_length_a 19.603432
_cell_length_b 9.316366
_cell_length_c 14.202904
_cell_angle_alpha 90.000000
_cell_angle_beta 33.532340
_cell_angle_gamma 90.000000
_cell_volume 1432.898505
_symmetry_space_group_name_H-M "P 2/C"
_symmetry_group_IT_number 13
_symmetry_cell_setting 'monoclinic'
loop_
_space_group_symop_operation_xyz
x,y,z
-x,y,1/2-z
-x,-y,-z
x,-y,1/2+z
loop_
_atom_site_type_symbol
_atom_site_label
_atom_site_fract_x
_atom_site_fract_y
_atom_site_fract_z
Si Si1 0.506824 0.418199 0.394782
Si Si2 0.234604 0.894154 0.413576
Si Si3 0.731967 0.094242 0.969036
Si Si4 0.417047 0.111334 0.540275
Si Si5 0.881910 0.671159 0.826166
Si Si6 0.974260 0.942835 0.631864
Si Si7 0.697522 0.428869 0.020025
O O1 0.500000 0.500000 0.500000
O O2 0.500169 0.248385 0.420713
O O3 0.633927 0.455543 0.194691
O O4 0.394071 0.467575 0.459281
O O5 0.303025 0.848064 0.239586
O O6 0.220280 0.752262 0.493128
O O7 0.098381 0.956200 0.549697
O O8 0.311881 0.015632 0.383548
O O9 0.640366 0.046143 0.989820
O O10 0.871509 0.044104 0.794299
O O11 0.736158 0.264077 0.971793
O O12 0.500000 0.000000 0.500000
O O13 0.925686 0.776810 0.690676
O O14 0.000000 0.622971 0.750000
O O15 0.817511 0.526521 0.863926
O O16 0.000000 0.000000 0.500000
#
# Coordination Sequence:
#
# PCOD8118326 Si02
#       7
#     4   4   4   4   4   4   4
#     4  10  22  39  60  80 116 156 188 237 289 333
#     4  10  20  37  60  83 115 152 188 236 289 340
#     4  10  21  37  59  85 117 150 188 243 295 339
#     4  11  22  36  58  86 114 150 198 236 281 343
#     4   9  20  36  60  84 113 152 191 230 287 346
#     4  10  19  38  61  84 116 149 187 239 293 338
#     4  10  21  40  58  84 118 149 192 239 285 342
#
# _framework density 19.540811000000001
#
# number of rings (size 3 to 8) (size 9 to 14) (size 15 to 20)
#    0.000    2.000    1.429    3.000    0.000    5.143 
#    2.571    0.714    0.000    0.000    0.000    0.000 
#    0.000    0.000    0.000    0.000    0.000    0.000 
#
# Total GULP energy -347135.513577 kJ/mol
# GULP energy per Si atom -12397.696913 kJ/mol
# Density = 1.949634 g / cm^3
# Si number density = 19.540811 Si / 1000 Ang^3
#
#
#
# Elastic Constant Matrix: (Units=GPa)
#
#
# Indices 1 2 3 4 5 6 
#
# 1 108.8345 59.8632 35.3737 0.0000 6.3852 0.0000
# 2 59.8632 91.3237 32.8689 0.0000 -7.1492 0.0000
# 3 35.3737 32.8689 67.7706 0.0000 2.7569 0.0000
# 4 0.0000 0.0000 0.0000 30.7262 0.0000 -4.1683
# 5 6.3852 -7.1492 2.7569 0.0000 32.5384 0.0000
# 6 0.0000 0.0000 0.0000 -4.1683 0.0000 37.9530
#
#
#
# Elastic Compliance Matrix: (Units=1/GPa)
#
#
# Indices 1 2 3 4 5 6 
#
# 1 0.015835 -0.009523 -0.003447 0.000000 -0.004908 0.000000
# 2 -0.009523 0.019396 -0.004702 0.000000 0.006529 0.000000
# 3 -0.003447 -0.004702 0.018915 0.000000 -0.001959 0.000000
# 4 0.000000 0.000000 0.000000 0.033038 0.000000 0.003629
# 5 -0.004908 0.006529 -0.001959 0.000000 0.033296 0.000000
# 6 0.000000 0.000000 0.000000 0.003629 0.000000 0.026747
#
#
# Mechanical properties :
#
#
# Convention : Reuss Voigt Hill
#
# Bulk Modulus (GPa) = 53.18644 58.23784 55.71214
# Shear Modulus (GPa) = 26.47777 29.56506 28.02142
#
# Velocity S-wave (km/s) = 3.68502 3.89394 3.79092
# Velocity P-wave (km/s) = 6.73670 7.07707 6.90898
#
# Compressibility (1/GPa) = 0.01880179
#
# Stress axis : x y z
#
# Youngs Moduli (GPa) = 63.15259 51.55676 52.86877
#
# Poissons Ratio (x) = 0.49100 0.18222
# Poissons Ratio (y) = 0.60143 0.24858
# Poissons Ratio (z) = 0.21766 0.24241
#
# Static dielectric constant tensor:
#      x y z
#    x 4.010600 0.000000 0.160360 
#    y 0.000000 3.444650 0.000000 
#    z 0.160360 0.000000 3.828910 
# 
# 
# High freq. dielectric constant tensor:
#      x y z
#    x 1.765340 0.000000 0.003500 
#    y 0.000000 1.750860 0.000000 
#    z 0.003500 0.000000 1.768810 
# 
# From -- ./inp_files/57452.got.cif
#   From: 2010.06.25/outbox.cif.g09.slc.cpg/sg13_29_cif.got.tgz:57452.got - 2010.06.28 04:50:58.
