data_PCOD8118251
_publ_section_title
;
Structure prediction by ZEFSAII (Michael W. Deem and Ramdas Pophale) SiO2 
 PCOD8118251
Probable space group: P 2/C
;
_chemical_formula_sum "Si O2"
_cell_formula_units_Z 22
_cell_length_a 9.032323
_cell_length_b 14.305005
_cell_length_c 9.015220
_cell_angle_alpha 90.000000
_cell_angle_beta 88.677941
_cell_angle_gamma 90.000000
_cell_volume 1164.523290
_symmetry_space_group_name_H-M "P 2/C"
_symmetry_group_IT_number 13
_symmetry_cell_setting 'monoclinic'
loop_
_space_group_symop_operation_xyz
x,y,z
-x,y,1/2-z
-x,-y,-z
x,-y,1/2+z
loop_
_atom_site_type_symbol
_atom_site_label
_atom_site_fract_x
_atom_site_fract_y
_atom_site_fract_z
Si Si1 0.596143 0.783035 0.617588
Si Si2 0.151476 0.745359 0.671086
Si Si3 0.104628 0.051760 0.111705
Si Si4 0.597619 0.939865 0.390185
Si Si5 0.500000 0.526918 0.250000
Si Si6 0.380342 0.380620 0.032093
O O1 0.500000 0.835882 0.750000
O O2 0.750687 0.756140 0.684420
O O3 0.632797 0.844331 0.473668
O O4 0.510628 0.690953 0.568894
O O5 0.148699 0.841107 0.571121
O O6 0.219409 0.666854 0.560043
O O7 0.000000 0.711992 0.750000
O O8 0.000000 0.066501 0.250000
O O9 0.249041 0.991715 0.152045
O O10 0.000000 0.000000 0.000000
O O11 0.500000 0.915983 0.250000
O O12 0.500000 0.000000 0.500000
O O13 0.393351 0.467366 0.144941
O O14 0.395262 0.589342 0.359719
#
# Coordination Sequence:
#
# PCOD8118251 Si02
#       6
#     4   4   4   4   2   4
#     4  10  20  37  57  85 114 151 198 241 301 349
#     4  10  19  37  62  82 118 160 200 235 297 357
#     4  11  23  39  56  80 119 166 198 235 297 358
#     4  12  22  34  56  85 114 148 201 257 287 340
#     4  10  20  38  66  88 118 148 194 244 310 370
#     4  10  20  38  63  89 116 152 193 246 307 358
#
# _framework density 18.891852
#
# number of rings (size 3 to 8) (size 9 to 14) (size 15 to 20)
#    0.000    1.455    2.727    7.091    1.273    0.000 
#    0.000    0.909    0.000    0.000    0.000    0.000 
#    0.000    0.000    0.000    0.000    0.000    0.000 
#
# Total GULP energy -272661.122318 kJ/mol
# GULP energy per Si atom -12393.687378 kJ/mol
# Density = 1.884885 g / cm^3
# Si number density = 18.891852 Si / 1000 Ang^3
#
#
#
# Elastic Constant Matrix: (Units=GPa)
#
#
# Indices 1 2 3 4 5 6 
#
# 1 119.3117 41.9154 31.8864 0.0000 -16.8332 0.0000
# 2 41.9154 99.7559 52.1486 0.0000 -16.0138 0.0000
# 3 31.8864 52.1486 110.6542 0.0000 -9.7324 0.0000
# 4 0.0000 0.0000 0.0000 42.0168 0.0000 -7.5546
# 5 -16.8332 -16.0138 -9.7324 0.0000 22.9885 0.0000
# 6 0.0000 0.0000 0.0000 -7.5546 0.0000 29.5843
#
#
#
# Elastic Compliance Matrix: (Units=1/GPa)
#
#
# Indices 1 2 3 4 5 6 
#
# 1 0.010454 -0.002964 -0.001167 0.000000 0.005096 0.000000
# 2 -0.002964 0.015275 -0.005816 0.000000 0.006008 0.000000
# 3 -0.001167 -0.005816 0.012135 0.000000 0.000231 0.000000
# 4 0.000000 0.000000 0.000000 0.024945 0.000000 0.006370
# 5 0.005096 0.006008 0.000231 0.000000 0.051514 0.000000
# 6 0.000000 0.000000 0.000000 0.006370 0.000000 0.035428
#
#
# Mechanical properties :
#
#
# Convention : Reuss Voigt Hill
#
# Bulk Modulus (GPa) = 55.65378 64.62474 60.13926
# Shear Modulus (GPa) = 28.46807 32.50269 30.48538
#
# Velocity S-wave (km/s) = 3.88609 4.15234 4.02142
# Velocity P-wave (km/s) = 7.04689 7.56778 7.31197
#
# Compressibility (1/GPa) = 0.01796823
#
# Stress axis : x y z
#
# Youngs Moduli (GPa) = 95.66057 65.46732 82.40760
#
# Poissons Ratio (x) = 0.19406 0.09619
# Poissons Ratio (y) = 0.28356 0.47929
# Poissons Ratio (z) = 0.11165 0.38076
#
# Static dielectric constant tensor:
#      x y z
#    x 2.704700 0.000000 2.371370 
#    y 0.000000 2.821190 0.000000 
#    z 2.371370 0.000000 -3.925920 
# 
# 
# High freq. dielectric constant tensor:
#      x y z
#    x 1.732080 0.000000 -0.006040 
#    y 0.000000 1.733160 0.000000 
#    z -0.006040 0.000000 1.732420 
# 
# From -- ./inp_files/12320.got.cif
#   From: 2010.06.25/outbox.cif.g09.slc.cpg/sg13_7_cif.got.tgz:12320.got - 2010.06.28 04:50:58.
