data_PCOD8118413
_publ_section_title
;
Structure prediction by ZEFSAII (Michael W. Deem and Ramdas Pophale) SiO2 
 PCOD8118413
Probable space group: P 2/C
;
_chemical_formula_sum "Si O2"
_cell_formula_units_Z 28
_cell_length_a 21.777942
_cell_length_b 8.255930
_cell_length_c 16.082046
_cell_angle_alpha 90.000000
_cell_angle_beta 151.507502
_cell_angle_gamma 90.000000
_cell_volume 1379.374818
_symmetry_space_group_name_H-M "P 2/C"
_symmetry_group_IT_number 13
_symmetry_cell_setting 'monoclinic'
loop_
_space_group_symop_operation_xyz
x,y,z
-x,y,1/2-z
-x,-y,-z
x,-y,1/2+z
loop_
_atom_site_type_symbol
_atom_site_label
_atom_site_fract_x
_atom_site_fract_y
_atom_site_fract_z
Si Si1 0.962849 0.326794 0.302777
Si Si2 0.181739 0.228129 0.676621
Si Si3 0.363123 0.842384 0.629379
Si Si4 0.188411 0.037036 0.306674
Si Si5 0.607229 0.930728 0.184939
Si Si6 0.430892 0.755236 0.085438
Si Si7 0.273986 0.448524 0.933899
O O1 0.911918 0.149489 0.264958
O O2 0.859685 0.465979 0.199941
O O3 0.000000 0.336236 0.250000
O O4 0.083747 0.344244 0.509462
O O5 0.270730 0.140374 0.715612
O O6 0.258973 0.339300 0.833579
O O7 0.120403 0.076722 0.655615
O O8 0.500000 0.878613 0.750000
O O9 0.327900 0.651301 0.578000
O O10 0.243812 0.922743 0.442318
O O11 0.358153 0.915229 0.715705
O O12 0.307007 0.139815 0.409550
O O13 0.544770 0.773497 0.154700
O O14 0.500000 0.000000 0.000000
O O15 0.500000 0.825187 0.250000
O O16 0.386863 0.572073 0.045020
#
# Coordination Sequence:
#
# PCOD8118413 Si02
#       7
#     4   4   4   4   4   4   4
#     4  11  24  43  64  90 124 169 221 263 314 374
#     4  11  23  41  64  93 128 171 211 265 317 377
#     4  11  19  40  64  92 126 163 207 260 318 375
#     4  10  19  39  65  89 120 165 211 256 314 368
#     4  12  21  36  65 101 131 161 214 263 313 388
#     4  11  20  38  63  91 130 169 201 260 324 373
#     4  10  25  42  62  90 129 174 210 257 329 379
#
# _framework density 20.299050000000001
#
# number of rings (size 3 to 8) (size 9 to 14) (size 15 to 20)
#    0.000    1.143    4.286    3.000    2.000    0.571 
#    2.571    7.143    0.000    0.000    0.000    0.000 
#    0.000    0.000    0.000    0.000    0.000    0.000 
#
# Total GULP energy -346905.587844 kJ/mol
# GULP energy per Si atom -12389.485280 kJ/mol
# Density = 2.025285 g / cm^3
# Si number density = 20.299050 Si / 1000 Ang^3
#
#
#
# Elastic Constant Matrix: (Units=GPa)
#
#
# Indices 1 2 3 4 5 6 
#
# 1 110.2676 48.4991 41.1790 0.0000 -14.9146 0.0000
# 2 48.4991 123.1000 37.0646 0.0000 -9.2782 0.0000
# 3 41.1790 37.0646 88.2288 0.0000 -13.2122 0.0000
# 4 0.0000 0.0000 0.0000 27.6689 0.0000 7.4232
# 5 -14.9146 -9.2782 -13.2122 0.0000 26.4290 0.0000
# 6 0.0000 0.0000 0.0000 7.4232 0.0000 18.4600
#
#
#
# Elastic Compliance Matrix: (Units=1/GPa)
#
#
# Indices 1 2 3 4 5 6 
#
# 1 0.012566 -0.003509 -0.003798 0.000000 0.003961 0.000000
# 2 -0.003509 0.010329 -0.002654 0.000000 0.000319 0.000000
# 3 -0.003798 -0.002654 0.014875 0.000000 0.004361 0.000000
# 4 0.000000 0.000000 0.000000 0.040512 0.000000 -0.016291
# 5 0.003961 0.000319 0.004361 0.000000 0.042365 0.000000
# 6 0.000000 0.000000 0.000000 -0.016291 0.000000 0.060722
#
#
# Mechanical properties :
#
#
# Convention : Reuss Voigt Hill
#
# Bulk Modulus (GPa) = 56.02496 63.89798 59.96147
# Shear Modulus (GPa) = 24.12669 27.50181 25.81425
#
# Velocity S-wave (km/s) = 3.45129 3.68480 3.56996
# Velocity P-wave (km/s) = 6.59861 7.04630 6.82612
#
# Compressibility (1/GPa) = 0.01784919
#
# Stress axis : x y z
#
# Youngs Moduli (GPa) = 79.57884 96.81525 67.22871
#
# Poissons Ratio (x) = 0.33970 0.25532
# Poissons Ratio (y) = 0.27923 0.17840
# Poissons Ratio (z) = 0.30222 0.25692
#
# Static dielectric constant tensor:
#      x y z
#    x 3.383740 0.000000 -0.177110 
#    y 0.000000 3.944280 0.000000 
#    z -0.177110 0.000000 3.894350 
# 
# 
# High freq. dielectric constant tensor:
#      x y z
#    x 1.779740 0.000000 -0.003800 
#    y 0.000000 1.799980 0.000000 
#    z -0.003800 0.000000 1.804440 
# 
# From -- ./inp_files/50104.got.cif
#   From: 2010.06.25/outbox.cif.g09.slc.cpg/sg13_26_cif.got.tgz:50104.got - 2010.06.28 04:50:58.
