data_PCOD8118777
_publ_section_title
;
Structure prediction by ZEFSAII (Michael W. Deem and Ramdas Pophale) SiO2 
 PCOD8118777
Probable space group: P 2/C
;
_chemical_formula_sum "Si O2"
_cell_formula_units_Z 22
_cell_length_a 12.216459
_cell_length_b 7.538729
_cell_length_c 12.152797
_cell_angle_alpha 90.000000
_cell_angle_beta 116.158753
_cell_angle_gamma 90.000000
_cell_volume 1004.594825
_symmetry_space_group_name_H-M "P 2/C"
_symmetry_group_IT_number 13
_symmetry_cell_setting 'monoclinic'
loop_
_space_group_symop_operation_xyz
x,y,z
-x,y,1/2-z
-x,-y,-z
x,-y,1/2+z
loop_
_atom_site_type_symbol
_atom_site_label
_atom_site_fract_x
_atom_site_fract_y
_atom_site_fract_z
Si Si1 0.286486 0.481731 0.937992
Si Si2 0.824956 0.182614 0.751169
Si Si3 0.917646 0.343025 0.010818
Si Si4 0.000000 0.108988 0.250000
Si Si5 0.446087 0.913446 0.332678
Si Si6 0.475105 0.277972 0.420554
O O1 0.188174 0.353813 0.834432
O O2 0.211006 0.588857 0.996295
O O3 0.353060 0.600657 0.872897
O O4 0.399427 0.383184 0.048608
O O5 0.694201 0.120176 0.725842
O O6 0.896878 0.219780 0.895504
O O7 0.884633 0.020736 0.710871
O O8 0.986913 0.232369 0.136368
O O9 0.000000 0.500000 0.000000
O O10 0.500000 0.818287 0.250000
O O11 0.521021 0.826098 0.463039
O O12 0.463068 0.125411 0.325341
#
# Coordination Sequence:
#
# PCOD8118777 Si02
#       6
#     4   4   4   2   4   4
#     4  10  21  40  61  88 126 159 203 255 303 366
#     4  11  24  40  63  91 123 165 207 251 311 368
#     4  12  25  42  66  91 119 160 210 258 310 366
#     4  12  26  46  64  86 126 160 204 262 310 372
#     4  10  20  35  58  89 121 158 203 248 306 368
#     4   9  20  37  59  87 123 162 195 247 309 362
#
# _framework density 21.899376
#
# number of rings (size 3 to 8) (size 9 to 14) (size 15 to 20)
#    0.000    1.455    0.000    4.909    0.000    5.818 
#    0.000    1.818    0.000    0.000    0.000    0.000 
#    0.000    0.000    0.000    0.000    0.000    0.000 
#
# Total GULP energy -272677.367516 kJ/mol
# GULP energy per Si atom -12394.425796 kJ/mol
# Density = 2.184953 g / cm^3
# Si number density = 21.899376 Si / 1000 Ang^3
#
#
#
# Elastic Constant Matrix: (Units=GPa)
#
#
# Indices 1 2 3 4 5 6 
#
# 1 88.2740 26.2750 13.3178 0.0000 -21.5660 0.0000
# 2 26.2750 104.8786 31.1610 0.0000 0.0187 0.0000
# 3 13.3178 31.1610 76.0733 0.0000 -5.1319 0.0000
# 4 0.0000 0.0000 0.0000 31.1506 0.0000 -3.4375
# 5 -21.5660 0.0187 -5.1319 0.0000 18.5602 0.0000
# 6 0.0000 0.0000 0.0000 -3.4375 0.0000 39.5691
#
#
#
# Elastic Compliance Matrix: (Units=1/GPa)
#
#
# Indices 1 2 3 4 5 6 
#
# 1 0.017662 -0.004465 0.000124 0.000000 0.020561 0.000000
# 2 -0.004465 0.012014 -0.004576 0.000000 -0.006466 0.000000
# 3 0.000124 -0.004576 0.015293 0.000000 0.004377 0.000000
# 4 0.000000 0.000000 0.000000 0.032413 0.000000 0.002816
# 5 0.020561 -0.006466 0.004377 0.000000 0.078987 0.000000
# 6 0.000000 0.000000 0.000000 0.002816 0.000000 0.025517
#
#
# Mechanical properties :
#
#
# Convention : Reuss Voigt Hill
#
# Bulk Modulus (GPa) = 36.85213 45.63706 41.24460
# Shear Modulus (GPa) = 23.95042 31.08747 27.51894
#
# Velocity S-wave (km/s) = 3.31064 3.77179 3.54871
# Velocity P-wave (km/s) = 5.61055 6.31294 5.97208
#
# Compressibility (1/GPa) = 0.02713547
#
# Stress axis : x y z
#
# Youngs Moduli (GPa) = 56.61864 83.23482 65.38909
#
# Poissons Ratio (x) = 0.37168 -0.00812
# Poissons Ratio (y) = 0.25282 0.29920
# Poissons Ratio (z) = -0.00703 0.38086
#
# Static dielectric constant tensor:
#      x y z
#    x 4.005440 0.000000 0.315540 
#    y 0.000000 4.348260 0.000000 
#    z 0.315540 0.000000 5.913860 
# 
# 
# High freq. dielectric constant tensor:
#      x y z
#    x 1.872190 0.000000 -0.003460 
#    y 0.000000 1.876320 0.000000 
#    z -0.003460 0.000000 1.850280 
# 
# From -- ./inp_files/32682.got.cif
#   From: 2010.06.25/outbox.cif.g09.slc.cpg/sg13_17_cif.got.tgz:32682.got - 2010.06.28 04:50:58.
