data_PCOD8118031
_publ_section_title
;
Structure prediction by ZEFSAII (Michael W. Deem and Ramdas Pophale) SiO2 
 PCOD8118031
Probable space group: P 2/C
;
_chemical_formula_sum "Si O2"
_cell_formula_units_Z 32
_cell_length_a 13.915544
_cell_length_b 11.680125
_cell_length_c 15.113082
_cell_angle_alpha 90.000000
_cell_angle_beta 44.235236
_cell_angle_gamma 90.000000
_cell_volume 1713.605463
_symmetry_space_group_name_H-M "P 2/C"
_symmetry_group_IT_number 13
_symmetry_cell_setting 'monoclinic'
loop_
_space_group_symop_operation_xyz
x,y,z
-x,y,1/2-z
-x,-y,-z
x,-y,1/2+z
loop_
_atom_site_type_symbol
_atom_site_label
_atom_site_fract_x
_atom_site_fract_y
_atom_site_fract_z
Si Si1 0.155868 0.571746 0.823108
Si Si2 0.160980 0.409736 0.980708
Si Si3 0.652964 0.757072 0.749016
Si Si4 0.334720 0.178157 0.858359
Si Si5 0.341505 0.245609 0.454860
Si Si6 0.157582 0.562778 0.148752
Si Si7 0.660791 0.004616 0.794705
Si Si8 0.664164 0.996135 0.991402
O O1 0.196651 0.505070 0.884903
O O2 0.251685 0.682468 0.750169
O O3 0.192708 0.486162 0.720788
O O4 0.000387 0.619710 0.923356
O O5 0.255459 0.298318 0.907941
O O6 0.191126 0.464179 0.056094
O O7 0.667550 0.711843 0.639640
O O8 0.497557 0.745443 0.887311
O O9 0.702145 0.887977 0.718453
O O10 0.500000 0.197846 0.750000
O O11 0.287274 0.109546 0.800944
O O12 0.285215 0.108120 0.978921
O O13 0.248332 0.324635 0.577410
O O14 0.290801 0.114875 0.493296
O O15 0.000000 0.602721 0.250000
O O16 0.726428 0.998592 0.850366
O O17 0.498213 0.016096 0.908488
#
# Coordination Sequence:
#
# PCOD8118031 Si02
#       8
#     4   4   4   4   4   4   4   4
#     4  10  22  39  57  77 109 152 189 229 279 334
#     4  10  22  39  55  79 112 150 188 227 281 333
#     4  10  19  35  59  82 111 144 183 232 280 328
#     4  10  20  35  57  84 115 146 182 231 279 332
#     4  10  19  35  59  84 109 143 185 232 278 331
#     4  10  22  39  58  78 110 150 188 231 283 332
#     4   9  18  33  53  82 109 146 178 215 283 332
#     4   9  18  33  54  79 114 142 176 223 275 333
#
# _framework density 18.674075999999999
#
# number of rings (size 3 to 8) (size 9 to 14) (size 15 to 20)
#    0.000    2.250    2.500    0.000    3.500    1.500 
#    0.000    0.625    2.750    0.000    0.000    0.000 
#    0.000    0.000    0.000    0.000    0.000    0.000 
#
# Total GULP energy -396688.433757 kJ/mol
# GULP energy per Si atom -12396.513555 kJ/mol
# Density = 1.863157 g / cm^3
# Si number density = 18.674076 Si / 1000 Ang^3
#
#
#
# Elastic Constant Matrix: (Units=GPa)
#
#
# Indices 1 2 3 4 5 6 
#
# 1 53.4235 30.4912 29.0550 0.0000 1.2289 0.0000
# 2 30.4912 97.9625 43.5895 0.0000 -23.1086 0.0000
# 3 29.0550 43.5895 79.7836 0.0000 6.9595 0.0000
# 4 0.0000 0.0000 0.0000 1.9806 0.0000 -1.5010
# 5 1.2289 -23.1086 6.9595 0.0000 20.1334 0.0000
# 6 0.0000 0.0000 0.0000 -1.5010 0.0000 0.6340
#
#
#
# Elastic Compliance Matrix: (Units=1/GPa)
#
#
# Indices 1 2 3 4 5 6 
#
# 1 0.026095 -0.009025 -0.003639 0.000000 -0.010694 0.000000
# 2 -0.009025 0.030106 -0.016728 0.000000 0.040888 0.000000
# 3 -0.003639 -0.016728 0.025420 0.000000 -0.027765 0.000000
# 4 0.000000 0.000000 0.000000 -0.635615 0.000000 -1.504942
# 5 -0.010694 0.040888 -0.027765 0.000000 0.106849 0.000000
# 6 0.000000 0.000000 0.000000 -1.504942 0.000000 -1.985835
#
#
# Mechanical properties :
#
#
# Convention : Reuss Voigt Hill
#
# Bulk Modulus (GPa) = 43.79107 48.60455 46.19781
# Shear Modulus (GPa) = -2.11275 13.08518 5.48622
#
# Velocity S-wave (km/s) = -1.06482 2.64997 1.71588
# Velocity P-wave (km/s) = 4.68928 5.95378 5.35895
#
# Compressibility (1/GPa) = 0.02283570
#
# Stress axis : x y z
#
# Youngs Moduli (GPa) = 38.32191 33.21645 39.33863
#
# Poissons Ratio (x) = 0.29979 0.14316
# Poissons Ratio (y) = 0.34587 0.65805
# Poissons Ratio (z) = 0.13946 0.55564
#
# Static dielectric constant tensor:
#      x y z
#    x 3.416940 0.000000 0.259450 
#    y 0.000000 3.332130 0.000000 
#    z 0.259450 0.000000 3.437280 
# 
# 
# High freq. dielectric constant tensor:
#      x y z
#    x 1.712340 0.000000 0.024640 
#    y 0.000000 1.727860 0.000000 
#    z 0.024640 0.000000 1.714010 
# 
# From -- ./inp_files/50892.got.cif
#   From: 2010.06.25/outbox.cif.g09.slc.cpg/sg13_26_cif.got.tgz:50892.got - 2010.06.28 04:50:58.
