data_PCOD8118425
_publ_section_title
;
Structure prediction by ZEFSAII (Michael W. Deem and Ramdas Pophale) SiO2 
 PCOD8118425
Probable space group: P 2/C
;
_chemical_formula_sum "Si O2"
_cell_formula_units_Z 24
_cell_length_a 7.882496
_cell_length_b 15.021836
_cell_length_c 9.093487
_cell_angle_alpha 90.000000
_cell_angle_beta 105.687721
_cell_angle_gamma 90.000000
_cell_volume 1036.646355
_symmetry_space_group_name_H-M "P 2/C"
_symmetry_group_IT_number 13
_symmetry_cell_setting 'monoclinic'
loop_
_space_group_symop_operation_xyz
x,y,z
-x,y,1/2-z
-x,-y,-z
x,-y,1/2+z
loop_
_atom_site_type_symbol
_atom_site_label
_atom_site_fract_x
_atom_site_fract_y
_atom_site_fract_z
Si Si1 0.610711 0.191616 0.102860
Si Si2 0.817415 0.603671 0.984269
Si Si3 0.000000 0.518176 0.750000
Si Si4 0.705158 0.124141 0.832058
Si Si5 0.500000 0.346921 0.250000
Si Si6 0.153473 0.065215 0.168993
Si Si7 0.199708 0.803055 0.444006
O O1 0.715547 0.190400 0.973907
O O2 0.402640 0.182637 0.034295
O O3 0.643246 0.285061 0.195822
O O4 0.676975 0.109125 0.214713
O O5 0.610031 0.594574 0.892748
O O6 0.922345 0.577890 0.861737
O O7 0.852517 0.542614 0.135024
O O8 0.867145 0.703693 0.042522
O O9 0.500000 0.108409 0.750000
O O10 0.818379 0.173083 0.732196
O O11 0.791052 0.028752 0.887737
O O12 0.000000 0.053521 0.250000
O O13 0.087552 0.127722 0.017690
#
# Coordination Sequence:
#
# PCOD8118425 Si02
#       7
#     4   4   2   4   2   4   4
#     4  10  19  40  61  87 117 171 220 267 315 371
#     4  10  22  45  71  99 131 168 215 267 330 405
#     4  10  24  46  70 102 132 166 204 266 354 396
#     4  10  22  37  60  88 124 170 222 269 312 368
#     4  10  20  42  74  98 126 166 228 264 310 402
#     4  12  23  36  56  89 129 173 220 269 320 372
#     4  10  21  41  64  89 123 170 222 266 317 382
#
# _framework density 23.151579000000002
#
# number of rings (size 3 to 8) (size 9 to 14) (size 15 to 20)
#    0.000    1.667    3.333    2.000    1.167    6.000 
#   10.500    0.000    1.833    0.000    0.000    0.000 
#    0.000    0.000    0.000    0.000    0.000    0.000 
#
# Total GULP energy -297518.339245 kJ/mol
# GULP energy per Si atom -12396.597469 kJ/mol
# Density = 2.309888 g / cm^3
# Si number density = 23.151579 Si / 1000 Ang^3
#
#
#
# Elastic Constant Matrix: (Units=GPa)
#
#
# Indices 1 2 3 4 5 6 
#
# 1 50.3772 44.1264 28.3748 0.0000 -19.5760 0.0000
# 2 44.1264 135.0355 68.5533 0.0000 -10.4528 0.0000
# 3 28.3748 68.5533 161.5117 0.0000 -28.9971 0.0000
# 4 0.0000 0.0000 0.0000 28.8892 0.0000 1.6249
# 5 -19.5760 -10.4528 -28.9971 0.0000 41.1419 0.0000
# 6 0.0000 0.0000 0.0000 1.6249 0.0000 28.4599
#
#
#
# Elastic Compliance Matrix: (Units=1/GPa)
#
#
# Indices 1 2 3 4 5 6 
#
# 1 0.034045 -0.010560 0.001062 0.000000 0.014265 0.000000
# 2 -0.010560 0.012724 -0.004427 0.000000 -0.004912 0.000000
# 3 0.001062 -0.004427 0.008899 0.000000 0.005653 0.000000
# 4 0.000000 0.000000 0.000000 0.034727 0.000000 -0.001983
# 5 0.014265 -0.004912 0.005653 0.000000 0.033829 0.000000
# 6 0.000000 0.000000 0.000000 -0.001983 0.000000 0.035250
#
#
# Mechanical properties :
#
#
# Convention : Reuss Voigt Hill
#
# Bulk Modulus (GPa) = 35.94925 69.89259 52.92092
# Shear Modulus (GPa) = 25.43286 33.42287 29.42787
#
# Velocity S-wave (km/s) = 3.31801 3.80367 3.56911
# Velocity P-wave (km/s) = 5.49913 7.03883 6.31608
#
# Compressibility (1/GPa) = 0.02781699
#
# Stress axis : x y z
#
# Youngs Moduli (GPa) = 29.37304 78.59461 112.37411
#
# Poissons Ratio (x) = 0.82996 -0.11936
# Poissons Ratio (y) = 0.31018 0.49750
# Poissons Ratio (z) = -0.03120 0.34795
#
# Static dielectric constant tensor:
#      x y z
#    x 4.074840 0.000000 0.007090 
#    y 0.000000 4.094120 0.000000 
#    z 0.007090 0.000000 4.788400 
# 
# 
# High freq. dielectric constant tensor:
#      x y z
#    x 1.911210 0.000000 0.007630 
#    y 0.000000 1.895390 0.000000 
#    z 0.007630 0.000000 1.942300 
# 
# From -- ./inp_files/12518.got.cif
#   From: 2010.06.25/outbox.cif.g09.slc.cpg/sg13_7_cif.got.tgz:12518.got - 2010.06.28 04:50:58.
