data_PCOD8118908
_publ_section_title
;
Structure prediction by ZEFSAII (Michael W. Deem and Ramdas Pophale) SiO2 
 PCOD8118908
Probable space group: P 2/C
;
_chemical_formula_sum "Si O2"
_cell_formula_units_Z 24
_cell_length_a 17.478620
_cell_length_b 9.369144
_cell_length_c 15.860360
_cell_angle_alpha 90.000000
_cell_angle_beta 27.970763
_cell_angle_gamma 90.000000
_cell_volume 1218.182445
_symmetry_space_group_name_H-M "P 2/C"
_symmetry_group_IT_number 13
_symmetry_cell_setting 'monoclinic'
loop_
_space_group_symop_operation_xyz
x,y,z
-x,y,1/2-z
-x,-y,-z
x,-y,1/2+z
loop_
_atom_site_type_symbol
_atom_site_label
_atom_site_fract_x
_atom_site_fract_y
_atom_site_fract_z
Si Si1 0.115426 0.106985 0.714813
Si Si2 0.191689 0.649714 0.569029
Si Si3 0.688328 0.336336 0.072402
Si Si4 0.305162 0.842249 0.599943
Si Si5 0.196892 0.845827 0.896199
Si Si6 0.620097 0.883960 0.210330
O O1 0.213832 0.248880 0.594191
O O2 0.000000 0.056126 0.750000
O O3 0.241021 0.983743 0.615792
O O4 0.999832 0.139224 0.908049
O O5 0.285514 0.502543 0.466758
O O6 0.233104 0.705982 0.621981
O O7 0.256122 0.756731 0.433752
O O8 0.000000 0.626242 0.750000
O O9 0.500000 0.297069 0.250000
O O10 0.751530 0.296590 0.104292
O O11 0.252109 0.834596 0.747330
O O12 0.503063 0.840559 0.402756
O O13 0.276217 0.978599 0.867630
O O14 0.500000 0.918842 0.250000
#
# Coordination Sequence:
#
# PCOD8118908 Si02
#       6
#     4   4   4   4   4   4
#     4  10  20  36  58  84 113 151 187 221 273 336
#     4  11  22  40  60  80 110 152 190 225 275 341
#     4  11  22  40  60  80 110 152 190 225 275 341
#     4  11  21  36  58  88 115 143 185 236 277 319
#     4  11  21  36  58  88 115 143 185 236 277 319
#     4  10  20  36  58  84 113 151 187 221 273 336
#
# _framework density 19.701483
#
# number of rings (size 3 to 8) (size 9 to 14) (size 15 to 20)
#    0.000    1.333    0.000   11.000    0.000    0.000 
#    0.000    8.333    0.000    0.000    0.000    0.000 
#    0.000    0.000    0.000    0.000    0.000    0.000 
#
# Total GULP energy -297642.661713 kJ/mol
# GULP energy per Si atom -12401.777571 kJ/mol
# Density = 1.965664 g / cm^3
# Si number density = 19.701483 Si / 1000 Ang^3
#
#
#
# Elastic Constant Matrix: (Units=GPa)
#
#
# Indices 1 2 3 4 5 6 
#
# 1 40.8715 34.0734 30.9505 0.0000 8.0997 0.0000
# 2 34.0734 105.9641 22.5342 0.0000 16.3308 0.0000
# 3 30.9505 22.5342 152.9731 0.0000 8.7475 0.0000
# 4 0.0000 0.0000 0.0000 29.4740 0.0000 -14.3591
# 5 8.0997 16.3308 8.7475 0.0000 40.8900 0.0000
# 6 0.0000 0.0000 0.0000 -14.3591 0.0000 5.1403
#
#
#
# Elastic Compliance Matrix: (Units=1/GPa)
#
#
# Indices 1 2 3 4 5 6 
#
# 1 0.038435 -0.010756 -0.006077 0.000000 -0.002018 0.000000
# 2 -0.010756 0.013315 0.000402 0.000000 -0.003273 0.000000
# 3 -0.006077 0.000402 0.007742 0.000000 -0.000613 0.000000
# 4 0.000000 0.000000 0.000000 -0.094012 0.000000 -0.262614
# 5 -0.002018 -0.003273 -0.000613 0.000000 0.026294 0.000000
# 6 0.000000 0.000000 0.000000 -0.262614 0.000000 -0.539050
#
#
# Mechanical properties :
#
#
# Convention : Reuss Voigt Hill
#
# Bulk Modulus (GPa) = 37.54969 52.76942 45.15955
# Shear Modulus (GPa) = -9.89048 29.25091 9.68022
#
# Velocity S-wave (km/s) = -2.24300 3.85737 2.21903
# Velocity P-wave (km/s) = 3.52031 6.83240 5.43481
#
# Compressibility (1/GPa) = 0.02663138
#
# Stress axis : x y z
#
# Youngs Moduli (GPa) = 26.01772 75.10486 129.15868
#
# Poissons Ratio (x) = 0.80782 0.78486
# Poissons Ratio (y) = 0.27984 -0.05192
# Poissons Ratio (z) = 0.15810 -0.03019
#
# Static dielectric constant tensor:
#      x y z
#    x 3.498720 0.000000 -0.006920 
#    y 0.000000 3.477810 0.000000 
#    z -0.006920 0.000000 4.293940 
# 
# 
# High freq. dielectric constant tensor:
#      x y z
#    x 1.741820 0.000000 -0.010550 
#    y 0.000000 1.762790 0.000000 
#    z -0.010550 0.000000 1.803780 
# 
# From -- ./inp_files/55183.got.cif
#   From: 2010.06.25/outbox.cif.g09.slc.cpg/sg13_28_cif.got.tgz:55183.got - 2010.06.28 04:50:58.
