data_PCOD8118619
_publ_section_title
;
Structure prediction by ZEFSAII (Michael W. Deem and Ramdas Pophale) SiO2 
 PCOD8118619
Probable space group: P 2/C
;
_chemical_formula_sum "Si O2"
_cell_formula_units_Z 30
_cell_length_a 6.864067
_cell_length_b 14.533735
_cell_length_c 16.658706
_cell_angle_alpha 90.000000
_cell_angle_beta 108.449928
_cell_angle_gamma 90.000000
_cell_volume 1576.461636
_symmetry_space_group_name_H-M "P 2/C"
_symmetry_group_IT_number 13
_symmetry_cell_setting 'monoclinic'
loop_
_space_group_symop_operation_xyz
x,y,z
-x,y,1/2-z
-x,-y,-z
x,-y,1/2+z
loop_
_atom_site_type_symbol
_atom_site_label
_atom_site_fract_x
_atom_site_fract_y
_atom_site_fract_z
Si Si1 0.087674 0.560352 0.836313
Si Si2 0.984183 0.858177 0.010541
Si Si3 0.838596 0.399094 0.863472
Si Si4 0.349898 0.987686 0.056768
Si Si5 0.500000 0.930206 0.250000
Si Si6 0.906024 0.341809 0.458161
Si Si7 0.864822 0.794203 0.307360
Si Si8 0.459241 0.472518 0.085599
O O1 0.322874 0.542746 0.845474
O O2 0.000000 0.619880 0.750000
O O3 0.945217 0.468279 0.815228
O O4 0.063058 0.614813 0.915149
O O5 0.982743 0.834571 0.104751
O O6 0.809546 0.928976 0.962751
O O7 0.928648 0.767677 0.952046
O O8 0.215977 0.895140 0.022851
O O9 0.758495 0.302264 0.817831
O O10 0.644645 0.442634 0.882677
O O11 0.025147 0.378521 0.947520
O O12 0.462736 0.986153 0.160153
O O13 0.500000 0.000000 0.000000
O O14 0.697255 0.868301 0.259722
O O15 0.673613 0.379070 0.418887
O O16 0.000000 0.769719 0.250000
O O17 0.500000 0.500000 0.000000
#
# Coordination Sequence:
#
# PCOD8118619 Si02
#       8
#     4   4   4   4   2   4   4   4
#     4  11  22  35  53  79 113 150 192 241 286 326
#     4   9  21  38  59  85 116 148 193 243 285 359
#     4  10  20  34  54  81 113 150 195 234 277 351
#     4  10  20  40  63  87 117 153 191 237 308 360
#     4  10  22  38  60  92 118 146 192 240 290 380
#     4  10  20  37  55  81 110 147 200 237 276 350
#     4  10  20  35  55  86 123 150 182 238 297 342
#     4  11  19  36  59  77 109 161 196 228 287 337
#
# _framework density 19.029958000000001
#
# number of rings (size 3 to 8) (size 9 to 14) (size 15 to 20)
#    0.000    1.867    2.667    2.000    0.000    5.333 
#    2.400    2.667    0.000    0.000    0.000    0.000 
#    0.000    0.000    0.000    0.000    0.000    0.000 
#
# Total GULP energy -371750.191057 kJ/mol
# GULP energy per Si atom -12391.673035 kJ/mol
# Density = 1.898664 g / cm^3
# Si number density = 19.029958 Si / 1000 Ang^3
#
#
#
# Elastic Constant Matrix: (Units=GPa)
#
#
# Indices 1 2 3 4 5 6 
#
# 1 123.9178 43.5859 50.0844 0.0000 -0.1772 0.0000
# 2 43.5859 111.0489 46.2553 0.0000 0.5398 0.0000
# 3 50.0844 46.2553 99.3412 0.0000 2.5131 0.0000
# 4 0.0000 0.0000 0.0000 4.5552 0.0000 1.1658
# 5 -0.1772 0.5398 2.5131 0.0000 31.2932 0.0000
# 6 0.0000 0.0000 0.0000 1.1658 0.0000 17.6067
#
#
#
# Elastic Compliance Matrix: (Units=1/GPa)
#
#
# Indices 1 2 3 4 5 6 
#
# 1 0.010636 -0.002405 -0.004254 0.000000 0.000443 0.000000
# 2 -0.002405 0.011717 -0.004246 0.000000 0.000125 0.000000
# 3 -0.004254 -0.004246 0.014216 0.000000 -0.001092 0.000000
# 4 0.000000 0.000000 0.000000 0.223313 0.000000 -0.014787
# 5 0.000443 0.000125 -0.001092 0.000000 0.032044 0.000000
# 6 0.000000 0.000000 0.000000 -0.014787 0.000000 0.057776
#
#
# Mechanical properties :
#
#
# Convention : Reuss Voigt Hill
#
# Bulk Modulus (GPa) = 67.75681 68.23990 67.99835
# Shear Modulus (GPa) = 13.28269 23.64984 18.46627
#
# Velocity S-wave (km/s) = 2.64481 3.52912 3.11847
# Velocity P-wave (km/s) = 6.70890 7.24867 6.98400
#
# Compressibility (1/GPa) = 0.01475867
#
# Stress axis : x y z
#
# Youngs Moduli (GPa) = 94.02463 85.34548 70.34478
#
# Poissons Ratio (x) = 0.20524 0.29922
# Poissons Ratio (y) = 0.22611 0.29872
# Poissons Ratio (z) = 0.39994 0.36242
#
# Static dielectric constant tensor:
#      x y z
#    x 3.510350 0.000000 0.028790 
#    y 0.000000 3.571670 0.000000 
#    z 0.028790 0.000000 3.722640 
# 
# 
# High freq. dielectric constant tensor:
#      x y z
#    x 1.743180 0.000000 -0.000410 
#    y 0.000000 1.727430 0.000000 
#    z -0.000410 0.000000 1.747870 
# 
# From -- ./inp_files/61630.got.cif
#   From: 2010.06.25/outbox.cif.g09.slc.cpg/sg13_31_cif.got.tgz:61630.got - 2010.06.28 04:50:58.
