data_PCOD8118804
_publ_section_title
;
Structure prediction by ZEFSAII (Michael W. Deem and Ramdas Pophale) SiO2 
 PCOD8118804
Probable space group: P 2/C
;
_chemical_formula_sum "Si O2"
_cell_formula_units_Z 22
_cell_length_a 21.876345
_cell_length_b 6.453764
_cell_length_c 21.210831
_cell_angle_alpha 90.000000
_cell_angle_beta 159.029824
_cell_angle_gamma 90.000000
_cell_volume 1071.729831
_symmetry_space_group_name_H-M "P 2/C"
_symmetry_group_IT_number 13
_symmetry_cell_setting 'monoclinic'
loop_
_space_group_symop_operation_xyz
x,y,z
-x,y,1/2-z
-x,-y,-z
x,-y,1/2+z
loop_
_atom_site_type_symbol
_atom_site_label
_atom_site_fract_x
_atom_site_fract_y
_atom_site_fract_z
Si Si1 0.031870 0.311010 0.574776
Si Si2 0.180458 0.746535 0.343792
Si Si3 0.592604 0.914550 0.493498
Si Si4 0.261148 0.977933 0.734765
Si Si5 0.000000 0.074016 0.250000
Si Si6 0.679179 0.353504 0.960577
O O1 0.090879 0.382462 0.701201
O O2 0.000000 0.500000 0.500000
O O3 0.863600 0.174892 0.421729
O O4 0.175377 0.183075 0.677745
O O5 0.246287 0.587456 0.461026
O O6 0.043573 0.919094 0.234744
O O7 0.340878 0.869679 0.470679
O O8 0.661588 0.859300 0.629847
O O9 0.637662 0.725670 0.490826
O O10 0.391562 0.948878 0.306769
O O11 0.170041 0.215251 0.427048
O O12 0.500000 0.348938 0.750000
#
# Coordination Sequence:
#
# PCOD8118804 Si02
#       6
#     4   4   4   4   2   4
#     4  10  20  35  60  90 124 157 197 247 311 375
#     4  10  22  41  62  89 125 158 207 259 308 369
#     4   9  20  39  61  86 125 158 201 256 306 367
#     4   9  19  37  59  90 120 160 197 245 311 372
#     4  10  24  46  62  84 124 172 210 264 306 370
#     4  11  24  42  65  91 123 167 217 260 310 371
#
# _framework density 20.527563000000001
#
# number of rings (size 3 to 8) (size 9 to 14) (size 15 to 20)
#    0.000    2.182    0.000    1.636    2.545    5.818 
#    6.545    5.455    0.000    0.000    0.000    0.000 
#    0.000    0.000    0.000    0.000    0.000    0.000 
#
# Total GULP energy -272659.034672 kJ/mol
# GULP energy per Si atom -12393.592485 kJ/mol
# Density = 2.048084 g / cm^3
# Si number density = 20.527563 Si / 1000 Ang^3
#
#
#
# Elastic Constant Matrix: (Units=GPa)
#
#
# Indices 1 2 3 4 5 6 
#
# 1 326.2354 16.0495 -30.0646 0.0000 20.4775 0.0000
# 2 16.0495 86.6897 54.6625 0.0000 -2.2380 0.0000
# 3 -30.0646 54.6625 162.3720 0.0000 10.7564 0.0000
# 4 0.0000 0.0000 0.0000 48.3109 0.0000 3.7360
# 5 20.4775 -2.2380 10.7564 0.0000 41.7037 0.0000
# 6 0.0000 0.0000 0.0000 3.7360 0.0000 35.3691
#
#
#
# Elastic Compliance Matrix: (Units=1/GPa)
#
#
# Indices 1 2 3 4 5 6 
#
# 1 0.003383 -0.001474 0.001259 0.000000 -0.002065 0.000000
# 2 -0.001474 0.015468 -0.005680 0.000000 0.003019 0.000000
# 3 0.001259 -0.005680 0.008511 0.000000 -0.003118 0.000000
# 4 0.000000 0.000000 0.000000 0.020870 0.000000 -0.002204
# 5 -0.002065 0.003019 -0.003118 0.000000 0.025959 0.000000
# 6 0.000000 0.000000 0.000000 -0.002204 0.000000 0.028506
#
#
# Mechanical properties :
#
#
# Convention : Reuss Voigt Hill
#
# Bulk Modulus (GPa) = 64.21404 72.95467 68.58435
# Shear Modulus (GPa) = 41.77907 60.72004 51.24956
#
# Velocity S-wave (km/s) = 4.51629 5.44463 5.00204
# Velocity P-wave (km/s) = 7.65151 8.66847 8.17581
#
# Compressibility (1/GPa) = 0.01557292
#
# Stress axis : x y z
#
# Youngs Moduli (GPa) = 295.55277 64.65028 117.49909
#
# Poissons Ratio (x) = 0.09529 -0.14799
# Poissons Ratio (y) = 0.43562 0.66741
# Poissons Ratio (z) = -0.37225 0.36722
#
# Static dielectric constant tensor:
#      x y z
#    x 4.155450 0.000000 -1.114940 
#    y 0.000000 3.718550 0.000000 
#    z -1.114940 0.000000 7.777440 
# 
# 
# High freq. dielectric constant tensor:
#      x y z
#    x 1.801790 0.000000 0.012070 
#    y 0.000000 1.796390 0.000000 
#    z 0.012070 0.000000 1.807420 
# 
# From -- ./inp_files/74548.got.cif
#   From: 2010.06.25/outbox.cif.g09.slc.cpg/sg13_38_cif.got.tgz:74548.got - 2010.06.28 04:50:58.
