data_PCOD8118956
_publ_section_title
;
Structure prediction by ZEFSAII (Michael W. Deem and Ramdas Pophale) SiO2 
 PCOD8118956
Probable space group: P 2/C
;
_chemical_formula_sum "Si O2"
_cell_formula_units_Z 20
_cell_length_a 7.800174
_cell_length_b 8.913452
_cell_length_c 22.839551
_cell_angle_alpha 90.000000
_cell_angle_beta 36.220183
_cell_angle_gamma 90.000000
_cell_volume 938.305674
_symmetry_space_group_name_H-M "P 2/C"
_symmetry_group_IT_number 13
_symmetry_cell_setting 'monoclinic'
loop_
_space_group_symop_operation_xyz
x,y,z
-x,y,1/2-z
-x,-y,-z
x,-y,1/2+z
loop_
_atom_site_type_symbol
_atom_site_label
_atom_site_fract_x
_atom_site_fract_y
_atom_site_fract_z
Si Si1 0.414582 0.133593 0.402076
Si Si2 0.149375 0.922569 0.153929
Si Si3 0.682777 0.429256 0.363573
Si Si4 0.947023 0.041891 0.095249
Si Si5 0.625093 0.299625 0.504503
O O1 0.493177 0.309564 0.379170
O O2 0.366864 0.072098 0.348262
O O3 0.680648 0.057885 0.362088
O O4 0.111344 0.096238 0.518067
O O5 0.000000 0.836509 0.250000
O O6 0.358991 0.811519 0.060734
O O7 0.922924 0.997466 0.170593
O O8 0.735431 0.380105 0.415940
O O9 0.490462 0.581107 0.415876
O O10 0.000000 0.458339 0.250000
O O11 0.123164 0.197855 0.037387
#
# Coordination Sequence:
#
# PCOD8118956 Si02
#       5
#     4   4   4   4   4
#     4  10  20  36  60  85 117 149 199 241 288 354
#     4  11  20  37  59  88 120 155 191 244 292 350
#     4  11  21  37  60  87 112 159 198 239 292 352
#     4  10  20  37  59  87 114 158 190 242 298 341
#     4  10  21  38  58  83 121 152 196 240 296 348
#
# _framework density 21.315016
#
# number of rings (size 3 to 8) (size 9 to 14) (size 15 to 20)
#    0.000    1.600    4.000    2.400    0.000    1.600 
#    0.000    0.000    0.000    0.000    0.000    0.000 
#    0.000    0.000    0.000    0.000    0.000    0.000 
#
# Total GULP energy -247871.868000 kJ/mol
# GULP energy per Si atom -12393.593400 kJ/mol
# Density = 2.126650 g / cm^3
# Si number density = 21.315016 Si / 1000 Ang^3
#
#
#
# Elastic Constant Matrix: (Units=GPa)
#
#
# Indices 1 2 3 4 5 6 
#
# 1 125.2741 16.9646 16.6828 0.0000 11.3605 0.0000
# 2 16.9646 89.2168 20.0648 0.0000 1.4836 0.0000
# 3 16.6828 20.0648 83.7761 0.0000 13.3982 0.0000
# 4 0.0000 0.0000 0.0000 13.1076 0.0000 5.7025
# 5 11.3605 1.4836 13.3982 0.0000 25.1427 0.0000
# 6 0.0000 0.0000 0.0000 5.7025 0.0000 28.1663
#
#
#
# Elastic Compliance Matrix: (Units=1/GPa)
#
#
# Indices 1 2 3 4 5 6 
#
# 1 0.008586 -0.001388 -0.000842 0.000000 -0.003349 0.000000
# 2 -0.001388 0.012089 -0.002848 0.000000 0.001431 0.000000
# 3 -0.000842 -0.002848 0.013882 0.000000 -0.006849 0.000000
# 4 0.000000 0.000000 0.000000 0.083660 0.000000 -0.016938
# 5 -0.003349 0.001431 -0.006849 0.000000 0.044851 0.000000
# 6 0.000000 0.000000 0.000000 -0.016938 0.000000 0.038933
#
#
# Mechanical properties :
#
#
# Convention : Reuss Voigt Hill
#
# Bulk Modulus (GPa) = 40.98004 45.07681 43.02842
# Shear Modulus (GPa) = 22.69732 29.58698 26.14215
#
# Velocity S-wave (km/s) = 3.26675 3.72974 3.50589
# Velocity P-wave (km/s) = 5.78761 6.30411 6.05137
#
# Compressibility (1/GPa) = 0.02440213
#
# Stress axis : x y z
#
# Youngs Moduli (GPa) = 116.46543 82.71826 72.03739
#
# Poissons Ratio (x) = 0.11478 0.06064
# Poissons Ratio (y) = 0.16161 0.20516
# Poissons Ratio (z) = 0.09805 0.23558
#
# Static dielectric constant tensor:
#      x y z
#    x 3.808450 0.000000 0.160320 
#    y 0.000000 3.897230 0.000000 
#    z 0.160320 0.000000 3.926960 
# 
# 
# High freq. dielectric constant tensor:
#      x y z
#    x 1.826270 0.000000 0.011060 
#    y 0.000000 1.826560 0.000000 
#    z 0.011060 0.000000 1.831280 
# 
# From -- ./inp_files/45534.got.cif
#   From: 2010.06.25/outbox.cif.g09.slc.cpg/sg13_23_cif.got.tgz:45534.got - 2010.06.28 04:50:58.
