data_PCOD8118531
_publ_section_title
;
Structure prediction by ZEFSAII (Michael W. Deem and Ramdas Pophale) SiO2 
 PCOD8118531
Probable space group: P 2/C
;
_chemical_formula_sum "Si O2"
_cell_formula_units_Z 26
_cell_length_a 18.587010
_cell_length_b 9.728996
_cell_length_c 13.312621
_cell_angle_alpha 90.000000
_cell_angle_beta 30.714274
_cell_angle_gamma 90.000000
_cell_volume 1229.576492
_symmetry_space_group_name_H-M "P 2/C"
_symmetry_group_IT_number 13
_symmetry_cell_setting 'monoclinic'
loop_
_space_group_symop_operation_xyz
x,y,z
-x,y,1/2-z
-x,-y,-z
x,-y,1/2+z
loop_
_atom_site_type_symbol
_atom_site_label
_atom_site_fract_x
_atom_site_fract_y
_atom_site_fract_z
Si Si1 0.000000 0.123414 0.250000
Si Si2 0.843511 0.249558 0.121280
Si Si3 0.223081 0.685417 0.585806
Si Si4 0.834511 0.167106 0.789490
Si Si5 0.644608 0.943887 0.115575
Si Si6 0.771253 0.963186 0.166247
Si Si7 0.166977 0.595759 0.062306
O O1 0.113025 0.223256 0.160095
O O2 0.924279 0.033200 0.427058
O O3 0.830755 0.343186 0.236226
O O4 0.747512 0.112520 0.245781
O O5 0.783228 0.343961 0.103953
O O6 0.998708 0.189074 0.917178
O O7 0.358177 0.786845 0.424008
O O8 0.245638 0.545358 0.496843
O O9 0.769700 0.153868 0.754935
O O10 0.781279 0.301078 0.912447
O O11 0.783629 0.031881 0.913334
O O12 0.500000 0.014746 0.250000
O O13 0.647365 0.937557 0.234032
O O14 0.000000 0.571626 0.250000
#
# Coordination Sequence:
#
# PCOD8118531 Si02
#       7
#     2   4   4   4   4   4   4
#     4  10  20  32  58  92 118 156 192 244 314 364
#     4  11  20  36  64  93 126 157 200 250 323 378
#     4  11  21  38  60  87 128 160 201 247 312 368
#     4  11  21  38  63  94 121 157 201 256 312 369
#     4  11  25  41  61  88 120 167 219 256 292 353
#     4  11  20  36  62  89 121 155 200 259 305 356
#     4  10  23  36  58  95 132 156 193 247 318 381
#
# _framework density 21.145489999999999
#
# number of rings (size 3 to 8) (size 9 to 14) (size 15 to 20)
#    0.000    1.231    5.385    2.308    1.077    5.538 
#    0.000    0.769    0.000    1.846    0.000    0.000 
#    0.000    0.000    0.000    0.000    0.000    0.000 
#
# Total GULP energy -322116.912027 kJ/mol
# GULP energy per Si atom -12389.112001 kJ/mol
# Density = 2.109736 g / cm^3
# Si number density = 21.145490 Si / 1000 Ang^3
#
#
#
# Elastic Constant Matrix: (Units=GPa)
#
#
# Indices 1 2 3 4 5 6 
#
# 1 104.0929 54.8058 31.1790 0.0000 25.5762 0.0000
# 2 54.8058 127.1369 18.6406 0.0000 9.6976 0.0000
# 3 31.1790 18.6406 30.6094 0.0000 5.0714 0.0000
# 4 0.0000 0.0000 0.0000 16.4290 0.0000 9.4066
# 5 25.5762 9.6976 5.0714 0.0000 31.2377 0.0000
# 6 0.0000 0.0000 0.0000 9.4066 0.0000 32.8537
#
#
#
# Elastic Compliance Matrix: (Units=1/GPa)
#
#
# Indices 1 2 3 4 5 6 
#
# 1 0.019993 -0.005487 -0.014997 0.000000 -0.012231 0.000000
# 2 -0.005487 0.010251 -0.000895 0.000000 0.001455 0.000000
# 3 -0.014997 -0.000895 0.047693 0.000000 0.004814 0.000000
# 4 0.000000 0.000000 0.000000 0.072803 0.000000 -0.020845
# 5 -0.012231 0.001455 0.004814 0.000000 0.040794 0.000000
# 6 0.000000 0.000000 0.000000 -0.020845 0.000000 0.036406
#
#
# Mechanical properties :
#
#
# Convention : Reuss Voigt Hill
#
# Bulk Modulus (GPa) = 28.42557 52.34332 40.38445
# Shear Modulus (GPa) = 17.70383 26.58501 22.14442
#
# Velocity S-wave (km/s) = 2.89665 3.54961 3.23962
# Velocity P-wave (km/s) = 4.96583 6.45037 5.75616
#
# Compressibility (1/GPa) = 0.03517959
#
# Stress axis : x y z
#
# Youngs Moduli (GPa) = 50.01734 97.55196 20.96726
#
# Poissons Ratio (x) = 0.53524 0.31445
# Poissons Ratio (y) = 0.27443 0.01876
# Poissons Ratio (z) = 0.75012 0.08730
#
# Static dielectric constant tensor:
#      x y z
#    x 3.869710 0.000000 0.483470 
#    y 0.000000 3.986130 0.000000 
#    z 0.483470 0.000000 3.058460 
# 
# 
# High freq. dielectric constant tensor:
#      x y z
#    x 1.843120 0.000000 0.027420 
#    y 0.000000 1.819220 0.000000 
#    z 0.027420 0.000000 1.781800 
# 
# From -- ./inp_files/57197.got.cif
#   From: 2010.06.25/outbox.cif.g09.slc.cpg/sg13_29_cif.got.tgz:57197.got - 2010.06.28 04:50:58.
