data_PCOD8118680
_publ_section_title
;
Structure prediction by ZEFSAII (Michael W. Deem and Ramdas Pophale) SiO2 
 PCOD8118680
Probable space group: P 2/C
;
_chemical_formula_sum "Si O2"
_cell_formula_units_Z 30
_cell_length_a 8.944529
_cell_length_b 10.466816
_cell_length_c 18.576961
_cell_angle_alpha 90.000000
_cell_angle_beta 57.825127
_cell_angle_gamma 90.000000
_cell_volume 1472.095989
_symmetry_space_group_name_H-M "P 2/C"
_symmetry_group_IT_number 13
_symmetry_cell_setting 'monoclinic'
loop_
_space_group_symop_operation_xyz
x,y,z
-x,y,1/2-z
-x,-y,-z
x,-y,1/2+z
loop_
_atom_site_type_symbol
_atom_site_label
_atom_site_fract_x
_atom_site_fract_y
_atom_site_fract_z
Si Si1 0.649620 0.403782 0.665573
Si Si2 0.827770 0.565568 0.513549
Si Si3 0.143063 0.115071 0.662851
Si Si4 0.001527 0.376196 0.666304
Si Si5 0.828060 0.161316 0.087332
Si Si6 0.497017 0.845969 0.139711
Si Si7 0.500000 0.066124 0.250000
Si Si8 0.194159 0.939200 0.522201
O O1 0.500000 0.476122 0.750000
O O2 0.667911 0.479681 0.585314
O O3 0.581810 0.260243 0.669232
O O4 0.821934 0.406702 0.670993
O O5 0.839177 0.562516 0.423011
O O6 0.807899 0.709848 0.547169
O O7 0.000000 0.500000 0.500000
O O8 0.025942 0.224022 0.654766
O O9 0.302016 0.191132 0.661924
O O10 0.000000 0.043055 0.750000
O O11 0.224467 0.011825 0.588957
O O12 0.000000 0.425658 0.750000
O O13 0.673469 0.152819 0.187828
O O14 0.023746 0.154086 0.072613
O O15 0.820871 0.038557 0.038663
O O16 0.465060 0.978726 0.189523
O O17 0.629552 0.858039 0.037831
#
# Coordination Sequence:
#
# PCOD8118680 Si02
#       8
#     4   4   4   4   4   4   2   4
#     4  11  22  38  62  87 119 157 209 250 295 368
#     4  10  21  38  60  86 120 158 206 251 295 369
#     4  11  21  34  57  86 121 150 193 251 306 362
#     4  10  21  37  60  84 116 155 201 254 301 358
#     4  10  20  36  58  89 114 158 199 241 311 356
#     4  11  22  37  57  90 118 155 200 244 304 365
#     4  10  22  34  60  82 126 146 198 242 292 374
#     4  10  20  34  60  81 119 153 192 250 298 363
#
# _framework density 20.379106
#
# number of rings (size 3 to 8) (size 9 to 14) (size 15 to 20)
#    0.000    1.600    2.000    4.400    4.667    0.000 
#    0.000    2.667    0.000   16.800    0.000    0.000 
#    0.000    0.000    0.000    0.000    0.000    0.000 
#
# Total GULP energy -371725.105625 kJ/mol
# GULP energy per Si atom -12390.836854 kJ/mol
# Density = 2.033272 g / cm^3
# Si number density = 20.379106 Si / 1000 Ang^3
#
#
#
# Elastic Constant Matrix: (Units=GPa)
#
#
# Indices 1 2 3 4 5 6 
#
# 1 83.9162 12.7311 50.7343 0.0000 -14.5566 0.0000
# 2 12.7311 47.5681 43.3492 0.0000 -6.4852 0.0000
# 3 50.7343 43.3492 200.6337 0.0000 -15.6121 0.0000
# 4 0.0000 0.0000 0.0000 30.5984 0.0000 -5.3979
# 5 -14.5566 -6.4852 -15.6121 0.0000 38.5420 0.0000
# 6 0.0000 0.0000 0.0000 -5.3979 0.0000 12.6188
#
#
#
# Elastic Compliance Matrix: (Units=1/GPa)
#
#
# Indices 1 2 3 4 5 6 
#
# 1 0.014695 -0.000343 -0.003319 0.000000 0.004148 0.000000
# 2 -0.000343 0.026364 -0.005446 0.000000 0.002101 0.000000
# 3 -0.003319 -0.005446 0.007054 0.000000 0.000687 0.000000
# 4 0.000000 0.000000 0.000000 0.035349 0.000000 0.015121
# 5 0.004148 0.002101 0.000687 0.000000 0.028144 0.000000
# 6 0.000000 0.000000 0.000000 0.015121 0.000000 0.085715
#
#
# Mechanical properties :
#
#
# Convention : Reuss Voigt Hill
#
# Bulk Modulus (GPa) = 33.44884 60.63857 47.04370
# Shear Modulus (GPa) = 22.17282 31.37206 26.77244
#
# Velocity S-wave (km/s) = 3.30209 3.92780 3.62846
# Velocity P-wave (km/s) = 5.56663 7.09860 6.37877
#
# Compressibility (1/GPa) = 0.02989640
#
# Stress axis : x y z
#
# Youngs Moduli (GPa) = 68.05120 37.93109 141.77033
#
# Poissons Ratio (x) = 0.01300 0.47055
# Poissons Ratio (y) = 0.02332 0.77209
# Poissons Ratio (z) = 0.22587 0.20657
#
# Static dielectric constant tensor:
#      x y z
#    x 3.412420 0.000000 -0.397720 
#    y 0.000000 3.606510 0.000000 
#    z -0.397720 0.000000 4.503810 
# 
# 
# High freq. dielectric constant tensor:
#      x y z
#    x 1.774700 0.000000 -0.021040 
#    y 0.000000 1.765200 0.000000 
#    z -0.021040 0.000000 1.825740 
# 
# From -- ./inp_files/64432.got.cif
#   From: 2010.06.25/outbox.cif.g09.slc.cpg/sg13_33_cif.got.tgz:64432.got - 2010.06.28 04:50:58.
