data_PCOD8118772
_publ_section_title
;
Structure prediction by ZEFSAII (Michael W. Deem and Ramdas Pophale) SiO2 
 PCOD8118772
Probable space group: P 2/C
;
_chemical_formula_sum "Si O2"
_cell_formula_units_Z 24
_cell_length_a 9.606584
_cell_length_b 13.912285
_cell_length_c 16.376565
_cell_angle_alpha 90.000000
_cell_angle_beta 148.474418
_cell_angle_gamma 90.000000
_cell_volume 1144.436331
_symmetry_space_group_name_H-M "P 2/C"
_symmetry_group_IT_number 13
_symmetry_cell_setting 'monoclinic'
loop_
_space_group_symop_operation_xyz
x,y,z
-x,y,1/2-z
-x,-y,-z
x,-y,1/2+z
loop_
_atom_site_type_symbol
_atom_site_label
_atom_site_fract_x
_atom_site_fract_y
_atom_site_fract_z
Si Si1 0.900618 0.220361 0.542081
Si Si2 0.099324 0.279640 0.141428
Si Si3 0.755457 0.588223 0.569332
Si Si4 0.755477 0.911782 0.186125
Si Si5 0.581228 0.385696 0.448324
Si Si6 0.581266 0.114302 0.132936
O O1 0.962560 0.250007 0.481289
O O2 0.165080 0.172354 0.711627
O O3 0.829932 0.314436 0.560140
O O4 0.655089 0.144631 0.422931
O O5 0.344842 0.355372 0.267821
O O6 0.170019 0.185561 0.230178
O O7 0.834859 0.327643 0.046502
O O8 0.668376 0.494885 0.473685
O O9 0.513279 0.624612 0.504831
O O10 0.000000 0.558792 0.750000
O O11 0.000000 0.941234 0.250000
O O12 0.668405 0.005108 0.194710
O O13 0.513286 0.875388 0.008439
#
# Coordination Sequence:
#
# PCOD8118772 Si02
#       6
#     4   4   4   4   4   4
#     4  10  20  35  58  86 114 146 183 232 288 335
#     4  10  20  35  58  86 114 146 183 232 288 335
#     4   9  19  34  55  84 113 149 191 232 278 335
#     4   9  19  34  55  84 113 149 191 232 278 335
#     4   9  18  34  55  81 114 148 188 232 278 332
#     4   9  18  34  55  81 114 148 188 232 278 332
#
# _framework density 20.971022999999999
#
# number of rings (size 3 to 8) (size 9 to 14) (size 15 to 20)
#    0.000    2.667    0.000    2.000    0.000    8.000 
#    0.000    0.000    0.000    0.000    0.000   56.000 
#    0.000    0.000    0.000    0.000    0.000    0.000 
#
# Total GULP energy -297584.466032 kJ/mol
# GULP energy per Si atom -12399.352751 kJ/mol
# Density = 2.092329 g / cm^3
# Si number density = 20.971023 Si / 1000 Ang^3
#
#
#
# Elastic Constant Matrix: (Units=GPa)
#
#
# Indices 1 2 3 4 5 6 
#
# 1 102.9260 79.5851 45.2938 0.0000 -13.9799 0.0000
# 2 79.5851 143.7983 69.4745 0.0000 -16.8968 0.0000
# 3 45.2938 69.4745 84.1655 0.0000 -17.2939 0.0000
# 4 0.0000 0.0000 0.0000 37.2919 0.0000 12.1649
# 5 -13.9799 -16.8968 -17.2939 0.0000 19.0794 0.0000
# 6 0.0000 0.0000 0.0000 12.1649 0.0000 30.0104
#
#
#
# Elastic Compliance Matrix: (Units=1/GPa)
#
#
# Indices 1 2 3 4 5 6 
#
# 1 0.017480 -0.008416 -0.001671 0.000000 0.003840 0.000000
# 2 -0.008416 0.015679 -0.008390 0.000000 0.000114 0.000000
# 3 -0.001671 -0.008390 0.022031 0.000000 0.011315 0.000000
# 4 0.000000 0.000000 0.000000 0.030902 0.000000 -0.012526
# 5 0.003840 0.000114 0.011315 0.000000 0.065584 0.000000
# 6 0.000000 0.000000 0.000000 -0.012526 0.000000 0.038399
#
#
# Mechanical properties :
#
#
# Convention : Reuss Voigt Hill
#
# Bulk Modulus (GPa) = 54.83437 79.95517 67.39477
# Shear Modulus (GPa) = 21.44956 26.37876 23.91416
#
# Velocity S-wave (km/s) = 3.20162 3.55049 3.38056
# Velocity P-wave (km/s) = 6.31440 7.41736 6.88799
#
# Compressibility (1/GPa) = 0.01823674
#
# Stress axis : x y z
#
# Youngs Moduli (GPa) = 57.20860 63.78139 45.39127
#
# Poissons Ratio (x) = 0.53676 0.07585
# Poissons Ratio (y) = 0.48145 0.38081
# Poissons Ratio (z) = 0.09560 0.53510
#
# Static dielectric constant tensor:
#      x y z
#    x 3.580940 0.000000 0.114420 
#    y 0.000000 3.946840 0.000000 
#    z 0.114420 0.000000 3.649000 
# 
# 
# High freq. dielectric constant tensor:
#      x y z
#    x 1.797990 0.000000 0.004490 
#    y 0.000000 1.827760 0.000000 
#    z 0.004490 0.000000 1.800660 
# 
# From -- ./inp_files/47780.got.cif
#   From: 2010.06.25/outbox.cif.g09.slc.cpg/sg13_24_cif.got.tgz:47780.got - 2010.06.28 04:50:58.
