data_PCOD8118702
_publ_section_title
;
Structure prediction by ZEFSAII (Michael W. Deem and Ramdas Pophale) SiO2 
 PCOD8118702
Probable space group: P 2/C
;
_chemical_formula_sum "Si O2"
_cell_formula_units_Z 32
_cell_length_a 11.165019
_cell_length_b 17.586607
_cell_length_c 23.168789
_cell_angle_alpha 90.000000
_cell_angle_beta 23.781834
_cell_angle_gamma 90.000000
_cell_volume 1834.529994
_symmetry_space_group_name_H-M "P 2/C"
_symmetry_group_IT_number 13
_symmetry_cell_setting 'monoclinic'
loop_
_space_group_symop_operation_xyz
x,y,z
-x,y,1/2-z
-x,-y,-z
x,-y,1/2+z
loop_
_atom_site_type_symbol
_atom_site_label
_atom_site_fract_x
_atom_site_fract_y
_atom_site_fract_z
Si Si1 0.210319 0.940597 0.573220
Si Si2 0.423592 0.918892 0.609037
Si Si3 0.172232 0.576834 0.413779
Si Si4 0.987710 0.622380 0.375618
Si Si5 0.775996 0.776861 0.427748
Si Si6 0.647985 0.352056 0.549769
Si Si7 0.801531 0.474738 0.393161
Si Si8 0.571126 0.200780 0.888589
O O1 0.297056 0.932807 0.601409
O O2 0.395508 0.877112 0.457532
O O3 0.852260 0.930691 0.725026
O O4 0.310074 0.020255 0.500527
O O5 0.564240 0.834853 0.556631
O O6 0.500000 0.552898 0.250000
O O7 0.176854 0.628027 0.469042
O O8 0.000000 0.500000 0.500000
O O9 0.015735 0.625699 0.432542
O O10 0.760664 0.690065 0.458007
O O11 0.882501 0.539609 0.403231
O O12 0.299513 0.630070 0.205911
O O13 0.655422 0.776698 0.416281
O O14 0.117502 0.805010 0.283163
O O15 0.791646 0.396230 0.432702
O O16 0.663462 0.262073 0.532529
O O17 0.500000 0.500000 0.500000
O O18 0.000000 0.462361 0.250000
#
# Coordination Sequence:
#
# PCOD8118702 Si02
#       8
#     4   4   4   4   4   4   4   4
#     4   9  16  27  43  67  99 130 162 192 234 291
#     4   9  16  27  43  68  98 131 163 192 233 293
#     4  10  20  36  55  71  92 129 174 217 253 297
#     4  10  20  35  53  71  98 131 172 210 253 302
#     4   9  17  29  47  67  95 130 163 198 246 297
#     4  10  20  36  51  72  98 131 171 212 253 299
#     4  12  22  33  50  73 100 133 165 205 255 310
#     4   9  17  30  46  67  97 130 160 201 248 295
#
# _framework density 17.443159999999999
#
# number of rings (size 3 to 8) (size 9 to 14) (size 15 to 20)
#    0.000    2.250    2.500    1.500    1.750    3.000 
#    6.750    0.000    0.000    0.000    0.000    0.875 
#    0.000    0.000    0.000    0.000    0.000    0.000 
#
# Total GULP energy -396604.567802 kJ/mol
# GULP energy per Si atom -12393.892744 kJ/mol
# Density = 1.740346 g / cm^3
# Si number density = 17.443160 Si / 1000 Ang^3
#
#
#
# Elastic Constant Matrix: (Units=GPa)
#
#
# Indices 1 2 3 4 5 6 
#
# 1 60.3974 20.2765 21.6393 0.0000 4.3280 0.0000
# 2 20.2765 92.3029 33.5959 0.0000 -1.9994 0.0000
# 3 21.6393 33.5959 86.0798 0.0000 1.0968 0.0000
# 4 0.0000 0.0000 0.0000 30.9244 0.0000 -7.1675
# 5 4.3280 -1.9994 1.0968 0.0000 15.5420 0.0000
# 6 0.0000 0.0000 0.0000 -7.1675 0.0000 12.2095
#
#
#
# Elastic Compliance Matrix: (Units=1/GPa)
#
#
# Indices 1 2 3 4 5 6 
#
# 1 0.019257 -0.003046 -0.003582 0.000000 -0.005502 0.000000
# 2 -0.003046 0.013170 -0.004411 0.000000 0.002854 0.000000
# 3 -0.003582 -0.004411 0.014246 0.000000 -0.000575 0.000000
# 4 0.000000 0.000000 0.000000 0.037430 0.000000 0.021973
# 5 -0.005502 0.002854 -0.000575 0.000000 0.066281 0.000000
# 6 0.000000 0.000000 0.000000 0.021973 0.000000 0.094802
#
#
# Mechanical properties :
#
#
# Convention : Reuss Voigt Hill
#
# Bulk Modulus (GPa) = 40.65639 43.31149 41.98394
# Shear Modulus (GPa) = 18.15122 22.61974 20.38548
#
# Velocity S-wave (km/s) = 3.22932 3.60497 3.42231
# Velocity P-wave (km/s) = 6.10436 6.49706 6.30377
#
# Compressibility (1/GPa) = 0.02459638
#
# Stress axis : x y z
#
# Youngs Moduli (GPa) = 51.92871 75.92892 70.19268
#
# Poissons Ratio (x) = 0.23125 0.25145
# Poissons Ratio (y) = 0.15816 0.30961
# Poissons Ratio (z) = 0.18602 0.33491
#
# Static dielectric constant tensor:
#      x y z
#    x 3.045790 0.000000 -0.050830 
#    y 0.000000 3.342560 0.000000 
#    z -0.050830 0.000000 3.345070 
# 
# 
# High freq. dielectric constant tensor:
#      x y z
#    x 1.631890 0.000000 -0.008870 
#    y 0.000000 1.677950 0.000000 
#    z -0.008870 0.000000 1.672520 
# 
# From -- ./inp_files/86667.got.cif
#   From: 2010.06.25/outbox.cif.g09.slc.cpg/sg13_44_cif.got.tgz:86667.got - 2010.06.28 04:50:58.
