data_PCOD8118475
_publ_section_title
;
Structure prediction by ZEFSAII (Michael W. Deem and Ramdas Pophale) SiO2 
 PCOD8118475
Probable space group: P 2/C
;
_chemical_formula_sum "Si O2"
_cell_formula_units_Z 32
_cell_length_a 21.034675
_cell_length_b 15.902533
_cell_length_c 9.204552
_cell_angle_alpha 90.000000
_cell_angle_beta 145.539640
_cell_angle_gamma 90.000000
_cell_volume 1742.189088
_symmetry_space_group_name_H-M "P 2/C"
_symmetry_group_IT_number 13
_symmetry_cell_setting 'monoclinic'
loop_
_space_group_symop_operation_xyz
x,y,z
-x,y,1/2-z
-x,-y,-z
x,-y,1/2+z
loop_
_atom_site_type_symbol
_atom_site_label
_atom_site_fract_x
_atom_site_fract_y
_atom_site_fract_z
Si Si1 0.605156 0.177506 0.702809
Si Si2 0.631790 0.950566 0.480938
Si Si3 0.441338 0.590846 0.772357
Si Si4 0.357446 0.110156 0.183503
Si Si5 0.870481 0.595397 0.481390
Si Si6 0.588193 0.352015 0.798560
Si Si7 0.703717 0.740026 0.104647
Si Si8 0.239047 0.525334 0.935805
O O1 0.674042 0.109700 0.929198
O O2 0.488409 0.136526 0.429950
O O3 0.588780 0.252288 0.787026
O O4 0.677517 0.210117 0.703792
O O5 0.500000 0.937578 0.250000
O O6 0.683712 0.927368 0.737848
O O7 0.661093 0.044389 0.483761
O O8 0.500000 0.540323 0.750000
O O9 0.399313 0.680545 0.633014
O O10 0.340434 0.540125 0.655733
O O11 0.546004 0.604903 0.072738
O O12 0.282310 0.191524 0.999090
O O13 0.816001 0.684414 0.332875
O O14 0.810835 0.558964 0.509934
O O15 0.857384 0.523239 0.334621
O O16 0.000000 0.613937 0.750000
O O17 0.500000 0.379788 0.750000
O O18 0.711152 0.393680 0.058735
#
# Coordination Sequence:
#
# PCOD8118475 Si02
#       8
#     4   4   4   4   4   4   4   4
#     4  11  19  31  48  76 119 148 184 209 256 316
#     4  10  20  30  48  79 115 157 184 205 247 313
#     4  11  19  33  50  78 112 149 176 214 267 329
#     4  11  19  33  51  79 117 151 183 213 256 319
#     4  11  24  43  59  77 101 138 191 247 288 323
#     4  12  20  30  48  80 116 146 174 215 260 326
#     4  11  20  35  54  75 105 148 184 225 276 323
#     4  11  22  37  56  79 104 140 186 220 282 332
#
# _framework density 18.367697
#
# number of rings (size 3 to 8) (size 9 to 14) (size 15 to 20)
#    0.000    1.000    3.750    7.125    0.000    0.000 
#    0.000    0.000    0.000    0.000    0.000    3.500 
#    0.000    0.000    0.000    0.000    0.000    0.000 
#
# Total GULP energy -396571.855580 kJ/mol
# GULP energy per Si atom -12392.870487 kJ/mol
# Density = 1.832589 g / cm^3
# Si number density = 18.367697 Si / 1000 Ang^3
#
#
#
# Elastic Constant Matrix: (Units=GPa)
#
#
# Indices 1 2 3 4 5 6 
#
# 1 60.4506 47.2215 29.8820 0.0000 -10.7912 0.0000
# 2 47.2215 114.5199 50.3484 0.0000 -11.8462 0.0000
# 3 29.8820 50.3484 81.5127 0.0000 -1.8631 0.0000
# 4 0.0000 0.0000 0.0000 24.8816 0.0000 -15.1804
# 5 -10.7912 -11.8462 -1.8631 0.0000 24.4300 0.0000
# 6 0.0000 0.0000 0.0000 -15.1804 0.0000 30.8160
#
#
#
# Elastic Compliance Matrix: (Units=1/GPa)
#
#
# Indices 1 2 3 4 5 6 
#
# 1 0.026464 -0.008179 -0.004481 0.000000 0.007382 0.000000
# 2 -0.008179 0.015229 -0.006333 0.000000 0.003289 0.000000
# 3 -0.004481 -0.006333 0.017738 0.000000 -0.003698 0.000000
# 4 0.000000 0.000000 0.000000 0.057459 0.000000 0.028305
# 5 0.007382 0.003289 -0.003698 0.000000 0.045507 0.000000
# 6 0.000000 0.000000 0.000000 0.028305 0.000000 0.046394
#
#
# Mechanical properties :
#
#
# Convention : Reuss Voigt Hill
#
# Bulk Modulus (GPa) = 46.62990 56.82077 51.72533
# Shear Modulus (GPa) = 19.69073 24.62761 22.15917
#
# Velocity S-wave (km/s) = 3.27774 3.66568 3.47712
# Velocity P-wave (km/s) = 6.30609 6.99418 6.65903
#
# Compressibility (1/GPa) = 0.02144547
#
# Stress axis : x y z
#
# Youngs Moduli (GPa) = 37.78707 65.66381 56.37566
#
# Poissons Ratio (x) = 0.53703 0.25263
# Poissons Ratio (y) = 0.30904 0.35704
# Poissons Ratio (z) = 0.16933 0.41587
#
# Static dielectric constant tensor:
#      x y z
#    x 3.230820 0.000000 -0.456860 
#    y 0.000000 3.777350 0.000000 
#    z -0.456860 0.000000 3.375410 
# 
# 
# High freq. dielectric constant tensor:
#      x y z
#    x 1.693930 0.000000 -0.045610 
#    y 0.000000 1.735180 0.000000 
#    z -0.045610 0.000000 1.671830 
# 
# From -- ./inp_files/23562.got.cif
#   From: 2010.06.25/outbox.cif.g09.slc.cpg/sg13_12_cif.got.tgz:23562.got - 2010.06.28 04:50:58.
