data_PCOD8118286
_publ_section_title
;
Structure prediction by ZEFSAII (Michael W. Deem and Ramdas Pophale) SiO2 
 PCOD8118286
Probable space group: P 2/C
;
_chemical_formula_sum "Si O2"
_cell_formula_units_Z 20
_cell_length_a 8.636097
_cell_length_b 12.171566
_cell_length_c 12.345753
_cell_angle_alpha 90.000000
_cell_angle_beta 137.957757
_cell_angle_gamma 90.000000
_cell_volume 869.056075
_symmetry_space_group_name_H-M "P 2/C"
_symmetry_group_IT_number 13
_symmetry_cell_setting 'monoclinic'
loop_
_space_group_symop_operation_xyz
x,y,z
-x,y,1/2-z
-x,-y,-z
x,-y,1/2+z
loop_
_atom_site_type_symbol
_atom_site_label
_atom_site_fract_x
_atom_site_fract_y
_atom_site_fract_z
Si Si1 0.006749 0.610147 0.073139
Si Si2 0.772156 0.810997 0.411071
Si Si3 0.373260 0.167080 0.437461
Si Si4 0.376471 0.613700 0.454485
Si Si5 0.811665 0.036868 0.743486
O O1 0.054738 0.709413 0.016431
O O2 0.208625 0.624673 0.265566
O O3 0.760104 0.618263 0.003533
O O4 0.000000 0.500000 0.000000
O O5 0.500000 0.781438 0.250000
O O6 0.805783 0.840897 0.554623
O O7 0.867242 0.915387 0.391725
O O8 0.425439 0.292889 0.433508
O O9 0.609246 0.113019 0.595644
O O10 0.262369 0.091921 0.284376
O O11 0.500000 0.500000 0.500000
O O12 0.000000 0.057910 0.750000
#
# Coordination Sequence:
#
# PCOD8118286 Si02
#       5
#     4   4   4   4   4
#     4  11  23  39  68  98 119 172 216 255 328 388
#     4  10  19  37  65  87 127 165 206 264 317 374
#     4  10  21  38  63  90 120 173 208 259 324 375
#     4  11  23  42  67  92 134 162 207 273 321 379
#     4  10  20  37  62  87 123 164 217 255 313 380
#
# _framework density 23.013477000000002
#
# number of rings (size 3 to 8) (size 9 to 14) (size 15 to 20)
#    0.000    1.600    4.000    2.400    0.000    0.800 
#    7.200    4.000    4.400    0.000    0.000    0.000 
#    0.000    0.000    0.000    0.000    0.000    0.000 
#
# Total GULP energy -247869.276920 kJ/mol
# GULP energy per Si atom -12393.463846 kJ/mol
# Density = 2.296110 g / cm^3
# Si number density = 23.013477 Si / 1000 Ang^3
#
#
#
# Elastic Constant Matrix: (Units=GPa)
#
#
# Indices 1 2 3 4 5 6 
#
# 1 184.3685 93.8532 24.5308 0.0000 -5.7727 0.0000
# 2 93.8532 219.6050 38.5884 0.0000 -6.0498 0.0000
# 3 24.5308 38.5884 13.1676 0.0000 -7.1065 0.0000
# 4 0.0000 0.0000 0.0000 -11.2110 0.0000 18.4082
# 5 -5.7727 -6.0498 -7.1065 0.0000 26.5465 0.0000
# 6 0.0000 0.0000 0.0000 18.4082 0.0000 35.1793
#
#
#
# Elastic Compliance Matrix: (Units=1/GPa)
#
#
# Indices 1 2 3 4 5 6 
#
# 1 0.007508 -0.001325 -0.010970 0.000000 -0.001606 0.000000
# 2 -0.001325 0.010553 -0.031928 0.000000 -0.006430 0.000000
# 3 -0.010970 -0.031928 0.215929 0.000000 0.048143 0.000000
# 4 0.000000 0.000000 0.000000 -0.047977 0.000000 0.025105
# 5 -0.001606 -0.006430 0.048143 0.000000 0.048743 0.000000
# 6 0.000000 0.000000 0.000000 0.025105 0.000000 0.015289
#
#
# Mechanical properties :
#
#
# Convention : Reuss Voigt Hill
#
# Bulk Modulus (GPa) = 6.87076 81.23176 44.05126
# Shear Modulus (GPa) = 12.91965 27.44753 20.18359
#
# Velocity S-wave (km/s) = 2.37195 3.45725 2.96469
# Velocity P-wave (km/s) = 3.23937 7.16316 5.55898
#
# Compressibility (1/GPa) = 0.14554431
#
# Stress axis : x y z
#
# Youngs Moduli (GPa) = 133.19387 94.75793 4.63114
#
# Poissons Ratio (x) = 0.12559 0.05080
# Poissons Ratio (y) = 0.17653 0.14786
# Poissons Ratio (z) = 1.46110 3.02544
#
# Static dielectric constant tensor:
#      x y z
#    x 5.066500 0.000000 0.048850 
#    y 0.000000 4.349840 0.000000 
#    z 0.048850 0.000000 3.990690 
# 
# 
# High freq. dielectric constant tensor:
#      x y z
#    x 1.928090 0.000000 0.005380 
#    y 0.000000 1.921430 0.000000 
#    z 0.005380 0.000000 1.886060 
# 
# From -- ./inp_files/46715.got.cif
#   From: 2010.06.25/outbox.cif.g09.slc.cpg/sg13_24_cif.got.tgz:46715.got - 2010.06.28 04:50:58.
