data_PCOD8118510
_publ_section_title
;
Structure prediction by ZEFSAII (Michael W. Deem and Ramdas Pophale) SiO2 
 PCOD8118510
Probable space group: P 2/C
;
_chemical_formula_sum "Si O2"
_cell_formula_units_Z 28
_cell_length_a 9.081544
_cell_length_b 13.427090
_cell_length_c 15.425426
_cell_angle_alpha 90.000000
_cell_angle_beta 125.008766
_cell_angle_gamma 90.000000
_cell_volume 1540.624303
_symmetry_space_group_name_H-M "P 2/C"
_symmetry_group_IT_number 13
_symmetry_cell_setting 'monoclinic'
loop_
_space_group_symop_operation_xyz
x,y,z
-x,y,1/2-z
-x,-y,-z
x,-y,1/2+z
loop_
_atom_site_type_symbol
_atom_site_label
_atom_site_fract_x
_atom_site_fract_y
_atom_site_fract_z
Si Si1 0.611054 0.106033 0.200053
Si Si2 0.689805 0.312925 0.264416
Si Si3 0.610811 0.187844 0.528911
Si Si4 0.890292 0.402497 0.481030
Si Si5 0.477346 0.593117 0.554037
Si Si6 0.349140 0.886721 0.272795
Si Si7 0.998641 0.757188 0.348500
O O1 0.500000 0.102195 0.250000
O O2 0.742146 0.202556 0.246382
O O3 0.714852 0.000708 0.230881
O O4 0.485017 0.118036 0.073348
O O5 0.500000 0.301097 0.250000
O O6 0.857909 0.345047 0.379496
O O7 0.653991 0.392034 0.174570
O O8 0.555327 0.303825 0.507183
O O9 0.562180 0.152933 0.608800
O O10 0.822539 0.176839 0.578516
O O11 0.695376 0.434236 0.447853
O O12 0.000000 0.500000 0.500000
O O13 0.001444 0.335886 0.586248
O O14 0.500000 0.500000 0.500000
O O15 0.500000 0.877038 0.250000
O O16 0.174039 0.823869 0.187577
O O17 0.000000 0.716722 0.250000
#
# Coordination Sequence:
#
# PCOD8118510 Si02
#       7
#     4   4   4   4   4   4   4
#     4   9  16  31  54  76  97 129 173 212 248 300
#     4   8  16  32  51  71  96 127 165 202 242 300
#     4   9  18  34  54  73 102 136 169 207 252 309
#     4  10  20  33  51  74  99 130 164 204 252 298
#     4   9  18  33  54  75  95 129 169 203 247 297
#     4  10  20  32  51  79 104 131 169 213 254 294
#     4   9  19  35  51  72 103 138 169 203 252 312
#
# _framework density 18.174451999999999
#
# number of rings (size 3 to 8) (size 9 to 14) (size 15 to 20)
#    0.000    2.857    0.000    3.000    0.000    4.571 
#    0.000    7.857    0.000   10.286    0.000    0.000 
#    0.000    0.000    0.000    0.000    0.000    0.000 
#
# Total GULP energy -346986.495207 kJ/mol
# GULP energy per Si atom -12392.374829 kJ/mol
# Density = 1.813309 g / cm^3
# Si number density = 18.174452 Si / 1000 Ang^3
#
#
#
# Elastic Constant Matrix: (Units=GPa)
#
#
# Indices 1 2 3 4 5 6 
#
# 1 60.4301 55.0262 44.4867 0.0000 -4.0991 0.0000
# 2 55.0262 139.2600 79.7066 0.0000 -1.8402 0.0000
# 3 44.4867 79.7066 144.0573 0.0000 -3.0350 0.0000
# 4 0.0000 0.0000 0.0000 28.4867 0.0000 -14.4385
# 5 -4.0991 -1.8402 -3.0350 0.0000 23.8941 0.0000
# 6 0.0000 0.0000 0.0000 -14.4385 0.0000 55.4006
#
#
#
# Elastic Compliance Matrix: (Units=1/GPa)
#
#
# Indices 1 2 3 4 5 6 
#
# 1 0.027347 -0.008734 -0.003538 0.000000 0.003570 0.000000
# 2 -0.008734 0.013298 -0.004683 0.000000 -0.001069 0.000000
# 3 -0.003538 -0.004683 0.010633 0.000000 0.000383 0.000000
# 4 0.000000 0.000000 0.000000 0.040447 0.000000 0.010541
# 5 0.003570 -0.001069 0.000383 0.000000 0.042430 0.000000
# 6 0.000000 0.000000 0.000000 0.010541 0.000000 0.020798
#
#
# Mechanical properties :
#
#
# Convention : Reuss Voigt Hill
#
# Bulk Modulus (GPa) = 57.57201 78.02069 67.79635
# Shear Modulus (GPa) = 25.68675 32.52479 29.10577
#
# Velocity S-wave (km/s) = 3.76353 4.23494 4.00617
# Velocity P-wave (km/s) = 7.11560 8.18138 7.66703
#
# Compressibility (1/GPa) = 0.01736955
#
# Stress axis : x y z
#
# Youngs Moduli (GPa) = 36.56671 75.19793 94.04303
#
# Poissons Ratio (x) = 0.65677 0.33268
# Poissons Ratio (y) = 0.31937 0.44043
# Poissons Ratio (z) = 0.12936 0.35217
#
# Static dielectric constant tensor:
#      x y z
#    x 2.981800 0.000000 -0.078060 
#    y 0.000000 3.565720 0.000000 
#    z -0.078060 0.000000 3.752290 
# 
# 
# High freq. dielectric constant tensor:
#      x y z
#    x 1.663910 0.000000 -0.011420 
#    y 0.000000 1.709690 0.000000 
#    z -0.011420 0.000000 1.721870 
# 
# From -- ./inp_files/47521.got.cif
#   From: 2010.06.25/outbox.cif.g09.slc.cpg/sg13_24_cif.got.tgz:47521.got - 2010.06.28 04:50:58.
