data_PCOD8118030
_publ_section_title
;
Structure prediction by ZEFSAII (Michael W. Deem and Ramdas Pophale) SiO2 
 PCOD8118030
Probable space group: P 2/C
;
_chemical_formula_sum "Si O2"
_cell_formula_units_Z 32
_cell_length_a 9.094942
_cell_length_b 19.011278
_cell_length_c 12.892713
_cell_angle_alpha 90.000000
_cell_angle_beta 131.803274
_cell_angle_gamma 90.000000
_cell_volume 1661.755167
_symmetry_space_group_name_H-M "P 2/C"
_symmetry_group_IT_number 13
_symmetry_cell_setting 'monoclinic'
loop_
_space_group_symop_operation_xyz
x,y,z
-x,y,1/2-z
-x,-y,-z
x,-y,1/2+z
loop_
_atom_site_type_symbol
_atom_site_label
_atom_site_fract_x
_atom_site_fract_y
_atom_site_fract_z
Si Si1 0.476129 0.579294 0.860828
Si Si2 0.226322 0.463289 0.830471
Si Si3 0.049069 0.764384 0.459724
Si Si4 0.673388 0.674213 0.248442
Si Si5 0.280997 0.972193 0.664802
Si Si6 0.323009 0.174358 0.248163
Si Si7 0.999553 0.918081 0.369529
Si Si8 0.435242 0.726999 0.516825
O O1 0.500000 0.570877 0.750000
O O2 0.280424 0.537912 0.804615
O O3 0.453277 0.660425 0.880986
O O4 0.662872 0.546073 0.007977
O O5 0.279712 0.402514 0.773977
O O6 0.000000 0.461912 0.750000
O O7 0.138209 0.781380 0.615651
O O8 0.219013 0.732959 0.466076
O O9 0.872169 0.708416 0.389671
O O10 0.964907 0.835181 0.367728
O O11 0.500000 0.667403 0.250000
O O12 0.592655 0.723351 0.118809
O O13 0.500000 0.998226 0.750000
O O14 0.262140 0.907103 0.738038
O O15 0.203451 0.942911 0.517644
O O16 0.173233 0.040762 0.654222
O O17 0.500000 0.175975 0.250000
O O18 0.414306 0.207931 0.395015
O O19 0.000000 0.938365 0.250000
#
# Coordination Sequence:
#
# PCOD8118030 Si02
#       8
#     4   4   4   4   4   4   4   4
#     4  10  20  36  57  85 112 136 179 228 262 308
#     4  10  22  39  58  79 109 148 180 213 266 321
#     4  10  19  35  59  80 103 140 180 221 269 319
#     4  11  22  36  54  80 112 142 177 222 266 313
#     4   9  19  35  53  76 109 144 178 220 268 314
#     4   8  16  33  57  80 103 138 183 223 263 318
#     4  10  20  34  53  80 108 138 182 224 261 319
#     4  10  19  36  59  81 106 139 181 221 265 321
#
# _framework density 19.256748000000002
#
# number of rings (size 3 to 8) (size 9 to 14) (size 15 to 20)
#    0.000    2.250    0.000    4.875    0.000    1.500 
#    0.000   11.875    0.000    0.000    0.000    0.000 
#    0.000    0.000    0.000    0.000    0.000    0.000 
#
# Total GULP energy -396740.384691 kJ/mol
# GULP energy per Si atom -12398.137022 kJ/mol
# Density = 1.921292 g / cm^3
# Si number density = 19.256748 Si / 1000 Ang^3
#
#
#
# Elastic Constant Matrix: (Units=GPa)
#
#
# Indices 1 2 3 4 5 6 
#
# 1 87.1139 27.8544 44.2740 0.0000 12.0775 0.0000
# 2 27.8544 94.2406 29.7739 0.0000 10.0761 0.0000
# 3 44.2740 29.7739 79.1404 0.0000 12.4532 0.0000
# 4 0.0000 0.0000 0.0000 22.2486 0.0000 5.6606
# 5 12.0775 10.0761 12.4532 0.0000 23.6356 0.0000
# 6 0.0000 0.0000 0.0000 5.6606 0.0000 20.7578
#
#
#
# Elastic Compliance Matrix: (Units=1/GPa)
#
#
# Indices 1 2 3 4 5 6 
#
# 1 0.016685 -0.002027 -0.008032 0.000000 -0.003430 0.000000
# 2 -0.002027 0.012486 -0.003150 0.000000 -0.002628 0.000000
# 3 -0.008032 -0.003150 0.019035 0.000000 -0.004582 0.000000
# 4 0.000000 0.000000 0.000000 0.048298 0.000000 -0.013171
# 5 -0.003430 -0.002628 -0.004582 0.000000 0.047596 0.000000
# 6 0.000000 0.000000 0.000000 -0.013171 0.000000 0.051766
#
#
# Mechanical properties :
#
#
# Convention : Reuss Voigt Hill
#
# Bulk Modulus (GPa) = 45.89592 51.58882 48.74237
# Shear Modulus (GPa) = 21.78200 23.90125 22.84162
#
# Velocity S-wave (km/s) = 3.36688 3.52687 3.44781
# Velocity P-wave (km/s) = 6.24500 6.59039 6.42002
#
# Compressibility (1/GPa) = 0.02178843
#
# Stress axis : x y z
#
# Youngs Moduli (GPa) = 59.93430 80.08672 52.53442
#
# Poissons Ratio (x) = 0.16236 0.42194
# Poissons Ratio (y) = 0.12150 0.16548
# Poissons Ratio (z) = 0.48138 0.25227
#
# Static dielectric constant tensor:
#      x y z
#    x 3.167430 0.000000 0.134950 
#    y 0.000000 3.779220 0.000000 
#    z 0.134950 0.000000 3.747330 
# 
# 
# High freq. dielectric constant tensor:
#      x y z
#    x 1.715690 0.000000 0.012250 
#    y 0.000000 1.760070 0.000000 
#    z 0.012250 0.000000 1.761090 
# 
# From -- ./inp_files/30807.got.cif
#   From: 2010.06.25/outbox.cif.g09.slc.cpg/sg13_16_cif.got.tgz:30807.got - 2010.06.28 04:50:58.
