data_PCOD8118056
_publ_section_title
;
Structure prediction by ZEFSAII (Michael W. Deem and Ramdas Pophale) SiO2 
 PCOD8118056
Probable space group: P 2/C
;
_chemical_formula_sum "Si O2"
_cell_formula_units_Z 26
_cell_length_a 25.101892
_cell_length_b 5.267187
_cell_length_c 17.718516
_cell_angle_alpha 90.000000
_cell_angle_beta 153.245310
_cell_angle_gamma 90.000000
_cell_volume 1054.606806
_symmetry_space_group_name_H-M "P 2/C"
_symmetry_group_IT_number 13
_symmetry_cell_setting 'monoclinic'
loop_
_space_group_symop_operation_xyz
x,y,z
-x,y,1/2-z
-x,-y,-z
x,-y,1/2+z
loop_
_atom_site_type_symbol
_atom_site_label
_atom_site_fract_x
_atom_site_fract_y
_atom_site_fract_z
Si Si1 0.079786 0.750021 0.602463
Si Si2 0.319738 0.274750 0.692395
Si Si3 0.551881 0.233704 0.900341
Si Si4 0.788668 0.208570 0.384777
Si Si5 0.373045 0.729746 0.548641
Si Si6 0.182108 0.576745 0.880677
Si Si7 0.000000 0.322891 0.750000
O O1 0.169333 0.745397 0.646347
O O2 0.157466 0.748422 0.776632
O O3 0.000000 0.500000 0.500000
O O4 0.000000 0.000000 0.500000
O O5 0.457069 0.231225 0.847418
O O6 0.290653 0.551505 0.689725
O O7 0.251560 0.243103 0.526639
O O8 0.285491 0.051052 0.706505
O O9 0.500000 0.258395 0.750000
O O10 0.627299 0.490094 0.009102
O O11 0.639644 0.989668 0.015430
O O12 0.899155 0.160146 0.581200
O O13 0.500000 0.756715 0.750000
O O14 0.263375 0.675476 0.466663
O O15 0.056795 0.495395 0.756524
#
# Coordination Sequence:
#
# PCOD8118056 Si02
#       7
#     4   4   4   4   4   4   2
#     4  12  27  47  64  94 140 189 223 275 338 414
#     4  11  23  40  70  99 128 173 223 285 329 400
#     4  10  19  35  60  99 131 154 216 277 335 379
#     4  11  25  42  63  95 136 175 221 276 344 397
#     4  10  20  36  62 100 126 167 212 284 327 392
#     4  11  24  43  70 100 137 177 228 279 339 405
#     4  10  24  38  68  98 128 172 226 280 326 394
#
# _framework density 24.653739999999999
#
# number of rings (size 3 to 8) (size 9 to 14) (size 15 to 20)
#    0.000    1.231    4.615    1.846   10.769    1.846 
#    0.000    0.000    0.000    5.538    0.000    0.000 
#    0.000    0.000    0.000    0.000    0.000    0.000 
#
# Total GULP energy -322280.071961 kJ/mol
# GULP energy per Si atom -12395.387383 kJ/mol
# Density = 2.459763 g / cm^3
# Si number density = 24.653740 Si / 1000 Ang^3
#
#
#
# Elastic Constant Matrix: (Units=GPa)
#
#
# Indices 1 2 3 4 5 6 
#
# 1 160.8493 46.3211 25.4345 0.0000 30.8317 0.0000
# 2 46.3211 183.5068 9.1551 0.0000 19.7426 0.0000
# 3 25.4345 9.1551 27.3747 0.0000 7.1613 0.0000
# 4 0.0000 0.0000 0.0000 28.3918 0.0000 21.7714
# 5 30.8317 19.7426 7.1613 0.0000 48.4302 0.0000
# 6 0.0000 0.0000 0.0000 21.7714 0.0000 47.9480
#
#
#
# Elastic Compliance Matrix: (Units=1/GPa)
#
#
# Indices 1 2 3 4 5 6 
#
# 1 0.008341 -0.001381 -0.006289 0.000000 -0.003817 0.000000
# 2 -0.001381 0.005976 -0.000321 0.000000 -0.001510 0.000000
# 3 -0.006289 -0.000321 0.043065 0.000000 -0.002233 0.000000
# 4 0.000000 0.000000 0.000000 0.054036 0.000000 -0.024536
# 5 -0.003817 -0.001510 -0.002233 0.000000 0.024024 0.000000
# 6 0.000000 0.000000 0.000000 -0.024536 0.000000 0.031997
#
#
# Mechanical properties :
#
#
# Convention : Reuss Voigt Hill
#
# Bulk Modulus (GPa) = 24.15430 59.28357 41.71893
# Shear Modulus (GPa) = 25.35231 44.34202 34.84717
#
# Velocity S-wave (km/s) = 3.21025 4.24558 3.76368
# Velocity P-wave (km/s) = 4.85382 6.93772 5.98713
#
# Compressibility (1/GPa) = 0.04140049
#
# Stress axis : x y z
#
# Youngs Moduli (GPa) = 119.89201 167.32484 23.22064
#
# Poissons Ratio (x) = 0.23107 0.14604
# Poissons Ratio (y) = 0.16557 0.00745
# Poissons Ratio (z) = 0.75404 0.05366
#
# Static dielectric constant tensor:
#      x y z
#    x 4.590020 0.000000 0.237520 
#    y 0.000000 5.390090 0.000000 
#    z 0.237520 0.000000 4.182370 
# 
# 
# High freq. dielectric constant tensor:
#      x y z
#    x 1.990970 0.000000 0.024310 
#    y 0.000000 1.988080 0.000000 
#    z 0.024310 0.000000 1.959140 
# 
# From -- ./inp_files/70973.got.cif
#   From: 2010.06.25/outbox.cif.g09.slc.cpg/sg13_36_cif.got.tgz:70973.got - 2010.06.28 04:50:58.
