data_PCOD8118781
_publ_section_title
;
Structure prediction by ZEFSAII (Michael W. Deem and Ramdas Pophale) SiO2 
 PCOD8118781
Probable space group: P 2/C
;
_chemical_formula_sum "Si O2"
_cell_formula_units_Z 30
_cell_length_a 23.351543
_cell_length_b 10.982247
_cell_length_c 8.644065
_cell_angle_alpha 90.000000
_cell_angle_beta 138.212335
_cell_angle_gamma 90.000000
_cell_volume 1477.207591
_symmetry_space_group_name_H-M "P 2/C"
_symmetry_group_IT_number 13
_symmetry_cell_setting 'monoclinic'
loop_
_space_group_symop_operation_xyz
x,y,z
-x,y,1/2-z
-x,-y,-z
x,-y,1/2+z
loop_
_atom_site_type_symbol
_atom_site_label
_atom_site_fract_x
_atom_site_fract_y
_atom_site_fract_z
Si Si1 0.428737 0.152719 0.316952
Si Si2 0.127844 0.646954 0.726316
Si Si3 0.786190 0.103856 0.108453
Si Si4 0.391220 0.083157 0.908896
Si Si5 0.780966 0.510998 0.338685
Si Si6 0.288380 0.662494 0.566344
Si Si7 0.169357 0.135090 0.966993
Si Si8 0.000000 0.259649 0.750000
O O1 0.530257 0.169280 0.492018
O O2 0.383840 0.280801 0.266967
O O3 0.413539 0.058331 0.425528
O O4 0.379885 0.097542 0.069261
O O5 0.156741 0.782285 0.829037
O O6 0.187679 0.595059 0.710577
O O7 0.032405 0.655851 0.459232
O O8 0.136958 0.563669 0.897818
O O9 0.774376 0.098707 0.269854
O O10 0.835252 0.982583 0.151680
O O11 0.693474 0.124419 0.848271
O O12 0.712839 0.452253 0.320212
O O13 0.732719 0.618375 0.150193
O O14 0.214634 0.757837 0.463475
O O15 0.075138 0.174541 0.834106
#
# Coordination Sequence:
#
# PCOD8118781 Si02
#       8
#     4   4   4   4   4   4   4   2
#     4  10  21  34  59  91 133 151 199 253 313 349
#     4  10  22  39  62  85 118 164 202 264 299 363
#     4  11  21  38  62  90 122 164 198 248 316 385
#     4  10  20  35  58  96 124 159 193 253 304 384
#     4  10  22  40  64  87 119 167 224 242 309 359
#     4  11  21  42  61  93 120 168 207 265 296 380
#     4  11  24  38  64  91 126 158 206 257 323 370
#     4  10  22  44  58  94 128 154 210 264 308 374
#
# _framework density 20.308588
#
# number of rings (size 3 to 8) (size 9 to 14) (size 15 to 20)
#    0.000    1.600    4.000    1.600    1.867    2.667 
#    0.000    0.000    0.000   14.400    0.000    0.000 
#    0.000    0.000    0.000    0.000    0.000    0.000 
#
# Total GULP energy -371967.068335 kJ/mol
# GULP energy per Si atom -12398.902278 kJ/mol
# Density = 2.026236 g / cm^3
# Si number density = 20.308588 Si / 1000 Ang^3
#
#
#
# Elastic Constant Matrix: (Units=GPa)
#
#
# Indices 1 2 3 4 5 6 
#
# 1 73.4068 40.2843 34.0732 0.0000 -4.3772 0.0000
# 2 40.2843 102.2760 34.9593 0.0000 -3.9736 0.0000
# 3 34.0732 34.9593 97.6897 0.0000 5.3004 0.0000
# 4 0.0000 0.0000 0.0000 35.6894 0.0000 -3.7063
# 5 -4.3772 -3.9736 5.3004 0.0000 36.0926 0.0000
# 6 0.0000 0.0000 0.0000 -3.7063 0.0000 33.5338
#
#
#
# Elastic Compliance Matrix: (Units=1/GPa)
#
#
# Indices 1 2 3 4 5 6 
#
# 1 0.019162 -0.005841 -0.004722 0.000000 0.002374 0.000000
# 2 -0.005841 0.013041 -0.002691 0.000000 0.001123 0.000000
# 3 -0.004722 -0.002691 0.012997 0.000000 -0.002778 0.000000
# 4 0.000000 0.000000 0.000000 0.028345 0.000000 0.003133
# 5 0.002374 0.001123 -0.002778 0.000000 0.028526 0.000000
# 6 0.000000 0.000000 0.000000 0.003133 0.000000 0.030167
#
#
# Mechanical properties :
#
#
# Convention : Reuss Voigt Hill
#
# Bulk Modulus (GPa) = 53.49641 54.66733 54.08187
# Shear Modulus (GPa) = 30.30751 32.00022 31.15386
#
# Velocity S-wave (km/s) = 3.86728 3.97381 3.92091
# Velocity P-wave (km/s) = 6.80736 6.93049 6.86920
#
# Compressibility (1/GPa) = 0.01869284
#
# Stress axis : x y z
#
# Youngs Moduli (GPa) = 52.18796 76.67870 76.94086
#
# Poissons Ratio (x) = 0.44789 0.36330
# Poissons Ratio (y) = 0.30483 0.20702
# Poissons Ratio (z) = 0.24642 0.20631
#
# Static dielectric constant tensor:
#      x y z
#    x 3.629370 0.000000 -0.185210 
#    y 0.000000 3.683930 0.000000 
#    z -0.185210 0.000000 3.907640 
# 
# 
# High freq. dielectric constant tensor:
#      x y z
#    x 1.786110 0.000000 -0.016490 
#    y 0.000000 1.789330 0.000000 
#    z -0.016490 0.000000 1.795430 
# 
# From -- ./inp_files/18804.got.cif
#   From: 2010.06.25/outbox.cif.g09.slc.cpg/sg13_10_cif.got.tgz:18804.got - 2010.06.28 04:50:58.
