data_PCOD8118256
_publ_section_title
;
Structure prediction by ZEFSAII (Michael W. Deem and Ramdas Pophale) SiO2 
 PCOD8118256
Probable space group: P 2/C
;
_chemical_formula_sum "Si O2"
_cell_formula_units_Z 32
_cell_length_a 19.238435
_cell_length_b 8.483389
_cell_length_c 27.303794
_cell_angle_alpha 90.000000
_cell_angle_beta 159.154135
_cell_angle_gamma 90.000000
_cell_volume 1585.752494
_symmetry_space_group_name_H-M "P 2/C"
_symmetry_group_IT_number 13
_symmetry_cell_setting 'monoclinic'
loop_
_space_group_symop_operation_xyz
x,y,z
-x,y,1/2-z
-x,-y,-z
x,-y,1/2+z
loop_
_atom_site_type_symbol
_atom_site_label
_atom_site_fract_x
_atom_site_fract_y
_atom_site_fract_z
Si Si1 0.919120 0.179467 0.339021
Si Si2 0.221866 0.073705 0.464067
Si Si3 0.429609 0.286756 0.834580
Si Si4 0.333324 0.912813 0.359277
Si Si5 0.422172 0.347559 0.343263
Si Si6 0.168388 0.111259 0.591794
Si Si7 0.509673 0.860692 0.703587
Si Si8 0.200131 0.179686 0.869442
O O1 0.769567 0.326716 0.247974
O O2 0.025253 0.157592 0.356061
O O3 0.087085 0.197887 0.490064
O O4 0.774228 0.029026 0.250085
O O5 0.379591 0.212397 0.564441
O O6 0.297875 0.929740 0.548695
O O7 0.194497 0.990709 0.393216
O O8 0.418555 0.228789 0.883369
O O9 0.452674 0.472677 0.849938
O O10 0.235103 0.240207 0.675924
O O11 0.181385 0.847958 0.298934
O O12 0.500000 0.000000 0.500000
O O13 0.397631 0.253867 0.276052
O O14 0.611857 0.284318 0.496120
O O15 0.352201 0.009427 0.697049
O O16 0.000000 0.000000 0.500000
O O17 0.500000 0.771873 0.750000
O O18 0.000000 0.273391 0.750000
#
# Coordination Sequence:
#
# PCOD8118256 Si02
#       8
#     4   4   4   4   4   4   4   4
#     4  12  21  39  68  95 121 162 231 267 318 375
#     4  10  21  38  64  91 117 163 222 276 309 375
#     4  11  25  43  60  92 142 167 205 264 337 398
#     4  12  21  40  69  91 116 167 218 269 312 370
#     4  11  25  42  57  96 140 172 200 268 345 400
#     4  11  20  39  66  91 118 168 220 269 300 371
#     4  10  19  37  62  87 123 166 218 269 313 373
#     4  11  22  41  67  92 123 162 222 272 315 381
#
# _framework density 20.179694000000001
#
# number of rings (size 3 to 8) (size 9 to 14) (size 15 to 20)
#    0.000    1.000    7.500    0.750    0.000    1.000 
#    4.500    0.625    0.000    0.000    0.000    0.000 
#    0.000    0.000    0.000    0.000    0.000    0.000 
#
# Total GULP energy -396635.595043 kJ/mol
# GULP energy per Si atom -12394.862345 kJ/mol
# Density = 2.013376 g / cm^3
# Si number density = 20.179694 Si / 1000 Ang^3
#
#
#
# Elastic Constant Matrix: (Units=GPa)
#
#
# Indices 1 2 3 4 5 6 
#
# 1 108.5570 34.6496 28.9560 0.0000 1.5260 0.0000
# 2 34.6496 97.3258 33.9746 0.0000 -0.7519 0.0000
# 3 28.9560 33.9746 104.6654 0.0000 0.7059 0.0000
# 4 0.0000 0.0000 0.0000 11.1236 0.0000 2.0635
# 5 1.5260 -0.7519 0.7059 0.0000 38.2339 0.0000
# 6 0.0000 0.0000 0.0000 2.0635 0.0000 17.8364
#
#
#
# Elastic Compliance Matrix: (Units=1/GPa)
#
#
# Indices 1 2 3 4 5 6 
#
# 1 0.010742 -0.003148 -0.001947 0.000000 -0.000455 0.000000
# 2 -0.003148 0.012514 -0.003194 0.000000 0.000431 0.000000
# 3 -0.001947 -0.003194 0.011131 0.000000 -0.000191 0.000000
# 4 0.000000 0.000000 0.000000 0.091871 0.000000 -0.010628
# 5 -0.000455 0.000431 -0.000191 0.000000 0.026185 0.000000
# 6 0.000000 0.000000 0.000000 -0.010628 0.000000 0.057295
#
#
# Mechanical properties :
#
#
# Convention : Reuss Voigt Hill
#
# Bulk Modulus (GPa) = 56.15194 56.18985 56.17090
# Shear Modulus (GPa) = 21.52836 27.63665 24.58250
#
# Velocity S-wave (km/s) = 3.26978 3.70473 3.49403
# Velocity P-wave (km/s) = 6.49166 6.79744 6.64631
#
# Compressibility (1/GPa) = 0.01780882
#
# Stress axis : x y z
#
# Youngs Moduli (GPa) = 93.08954 79.91111 89.83994
#
# Poissons Ratio (x) = 0.25159 0.17491
# Poissons Ratio (y) = 0.29308 0.28694
# Poissons Ratio (z) = 0.18123 0.25523
#
# Static dielectric constant tensor:
#      x y z
#    x 3.966360 0.000000 -0.103390 
#    y 0.000000 3.236860 0.000000 
#    z -0.103390 0.000000 4.059200 
# 
# 
# High freq. dielectric constant tensor:
#      x y z
#    x 1.800710 0.000000 0.001480 
#    y 0.000000 1.738190 0.000000 
#    z 0.001480 0.000000 1.803470 
# 
# From -- ./inp_files/97549.got.cif
#   From: 2010.06.25/outbox.cif.g09.slc.cpg/sg13_49_cif.got.tgz:97549.got - 2010.06.28 04:50:58.
