data_PCOD8118581
_publ_section_title
;
Structure prediction by ZEFSAII (Michael W. Deem and Ramdas Pophale) SiO2 
 PCOD8118581
Probable space group: P 2/C
;
_chemical_formula_sum "Si O2"
_cell_formula_units_Z 28
_cell_length_a 17.315084
_cell_length_b 14.176857
_cell_length_c 9.109620
_cell_angle_alpha 90.000000
_cell_angle_beta 136.105666
_cell_angle_gamma 90.000000
_cell_volume 1550.405040
_symmetry_space_group_name_H-M "P 2/C"
_symmetry_group_IT_number 13
_symmetry_cell_setting 'monoclinic'
loop_
_space_group_symop_operation_xyz
x,y,z
-x,y,1/2-z
-x,-y,-z
x,-y,1/2+z
loop_
_atom_site_type_symbol
_atom_site_label
_atom_site_fract_x
_atom_site_fract_y
_atom_site_fract_z
Si Si1 0.869727 0.576182 0.592199
Si Si2 0.356246 0.915042 0.423918
Si Si3 0.385098 0.905764 0.795996
Si Si4 0.704347 0.269985 0.810606
Si Si5 0.752457 0.555194 0.728167
Si Si6 0.437628 0.424147 0.017893
Si Si7 0.381891 0.732772 0.004952
O O1 0.812297 0.664528 0.429284
O O2 0.839853 0.581135 0.722036
O O3 0.824125 0.475894 0.468154
O O4 0.000000 0.584381 0.750000
O O5 0.329533 0.909727 0.559706
O O6 0.484302 0.914781 0.552272
O O7 0.287727 0.826872 0.267093
O O8 0.320813 0.014984 0.304754
O O9 0.372188 0.808941 0.864633
O O10 0.591184 0.329471 0.614218
O O11 0.702435 0.242063 0.979084
O O12 0.676771 0.467198 0.576758
O O13 0.662830 0.638336 0.636664
O O14 0.500000 0.392499 0.250000
O O15 0.500000 0.500000 0.000000
O O16 0.500000 0.723080 0.250000
#
# Coordination Sequence:
#
# PCOD8118581 Si02
#       7
#     4   4   4   4   4   4   4
#     4  10  21  38  55  75 100 136 181 235 275 309
#     4  10  20  34  47  77 103 143 177 208 251 306
#     4  10  21  31  52  71 111 142 173 207 248 310
#     4  10  21  32  50  74 103 137 180 212 261 317
#     4  10  21  34  52  75 102 137 180 217 268 320
#     4  11  21  32  48  74 109 144 172 211 257 323
#     4  11  19  31  49  74 106 144 172 210 253 312
#
# _framework density 18.059797
#
# number of rings (size 3 to 8) (size 9 to 14) (size 15 to 20)
#    0.000    1.714    1.429    5.143    4.000    2.286 
#    0.000    0.000    0.000    0.000    0.000   10.000 
#    0.000    0.000    0.000    0.000    0.000    0.000 
#
# Total GULP energy -346900.963913 kJ/mol
# GULP energy per Si atom -12389.320140 kJ/mol
# Density = 1.801869 g / cm^3
# Si number density = 18.059797 Si / 1000 Ang^3
#
#
#
# Elastic Constant Matrix: (Units=GPa)
#
#
# Indices 1 2 3 4 5 6 
#
# 1 70.8743 44.6148 38.6753 0.0000 -12.6263 0.0000
# 2 44.6148 116.8454 52.8240 0.0000 -12.3440 0.0000
# 3 38.6753 52.8240 82.4130 0.0000 -12.0655 0.0000
# 4 0.0000 0.0000 0.0000 27.9416 0.0000 -10.0585
# 5 -12.6263 -12.3440 -12.0655 0.0000 31.8385 0.0000
# 6 0.0000 0.0000 0.0000 -10.0585 0.0000 14.0855
#
#
#
# Elastic Compliance Matrix: (Units=1/GPa)
#
#
# Indices 1 2 3 4 5 6 
#
# 1 0.021351 -0.004867 -0.006285 0.000000 0.004198 0.000000
# 2 -0.004867 0.013263 -0.006084 0.000000 0.000906 0.000000
# 3 -0.006285 -0.006084 0.019347 0.000000 0.002480 0.000000
# 4 0.000000 0.000000 0.000000 0.048172 0.000000 0.034400
# 5 0.004198 0.000906 0.002480 0.000000 0.034365 0.000000
# 6 0.000000 0.000000 0.000000 0.034400 0.000000 0.095560
#
#
# Mechanical properties :
#
#
# Convention : Reuss Voigt Hill
#
# Bulk Modulus (GPa) = 51.31695 60.26234 55.78965
# Shear Modulus (GPa) = 18.31311 23.70768 21.01040
#
# Velocity S-wave (km/s) = 3.18783 3.62710 3.41454
# Velocity P-wave (km/s) = 6.48278 7.14015 6.81939
#
# Compressibility (1/GPa) = 0.01948674
#
# Stress axis : x y z
#
# Youngs Moduli (GPa) = 46.83549 75.39627 51.68860
#
# Poissons Ratio (x) = 0.36699 0.32488
# Poissons Ratio (y) = 0.22797 0.31449
# Poissons Ratio (z) = 0.29438 0.45874
#
# Static dielectric constant tensor:
#      x y z
#    x 3.249970 0.000000 -0.297500 
#    y 0.000000 3.466820 0.000000 
#    z -0.297500 0.000000 3.240380 
# 
# 
# High freq. dielectric constant tensor:
#      x y z
#    x 1.684510 0.000000 -0.033900 
#    y 0.000000 1.700680 0.000000 
#    z -0.033900 0.000000 1.674100 
# 
# From -- ./inp_files/19439.got.cif
#   From: 2010.06.25/outbox.cif.g09.slc.cpg/sg13_10_cif.got.tgz:19439.got - 2010.06.28 04:50:58.
