data_PCOD8118288
_publ_section_title
;
Structure prediction by ZEFSAII (Michael W. Deem and Ramdas Pophale) SiO2 
 PCOD8118288
Probable space group: P 2/C
;
_chemical_formula_sum "Si O2"
_cell_formula_units_Z 28
_cell_length_a 8.036092
_cell_length_b 15.443330
_cell_length_c 11.076328
_cell_angle_alpha 90.000000
_cell_angle_beta 62.501107
_cell_angle_gamma 90.000000
_cell_volume 1219.312291
_symmetry_space_group_name_H-M "P 2/C"
_symmetry_group_IT_number 13
_symmetry_cell_setting 'monoclinic'
loop_
_space_group_symop_operation_xyz
x,y,z
-x,y,1/2-z
-x,-y,-z
x,-y,1/2+z
loop_
_atom_site_type_symbol
_atom_site_label
_atom_site_fract_x
_atom_site_fract_y
_atom_site_fract_z
Si Si1 0.433013 0.315441 0.534764
Si Si2 0.841161 0.394758 0.710074
Si Si3 0.101796 0.302564 0.452462
Si Si4 0.670199 0.579972 0.782403
Si Si5 0.416611 0.135018 0.048794
Si Si6 0.661119 0.993550 0.598405
Si Si7 0.886256 0.126982 0.168898
O O1 0.351220 0.346461 0.690197
O O2 0.266948 0.299110 0.495066
O O3 0.579288 0.389799 0.440230
O O4 0.533275 0.225439 0.529163
O O5 0.802162 0.496167 0.737578
O O6 0.000000 0.367335 0.750000
O O7 0.921062 0.360346 0.554830
O O8 0.189618 0.344285 0.303797
O O9 0.031606 0.206347 0.438168
O O10 0.500000 0.561554 0.750000
O O11 0.599079 0.077974 0.019826
O O12 0.316015 0.155456 0.209726
O O13 0.289974 0.081517 0.992620
O O14 0.500000 0.015032 0.750000
O O15 0.850424 0.958289 0.598928
O O16 0.000000 0.101874 0.250000
#
# Coordination Sequence:
#
# PCOD8118288 Si02
#       7
#     4   4   4   4   4   4   4
#     4  10  19  37  65  89 120 168 221 260 312 378
#     4  10  22  38  58  91 132 164 206 267 325 373
#     4  10  20  38  61  88 126 172 210 261 317 383
#     4  10  20  36  61  89 123 173 217 260 309 378
#     4  10  19  39  67  91 117 164 213 266 309 383
#     4   9  20  38  67  92 121 158 212 264 323 381
#     4  11  22  38  62  94 126 164 212 261 325 390
#
# _framework density 22.963761999999999
#
# number of rings (size 3 to 8) (size 9 to 14) (size 15 to 20)
#    0.000    2.000    2.857    0.857    0.000    1.143 
#    5.143    0.000    3.143    0.000    0.000    0.000 
#    0.000    0.000    0.000    0.000    0.000    0.000 
#
# Total GULP energy -347029.164912 kJ/mol
# GULP energy per Si atom -12393.898747 kJ/mol
# Density = 2.291150 g / cm^3
# Si number density = 22.963762 Si / 1000 Ang^3
#
#
#
# Elastic Constant Matrix: (Units=GPa)
#
#
# Indices 1 2 3 4 5 6 
#
# 1 59.0418 37.5697 24.4650 0.0000 6.7156 0.0000
# 2 37.5697 137.4009 43.0706 0.0000 -4.8848 0.0000
# 3 24.4650 43.0706 102.4455 0.0000 -20.6528 0.0000
# 4 0.0000 0.0000 0.0000 37.7900 0.0000 0.8378
# 5 6.7156 -4.8848 -20.6528 0.0000 26.1988 0.0000
# 6 0.0000 0.0000 0.0000 0.8378 0.0000 30.0980
#
#
#
# Elastic Compliance Matrix: (Units=1/GPa)
#
#
# Indices 1 2 3 4 5 6 
#
# 1 0.024005 -0.005114 -0.005963 0.000000 -0.011808 0.000000
# 2 -0.005114 0.009519 -0.002566 0.000000 0.001063 0.000000
# 3 -0.005963 -0.002566 0.014833 0.000000 0.012743 0.000000
# 4 0.000000 0.000000 0.000000 0.026478 0.000000 -0.000737
# 5 -0.011808 0.001063 0.012743 0.000000 0.051440 0.000000
# 6 0.000000 0.000000 0.000000 -0.000737 0.000000 0.033245
#
#
# Mechanical properties :
#
#
# Convention : Reuss Voigt Hill
#
# Bulk Modulus (GPa) = 47.46052 56.56653 52.01353
# Shear Modulus (GPa) = 25.79560 31.73624 28.76592
#
# Velocity S-wave (km/s) = 3.35523 3.72158 3.54314
# Velocity P-wave (km/s) = 5.97683 6.56912 6.27996
#
# Compressibility (1/GPa) = 0.02107014
#
# Stress axis : x y z
#
# Youngs Moduli (GPa) = 41.65721 105.05706 67.41640
#
# Poissons Ratio (x) = 0.53731 0.40200
# Poissons Ratio (y) = 0.21305 0.17301
# Poissons Ratio (z) = 0.24840 0.26960
#
# Static dielectric constant tensor:
#      x y z
#    x 3.932680 0.000000 -0.189140 
#    y 0.000000 3.970560 0.000000 
#    z -0.189140 0.000000 4.412030 
# 
# 
# High freq. dielectric constant tensor:
#      x y z
#    x 1.889880 0.000000 -0.009980 
#    y 0.000000 1.904910 0.000000 
#    z -0.009980 0.000000 1.904070 
# 
# From -- ./inp_files/30293.got.cif
#   From: 2010.06.25/outbox.cif.g09.slc.cpg/sg13_16_cif.got.tgz:30293.got - 2010.06.28 04:50:58.
