data_PCOD8118493
_publ_section_title
;
Structure prediction by ZEFSAII (Michael W. Deem and Ramdas Pophale) SiO2 
 PCOD8118493
Probable space group: P 2/C
;
_chemical_formula_sum "Si O2"
_cell_formula_units_Z 24
_cell_length_a 19.103900
_cell_length_b 8.981151
_cell_length_c 24.946063
_cell_angle_alpha 90.000000
_cell_angle_beta 18.948706
_cell_angle_gamma 90.000000
_cell_volume 1389.847530
_symmetry_space_group_name_H-M "P 2/C"
_symmetry_group_IT_number 13
_symmetry_cell_setting 'monoclinic'
loop_
_space_group_symop_operation_xyz
x,y,z
-x,y,1/2-z
-x,-y,-z
x,-y,1/2+z
loop_
_atom_site_type_symbol
_atom_site_label
_atom_site_fract_x
_atom_site_fract_y
_atom_site_fract_z
Si Si1 0.850300 0.680633 0.990023
Si Si2 0.510934 0.680587 0.329374
Si Si3 0.994268 0.395318 0.582168
Si Si4 0.299148 0.828218 0.684018
Si Si5 0.688485 0.395290 0.235052
Si Si6 0.366554 0.171828 0.650294
O O1 0.715650 0.701750 0.142184
O O2 0.710052 0.726340 0.039956
O O3 0.915438 0.505352 0.936885
O O4 0.056130 0.787322 0.843926
O O5 0.493784 0.505288 0.358495
O O6 0.543963 0.787247 0.356070
O O7 0.190840 0.327211 0.404590
O O8 0.851398 0.499982 0.648577
O O9 0.849192 0.261895 0.710188
O O10 0.388309 0.738154 0.671085
O O11 0.450396 0.787632 0.524815
O O12 0.306319 0.000022 0.693700
#
# Coordination Sequence:
#
# PCOD8118493 Si02
#       6
#     4   4   4   4   4   4
#     4   9  18  33  52  73  95 120 156 202 245 283
#     4   9  18  33  52  73  95 120 156 202 245 283
#     4   8  15  29  49  70  91 118 154 194 233 276
#     4  10  20  32  47  70 100 131 161 193 231 280
#     4   8  15  29  49  70  91 118 154 194 233 276
#     4  10  20  32  47  70 100 131 161 193 231 280
#
# _framework density 17.268080999999999
#
# number of rings (size 3 to 8) (size 9 to 14) (size 15 to 20)
#    0.000    3.000    0.000    3.000    0.000    9.333 
#    0.000    1.667    0.000    6.000    0.000    0.000 
#    0.000    0.000    0.000    0.000    0.000    0.000 
#
# Total GULP energy -297442.952388 kJ/mol
# GULP energy per Si atom -12393.456349 kJ/mol
# Density = 1.722878 g / cm^3
# Si number density = 17.268081 Si / 1000 Ang^3
#
#
#
# Elastic Constant Matrix: (Units=GPa)
#
#
# Indices 1 2 3 4 5 6 
#
# 1 83.2512 49.7092 59.3294 0.0000 1.2597 0.0000
# 2 49.7092 94.6030 63.6679 0.0000 12.3012 0.0000
# 3 59.3294 63.6679 94.2290 0.0000 8.4350 0.0000
# 4 0.0000 0.0000 0.0000 27.3748 0.0000 4.5355
# 5 1.2597 12.3012 8.4350 0.0000 18.9650 0.0000
# 6 0.0000 0.0000 0.0000 4.5355 0.0000 22.2027
#
#
#
# Elastic Compliance Matrix: (Units=1/GPa)
#
#
# Indices 1 2 3 4 5 6 
#
# 1 0.023533 -0.005306 -0.011873 0.000000 0.007159 0.000000
# 2 -0.005306 0.021525 -0.010399 0.000000 -0.008984 0.000000
# 3 -0.011873 -0.010399 0.025453 0.000000 -0.003787 0.000000
# 4 0.000000 0.000000 0.000000 0.037810 0.000000 -0.007724
# 5 0.007159 -0.008984 -0.003787 0.000000 0.059765 0.000000
# 6 0.000000 0.000000 0.000000 -0.007724 0.000000 0.046617
#
#
# Mechanical properties :
#
#
# Convention : Reuss Voigt Hill
#
# Bulk Modulus (GPa) = 65.12135 68.61068 66.86602
# Shear Modulus (GPa) = 18.18332 20.33362 19.25847
#
# Velocity S-wave (km/s) = 3.24852 3.43523 3.34318
# Velocity P-wave (km/s) = 7.20169 7.45341 7.32863
#
# Compressibility (1/GPa) = 0.01535595
#
# Stress axis : x y z
#
# Youngs Moduli (GPa) = 42.49375 46.45719 39.28761
#
# Poissons Ratio (x) = 0.24649 0.46646
# Poissons Ratio (y) = 0.22546 0.40855
# Poissons Ratio (z) = 0.50452 0.48311
#
# Static dielectric constant tensor:
#      x y z
#    x 3.515570 0.000000 -0.152600 
#    y 0.000000 3.249610 0.000000 
#    z -0.152600 0.000000 3.342010 
# 
# 
# High freq. dielectric constant tensor:
#      x y z
#    x 1.653950 0.000000 0.006820 
#    y 0.000000 1.653820 0.000000 
#    z 0.006820 0.000000 1.661710 
# 
# From -- ./inp_files/70379.got.cif
#   From: 2010.06.25/outbox.cif.g09.slc.cpg/sg13_36_cif.got.tgz:70379.got - 2010.06.28 04:50:58.
