data_PCOD8118415
_publ_section_title
;
Structure prediction by ZEFSAII (Michael W. Deem and Ramdas Pophale) SiO2 
 PCOD8118415
Probable space group: P 2/C
;
_chemical_formula_sum "Si O2"
_cell_formula_units_Z 32
_cell_length_a 12.985188
_cell_length_b 12.558512
_cell_length_c 10.108728
_cell_angle_alpha 90.000000
_cell_angle_beta 71.263985
_cell_angle_gamma 90.000000
_cell_volume 1561.121993
_symmetry_space_group_name_H-M "P 2/C"
_symmetry_group_IT_number 13
_symmetry_cell_setting 'monoclinic'
loop_
_space_group_symop_operation_xyz
x,y,z
-x,y,1/2-z
-x,-y,-z
x,-y,1/2+z
loop_
_atom_site_type_symbol
_atom_site_label
_atom_site_fract_x
_atom_site_fract_y
_atom_site_fract_z
Si Si1 0.076988 0.998561 0.093659
Si Si2 0.681941 0.254105 0.300312
Si Si3 0.379448 0.524130 0.779266
Si Si4 0.937494 0.555713 0.908541
Si Si5 0.260894 0.583204 0.092420
Si Si6 0.258198 0.183501 0.504552
Si Si7 0.889689 0.771252 0.877162
Si Si8 0.507325 0.098354 0.092054
O O1 0.000000 0.984079 0.250000
O O2 0.140960 0.111766 0.056351
O O3 0.166547 0.905557 0.066311
O O4 0.000000 0.000000 0.000000
O O5 0.618315 0.362551 0.295043
O O6 0.741566 0.203381 0.150687
O O7 0.783532 0.276627 0.350577
O O8 0.591511 0.177614 0.401445
O O9 0.500000 0.477927 0.750000
O O10 0.308795 0.442642 0.718951
O O11 0.338136 0.540785 0.944708
O O12 0.849511 0.477107 0.887371
O O13 0.905659 0.674425 0.976809
O O14 0.000000 0.586853 0.750000
O O15 0.000000 0.500000 0.000000
O O16 0.234170 0.708828 0.096254
O O17 0.378769 0.149577 0.495985
O O18 0.000000 0.791421 0.750000
O O19 0.500000 0.066408 0.250000
O O20 0.500000 0.000000 0.000000
#
# Coordination Sequence:
#
# PCOD8118415 Si02
#       8
#     4   4   4   4   4   4   4   4
#     4  11  24  42  63  92 124 167 211 260 321 377
#     4  10  19  39  65  91 120 167 218 253 312 389
#     4  11  22  40  64  92 126 168 213 263 316 381
#     4  11  24  40  65  93 127 167 209 259 317 384
#     4  11  23  41  64  93 128 166 212 259 322 379
#     4  10  22  39  65  90 128 165 209 263 317 377
#     4  10  21  38  63  88 122 163 212 255 308 381
#     4  10  21  39  64  91 120 164 211 259 314 372
#
# _framework density 20.498076999999999
#
# number of rings (size 3 to 8) (size 9 to 14) (size 15 to 20)
#    0.000    1.500    1.250    5.250    7.000    1.500 
#    2.250    1.875    0.000    0.000    0.000    0.000 
#    0.000    0.000    0.000    0.000    0.000    0.000 
#
# Total GULP energy -396446.588013 kJ/mol
# GULP energy per Si atom -12388.955875 kJ/mol
# Density = 2.045142 g / cm^3
# Si number density = 20.498077 Si / 1000 Ang^3
#
#
#
# Elastic Constant Matrix: (Units=GPa)
#
#
# Indices 1 2 3 4 5 6 
#
# 1 131.2465 50.6670 22.3285 0.0000 0.7733 0.0000
# 2 50.6670 168.2417 34.6180 0.0000 -3.9908 0.0000
# 3 22.3285 34.6180 48.4070 0.0000 2.3442 0.0000
# 4 0.0000 0.0000 0.0000 55.7124 0.0000 -7.6718
# 5 0.7733 -3.9908 2.3442 0.0000 27.5452 0.0000
# 6 0.0000 0.0000 0.0000 -7.6718 0.0000 41.5814
#
#
#
# Elastic Compliance Matrix: (Units=1/GPa)
#
#
# Indices 1 2 3 4 5 6 
#
# 1 0.008888 -0.002163 -0.002536 0.000000 -0.000347 0.000000
# 2 -0.002163 0.007553 -0.004478 0.000000 0.001536 0.000000
# 3 -0.002536 -0.004478 0.025162 0.000000 -0.002719 0.000000
# 4 0.000000 0.000000 0.000000 0.018417 0.000000 0.003398
# 5 -0.000347 0.001536 -0.002719 0.000000 0.036768 0.000000
# 6 0.000000 0.000000 0.000000 0.003398 0.000000 0.024676
#
#
# Mechanical properties :
#
#
# Convention : Reuss Voigt Hill
#
# Bulk Modulus (GPa) = 43.01324 62.56912 52.79118
# Shear Modulus (GPa) = 33.88267 40.98659 37.43463
#
# Velocity S-wave (km/s) = 4.07008 4.47647 4.27810
# Velocity P-wave (km/s) = 6.56635 7.57027 7.08611
#
# Compressibility (1/GPa) = 0.02324866
#
# Stress axis : x y z
#
# Youngs Moduli (GPa) = 112.51445 132.39527 39.74220
#
# Poissons Ratio (x) = 0.28637 0.10078
# Poissons Ratio (y) = 0.24337 0.17798
# Poissons Ratio (z) = 0.28533 0.59290
#
# Static dielectric constant tensor:
#      x y z
#    x 3.765190 0.000000 -0.047750 
#    y 0.000000 3.973930 0.000000 
#    z -0.047750 0.000000 3.497770 
# 
# 
# High freq. dielectric constant tensor:
#      x y z
#    x 1.819840 0.000000 -0.003100 
#    y 0.000000 1.819380 0.000000 
#    z -0.003100 0.000000 1.777780 
# 
# From -- ./inp_files/34161.got.cif
#   From: 2010.06.25/outbox.cif.g09.slc.cpg/sg13_18_cif.got.tgz:34161.got - 2010.06.28 04:50:58.
