data_PCOD8118853
_publ_section_title
;
Structure prediction by ZEFSAII (Michael W. Deem and Ramdas Pophale) SiO2 
 PCOD8118853
Probable space group: P 2/C
;
_chemical_formula_sum "Si O2"
_cell_formula_units_Z 32
_cell_length_a 32.986156
_cell_length_b 8.468916
_cell_length_c 12.036846
_cell_angle_alpha 90.000000
_cell_angle_beta 152.068358
_cell_angle_gamma 90.000000
_cell_volume 1575.090950
_symmetry_space_group_name_H-M "P 2/C"
_symmetry_group_IT_number 13
_symmetry_cell_setting 'monoclinic'
loop_
_space_group_symop_operation_xyz
x,y,z
-x,y,1/2-z
-x,-y,-z
x,-y,1/2+z
loop_
_atom_site_type_symbol
_atom_site_label
_atom_site_fract_x
_atom_site_fract_y
_atom_site_fract_z
Si Si1 0.189729 0.915807 0.342819
Si Si2 0.317646 0.083747 0.945936
Si Si3 0.180028 0.214339 0.457662
Si Si4 0.097572 0.679017 0.979323
Si Si5 0.466413 0.825262 0.937939
Si Si6 0.359015 0.266772 0.570854
Si Si7 0.767293 0.449939 0.091473
Si Si8 0.669157 0.290446 0.232026
O O1 0.251765 0.944064 0.387910
O O2 0.109603 0.810874 0.104556
O O3 0.245759 0.822155 0.570999
O O4 0.149944 0.073614 0.301979
O O5 0.273367 0.163827 0.732616
O O6 0.395788 0.204389 0.169056
O O7 0.355184 0.910993 0.011870
O O8 0.113152 0.245207 0.395412
O O9 0.186197 0.376122 0.403310
O O10 0.163091 0.534132 0.159857
O O11 0.000000 0.615123 0.750000
O O12 0.414824 0.805296 0.928696
O O13 0.549985 0.708886 0.142609
O O14 0.500000 0.000000 0.000000
O O15 0.278867 0.307865 0.455052
O O16 0.352763 0.367092 0.441471
O O17 0.692379 0.570898 0.874706
#
# Coordination Sequence:
#
# PCOD8118853 Si02
#       8
#     4   4   4   4   4   4   4   4
#     4   9  18  36  62  86 115 153 202 246 296 372
#     4   9  18  34  58  88 118 150 204 255 294 349
#     4  11  20  39  67  89 115 166 207 243 317 370
#     4  10  24  43  61  92 129 152 195 262 317 379
#     4   9  20  34  55  87 122 159 208 261 299 344
#     4  11  19  35  60  82 118 162 207 254 299 356
#     4  11  24  39  62  87 121 167 205 243 314 391
#     4  10  20  36  55  85 123 162 202 252 310 353
#
# _framework density 20.316286999999999
#
# number of rings (size 3 to 8) (size 9 to 14) (size 15 to 20)
#    0.000    2.000    2.500    1.875    0.000    1.500 
#    0.000    2.500    0.000    0.000    0.000    0.000 
#    0.000    0.000    0.000    0.000    0.000    0.000 
#
# Total GULP energy -396582.478569 kJ/mol
# GULP energy per Si atom -12393.202455 kJ/mol
# Density = 2.027005 g / cm^3
# Si number density = 20.316287 Si / 1000 Ang^3
#
#
#
# Elastic Constant Matrix: (Units=GPa)
#
#
# Indices 1 2 3 4 5 6 
#
# 1 81.3249 29.3885 40.6867 0.0000 -2.1236 0.0000
# 2 29.3885 70.8607 27.6727 0.0000 1.6543 0.0000
# 3 40.6867 27.6727 104.0217 0.0000 8.9663 0.0000
# 4 0.0000 0.0000 0.0000 19.3284 0.0000 0.7974
# 5 -2.1236 1.6543 8.9663 0.0000 25.0782 0.0000
# 6 0.0000 0.0000 0.0000 0.7974 0.0000 30.6632
#
#
#
# Elastic Compliance Matrix: (Units=1/GPa)
#
#
# Indices 1 2 3 4 5 6 
#
# 1 0.017014 -0.004931 -0.005670 0.000000 0.003793 0.000000
# 2 -0.004931 0.017183 -0.002589 0.000000 -0.000625 0.000000
# 3 -0.005670 -0.002589 0.012945 0.000000 -0.004938 0.000000
# 4 0.000000 0.000000 0.000000 0.051793 0.000000 -0.001347
# 5 0.003793 -0.000625 -0.004938 0.000000 0.042003 0.000000
# 6 0.000000 0.000000 0.000000 -0.001347 0.000000 0.032647
#
#
# Mechanical properties :
#
#
# Convention : Reuss Voigt Hill
#
# Bulk Modulus (GPa) = 48.16156 50.18923 49.17539
# Shear Modulus (GPa) = 24.16804 25.57793 24.87299
#
# Velocity S-wave (km/s) = 3.45278 3.55207 3.50278
# Velocity P-wave (km/s) = 6.29706 6.44829 6.37313
#
# Compressibility (1/GPa) = 0.02076345
#
# Stress axis : x y z
#
# Youngs Moduli (GPa) = 58.77557 58.19845 77.24753
#
# Poissons Ratio (x) = 0.28695 0.43800
# Poissons Ratio (y) = 0.28980 0.19996
# Poissons Ratio (z) = 0.33326 0.15065
#
# Static dielectric constant tensor:
#      x y z
#    x 3.470940 0.000000 -0.211250 
#    y 0.000000 3.546220 0.000000 
#    z -0.211250 0.000000 3.791970 
# 
# 
# High freq. dielectric constant tensor:
#      x y z
#    x 1.783080 0.000000 -0.017290 
#    y 0.000000 1.778470 0.000000 
#    z -0.017290 0.000000 1.786290 
# 
# From -- ./inp_files/42779.got.cif
#   From: 2010.06.25/outbox.cif.g09.slc.cpg/sg13_22_cif.got.tgz:42779.got - 2010.06.28 04:50:58.
