data_PCOD8118321
_publ_section_title
;
Structure prediction by ZEFSAII (Michael W. Deem and Ramdas Pophale) SiO2 
 PCOD8118321
Probable space group: P 2/C
;
_chemical_formula_sum "Si O2"
_cell_formula_units_Z 24
_cell_length_a 15.379066
_cell_length_b 8.326221
_cell_length_c 9.715550
_cell_angle_alpha 90.000000
_cell_angle_beta 76.932052
_cell_angle_gamma 90.000000
_cell_volume 1211.853137
_symmetry_space_group_name_H-M "P 2/C"
_symmetry_group_IT_number 13
_symmetry_cell_setting 'monoclinic'
loop_
_space_group_symop_operation_xyz
x,y,z
-x,y,1/2-z
-x,-y,-z
x,-y,1/2+z
loop_
_atom_site_type_symbol
_atom_site_label
_atom_site_fract_x
_atom_site_fract_y
_atom_site_fract_z
Si Si1 0.815276 0.372998 0.883071
Si Si2 0.654832 0.409774 0.531816
Si Si3 0.406352 0.659174 0.736938
Si Si4 0.902565 0.690549 0.835541
Si Si5 0.795722 0.191909 0.610892
Si Si6 0.222680 0.177149 0.351431
O O1 0.723707 0.464122 0.943952
O O2 0.896614 0.499907 0.871530
O O3 0.816626 0.307093 0.729705
O O4 0.823327 0.227161 0.988094
O O5 0.602491 0.489552 0.678142
O O6 0.589075 0.364460 0.429953
O O7 0.705769 0.250494 0.566784
O O8 0.500000 0.738841 0.750000
O O9 0.326717 0.778064 0.807705
O O10 0.827965 0.726877 0.748608
O O11 0.000000 0.740215 0.750000
O O12 0.880440 0.794840 0.978624
O O13 0.785188 0.011973 0.667445
#
# Coordination Sequence:
#
# PCOD8118321 Si02
#       6
#     4   4   4   4   4   4
#     4  10  20  37  63  86 116 158 205 237 295 354
#     4  10  19  38  60  89 118 159 203 247 289 349
#     4  11  21  38  63  91 122 159 206 246 291 354
#     4  11  23  41  64  88 116 156 203 247 294 360
#     4  11  21  39  63  87 125 159 191 248 308 353
#     4  11  23  39  61  89 125 158 194 247 305 356
#
# _framework density 19.804379999999998
#
# number of rings (size 3 to 8) (size 9 to 14) (size 15 to 20)
#    0.000    1.333    5.000    3.500    0.000    3.333 
#    0.000    3.333    0.000    0.000    0.000    0.000 
#    0.000    0.000    0.000    0.000    0.000    0.000 
#
# Total GULP energy -297631.955447 kJ/mol
# GULP energy per Si atom -12401.331477 kJ/mol
# Density = 1.975930 g / cm^3
# Si number density = 19.804380 Si / 1000 Ang^3
#
#
#
# Elastic Constant Matrix: (Units=GPa)
#
#
# Indices 1 2 3 4 5 6 
#
# 1 68.8190 18.6595 14.8472 0.0000 -18.7886 0.0000
# 2 18.6595 85.4431 9.7592 0.0000 -3.7694 0.0000
# 3 14.8472 9.7592 94.5102 0.0000 3.7564 0.0000
# 4 0.0000 0.0000 0.0000 25.2897 0.0000 1.9478
# 5 -18.7886 -3.7694 3.7564 0.0000 23.2345 0.0000
# 6 0.0000 0.0000 0.0000 1.9478 0.0000 9.8501
#
#
#
# Elastic Compliance Matrix: (Units=1/GPa)
#
#
# Indices 1 2 3 4 5 6 
#
# 1 0.020835 -0.003395 -0.003593 0.000000 0.016878 0.000000
# 2 -0.003395 0.012503 -0.000734 0.000000 -0.000598 0.000000
# 3 -0.003593 -0.000734 0.011415 0.000000 -0.004870 0.000000
# 4 0.000000 0.000000 0.000000 0.040153 0.000000 -0.007940
# 5 0.016878 -0.000598 -0.004870 0.000000 0.057378 0.000000
# 6 0.000000 0.000000 0.000000 -0.007940 0.000000 0.103092
#
#
# Mechanical properties :
#
#
# Convention : Reuss Voigt Hill
#
# Bulk Modulus (GPa) = 34.12093 37.25600 35.68847
# Shear Modulus (GPa) = 18.47820 25.37529 21.92675
#
# Velocity S-wave (km/s) = 3.05788 3.58340 3.33102
# Velocity P-wave (km/s) = 5.45288 5.99782 5.73183
#
# Compressibility (1/GPa) = 0.02930752
#
# Stress axis : x y z
#
# Youngs Moduli (GPa) = 47.99716 79.98387 87.60622
#
# Poissons Ratio (x) = 0.27154 0.31480
# Poissons Ratio (y) = 0.16295 0.06429
# Poissons Ratio (z) = 0.17247 0.05870
#
# Static dielectric constant tensor:
#      x y z
#    x 3.399320 0.000000 -0.005650 
#    y 0.000000 3.435110 0.000000 
#    z -0.005650 0.000000 3.947790 
# 
# 
# High freq. dielectric constant tensor:
#      x y z
#    x 1.751180 0.000000 0.004750 
#    y 0.000000 1.755390 0.000000 
#    z 0.004750 0.000000 1.795030 
# 
# From -- ./inp_files/18021.got.cif
#   From: 2010.06.25/outbox.cif.g09.slc.cpg/sg13_10_cif.got.tgz:18021.got - 2010.06.28 04:50:58.
