data_PCOD8118822
_publ_section_title
;
Structure prediction by ZEFSAII (Michael W. Deem and Ramdas Pophale) SiO2 
 PCOD8118822
Probable space group: P 2/C
;
_chemical_formula_sum "Si O2"
_cell_formula_units_Z 30
_cell_length_a 27.001323
_cell_length_b 9.090025
_cell_length_c 8.730868
_cell_angle_alpha 90.000000
_cell_angle_beta 44.466789
_cell_angle_gamma 90.000000
_cell_volume 1501.111764
_symmetry_space_group_name_H-M "P 2/C"
_symmetry_group_IT_number 13
_symmetry_cell_setting 'monoclinic'
loop_
_space_group_symop_operation_xyz
x,y,z
-x,y,1/2-z
-x,-y,-z
x,-y,1/2+z
loop_
_atom_site_type_symbol
_atom_site_label
_atom_site_fract_x
_atom_site_fract_y
_atom_site_fract_z
Si Si1 0.000000 0.450355 0.750000
Si Si2 0.925155 0.914753 0.862374
Si Si3 0.370920 0.349927 0.737534
Si Si4 0.209753 0.396608 0.095413
Si Si5 0.912651 0.201831 0.061512
Si Si6 0.435498 0.389039 0.284492
Si Si7 0.488236 0.840649 0.092780
Si Si8 0.858430 0.371078 0.566257
O O1 0.028371 0.333168 0.559287
O O2 0.067155 0.550210 0.650566
O O3 0.918906 0.900186 0.694901
O O4 0.870226 0.803493 0.067363
O O5 0.000000 0.855499 0.750000
O O6 0.917662 0.088842 0.909325
O O7 0.374766 0.346713 0.542604
O O8 0.413870 0.482965 0.718008
O O9 0.407349 0.204985 0.729657
O O10 0.289917 0.365619 0.966052
O O11 0.164114 0.274802 0.285495
O O12 0.199141 0.387218 0.939084
O O13 0.180166 0.558704 0.203414
O O14 0.500000 0.441192 0.250000
O O15 0.456077 0.256608 0.126437
O O16 0.500000 0.832267 0.250000
O O17 0.500000 0.000000 0.000000
#
# Coordination Sequence:
#
# PCOD8118822 Si02
#       8
#     2   4   4   4   4   4   4   4
#     4  10  20  36  58  84 104 144 186 262 288 346
#     4  11  21  35  56  82 105 144 183 246 295 344
#     4  11  20  38  61  84 124 156 200 237 304 348
#     4  10  23  39  55  84 116 158 186 245 285 370
#     4  10  23  36  55  79 113 141 194 233 301 345
#     4  10  20  35  62  92 117 154 196 248 283 348
#     4  11  22  39  62  95 123 153 199 247 286 338
#     4  10  22  36  59  81 114 143 204 237 303 343
#
# _framework density 19.985185999999999
#
# number of rings (size 3 to 8) (size 9 to 14) (size 15 to 20)
#    0.000    1.600    1.333    5.200    1.867    2.667 
#    0.000    6.667    0.000    0.000    0.000    0.000 
#    0.000    0.000    0.000    0.000    0.000    0.000 
#
# Total GULP energy -371680.111243 kJ/mol
# GULP energy per Si atom -12389.337041 kJ/mol
# Density = 1.993970 g / cm^3
# Si number density = 19.985186 Si / 1000 Ang^3
#
#
#
# Elastic Constant Matrix: (Units=GPa)
#
#
# Indices 1 2 3 4 5 6 
#
# 1 74.5566 27.8258 29.1368 0.0000 -5.4421 0.0000
# 2 27.8258 74.9461 14.4203 0.0000 -2.6787 0.0000
# 3 29.1368 14.4203 83.6583 0.0000 -4.0458 0.0000
# 4 0.0000 0.0000 0.0000 39.4401 0.0000 14.0270
# 5 -5.4421 -2.6787 -4.0458 0.0000 38.5095 0.0000
# 6 0.0000 0.0000 0.0000 14.0270 0.0000 24.7093
#
#
#
# Elastic Compliance Matrix: (Units=1/GPa)
#
#
# Indices 1 2 3 4 5 6 
#
# 1 0.017566 -0.005485 -0.005097 0.000000 0.001565 0.000000
# 2 -0.005485 0.015533 -0.000756 0.000000 0.000226 0.000000
# 3 -0.005097 -0.000756 0.013892 0.000000 0.000687 0.000000
# 4 0.000000 0.000000 0.000000 0.031769 0.000000 -0.018035
# 5 0.001565 0.000226 0.000687 0.000000 0.026277 0.000000
# 6 0.000000 0.000000 0.000000 -0.018035 0.000000 0.050708
#
#
# Mechanical properties :
#
#
# Convention : Reuss Voigt Hill
#
# Bulk Modulus (GPa) = 41.12714 41.76965 41.44839
# Shear Modulus (GPa) = 26.80590 31.31698 29.06144
#
# Velocity S-wave (km/s) = 3.66633 3.96284 3.81747
# Velocity P-wave (km/s) = 6.20856 6.47182 6.34156
#
# Compressibility (1/GPa) = 0.02431484
#
# Stress axis : x y z
#
# Youngs Moduli (GPa) = 56.92859 64.37902 71.98377
#
# Poissons Ratio (x) = 0.35313 0.36688
# Poissons Ratio (y) = 0.31226 0.05443
# Poissons Ratio (z) = 0.29015 0.04868
#
# Static dielectric constant tensor:
#      x y z
#    x 3.896160 0.000000 0.225770 
#    y 0.000000 3.749600 0.000000 
#    z 0.225770 0.000000 4.043500 
# 
# 
# High freq. dielectric constant tensor:
#      x y z
#    x 1.768700 0.000000 0.010080 
#    y 0.000000 1.783870 0.000000 
#    z 0.010080 0.000000 1.777730 
# 
# From -- ./inp_files/24433.got.cif
#   From: 2010.06.25/outbox.cif.g09.slc.cpg/sg13_13_cif.got.tgz:24433.got - 2010.06.28 04:50:58.
