data_PCOD8118346
_publ_section_title
;
Structure prediction by ZEFSAII (Michael W. Deem and Ramdas Pophale) SiO2 
 PCOD8118346
Probable space group: P 2/C
;
_chemical_formula_sum "Si O2"
_cell_formula_units_Z 30
_cell_length_a 12.204357
_cell_length_b 11.382642
_cell_length_c 18.007639
_cell_angle_alpha 90.000000
_cell_angle_beta 36.388110
_cell_angle_gamma 90.000000
_cell_volume 1484.068173
_symmetry_space_group_name_H-M "P 2/C"
_symmetry_group_IT_number 13
_symmetry_cell_setting 'monoclinic'
loop_
_space_group_symop_operation_xyz
x,y,z
-x,y,1/2-z
-x,-y,-z
x,-y,1/2+z
loop_
_atom_site_type_symbol
_atom_site_label
_atom_site_fract_x
_atom_site_fract_y
_atom_site_fract_z
Si Si1 0.705518 0.647795 0.274974
Si Si2 0.192577 0.256025 0.026869
Si Si3 0.412645 0.696264 0.551711
Si Si4 0.815383 0.010551 0.509637
Si Si5 0.198973 0.085971 0.820509
Si Si6 0.517515 0.934914 0.913878
Si Si7 0.500000 0.335337 0.750000
Si Si8 0.912796 0.448311 0.218187
O O1 0.590971 0.639351 0.414525
O O2 0.736587 0.783545 0.236692
O O3 0.597273 0.589777 0.263090
O O4 0.892380 0.572361 0.185455
O O5 0.282164 0.253266 0.058843
O O6 0.042944 0.360188 0.100439
O O7 0.096410 0.129003 0.074147
O O8 0.344017 0.259999 0.878445
O O9 0.472108 0.795754 0.577724
O O10 0.295750 0.600960 0.661572
O O11 0.739305 0.049192 0.631071
O O12 0.652140 0.957947 0.549088
O O13 0.978317 0.915545 0.428544
O O14 0.292332 0.986206 0.720333
O O15 0.500000 0.000000 0.000000
O O16 0.000000 0.474884 0.250000
#
# Coordination Sequence:
#
# PCOD8118346 Si02
#       8
#     4   4   4   4   4   4   2   4
#     4  11  21  39  63  84 119 162 205 248 297 370
#     4  10  19  38  63  85 118 157 199 245 302 369
#     4  10  21  38  60  91 119 157 198 248 311 359
#     4  11  23  39  61  90 124 161 203 251 309 377
#     4  11  24  39  59  90 125 164 203 250 312 369
#     4  12  21  37  65  94 120 157 203 258 306 369
#     4  10  20  36  64  84 106 160 208 242 296 366
#     4  10  23  39  59  88 121 158 200 255 306 354
#
# _framework density 20.214704999999999
#
# number of rings (size 3 to 8) (size 9 to 14) (size 15 to 20)
#    0.000    1.333    4.000    2.400    0.000    2.133 
#    0.000    0.000    5.867    0.000    0.000    0.000 
#    0.000    0.000    0.000    0.000    0.000    0.000 
#
# Total GULP energy -371764.816229 kJ/mol
# GULP energy per Si atom -12392.160541 kJ/mol
# Density = 2.016870 g / cm^3
# Si number density = 20.214705 Si / 1000 Ang^3
#
#
#
# Elastic Constant Matrix: (Units=GPa)
#
#
# Indices 1 2 3 4 5 6 
#
# 1 102.1526 56.5490 38.6596 0.0000 -3.0292 0.0000
# 2 56.5490 90.1326 37.6515 0.0000 -5.7353 0.0000
# 3 38.6596 37.6515 93.3350 0.0000 -1.9962 0.0000
# 4 0.0000 0.0000 0.0000 24.4517 0.0000 -8.1828
# 5 -3.0292 -5.7353 -1.9962 0.0000 26.0458 0.0000
# 6 0.0000 0.0000 0.0000 -8.1828 0.0000 32.3444
#
#
#
# Elastic Compliance Matrix: (Units=1/GPa)
#
#
# Indices 1 2 3 4 5 6 
#
# 1 0.015686 -0.008592 -0.003038 0.000000 -0.000300 0.000000
# 2 -0.008592 0.018218 -0.003732 0.000000 0.002726 0.000000
# 3 -0.003038 -0.003732 0.013475 0.000000 -0.000142 0.000000
# 4 0.000000 0.000000 0.000000 0.044680 0.000000 0.011303
# 5 -0.000300 0.002726 -0.000142 0.000000 0.038948 0.000000
# 6 0.000000 0.000000 0.000000 0.011303 0.000000 0.033777
#
#
# Mechanical properties :
#
#
# Convention : Reuss Voigt Hill
#
# Bulk Modulus (GPa) = 60.03950 61.26005 60.64978
# Shear Modulus (GPa) = 24.86843 26.75237 25.81040
#
# Velocity S-wave (km/s) = 3.51125 3.64182 3.57713
# Velocity P-wave (km/s) = 6.79734 6.93212 6.86506
#
# Compressibility (1/GPa) = 0.01665570
#
# Stress axis : x y z
#
# Youngs Moduli (GPa) = 63.75080 54.89207 74.21243
#
# Poissons Ratio (x) = 0.47161 0.22544
# Poissons Ratio (y) = 0.54772 0.27696
# Poissons Ratio (z) = 0.19366 0.20486
#
# Static dielectric constant tensor:
#      x y z
#    x 3.715290 0.000000 0.053420 
#    y 0.000000 3.683650 0.000000 
#    z 0.053420 0.000000 3.708770 
# 
# 
# High freq. dielectric constant tensor:
#      x y z
#    x 1.792360 0.000000 0.004540 
#    y 0.000000 1.775950 0.000000 
#    z 0.004540 0.000000 1.791930 
# 
# From -- ./inp_files/66655.got.cif
#   From: 2010.06.25/outbox.cif.g09.slc.cpg/sg13_34_cif.got.tgz:66655.got - 2010.06.28 04:50:58.
