data_PCOD8118607
_publ_section_title
;
Structure prediction by ZEFSAII (Michael W. Deem and Ramdas Pophale) SiO2 
 PCOD8118607
Probable space group: P 2/C
;
_chemical_formula_sum "Si O2"
_cell_formula_units_Z 32
_cell_length_a 9.131043
_cell_length_b 11.353781
_cell_length_c 31.665381
_cell_angle_alpha 90.000000
_cell_angle_beta 30.113052
_cell_angle_gamma 90.000000
_cell_volume 1647.010914
_symmetry_space_group_name_H-M "P 2/C"
_symmetry_group_IT_number 13
_symmetry_cell_setting 'monoclinic'
loop_
_space_group_symop_operation_xyz
x,y,z
-x,y,1/2-z
-x,-y,-z
x,-y,1/2+z
loop_
_atom_site_type_symbol
_atom_site_label
_atom_site_fract_x
_atom_site_fract_y
_atom_site_fract_z
Si Si1 0.233898 0.946139 0.617631
Si Si2 0.788230 0.842288 0.432775
Si Si3 0.856648 0.425795 0.573152
Si Si4 0.795583 0.574173 0.426827
Si Si5 0.560534 0.053821 0.117582
Si Si6 0.884914 0.842327 0.067255
Si Si7 0.326574 0.203581 0.249945
Si Si8 0.326717 0.529826 0.749985
O O1 0.519709 0.898751 0.524037
O O2 0.281054 0.949840 0.656335
O O3 0.981436 0.858087 0.667362
O O4 0.148489 0.077954 0.623976
O O5 0.715853 0.709533 0.436969
O O6 0.070993 0.842906 0.392977
O O7 0.838005 0.290421 0.562955
O O8 0.524017 0.467021 0.665059
O O9 0.000000 0.500000 0.500000
O O10 0.059170 0.441469 0.563615
O O11 0.500000 0.500000 0.500000
O O12 0.014382 0.532894 0.334927
O O13 0.515126 0.142033 0.167160
O O14 0.607557 0.922028 0.124056
O O15 0.836249 0.100973 0.023932
O O16 0.500000 0.196787 0.250000
O O17 0.268897 0.336961 0.249954
O O18 0.500000 0.525947 0.750000
#
# Coordination Sequence:
#
# PCOD8118607 Si02
#       8
#     4   4   4   4   4   4   4   4
#     4  10  20  34  53  78 107 137 174 222 270 320
#     4   9  19  35  55  79 106 139 178 220 272 329
#     4  10  20  36  57  81 111 147 186 227 273 325
#     4  10  20  36  57  81 111 147 186 227 273 325
#     4  10  20  34  53  78 107 137 174 222 270 320
#     4   9  19  35  55  79 106 139 178 220 272 329
#     4  11  21  34  53  76 104 139 178 217 266 323
#     4   9  20  36  55  80 108 141 182 225 270 329
#
# _framework density 19.429137000000001
#
# number of rings (size 3 to 8) (size 9 to 14) (size 15 to 20)
#    0.000    2.250    0.000    2.625    0.000    3.000 
#    0.000    4.375    0.000    0.000    0.000    0.000 
#    0.000    0.000    0.000    0.000    0.000    0.000 
#
# Total GULP energy -396779.637982 kJ/mol
# GULP energy per Si atom -12399.363687 kJ/mol
# Density = 1.938492 g / cm^3
# Si number density = 19.429137 Si / 1000 Ang^3
#
#
#
# Elastic Constant Matrix: (Units=GPa)
#
#
# Indices 1 2 3 4 5 6 
#
# 1 77.9113 54.0283 24.0046 0.0000 0.3049 0.0000
# 2 54.0283 183.4816 43.3698 0.0000 0.2645 0.0000
# 3 24.0046 43.3698 78.3585 0.0000 -0.4487 0.0000
# 4 0.0000 0.0000 0.0000 19.6878 0.0000 0.2583
# 5 0.3049 0.2645 -0.4487 0.0000 21.4492 0.0000
# 6 0.0000 0.0000 0.0000 0.2583 0.0000 26.6257
#
#
#
# Elastic Compliance Matrix: (Units=1/GPa)
#
#
# Indices 1 2 3 4 5 6 
#
# 1 0.016627 -0.004247 -0.002744 0.000000 -0.000241 0.000000
# 2 -0.004247 0.007356 -0.002771 0.000000 -0.000088 0.000000
# 3 -0.002744 -0.002771 0.015138 0.000000 0.000390 0.000000
# 4 0.000000 0.000000 0.000000 0.050799 0.000000 -0.000493
# 5 -0.000241 -0.000088 0.000390 0.000000 0.046634 0.000000
# 6 0.000000 0.000000 0.000000 -0.000493 0.000000 0.037562
#
#
# Mechanical properties :
#
#
# Convention : Reuss Voigt Hill
#
# Bulk Modulus (GPa) = 51.02855 64.72853 57.87854
# Shear Modulus (GPa) = 24.97840 28.10914 26.54377
#
# Velocity S-wave (km/s) = 3.58944 3.80775 3.70020
# Velocity P-wave (km/s) = 6.59543 7.26081 6.93611
#
# Compressibility (1/GPa) = 0.01959687
#
# Stress axis : x y z
#
# Youngs Moduli (GPa) = 60.14464 135.94841 66.05746
#
# Poissons Ratio (x) = 0.57736 0.18128
# Poissons Ratio (y) = 0.25543 0.18303
# Poissons Ratio (z) = 0.16505 0.37668
#
# Static dielectric constant tensor:
#      x y z
#    x 3.633940 0.000000 0.004210 
#    y 0.000000 3.750760 0.000000 
#    z 0.004210 0.000000 3.501700 
# 
# 
# High freq. dielectric constant tensor:
#      x y z
#    x 1.744620 0.000000 -0.000290 
#    y 0.000000 1.770710 0.000000 
#    z -0.000290 0.000000 1.752870 
# 
# From -- ./inp_files/96120.got.cif
#   From: 2010.06.25/outbox.cif.g09.slc.cpg/sg13_49_cif.got.tgz:96120.got - 2010.06.28 04:50:58.
