data_PCOD8118891
_publ_section_title
;
Structure prediction by ZEFSAII (Michael W. Deem and Ramdas Pophale) SiO2 
 PCOD8118891
Probable space group: P 2/C
;
_chemical_formula_sum "Si O2"
_cell_formula_units_Z 26
_cell_length_a 16.424296
_cell_length_b 6.550774
_cell_length_c 17.472917
_cell_angle_alpha 90.000000
_cell_angle_beta 44.728148
_cell_angle_gamma 90.000000
_cell_volume 1322.998603
_symmetry_space_group_name_H-M "P 2/C"
_symmetry_group_IT_number 13
_symmetry_cell_setting 'monoclinic'
loop_
_space_group_symop_operation_xyz
x,y,z
-x,y,1/2-z
-x,-y,-z
x,-y,1/2+z
loop_
_atom_site_type_symbol
_atom_site_label
_atom_site_fract_x
_atom_site_fract_y
_atom_site_fract_z
Si Si1 0.974274 0.873954 0.894011
Si Si2 0.500000 0.457905 0.750000
Si Si3 0.144606 0.203738 0.614816
Si Si4 0.391593 0.081798 0.747055
Si Si5 0.605917 0.833044 0.602931
Si Si6 0.959723 0.430126 0.669514
Si Si7 0.853386 0.841525 0.130531
O O1 0.034792 0.670603 0.821667
O O2 0.913627 0.981711 0.861503
O O3 0.877877 0.836032 0.023697
O O4 0.075489 0.000868 0.866010
O O5 0.418023 0.313607 0.754096
O O6 0.570242 0.600274 0.644167
O O7 0.106513 0.307841 0.719077
O O8 0.093132 0.345121 0.579869
O O9 0.282607 0.180273 0.525534
O O10 0.501632 0.966538 0.633385
O O11 0.359311 0.944757 0.841890
O O12 0.280850 0.098982 0.765877
O O13 0.889892 0.382195 0.638050
#
# Coordination Sequence:
#
# PCOD8118891 Si02
#       7
#     4   2   4   4   4   4   4
#     4  10  21  38  58  81 114 154 188 241 285 335
#     4   8  18  30  52  84 104 138 192 238 278 332
#     4  10  21  38  55  82 117 153 193 232 283 349
#     4   9  18  33  54  85 108 145 188 239 283 331
#     4   9  18  33  54  80 113 147 189 234 287 330
#     4  10  23  34  55  86 114 153 196 227 289 345
#     4  10  20  36  57  84 114 145 195 235 290 339
#
# _framework density 19.652325000000001
#
# number of rings (size 3 to 8) (size 9 to 14) (size 15 to 20)
#    0.000    2.769    1.538    0.462    2.154    7.385 
#    0.000    0.769    0.000    1.846    0.000    0.000 
#    0.000    0.000    0.000    0.000    0.000    0.000 
#
# Total GULP energy -322091.891929 kJ/mol
# GULP energy per Si atom -12388.149690 kJ/mol
# Density = 1.960760 g / cm^3
# Si number density = 19.652325 Si / 1000 Ang^3
#
#
#
# Elastic Constant Matrix: (Units=GPa)
#
#
# Indices 1 2 3 4 5 6 
#
# 1 69.8068 25.5980 42.5525 0.0000 -21.8808 0.0000
# 2 25.5980 136.9979 48.4181 0.0000 0.8732 0.0000
# 3 42.5525 48.4181 101.7068 0.0000 -24.0078 0.0000
# 4 0.0000 0.0000 0.0000 16.7765 0.0000 4.8851
# 5 -21.8808 0.8732 -24.0078 0.0000 30.0734 0.0000
# 6 0.0000 0.0000 0.0000 4.8851 0.0000 15.5475
#
#
#
# Elastic Compliance Matrix: (Units=1/GPa)
#
#
# Indices 1 2 3 4 5 6 
#
# 1 0.022184 -0.002328 -0.005357 0.000000 0.011932 0.000000
# 2 -0.002328 0.009525 -0.004960 0.000000 -0.005930 0.000000
# 3 -0.005357 -0.004960 0.016695 0.000000 0.009574 0.000000
# 4 0.000000 0.000000 0.000000 0.065610 0.000000 -0.020615
# 5 0.011932 -0.005930 0.009574 0.000000 0.049749 0.000000
# 6 0.000000 0.000000 0.000000 -0.020615 0.000000 0.070796
#
#
# Mechanical properties :
#
#
# Convention : Reuss Voigt Hill
#
# Bulk Modulus (GPa) = 43.26361 60.18317 51.72339
# Shear Modulus (GPa) = 18.68778 25.27568 21.98173
#
# Velocity S-wave (km/s) = 3.08704 3.59017 3.34807
# Velocity P-wave (km/s) = 5.89650 6.91926 6.42826
#
# Compressibility (1/GPa) = 0.02311411
#
# Stress axis : x y z
#
# Youngs Moduli (GPa) = 45.07674 104.98382 59.89905
#
# Poissons Ratio (x) = 0.24440 0.32086
# Poissons Ratio (y) = 0.10494 0.29712
# Poissons Ratio (z) = 0.24146 0.52076
#
# Static dielectric constant tensor:
#      x y z
#    x 3.525140 0.000000 -0.241900 
#    y 0.000000 3.752010 0.000000 
#    z -0.241900 0.000000 3.439440 
# 
# 
# High freq. dielectric constant tensor:
#      x y z
#    x 1.747730 0.000000 -0.019500 
#    y 0.000000 1.776220 0.000000 
#    z -0.019500 0.000000 1.743650 
# 
# From -- ./inp_files/80643.got.cif
#   From: 2010.06.25/outbox.cif.g09.slc.cpg/sg13_41_cif.got.tgz:80643.got - 2010.06.28 04:50:58.
