data_PCOD8118392
_publ_section_title
;
Structure prediction by ZEFSAII (Michael W. Deem and Ramdas Pophale) SiO2 
 PCOD8118392
Probable space group: P 2/C
;
_chemical_formula_sum "Si O2"
_cell_formula_units_Z 32
_cell_length_a 14.759784
_cell_length_b 13.160729
_cell_length_c 12.507123
_cell_angle_alpha 90.000000
_cell_angle_beta 138.871018
_cell_angle_gamma 90.000000
_cell_volume 1598.020736
_symmetry_space_group_name_H-M "P 2/C"
_symmetry_group_IT_number 13
_symmetry_cell_setting 'monoclinic'
loop_
_space_group_symop_operation_xyz
x,y,z
-x,y,1/2-z
-x,-y,-z
x,-y,1/2+z
loop_
_atom_site_type_symbol
_atom_site_label
_atom_site_fract_x
_atom_site_fract_y
_atom_site_fract_z
Si Si1 0.838986 0.596282 0.596444
Si Si2 0.102835 0.692558 0.065534
Si Si3 0.822829 0.055586 0.236812
Si Si4 0.651722 0.243742 0.345948
Si Si5 0.215141 0.717017 0.753702
Si Si6 0.851216 0.632560 0.159436
Si Si7 0.655810 0.985154 0.906167
Si Si8 0.123611 0.917774 0.022655
O O1 0.808500 0.640106 0.450982
O O2 0.747330 0.650093 0.607872
O O3 0.807648 0.477262 0.575994
O O4 0.000000 0.621437 0.750000
O O5 0.154621 0.635896 0.217567
O O6 0.132551 0.812552 0.094745
O O7 0.937967 0.680912 0.914028
O O8 0.762611 0.167866 0.191082
O O9 0.979526 0.065819 0.330633
O O10 0.845463 0.012340 0.374296
O O11 0.712271 0.981385 0.078722
O O12 0.500000 0.272244 0.250000
O O13 0.685621 0.297046 0.261694
O O14 0.749625 0.283477 0.525213
O O15 0.673224 0.122054 0.361070
O O16 0.000000 0.663986 0.250000
O O17 0.500000 0.022372 0.750000
O O18 0.753724 0.076852 0.953473
#
# Coordination Sequence:
#
# PCOD8118392 Si02
#       8
#     4   4   4   4   4   4   4   4
#     4   9  21  34  62  94 118 155 191 253 309 351
#     4  10  20  37  61  95 124 145 201 252 302 354
#     4  10  20  35  60  86 116 155 198 247 295 350
#     4  11  24  41  58  87 124 163 198 243 307 357
#     4  10  19  39  62  87 124 157 197 245 306 355
#     4  11  22  37  66  93 115 153 199 259 296 354
#     4  11  23  38  56  84 121 161 201 240 296 361
#     4  10  20  36  57  89 115 157 196 245 296 347
#
# _framework density 20.024771999999999
#
# number of rings (size 3 to 8) (size 9 to 14) (size 15 to 20)
#    0.000    1.750    2.500    1.875    1.750    5.000 
#    2.250    0.625    0.000    0.000    0.000    0.000 
#    0.000    0.000    0.000    0.000    0.000    0.000 
#
# Total GULP energy -396525.855412 kJ/mol
# GULP energy per Si atom -12391.432982 kJ/mol
# Density = 1.997919 g / cm^3
# Si number density = 20.024772 Si / 1000 Ang^3
#
#
#
# Elastic Constant Matrix: (Units=GPa)
#
#
# Indices 1 2 3 4 5 6 
#
# 1 125.1406 28.8547 48.4707 0.0000 -7.4474 0.0000
# 2 28.8547 59.0562 27.5154 0.0000 11.6900 0.0000
# 3 48.4707 27.5154 86.8615 0.0000 1.1399 0.0000
# 4 0.0000 0.0000 0.0000 31.8547 0.0000 -26.0789
# 5 -7.4474 11.6900 1.1399 0.0000 31.2323 0.0000
# 6 0.0000 0.0000 0.0000 -26.0789 0.0000 62.5134
#
#
#
# Elastic Compliance Matrix: (Units=1/GPa)
#
#
# Indices 1 2 3 4 5 6 
#
# 1 0.011092 -0.003943 -0.004997 0.000000 0.004303 0.000000
# 2 -0.003943 0.023033 -0.004973 0.000000 -0.009380 0.000000
# 3 -0.004997 -0.004973 0.015875 0.000000 0.000090 0.000000
# 4 0.000000 0.000000 0.000000 0.047675 0.000000 0.019889
# 5 0.004303 -0.009380 0.000090 0.000000 0.036552 0.000000
# 6 0.000000 0.000000 0.000000 0.019889 0.000000 0.024294
#
#
# Mechanical properties :
#
#
# Convention : Reuss Voigt Hill
#
# Bulk Modulus (GPa) = 45.09703 53.41557 49.25630
# Shear Modulus (GPa) = 25.80807 36.20123 31.00465
#
# Velocity S-wave (km/s) = 3.59389 4.25646 3.93913
# Velocity P-wave (km/s) = 6.30800 7.13367 6.73351
#
# Compressibility (1/GPa) = 0.02217441
#
# Stress axis : x y z
#
# Youngs Moduli (GPa) = 90.15753 43.41538 62.99196
#
# Poissons Ratio (x) = 0.17119 0.31476
# Poissons Ratio (y) = 0.35549 0.31326
# Poissons Ratio (z) = 0.45050 0.21590
#
# Static dielectric constant tensor:
#      x y z
#    x 3.777230 0.000000 -0.119590 
#    y 0.000000 3.480080 0.000000 
#    z -0.119590 0.000000 3.477760 
# 
# 
# High freq. dielectric constant tensor:
#      x y z
#    x 1.780000 0.000000 -0.024970 
#    y 0.000000 1.777280 0.000000 
#    z -0.024970 0.000000 1.757110 
# 
# From -- ./inp_files/37551.got.cif
#   From: 2010.06.25/outbox.cif.g09.slc.cpg/sg13_19_cif.got.tgz:37551.got - 2010.06.28 04:50:58.
