data_PCOD8118984
_publ_section_title
;
Structure prediction by ZEFSAII (Michael W. Deem and Ramdas Pophale) SiO2 
 PCOD8118984
Probable space group: P 2/C
;
_chemical_formula_sum "Si O2"
_cell_formula_units_Z 20
_cell_length_a 14.872176
_cell_length_b 10.168459
_cell_length_c 9.373091
_cell_angle_alpha 90.000000
_cell_angle_beta 143.063325
_cell_angle_gamma 90.000000
_cell_volume 851.800338
_symmetry_space_group_name_H-M "P 2/C"
_symmetry_group_IT_number 13
_symmetry_cell_setting 'monoclinic'
loop_
_space_group_symop_operation_xyz
x,y,z
-x,y,1/2-z
-x,-y,-z
x,-y,1/2+z
loop_
_atom_site_type_symbol
_atom_site_label
_atom_site_fract_x
_atom_site_fract_y
_atom_site_fract_z
Si Si1 0.458048 0.701718 0.982072
Si Si2 0.329669 0.081807 0.503475
Si Si3 0.676135 0.495624 0.387427
Si Si4 0.141296 0.421345 0.623187
Si Si5 0.746958 0.850561 0.287044
O O1 0.340157 0.780492 0.931147
O O2 0.368312 0.644020 0.735233
O O3 0.541029 0.596727 0.189988
O O4 0.578142 0.797785 0.063170
O O5 0.229998 0.106454 0.518689
O O6 0.237618 0.975399 0.296089
O O7 0.500000 0.033542 0.750000
O O8 0.713809 0.473392 0.602176
O O9 0.827995 0.543236 0.502367
O O10 0.134278 0.261412 0.617130
O O11 0.000000 0.500000 0.500000
#
# Coordination Sequence:
#
# PCOD8118984 Si02
#       5
#     4   4   4   4   4
#     4   9  20  36  61 104 135 164 204 269 349 394
#     4  10  20  36  60  99 141 169 204 267 338 407
#     4  10  23  37  65  92 135 167 217 276 332 390
#     4  11  25  43  62  92 125 181 230 273 320 376
#     4  10  23  36  64  96 135 168 218 265 333 397
#
# _framework density 23.479680999999999
#
# number of rings (size 3 to 8) (size 9 to 14) (size 15 to 20)
#    0.000    2.000    0.000    3.000   16.800    5.600 
#    0.000    0.000    0.000    1.200    5.200    0.000 
#    0.000    0.000    0.000    0.000    0.000    0.000 
#
# Total GULP energy -247883.802263 kJ/mol
# GULP energy per Si atom -12394.190113 kJ/mol
# Density = 2.342624 g / cm^3
# Si number density = 23.479681 Si / 1000 Ang^3
#
#
#
# Elastic Constant Matrix: (Units=GPa)
#
#
# Indices 1 2 3 4 5 6 
#
# 1 97.6610 51.1342 24.2501 0.0000 -8.5604 0.0000
# 2 51.1342 155.1923 37.6535 0.0000 -11.1436 0.0000
# 3 24.2501 37.6535 49.5493 0.0000 -14.3510 0.0000
# 4 0.0000 0.0000 0.0000 26.9412 0.0000 5.2087
# 5 -8.5604 -11.1436 -14.3510 0.0000 25.4393 0.0000
# 6 0.0000 0.0000 0.0000 5.2087 0.0000 29.7609
#
#
#
# Elastic Compliance Matrix: (Units=1/GPa)
#
#
# Indices 1 2 3 4 5 6 
#
# 1 0.012947 -0.003344 -0.003536 0.000000 0.000897 0.000000
# 2 -0.003344 0.008764 -0.005065 0.000000 -0.000143 0.000000
# 3 -0.003536 -0.005065 0.029612 0.000000 0.013297 0.000000
# 4 0.000000 0.000000 0.000000 0.038418 0.000000 -0.006724
# 5 0.000897 -0.000143 0.013297 0.000000 0.047050 0.000000
# 6 0.000000 0.000000 0.000000 -0.006724 0.000000 0.034778
#
#
# Mechanical properties :
#
#
# Convention : Reuss Voigt Hill
#
# Bulk Modulus (GPa) = 36.44998 58.71980 47.58489
# Shear Modulus (GPa) = 24.43774 29.05259 26.74517
#
# Velocity S-wave (km/s) = 3.22965 3.52142 3.37868
# Velocity P-wave (km/s) = 5.42819 6.44956 5.96079
#
# Compressibility (1/GPa) = 0.02743485
#
# Stress axis : x y z
#
# Youngs Moduli (GPa) = 77.23970 114.10471 33.76960
#
# Poissons Ratio (x) = 0.38152 0.11939
# Poissons Ratio (y) = 0.25826 0.17104
# Poissons Ratio (z) = 0.27308 0.57794
#
# Static dielectric constant tensor:
#      x y z
#    x 4.135190 0.000000 -0.369250 
#    y 0.000000 4.430950 0.000000 
#    z -0.369250 0.000000 3.993810 
# 
# 
# High freq. dielectric constant tensor:
#      x y z
#    x 1.920400 0.000000 -0.038740 
#    y 0.000000 1.935480 0.000000 
#    z -0.038740 0.000000 1.901890 
# 
# From -- ./inp_files/21446.got.cif
#   From: 2010.06.25/outbox.cif.g09.slc.cpg/sg13_11_cif.got.tgz:21446.got - 2010.06.28 04:50:58.
