data_PCOD8118564
_publ_section_title
;
Structure prediction by ZEFSAII (Michael W. Deem and Ramdas Pophale) SiO2 
 PCOD8118564
Probable space group: P 2/C
;
_chemical_formula_sum "Si O2"
_cell_formula_units_Z 28
_cell_length_a 22.243733
_cell_length_b 5.201358
_cell_length_c 22.092462
_cell_angle_alpha 90.000000
_cell_angle_beta 31.911396
_cell_angle_gamma 90.000000
_cell_volume 1351.143875
_symmetry_space_group_name_H-M "P 2/C"
_symmetry_group_IT_number 13
_symmetry_cell_setting 'monoclinic'
loop_
_space_group_symop_operation_xyz
x,y,z
-x,y,1/2-z
-x,-y,-z
x,-y,1/2+z
loop_
_atom_site_type_symbol
_atom_site_label
_atom_site_fract_x
_atom_site_fract_y
_atom_site_fract_z
Si Si1 0.260568 0.908485 0.007580
Si Si2 0.938369 0.843616 0.406262
Si Si3 0.202336 0.342890 0.263878
Si Si4 0.631868 0.585447 0.140564
Si Si5 0.805962 0.179512 0.803832
Si Si6 0.767295 0.532434 0.637684
Si Si7 0.964749 0.214941 0.483534
O O1 0.342690 0.688391 0.911421
O O2 0.300854 0.187113 0.950190
O O3 0.129968 0.868850 0.098166
O O4 0.265596 0.892280 0.075473
O O5 0.862218 0.674438 0.516600
O O6 0.065524 0.736158 0.287122
O O7 0.954913 0.120666 0.422364
O O8 0.250740 0.569996 0.179644
O O9 0.274149 0.315884 0.266207
O O10 0.069646 0.419167 0.394252
O O11 0.203382 0.065398 0.231798
O O12 0.500000 0.649756 0.250000
O O13 0.664472 0.567138 0.184032
O O14 0.837447 0.301077 0.609220
O O15 0.000000 0.000000 0.500000
#
# Coordination Sequence:
#
# PCOD8118564 Si02
#       7
#     4   4   4   4   4   4   4
#     4  11  23  42  62  86 123 156 201 252 300 365
#     4  10  20  33  55  88 123 166 197 234 293 356
#     4  11  22  33  56  88 130 164 195 232 291 368
#     4  11  25  44  69  88 109 152 212 271 311 336
#     4  11  23  36  56  88 130 169 192 221 298 384
#     4  11  20  36  58  89 124 155 205 257 295 338
#     4  11  18  31  52  86 127 161 185 239 292 355
#
# _framework density 20.723182000000001
#
# number of rings (size 3 to 8) (size 9 to 14) (size 15 to 20)
#    0.000    1.143    4.286    3.857    0.000    0.000 
#    0.000    2.857    0.000    5.143    0.000    0.000 
#    0.000    0.000    0.000    0.000    0.000    0.000 
#
# Total GULP energy -346967.152087 kJ/mol
# GULP energy per Si atom -12391.684003 kJ/mol
# Density = 2.067602 g / cm^3
# Si number density = 20.723182 Si / 1000 Ang^3
#
#
#
# Elastic Constant Matrix: (Units=GPa)
#
#
# Indices 1 2 3 4 5 6 
#
# 1 128.8236 41.3221 49.8850 0.0000 17.1574 0.0000
# 2 41.3221 87.8582 17.1052 0.0000 4.8432 0.0000
# 3 49.8850 17.1052 50.2248 0.0000 11.8736 0.0000
# 4 0.0000 0.0000 0.0000 19.8197 0.0000 5.7487
# 5 17.1574 4.8432 11.8736 0.0000 31.4650 0.0000
# 6 0.0000 0.0000 0.0000 5.7487 0.0000 26.6546
#
#
#
# Elastic Compliance Matrix: (Units=1/GPa)
#
#
# Indices 1 2 3 4 5 6 
#
# 1 0.014057 -0.004145 -0.011955 0.000000 -0.002515 0.000000
# 2 -0.004145 0.013416 -0.000547 0.000000 0.000402 0.000000
# 3 -0.011955 -0.000547 0.033389 0.000000 -0.005996 0.000000
# 4 0.000000 0.000000 0.000000 0.053822 0.000000 -0.011608
# 5 -0.002515 0.000402 -0.005996 0.000000 0.035354 0.000000
# 6 0.000000 0.000000 0.000000 -0.011608 0.000000 0.040021
#
#
# Mechanical properties :
#
#
# Convention : Reuss Voigt Hill
#
# Bulk Modulus (GPa) = 36.27566 53.72566 45.00066
# Shear Modulus (GPa) = 21.50161 26.16080 23.83121
#
# Velocity S-wave (km/s) = 3.22462 3.55687 3.39481
# Velocity P-wave (km/s) = 5.60420 6.54600 6.09332
#
# Compressibility (1/GPa) = 0.02756670
#
# Stress axis : x y z
#
# Youngs Moduli (GPa) = 71.14107 74.53874 29.95028
#
# Poissons Ratio (x) = 0.30896 0.35806
# Poissons Ratio (y) = 0.29488 0.01639
# Poissons Ratio (z) = 0.85050 0.04078
#
# Static dielectric constant tensor:
#      x y z
#    x 4.008310 0.000000 0.234020 
#    y 0.000000 3.805570 0.000000 
#    z 0.234020 0.000000 3.445940 
# 
# 
# High freq. dielectric constant tensor:
#      x y z
#    x 1.814630 0.000000 0.031380 
#    y 0.000000 1.819980 0.000000 
#    z 0.031380 0.000000 1.762670 
# 
# From -- ./inp_files/81920.got.cif
#   From: 2010.06.25/outbox.cif.g09.slc.cpg/sg13_41_cif.got.tgz:81920.got - 2010.06.28 04:50:58.
