data_PCOD8118016
_publ_section_title
;
Structure prediction by ZEFSAII (Michael W. Deem and Ramdas Pophale) SiO2 
 PCOD8118016
Probable space group: P 2/C
;
_chemical_formula_sum "Si O2"
_cell_formula_units_Z 18
_cell_length_a 20.899288
_cell_length_b 8.579999
_cell_length_c 5.284429
_cell_angle_alpha 90.000000
_cell_angle_beta 61.768154
_cell_angle_gamma 90.000000
_cell_volume 834.858261
_symmetry_space_group_name_H-M "P 2/C"
_symmetry_group_IT_number 13
_symmetry_cell_setting 'monoclinic'
loop_
_space_group_symop_operation_xyz
x,y,z
-x,y,1/2-z
-x,-y,-z
x,-y,1/2+z
loop_
_atom_site_type_symbol
_atom_site_label
_atom_site_fract_x
_atom_site_fract_y
_atom_site_fract_z
Si Si1 0.500000 0.899760 0.750000
Si Si2 0.658024 0.896180 0.454295
Si Si3 0.116715 0.559433 0.980595
Si Si4 0.722388 0.572254 0.340328
Si Si5 0.914531 0.907101 0.410382
O O1 0.577746 0.810898 0.604516
O O2 0.500000 0.000000 0.500000
O O3 0.716749 0.758944 0.343382
O O4 0.669560 0.000281 0.183068
O O5 0.074043 0.514649 0.801036
O O6 0.193343 0.472466 0.803286
O O7 0.127258 0.743994 0.989614
O O8 0.684342 0.503688 0.664492
O O9 0.000000 0.872508 0.250000
O O10 0.890970 0.011586 0.693299
#
# Coordination Sequence:
#
# PCOD8118016 Si02
#       5
#     2   4   4   4   4
#     4   8  16  30  52  80 106 134 176 226 272 316
#     4  10  19  35  58  81 106 142 185 226 268 320
#     4  10  21  38  56  80 113 147 179 220 270 325
#     4  10  21  38  53  77 115 146 180 223 269 324
#     4  10  21  38  60  85 110 140 182 227 269 319
#
# _framework density 21.560545999999999
#
# number of rings (size 3 to 8) (size 9 to 14) (size 15 to 20)
#    0.000    2.222    0.000    2.667    0.000    0.889 
#    0.000   27.778    0.000    0.000    0.000    0.000 
#    0.000    0.000    0.000    0.000    0.000    0.000 
#
# Total GULP energy -223014.503148 kJ/mol
# GULP energy per Si atom -12389.694619 kJ/mol
# Density = 2.151147 g / cm^3
# Si number density = 21.560546 Si / 1000 Ang^3
#
#
#
# Elastic Constant Matrix: (Units=GPa)
#
#
# Indices 1 2 3 4 5 6 
#
# 1 27.5475 19.6292 38.6685 0.0000 2.4573 0.0000
# 2 19.6292 128.9079 59.0416 0.0000 3.7821 0.0000
# 3 38.6685 59.0416 161.9163 0.0000 58.8054 0.0000
# 4 0.0000 0.0000 0.0000 34.6831 0.0000 16.7841
# 5 2.4573 3.7821 58.8054 0.0000 47.1620 0.0000
# 6 0.0000 0.0000 0.0000 16.7841 0.0000 3.8710
#
#
#
# Elastic Compliance Matrix: (Units=1/GPa)
#
#
# Indices 1 2 3 4 5 6 
#
# 1 0.076629 0.001931 -0.031980 0.000000 0.035728 0.000000
# 2 0.001931 0.010543 -0.007241 0.000000 0.008082 0.000000
# 3 -0.031980 -0.007241 0.028580 0.000000 -0.033389 0.000000
# 4 0.000000 0.000000 0.000000 -0.026253 0.000000 0.113830
# 5 0.035728 0.008082 -0.033389 0.000000 0.060326 0.000000
# 6 0.000000 0.000000 0.000000 0.113830 0.000000 -0.235220
#
#
# Mechanical properties :
#
#
# Convention : Reuss Voigt Hill
#
# Bulk Modulus (GPa) = 24.28890 61.45004 42.86947
# Shear Modulus (GPa) = 1718.77986 30.54536 874.66261
#
# Velocity S-wave (km/s) = 28.26514 3.76802 20.16329
# Velocity P-wave (km/s) = 32.81027 6.89157 23.70662
#
# Compressibility (1/GPa) = 0.04117107
#
# Stress axis : x y z
#
# Youngs Moduli (GPa) = 13.04991 94.85206 34.98937
#
# Poissons Ratio (x) = -0.18312 1.11897
# Poissons Ratio (y) = -0.02519 0.25335
# Poissons Ratio (z) = 0.41734 0.68680
#
# Static dielectric constant tensor:
#      x y z
#    x 4.408480 0.000000 1.039980 
#    y 0.000000 3.574210 0.000000 
#    z 1.039980 0.000000 5.706880 
# 
# 
# High freq. dielectric constant tensor:
#      x y z
#    x 1.832140 0.000000 0.029740 
#    y 0.000000 1.824630 0.000000 
#    z 0.029740 0.000000 1.877290 
# 
# From -- ./inp_files/6650.got.cif
#   From: 2010.06.25/outbox.cif.g09.slc.cpg/sg13_4_cif.got.tgz:6650.got - 2010.06.28 04:50:58.
