data_PCOD8118988
_publ_section_title
;
Structure prediction by ZEFSAII (Michael W. Deem and Ramdas Pophale) SiO2 
 PCOD8118988
Probable space group: P 2/C
;
_chemical_formula_sum "Si O2"
_cell_formula_units_Z 20
_cell_length_a 7.450500
_cell_length_b 9.577735
_cell_length_c 20.130186
_cell_angle_alpha 90.000000
_cell_angle_beta 138.798776
_cell_angle_gamma 90.000000
_cell_volume 946.209568
_symmetry_space_group_name_H-M "P 2/C"
_symmetry_group_IT_number 13
_symmetry_cell_setting 'monoclinic'
loop_
_space_group_symop_operation_xyz
x,y,z
-x,y,1/2-z
-x,-y,-z
x,-y,1/2+z
loop_
_atom_site_type_symbol
_atom_site_label
_atom_site_fract_x
_atom_site_fract_y
_atom_site_fract_z
Si Si1 0.238776 0.074563 0.634937
Si Si2 0.881650 0.887389 0.613546
Si Si3 0.621504 0.438886 0.357003
Si Si4 0.420771 0.153975 0.340883
Si Si5 0.808846 0.687811 0.479444
O O1 0.500000 0.125283 0.750000
O O2 0.130441 0.200786 0.561136
O O3 0.333086 0.939930 0.618310
O O4 0.966729 0.031553 0.600457
O O5 0.673372 0.915028 0.615769
O O6 0.732417 0.774634 0.524334
O O7 0.172584 0.833296 0.720195
O O8 0.500000 0.454325 0.250000
O O9 0.507158 0.314457 0.371085
O O10 0.575845 0.581555 0.387226
O O11 0.937641 0.409448 0.432519
#
# Coordination Sequence:
#
# PCOD8118988 Si02
#       5
#     4   4   4   4   4
#     4  10  20  39  58  85 118 150 182 239 283 329
#     4  10  20  36  61  87 110 152 195 225 282 345
#     4  11  21  39  59  84 114 154 188 236 286 336
#     4  10  20  37  62  80 117 152 187 232 283 335
#     4  11  22  35  61  87 112 149 197 229 282 344
#
# _framework density 21.136965
#
# number of rings (size 3 to 8) (size 9 to 14) (size 15 to 20)
#    0.000    1.600    4.000    1.800    0.000    1.600 
#    0.000    0.000    0.000    2.400    0.000    0.000 
#    0.000    0.000    0.000    0.000    0.000    0.000 
#
# Total GULP energy -247847.750246 kJ/mol
# GULP energy per Si atom -12392.387512 kJ/mol
# Density = 2.108886 g / cm^3
# Si number density = 21.136965 Si / 1000 Ang^3
#
#
#
# Elastic Constant Matrix: (Units=GPa)
#
#
# Indices 1 2 3 4 5 6 
#
# 1 80.2405 27.0299 19.1061 0.0000 -16.5448 0.0000
# 2 27.0299 105.0072 44.6880 0.0000 -18.4126 0.0000
# 3 19.1061 44.6880 88.2123 0.0000 -21.2525 0.0000
# 4 0.0000 0.0000 0.0000 -1.2282 0.0000 0.4566
# 5 -16.5448 -18.4126 -21.2525 0.0000 27.9122 0.0000
# 6 0.0000 0.0000 0.0000 0.4566 0.0000 20.5109
#
#
#
# Elastic Compliance Matrix: (Units=1/GPa)
#
#
# Indices 1 2 3 4 5 6 
#
# 1 0.014790 -0.002473 -0.000283 0.000000 0.006919 0.000000
# 2 -0.002473 0.012944 -0.005288 0.000000 0.003047 0.000000
# 3 -0.000283 -0.005288 0.016160 0.000000 0.008648 0.000000
# 4 0.000000 0.000000 0.000000 -0.807488 0.000000 0.017977
# 5 0.006919 0.003047 0.008648 0.000000 0.048522 0.000000
# 6 0.000000 0.000000 0.000000 0.017977 0.000000 0.048354
#
#
# Mechanical properties :
#
#
# Convention : Reuss Voigt Hill
#
# Bulk Modulus (GPa) = 35.96433 50.56754 43.26593
# Shear Modulus (GPa) = -7.79594 21.61471 6.90939
#
# Velocity S-wave (km/s) = -1.92258 3.20128 1.80996
# Velocity P-wave (km/s) = 3.48187 6.13514 4.98816
#
# Compressibility (1/GPa) = 0.02780533
#
# Stress axis : x y z
#
# Youngs Moduli (GPa) = 67.61409 77.25364 61.88101
#
# Poissons Ratio (x) = 0.19106 0.01754
# Poissons Ratio (y) = 0.16722 0.32722
# Poissons Ratio (z) = 0.01916 0.40851
#
# Static dielectric constant tensor:
#      x y z
#    x 3.510960 0.000000 -0.200730 
#    y 0.000000 3.880070 0.000000 
#    z -0.200730 0.000000 4.235870 
# 
# 
# High freq. dielectric constant tensor:
#      x y z
#    x 1.793040 0.000000 -0.011290 
#    y 0.000000 1.822240 0.000000 
#    z -0.011290 0.000000 1.853880 
# 
# From -- ./inp_files/45815.got.cif
#   From: 2010.06.25/outbox.cif.g09.slc.cpg/sg13_23_cif.got.tgz:45815.got - 2010.06.28 04:50:58.
