data_PCOD8118398
_publ_section_title
;
Structure prediction by ZEFSAII (Michael W. Deem and Ramdas Pophale) SiO2 
 PCOD8118398
Probable space group: P 2/C
;
_chemical_formula_sum "Si O2"
_cell_formula_units_Z 28
_cell_length_a 11.781783
_cell_length_b 8.568154
_cell_length_c 13.634651
_cell_angle_alpha 90.000000
_cell_angle_beta 110.934448
_cell_angle_gamma 90.000000
_cell_volume 1285.536623
_symmetry_space_group_name_H-M "P 2/C"
_symmetry_group_IT_number 13
_symmetry_cell_setting 'monoclinic'
loop_
_space_group_symop_operation_xyz
x,y,z
-x,y,1/2-z
-x,-y,-z
x,-y,1/2+z
loop_
_atom_site_type_symbol
_atom_site_label
_atom_site_fract_x
_atom_site_fract_y
_atom_site_fract_z
Si Si1 0.001731 0.187012 0.140126
Si Si2 0.374298 0.205909 0.263075
Si Si3 0.810302 0.933583 0.285453
Si Si4 0.790456 0.294153 0.952024
Si Si5 0.578498 0.188567 0.997221
Si Si6 0.315532 0.857347 0.446923
Si Si7 0.798704 0.355046 0.419946
O O1 0.000000 0.258209 0.250000
O O2 0.078119 0.290098 0.088158
O O3 0.865527 0.189087 0.054351
O O4 0.056304 0.011696 0.162643
O O5 0.500000 0.171720 0.250000
O O6 0.389285 0.235523 0.381974
O O7 0.307258 0.356822 0.195655
O O8 0.290392 0.057548 0.211640
O O9 0.804625 0.778753 0.348873
O O10 0.787380 0.889526 0.165539
O O11 0.833020 0.472443 0.965343
O O12 0.650665 0.298091 0.944104
O O13 0.624273 0.012681 0.986888
O O14 0.435381 0.221019 0.933916
O O15 0.250421 0.750519 0.506379
#
# Coordination Sequence:
#
# PCOD8118398 Si02
#       7
#     4   4   4   4   4   4   4
#     4  11  24  46  69  90 121 171 223 275 326 388
#     4  10  19  39  63  90 123 173 216 261 318 371
#     4  10  24  38  66  95 124 164 223 279 314 380
#     4  12  25  41  62  99 134 173 210 267 334 397
#     4  10  21  38  66  92 131 172 221 271 314 383
#     4  10  21  40  64  97 126 172 220 269 327 373
#     4  11  24  42  64  95 136 174 211 262 335 398
#
# _framework density 21.780785999999999
#
# number of rings (size 3 to 8) (size 9 to 14) (size 15 to 20)
#    0.000    1.429    1.429    5.143    4.000    4.000 
#    2.571    0.714    0.000    0.000    0.000    0.000 
#    0.000    0.000    0.000    0.000    0.000    0.000 
#
# Total GULP energy -347173.506174 kJ/mol
# GULP energy per Si atom -12399.053792 kJ/mol
# Density = 2.173121 g / cm^3
# Si number density = 21.780786 Si / 1000 Ang^3
#
#
#
# Elastic Constant Matrix: (Units=GPa)
#
#
# Indices 1 2 3 4 5 6 
#
# 1 115.5752 38.5980 9.5605 0.0000 -15.3446 0.0000
# 2 38.5980 71.9219 40.2310 0.0000 -18.4631 0.0000
# 3 9.5605 40.2310 68.6500 0.0000 -2.4141 0.0000
# 4 0.0000 0.0000 0.0000 20.0349 0.0000 0.8312
# 5 -15.3446 -18.4631 -2.4141 0.0000 35.1919 0.0000
# 6 0.0000 0.0000 0.0000 0.8312 0.0000 14.1266
#
#
#
# Elastic Compliance Matrix: (Units=1/GPa)
#
#
# Indices 1 2 3 4 5 6 
#
# 1 0.010949 -0.007025 0.002637 0.000000 0.001269 0.000000
# 2 -0.007025 0.029466 -0.015892 0.000000 0.011306 0.000000
# 3 0.002637 -0.015892 0.023316 0.000000 -0.005589 0.000000
# 4 0.000000 0.000000 0.000000 0.050035 0.000000 -0.002944
# 5 0.001269 0.011306 -0.005589 0.000000 0.034517 0.000000
# 6 0.000000 0.000000 0.000000 -0.002944 0.000000 0.070961
#
#
# Mechanical properties :
#
#
# Convention : Reuss Voigt Hill
#
# Bulk Modulus (GPa) = 43.15860 48.10290 45.63075
# Shear Modulus (GPa) = 18.68960 25.05453 21.87207
#
# Velocity S-wave (km/s) = 2.93247 3.39529 3.17233
# Velocity P-wave (km/s) = 5.59677 6.12402 5.86632
#
# Compressibility (1/GPa) = 0.02317035
#
# Stress axis : x y z
#
# Youngs Moduli (GPa) = 91.33380 33.93759 42.88873
#
# Poissons Ratio (x) = 0.23841 -0.11308
# Poissons Ratio (y) = 0.64161 0.68159
# Poissons Ratio (z) = -0.24082 0.53934
#
# Static dielectric constant tensor:
#      x y z
#    x 4.172830 0.000000 0.072270 
#    y 0.000000 3.592060 0.000000 
#    z 0.072270 0.000000 4.065920 
# 
# 
# High freq. dielectric constant tensor:
#      x y z
#    x 1.879060 0.000000 -0.001720 
#    y 0.000000 1.818530 0.000000 
#    z -0.001720 0.000000 1.858570 
# 
# From -- ./inp_files/50420.got.cif
#   From: 2010.06.25/outbox.cif.g09.slc.cpg/sg13_26_cif.got.tgz:50420.got - 2010.06.28 04:50:58.
