data_PCOD8118593
_publ_section_title
;
Structure prediction by ZEFSAII (Michael W. Deem and Ramdas Pophale) SiO2 
 PCOD8118593
Probable space group: P 2/C
;
_chemical_formula_sum "Si O2"
_cell_formula_units_Z 24
_cell_length_a 10.741455
_cell_length_b 15.422302
_cell_length_c 19.511614
_cell_angle_alpha 90.000000
_cell_angle_beta 24.736150
_cell_angle_gamma 90.000000
_cell_volume 1352.505111
_symmetry_space_group_name_H-M "P 2/C"
_symmetry_group_IT_number 13
_symmetry_cell_setting 'monoclinic'
loop_
_space_group_symop_operation_xyz
x,y,z
-x,y,1/2-z
-x,-y,-z
x,-y,1/2+z
loop_
_atom_site_type_symbol
_atom_site_label
_atom_site_fract_x
_atom_site_fract_y
_atom_site_fract_z
Si Si1 0.146337 0.589685 0.105393
Si Si2 0.153031 0.256294 0.345395
Si Si3 0.165126 0.915580 0.335791
Si Si4 0.846944 0.743710 0.498438
Si Si5 0.834873 0.084424 0.500918
Si Si6 0.146325 0.589680 0.748279
O O1 0.061967 0.660793 0.091310
O O2 0.000000 0.618804 0.250000
O O3 0.000001 0.500004 0.153557
O O4 0.500005 0.578433 0.937280
O O5 0.055346 0.275231 0.472329
O O6 0.061947 0.339210 0.346732
O O7 0.988970 0.172034 0.397025
O O8 0.499989 0.236368 0.167257
O O9 0.151511 0.917542 0.424244
O O10 0.011010 0.827971 0.386006
O O11 0.500000 0.917115 0.140795
O O12 0.000004 0.000002 0.388139
O O13 0.000000 0.618796 0.750000
#
# Coordination Sequence:
#
# PCOD8118593 Si02
#       6
#     4   4   4   4   4   4
#     4  10  20  34  52  71  94 126 161 197 237 284
#     4   9  18  32  49  71  98 126 158 197 239 280
#     4   9  16  26  43  68  97 128 159 192 232 279
#     4   9  18  32  49  71  98 126 158 197 239 280
#     4   9  16  26  43  68  97 128 159 192 232 279
#     4  10  20  34  52  71  94 126 161 197 237 284
#
# _framework density 17.74485
#
# number of rings (size 3 to 8) (size 9 to 14) (size 15 to 20)
#    0.000    2.667    0.000    3.000    0.000    7.333 
#    0.000    0.000    0.000    1.000    0.000    7.000 
#    0.000    0.000    0.000    0.000    0.000    0.000 
#
# Total GULP energy -297591.702557 kJ/mol
# GULP energy per Si atom -12399.654273 kJ/mol
# Density = 1.770446 g / cm^3
# Si number density = 17.744850 Si / 1000 Ang^3
#
#
#
# Elastic Constant Matrix: (Units=GPa)
#
#
# Indices 1 2 3 4 5 6 
#
# 1 64.7320 76.2881 42.0911 0.0000 -7.8920 0.0000
# 2 76.2881 178.9867 83.5587 0.0000 -4.3198 0.0000
# 3 42.0911 83.5587 95.5999 0.0000 -10.4503 0.0000
# 4 0.0000 0.0000 0.0000 31.6164 0.0000 -13.4659
# 5 -7.8920 -4.3198 -10.4503 0.0000 19.4788 0.0000
# 6 0.0000 0.0000 0.0000 -13.4659 0.0000 8.9597
#
#
#
# Elastic Compliance Matrix: (Units=1/GPa)
#
#
# Indices 1 2 3 4 5 6 
#
# 1 0.033281 -0.012831 -0.002417 0.000000 0.009342 0.000000
# 2 -0.012831 0.014499 -0.007691 0.000000 -0.006110 0.000000
# 3 -0.002417 -0.007691 0.019072 0.000000 0.007547 0.000000
# 4 0.000000 0.000000 0.000000 0.087889 0.000000 0.132091
# 5 0.009342 -0.006110 0.007547 0.000000 0.057817 0.000000
# 6 0.000000 0.000000 0.000000 0.132091 0.000000 0.310135
#
#
# Mechanical properties :
#
#
# Convention : Reuss Voigt Hill
#
# Bulk Modulus (GPa) = 47.68019 82.57717 65.12868
# Shear Modulus (GPa) = 8.68716 21.16970 14.92843
#
# Velocity S-wave (km/s) = 2.21500 3.45774 2.90363
# Velocity P-wave (km/s) = 5.78531 7.91064 6.92993
#
# Compressibility (1/GPa) = 0.02097307
#
# Stress axis : x y z
#
# Youngs Moduli (GPa) = 30.04759 68.96923 52.43311
#
# Poissons Ratio (x) = 0.88496 0.12671
# Poissons Ratio (y) = 0.38555 0.40329
# Poissons Ratio (z) = 0.07261 0.53047
#
# Static dielectric constant tensor:
#      x y z
#    x 3.033190 0.000000 -0.169950 
#    y 0.000000 3.437480 0.000000 
#    z -0.169950 0.000000 3.319040 
# 
# 
# High freq. dielectric constant tensor:
#      x y z
#    x 1.651240 0.000000 -0.021780 
#    y 0.000000 1.700380 0.000000 
#    z -0.021780 0.000000 1.687880 
# 
# From -- ./inp_files/16243.got.cif
#   From: 2010.06.25/outbox.cif.g09.slc.cpg/sg13_9_cif.got.tgz:16243.got - 2010.06.28 04:50:58.
