data_PCOD8118473
_publ_section_title
;
Structure prediction by ZEFSAII (Michael W. Deem and Ramdas Pophale) SiO2 
 PCOD8118473
Probable space group: P 2/C
;
_chemical_formula_sum "Si O2"
_cell_formula_units_Z 28
_cell_length_a 16.350987
_cell_length_b 12.727847
_cell_length_c 9.471936
_cell_angle_alpha 90.000000
_cell_angle_beta 54.599707
_cell_angle_gamma 90.000000
_cell_volume 1606.799910
_symmetry_space_group_name_H-M "P 2/C"
_symmetry_group_IT_number 13
_symmetry_cell_setting 'monoclinic'
loop_
_space_group_symop_operation_xyz
x,y,z
-x,y,1/2-z
-x,-y,-z
x,-y,1/2+z
loop_
_atom_site_type_symbol
_atom_site_label
_atom_site_fract_x
_atom_site_fract_y
_atom_site_fract_z
Si Si1 0.757546 0.795933 0.227566
Si Si2 0.886160 0.604121 0.199970
Si Si3 0.618366 0.842421 0.131632
Si Si4 0.268460 0.935776 0.981542
Si Si5 0.883196 0.903376 0.866803
Si Si6 0.242454 0.204071 0.242658
Si Si7 0.113842 0.395881 0.472294
O O1 0.802883 0.688859 0.241661
O O2 0.659881 0.779543 0.226553
O O3 0.715803 0.867485 0.395280
O O4 0.844146 0.849501 0.048470
O O5 0.875049 0.576920 0.374947
O O6 0.000002 0.643433 0.053045
O O7 0.861326 0.500001 0.138670
O O8 0.500000 0.841502 0.250000
O O9 0.659877 0.779543 0.953680
O O10 0.658084 0.963070 0.091914
O O11 0.153239 0.975893 0.096777
O O12 0.284186 0.867497 0.826888
O O13 0.844149 0.849478 0.763249
O O14 0.000000 0.898515 0.750000
O O15 0.197125 0.311145 0.347432
#
# Coordination Sequence:
#
# PCOD8118473 Si02
#       7
#     4   4   4   4   4   4   4
#     4  10  20  36  54  78 111 145 181 230 275 324
#     4  10  21  35  56  85 114 147 185 221 264 322
#     4  10  22  38  59  82 108 144 183 232 281 334
#     4  10  20  34  52  79 109 141 184 225 275 327
#     4  10  20  30  47  73 111 153 181 211 262 331
#     4  10  20  36  54  78 111 145 181 230 275 324
#     4  10  21  35  56  85 114 147 185 221 264 322
#
# _framework density 17.425941000000002
#
# number of rings (size 3 to 8) (size 9 to 14) (size 15 to 20)
#    0.000    2.286    1.429    4.286    4.000    5.714 
#    0.000    0.000    0.000    0.857    0.000    0.000 
#    0.000    0.000    0.000    0.000    0.000    0.000 
#
# Total GULP energy -347054.174474 kJ/mol
# GULP energy per Si atom -12394.791946 kJ/mol
# Density = 1.738628 g / cm^3
# Si number density = 17.425941 Si / 1000 Ang^3
#
#
#
# Elastic Constant Matrix: (Units=GPa)
#
#
# Indices 1 2 3 4 5 6 
#
# 1 110.4712 33.1718 58.0268 0.0000 -13.3169 0.0000
# 2 33.1718 80.4695 36.1817 0.0000 2.2698 0.0000
# 3 58.0268 36.1817 105.6656 0.0000 9.6811 0.0000
# 4 0.0000 0.0000 0.0000 27.4949 0.0000 5.0434
# 5 -13.3169 2.2698 9.6811 0.0000 34.7395 0.0000
# 6 0.0000 0.0000 0.0000 5.0434 0.0000 20.8090
#
#
#
# Elastic Compliance Matrix: (Units=1/GPa)
#
#
# Indices 1 2 3 4 5 6 
#
# 1 0.015159 -0.002835 -0.008110 0.000000 0.008256 0.000000
# 2 -0.002835 0.015226 -0.003557 0.000000 -0.001090 0.000000
# 3 -0.008110 -0.003557 0.015802 0.000000 -0.007280 0.000000
# 4 0.000000 0.000000 0.000000 0.038062 0.000000 -0.009225
# 5 0.008256 -0.001090 -0.007280 0.000000 0.034051 0.000000
# 6 0.000000 0.000000 0.000000 -0.009225 0.000000 0.050292
#
#
# Mechanical properties :
#
#
# Convention : Reuss Voigt Hill
#
# Bulk Modulus (GPa) = 58.19730 61.26302 59.73016
# Shear Modulus (GPa) = 24.59134 27.89040 26.24087
#
# Velocity S-wave (km/s) = 3.76066 4.00498 3.88474
# Velocity P-wave (km/s) = 7.23368 7.52456 7.38055
#
# Compressibility (1/GPa) = 0.01718293
#
# Stress axis : x y z
#
# Youngs Moduli (GPa) = 65.96888 65.67809 63.28149
#
# Poissons Ratio (x) = 0.18621 0.51322
# Poissons Ratio (y) = 0.18703 0.22507
# Poissons Ratio (z) = 0.53501 0.23360
#
# Static dielectric constant tensor:
#      x y z
#    x 3.175280 0.000000 0.174880 
#    y 0.000000 3.122830 0.000000 
#    z 0.174880 0.000000 3.407140 
# 
# 
# High freq. dielectric constant tensor:
#      x y z
#    x 1.660380 0.000000 0.021310 
#    y 0.000000 1.655900 0.000000 
#    z 0.021310 0.000000 1.688650 
# 
# From -- ./inp_files/18744.got.cif
#   From: 2010.06.25/outbox.cif.g09.slc.cpg/sg13_10_cif.got.tgz:18744.got - 2010.06.28 04:50:58.
