data_PCOD8118983
_publ_section_title
;
Structure prediction by ZEFSAII (Michael W. Deem and Ramdas Pophale) SiO2 
 PCOD8118983
Probable space group: P 2/C
;
_chemical_formula_sum "Si O2"
_cell_formula_units_Z 28
_cell_length_a 14.486467
_cell_length_b 5.498285
_cell_length_c 18.339465
_cell_angle_alpha 90.000000
_cell_angle_beta 59.686183
_cell_angle_gamma 90.000000
_cell_volume 1261.028728
_symmetry_space_group_name_H-M "P 2/C"
_symmetry_group_IT_number 13
_symmetry_cell_setting 'monoclinic'
loop_
_space_group_symop_operation_xyz
x,y,z
-x,y,1/2-z
-x,-y,-z
x,-y,1/2+z
loop_
_atom_site_type_symbol
_atom_site_label
_atom_site_fract_x
_atom_site_fract_y
_atom_site_fract_z
Si Si1 0.337110 0.501763 0.883650
Si Si2 0.036848 0.812758 0.090427
Si Si3 0.500000 0.807754 0.250000
Si Si4 0.856783 0.172425 0.561398
Si Si5 0.696084 0.878238 0.720022
Si Si6 0.000000 0.062230 0.250000
Si Si7 0.766337 0.813393 0.855183
Si Si8 0.746613 0.673026 0.445316
O O1 0.445776 0.346896 0.837038
O O2 0.231076 0.343661 0.939026
O O3 0.329120 0.623980 0.808085
O O4 0.337375 0.684856 0.952932
O O5 0.133442 0.631380 0.070887
O O6 0.947092 0.687668 0.074272
O O7 0.980278 0.894133 0.187562
O O8 0.086339 0.044498 0.029010
O O9 0.408973 0.958748 0.245880
O O10 0.800412 0.985373 0.639280
O O11 0.716041 0.830769 0.796050
O O12 0.894248 0.225712 0.301307
O O13 0.717464 0.567443 0.909972
O O14 0.738008 0.067771 0.907575
#
# Coordination Sequence:
#
# PCOD8118983 Si02
#       8
#     4   4   2   4   4   2   4   4
#     4  11  23  43  72  98 129 183 228 297 346 417
#     4  10  20  39  61  99 141 187 228 278 331 415
#     4  10  26  44  76  98 132 164 248 298 364 402
#     4  10  21  39  65  97 141 179 239 279 340 403
#     4  11  23  45  70 101 132 181 235 297 347 417
#     4  10  20  36  60  96 142 188 222 266 334 400
#     4  11  26  42  67 100 145 187 229 279 341 418
#     4  11  25  44  66 100 146 184 225 275 351 410
#
# _framework density 22.204091999999999
#
# number of rings (size 3 to 8) (size 9 to 14) (size 15 to 20)
#    0.000    1.429    2.857    2.143    6.000    4.000 
#    0.000    1.429    0.000    0.000    0.000    0.000 
#    0.000    0.000    0.000    0.000    0.000    0.000 
#
# Total GULP energy -347059.853495 kJ/mol
# GULP energy per Si atom -12394.994768 kJ/mol
# Density = 2.215355 g / cm^3
# Si number density = 22.204092 Si / 1000 Ang^3
#
#
#
# Elastic Constant Matrix: (Units=GPa)
#
#
# Indices 1 2 3 4 5 6 
#
# 1 69.7144 20.1113 50.8854 0.0000 9.3802 0.0000
# 2 20.1113 91.5877 40.3762 0.0000 4.5029 0.0000
# 3 50.8854 40.3762 127.5423 0.0000 16.8220 0.0000
# 4 0.0000 0.0000 0.0000 31.2610 0.0000 -2.0881
# 5 9.3802 4.5029 16.8220 0.0000 29.7528 0.0000
# 6 0.0000 0.0000 0.0000 -2.0881 0.0000 -50.4885
#
#
#
# Elastic Compliance Matrix: (Units=1/GPa)
#
#
# Indices 1 2 3 4 5 6 
#
# 1 0.020432 -0.001059 -0.007551 0.000000 -0.002012 0.000000
# 2 -0.001059 0.012748 -0.003677 0.000000 0.000483 0.000000
# 3 -0.007551 -0.003677 0.012567 0.000000 -0.004168 0.000000
# 4 0.000000 0.000000 0.000000 0.031901 0.000000 -0.001319
# 5 -0.002012 0.000483 -0.004168 0.000000 0.036528 0.000000
# 6 0.000000 0.000000 0.000000 -0.001319 0.000000 -0.019752
#
#
# Mechanical properties :
#
#
# Convention : Reuss Voigt Hill
#
# Bulk Modulus (GPa) = 47.22929 56.84336 52.03632
# Shear Modulus (GPa) = 39.66492 13.93651 26.80072
#
# Velocity S-wave (km/s) = 4.23114 2.50802 3.47798
# Velocity P-wave (km/s) = 6.72211 5.83463 6.29403
#
# Compressibility (1/GPa) = 0.02117330
#
# Stress axis : x y z
#
# Youngs Moduli (GPa) = 48.94250 78.44219 79.57320
#
# Poissons Ratio (x) = 0.08305 0.60088
# Poissons Ratio (y) = 0.05182 0.29260
# Poissons Ratio (z) = 0.36958 0.28844
#
# Static dielectric constant tensor:
#      x y z
#    x 4.189550 0.000000 0.203600 
#    y 0.000000 3.828810 0.000000 
#    z 0.203600 0.000000 4.404260 
# 
# 
# High freq. dielectric constant tensor:
#      x y z
#    x 1.861140 0.000000 0.005090 
#    y 0.000000 1.861350 0.000000 
#    z 0.005090 0.000000 1.891770 
# 
# From -- ./inp_files/67528.got.cif
#   From: 2010.06.25/outbox.cif.g09.slc.cpg/sg13_34_cif.got.tgz:67528.got - 2010.06.28 04:50:58.
