data_PCOD8118335
_publ_section_title
;
Structure prediction by ZEFSAII (Michael W. Deem and Ramdas Pophale) SiO2 
 PCOD8118335
Probable space group: P 2/C
;
_chemical_formula_sum "Si O2"
_cell_formula_units_Z 20
_cell_length_a 20.615645
_cell_length_b 7.107153
_cell_length_c 13.660338
_cell_angle_alpha 90.000000
_cell_angle_beta 23.977507
_cell_angle_gamma 90.000000
_cell_volume 813.362600
_symmetry_space_group_name_H-M "P 2/C"
_symmetry_group_IT_number 13
_symmetry_cell_setting 'monoclinic'
loop_
_space_group_symop_operation_xyz
x,y,z
-x,y,1/2-z
-x,-y,-z
x,-y,1/2+z
loop_
_atom_site_type_symbol
_atom_site_label
_atom_site_fract_x
_atom_site_fract_y
_atom_site_fract_z
Si Si1 0.259262 0.290646 0.188750
Si Si2 0.949570 0.593479 0.213899
Si Si3 0.339922 0.320752 0.519046
Si Si4 0.779890 0.945859 0.149207
Si Si5 0.867445 0.837434 0.825343
O O1 0.377933 0.461207 0.999608
O O2 0.237334 0.145692 0.127953
O O3 0.092395 0.395679 0.439375
O O4 0.304327 0.150039 0.215135
O O5 0.797311 0.697196 0.375056
O O6 0.912785 0.376947 0.284068
O O7 0.000000 0.684856 0.250000
O O8 0.298850 0.211957 0.674732
O O9 0.500000 0.239224 0.250000
O O10 0.753854 0.901496 0.071199
O O11 0.971364 0.962025 0.906025
#
# Coordination Sequence:
#
# PCOD8118335 Si02
#       5
#     4   4   4   4   4
#     4  11  22  38  66  92 124 168 224 255 308 378
#     4  11  20  39  67  95 124 163 217 264 306 368
#     4  11  24  43  63  93 136 170 202 259 326 382
#     4  11  21  37  64  96 127 160 210 270 318 361
#     4  10  19  38  61  98 127 151 210 280 309 356
#
# _framework density 24.589279999999999
#
# number of rings (size 3 to 8) (size 9 to 14) (size 15 to 20)
#    0.000    1.200    6.000    1.800    2.800    0.800 
#    0.000    9.000    0.000    7.200    0.000    0.000 
#    0.000    0.000    0.000    0.000    0.000    0.000 
#
# Total GULP energy -247954.798143 kJ/mol
# GULP energy per Si atom -12397.739907 kJ/mol
# Density = 2.453331 g / cm^3
# Si number density = 24.589280 Si / 1000 Ang^3
#
#
#
# Elastic Constant Matrix: (Units=GPa)
#
#
# Indices 1 2 3 4 5 6 
#
# 1 51.7222 10.1603 34.9743 0.0000 28.2349 0.0000
# 2 10.1603 58.2398 19.6672 0.0000 19.5278 0.0000
# 3 34.9743 19.6672 124.8025 0.0000 30.1991 0.0000
# 4 0.0000 0.0000 0.0000 19.8682 0.0000 8.0611
# 5 28.2349 19.5278 30.1991 0.0000 38.7744 0.0000
# 6 0.0000 0.0000 0.0000 8.0611 0.0000 19.8836
#
#
#
# Elastic Compliance Matrix: (Units=1/GPa)
#
#
# Indices 1 2 3 4 5 6 
#
# 1 0.034420 0.003306 -0.004558 0.000000 -0.023180 0.000000
# 2 0.003306 0.021061 -0.001351 0.000000 -0.011962 0.000000
# 3 -0.004558 -0.001351 0.010517 0.000000 -0.004192 0.000000
# 4 0.000000 0.000000 0.000000 0.060240 0.000000 -0.024422
# 5 -0.023180 -0.011962 -0.004192 0.000000 0.051959 0.000000
# 6 0.000000 0.000000 0.000000 -0.024422 0.000000 0.060194
#
#
# Mechanical properties :
#
#
# Convention : Reuss Voigt Hill
#
# Bulk Modulus (GPa) = 16.44920 40.48535 28.46727
# Shear Modulus (GPa) = 18.94944 27.03608 22.99276
#
# Velocity S-wave (km/s) = 2.77905 3.31948 3.06121
# Velocity P-wave (km/s) = 4.12330 5.58501 4.90886
#
# Compressibility (1/GPa) = 0.06079325
#
# Stress axis : x y z
#
# Youngs Moduli (GPa) = 29.05266 47.48183 95.08252
#
# Poissons Ratio (x) = -0.15700 0.43339
# Poissons Ratio (y) = -0.09606 0.12845
# Poissons Ratio (z) = 0.13242 0.06414
#
# Static dielectric constant tensor:
#      x y z
#    x 4.336200 0.000000 0.535020 
#    y 0.000000 4.370680 0.000000 
#    z 0.535020 0.000000 4.271480 
# 
# 
# High freq. dielectric constant tensor:
#      x y z
#    x 1.948670 0.000000 0.047310 
#    y 0.000000 1.990930 0.000000 
#    z 0.047310 0.000000 1.965620 
# 
# From -- ./inp_files/49813.got.cif
#   From: 2010.06.25/outbox.cif.g09.slc.cpg/sg13_25_cif.got.tgz:49813.got - 2010.06.28 04:50:58.
