data_PCOD8118816
_publ_section_title
;
Structure prediction by ZEFSAII (Michael W. Deem and Ramdas Pophale) SiO2 
 PCOD8118816
Probable space group: P 2/C
;
_chemical_formula_sum "Si O2"
_cell_formula_units_Z 24
_cell_length_a 13.143187
_cell_length_b 9.049824
_cell_length_c 14.625651
_cell_angle_alpha 90.000000
_cell_angle_beta 132.599074
_cell_angle_gamma 90.000000
_cell_volume 1280.553064
_symmetry_space_group_name_H-M "P 2/C"
_symmetry_group_IT_number 13
_symmetry_cell_setting 'monoclinic'
loop_
_space_group_symop_operation_xyz
x,y,z
-x,y,1/2-z
-x,-y,-z
x,-y,1/2+z
loop_
_atom_site_type_symbol
_atom_site_label
_atom_site_fract_x
_atom_site_fract_y
_atom_site_fract_z
Si Si1 0.113198 0.671743 0.743178
Si Si2 0.348916 0.851558 0.958063
Si Si3 0.661616 0.138545 0.662099
Si Si4 0.656322 0.991952 0.349755
Si Si5 0.083610 0.667908 0.209308
Si Si6 0.080294 0.152928 0.039352
O O1 0.261213 0.706749 0.879483
O O2 0.107969 0.504221 0.705964
O O3 0.086651 0.777240 0.642385
O O4 0.000000 0.707619 0.750000
O O5 0.304752 0.980611 0.861798
O O6 0.508677 0.808766 0.041449
O O7 0.317341 0.903235 0.041496
O O8 0.677462 0.125222 0.780930
O O9 0.767002 0.258614 0.688236
O O10 0.500000 0.058069 0.250000
O O11 0.765604 0.125600 0.407079
O O12 0.000000 0.697996 0.250000
O O13 0.999429 0.735264 0.074436
O O14 0.000000 0.000000 0.000000
#
# Coordination Sequence:
#
# PCOD8118816 Si02
#       6
#     4   4   4   4   4   4
#     4  11  24  39  58  87 120 159 194 234 295 352
#     4  10  20  37  63  87 118 152 198 243 290 349
#     4  10  20  38  61  89 115 153 199 245 290 342
#     4  10  20  35  61  92 119 148 198 253 295 341
#     4  11  24  40  57  86 123 156 193 239 291 352
#     4  12  21  38  65  89 114 153 199 246 291 343
#
# _framework density 18.741903000000001
#
# number of rings (size 3 to 8) (size 9 to 14) (size 15 to 20)
#    0.000    1.333    3.333    2.500    0.000    2.000 
#    0.000    0.000    0.000    0.000    0.000    0.000 
#    0.000    0.000    0.000    0.000    0.000    0.000 
#
# Total GULP energy -297682.041521 kJ/mol
# GULP energy per Si atom -12403.418397 kJ/mol
# Density = 1.869925 g / cm^3
# Si number density = 18.741903 Si / 1000 Ang^3
#
#
#
# Elastic Constant Matrix: (Units=GPa)
#
#
# Indices 1 2 3 4 5 6 
#
# 1 116.7252 75.7965 58.6359 0.0000 12.3492 0.0000
# 2 75.7965 113.8293 77.6345 0.0000 11.0061 0.0000
# 3 58.6359 77.6345 125.3207 0.0000 6.5542 0.0000
# 4 0.0000 0.0000 0.0000 23.9127 0.0000 -10.5530
# 5 12.3492 11.0061 6.5542 0.0000 35.1205 0.0000
# 6 0.0000 0.0000 0.0000 -10.5530 0.0000 16.8404
#
#
#
# Elastic Compliance Matrix: (Units=1/GPa)
#
#
# Indices 1 2 3 4 5 6 
#
# 1 0.015427 -0.009019 -0.001510 0.000000 -0.002316 0.000000
# 2 -0.009019 0.020813 -0.008582 0.000000 -0.001750 0.000000
# 3 -0.001510 -0.008582 0.013970 0.000000 0.000613 0.000000
# 4 0.000000 0.000000 0.000000 0.057804 0.000000 0.036223
# 5 -0.002316 -0.001750 0.000613 0.000000 0.029722 0.000000
# 6 0.000000 0.000000 0.000000 0.036223 0.000000 0.082080
#
#
# Mechanical properties :
#
#
# Convention : Reuss Voigt Hill
#
# Bulk Modulus (GPa) = 83.41104 86.66766 85.03935
# Shear Modulus (GPa) = 19.08149 24.76193 21.92171
#
# Velocity S-wave (km/s) = 3.19426 3.63878 3.42374
# Velocity P-wave (km/s) = 7.62929 7.99984 7.81676
#
# Compressibility (1/GPa) = 0.01198882
#
# Stress axis : x y z
#
# Youngs Moduli (GPa) = 64.82066 48.04726 71.57990
#
# Poissons Ratio (x) = 0.43333 0.10808
# Poissons Ratio (y) = 0.58461 0.61430
# Poissons Ratio (z) = 0.09788 0.41234
#
# Static dielectric constant tensor:
#      x y z
#    x 3.728530 0.000000 0.085090 
#    y 0.000000 3.252630 0.000000 
#    z 0.085090 0.000000 3.649600 
# 
# 
# High freq. dielectric constant tensor:
#      x y z
#    x 1.746440 0.000000 -0.000110 
#    y 0.000000 1.701480 0.000000 
#    z -0.000110 0.000000 1.748690 
# 
# From -- ./inp_files/53196.got.cif
#   From: 2010.06.25/outbox.cif.g09.slc.cpg/sg13_27_cif.got.tgz:53196.got - 2010.06.28 04:50:58.
