data_PCOD8118293
_publ_section_title
;
Structure prediction by ZEFSAII (Michael W. Deem and Ramdas Pophale) SiO2 
 PCOD8118293
Probable space group: P 2/C
;
_chemical_formula_sum "Si O2"
_cell_formula_units_Z 26
_cell_length_a 7.578351
_cell_length_b 15.131727
_cell_length_c 12.065645
_cell_angle_alpha 90.000000
_cell_angle_beta 60.597274
_cell_angle_gamma 90.000000
_cell_volume 1205.388003
_symmetry_space_group_name_H-M "P 2/C"
_symmetry_group_IT_number 13
_symmetry_cell_setting 'monoclinic'
loop_
_space_group_symop_operation_xyz
x,y,z
-x,y,1/2-z
-x,-y,-z
x,-y,1/2+z
loop_
_atom_site_type_symbol
_atom_site_label
_atom_site_fract_x
_atom_site_fract_y
_atom_site_fract_z
Si Si1 0.500000 0.446405 0.250000
Si Si2 0.398661 0.348590 0.490828
Si Si3 0.943965 0.077568 0.884539
Si Si4 0.015892 0.728278 0.408378
Si Si5 0.658753 0.973274 0.110675
Si Si6 0.400447 0.778122 0.399751
Si Si7 0.198382 0.437290 0.739216
O O1 0.529511 0.387177 0.350086
O O2 0.701435 0.508867 0.189604
O O3 0.508793 0.268695 0.520261
O O4 0.362462 0.427034 0.590465
O O5 0.190302 0.320429 0.493097
O O6 0.000000 0.033109 0.750000
O O7 0.942638 0.183107 0.869231
O O8 0.125271 0.051586 0.907630
O O9 0.721140 0.043879 0.995854
O O10 0.161372 0.752563 0.467330
O O11 0.140526 0.663258 0.289260
O O12 0.500000 0.013864 0.250000
O O13 0.562453 0.882864 0.091637
O O14 0.500000 0.751426 0.250000
O O15 0.000000 0.486448 0.750000
#
# Coordination Sequence:
#
# PCOD8118293 Si02
#       7
#     2   4   4   4   4   4   4
#     4  12  26  40  58  94 132 158 208 266 326 396
#     4  11  23  40  60  92 122 160 211 256 320 379
#     4  10  20  37  60  90 129 163 216 268 313 386
#     4  10  21  38  66  90 115 162 217 263 306 379
#     4   9  21  37  57  96 125 166 216 263 325 378
#     4  10  19  37  66  89 121 163 220 262 302 382
#     4  10  21  38  63  87 115 162 210 264 316 369
#
# _framework density 21.569818000000001
#
# number of rings (size 3 to 8) (size 9 to 14) (size 15 to 20)
#    0.000    1.846    1.538    2.769    4.308    4.308 
#    1.385    3.077    0.000    0.000    0.000    0.000 
#    0.000    0.000    0.000    0.000    0.000    0.000 
#
# Total GULP energy -322122.765270 kJ/mol
# GULP energy per Si atom -12389.337126 kJ/mol
# Density = 2.152072 g / cm^3
# Si number density = 21.569818 Si / 1000 Ang^3
#
#
#
# Elastic Constant Matrix: (Units=GPa)
#
#
# Indices 1 2 3 4 5 6 
#
# 1 93.8507 45.4196 25.5342 0.0000 2.1763 0.0000
# 2 45.4196 96.6032 66.0108 0.0000 3.0652 0.0000
# 3 25.5342 66.0108 123.0958 0.0000 -1.8709 0.0000
# 4 0.0000 0.0000 0.0000 22.7574 0.0000 -4.1774
# 5 2.1763 3.0652 -1.8709 0.0000 26.3649 0.0000
# 6 0.0000 0.0000 0.0000 -4.1774 0.0000 18.5864
#
#
#
# Elastic Compliance Matrix: (Units=1/GPa)
#
#
# Indices 1 2 3 4 5 6 
#
# 1 0.013870 -0.007174 0.000966 0.000000 -0.000242 0.000000
# 2 -0.007174 0.020218 -0.009391 0.000000 -0.002425 0.000000
# 3 0.000966 -0.009391 0.012989 0.000000 0.001934 0.000000
# 4 0.000000 0.000000 0.000000 0.045833 0.000000 0.010301
# 5 -0.000242 -0.002425 0.001934 0.000000 0.038368 0.000000
# 6 0.000000 0.000000 0.000000 0.010301 0.000000 0.056118
#
#
# Mechanical properties :
#
#
# Convention : Reuss Voigt Hill
#
# Bulk Modulus (GPa) = 62.97274 65.27543 64.12408
# Shear Modulus (GPa) = 22.33277 25.31407 23.82342
#
# Velocity S-wave (km/s) = 3.22121 3.42948 3.32698
# Velocity P-wave (km/s) = 6.56454 6.78306 6.67469
#
# Compressibility (1/GPa) = 0.01587989
#
# Stress axis : x y z
#
# Youngs Moduli (GPa) = 72.09984 49.45984 76.98977
#
# Poissons Ratio (x) = 0.35480 -0.07438
# Poissons Ratio (y) = 0.51721 0.72302
# Poissons Ratio (z) = -0.06966 0.46448
#
# Static dielectric constant tensor:
#      x y z
#    x 4.165760 0.000000 -0.132950 
#    y 0.000000 3.979050 0.000000 
#    z -0.132950 0.000000 3.621070 
# 
# 
# High freq. dielectric constant tensor:
#      x y z
#    x 1.863830 0.000000 -0.002730 
#    y 0.000000 1.834780 0.000000 
#    z -0.002730 0.000000 1.807230 
# 
# From -- ./inp_files/30001.got.cif
#   From: 2010.06.25/outbox.cif.g09.slc.cpg/sg13_16_cif.got.tgz:30001.got - 2010.06.28 04:50:58.
