data_PCOD8118557
_publ_section_title
;
Structure prediction by ZEFSAII (Michael W. Deem and Ramdas Pophale) SiO2 
 PCOD8118557
Probable space group: P 2/C
;
_chemical_formula_sum "Si O2"
_cell_formula_units_Z 30
_cell_length_a 6.656194
_cell_length_b 11.009832
_cell_length_c 20.772879
_cell_angle_alpha 90.000000
_cell_angle_beta 85.941643
_cell_angle_gamma 90.000000
_cell_volume 1518.493674
_symmetry_space_group_name_H-M "P 2/C"
_symmetry_group_IT_number 13
_symmetry_cell_setting 'monoclinic'
loop_
_space_group_symop_operation_xyz
x,y,z
-x,y,1/2-z
-x,-y,-z
x,-y,1/2+z
loop_
_atom_site_type_symbol
_atom_site_label
_atom_site_fract_x
_atom_site_fract_y
_atom_site_fract_z
Si Si1 0.335688 0.992121 0.827974
Si Si2 0.689042 0.602356 0.927268
Si Si3 0.391943 0.337700 0.535633
Si Si4 0.455180 0.281738 0.322223
Si Si5 0.000000 0.901868 0.250000
Si Si6 0.290997 0.131828 0.639271
Si Si7 0.103084 0.311842 0.422801
Si Si8 0.005459 0.959326 0.571952
O O1 0.444143 0.863276 0.818467
O O2 0.209703 0.003557 0.896258
O O3 0.177208 0.012147 0.773653
O O4 0.512281 0.091996 0.824974
O O5 0.600858 0.466510 0.928247
O O6 0.635829 0.673936 0.863336
O O7 0.929343 0.587481 0.925381
O O8 0.601732 0.675655 0.991573
O O9 0.361532 0.236011 0.589735
O O10 0.216106 0.326170 0.487413
O O11 0.500000 0.334750 0.250000
O O12 0.247477 0.331829 0.357993
O O13 0.886828 0.821555 0.307616
O O14 0.198978 0.017269 0.602774
O O15 0.982950 0.185042 0.421180
O O16 0.000000 0.000000 0.500000
#
# Coordination Sequence:
#
# PCOD8118557 Si02
#       8
#     4   4   4   4   2   4   4   4
#     4  10  22  37  59  84 118 155 179 232 290 341
#     4  10  22  39  58  83 111 151 197 234 284 337
#     4  10  22  38  58  84 114 149 193 237 282 341
#     4  10  21  38  57  84 113 147 194 232 278 342
#     4  10  22  38  54  86 114 146 200 222 280 364
#     4  11  21  36  58  82 119 154 185 234 291 331
#     4  10  20  37  58  84 116 151 183 238 288 330
#     4  10  20  33  53  92 119 141 191 228 278 356
#
# _framework density 19.756419000000001
#
# number of rings (size 3 to 8) (size 9 to 14) (size 15 to 20)
#    0.000    1.867    1.333    2.400    1.867    3.200 
#    0.000    2.667    0.000    0.000    0.000    0.933 
#    0.000    0.000    0.000    0.000    0.000    0.000 
#
# Total GULP energy -371862.555521 kJ/mol
# GULP energy per Si atom -12395.418517 kJ/mol
# Density = 1.971145 g / cm^3
# Si number density = 19.756419 Si / 1000 Ang^3
#
#
#
# Elastic Constant Matrix: (Units=GPa)
#
#
# Indices 1 2 3 4 5 6 
#
# 1 117.2637 29.7974 54.3967 0.0000 4.3781 0.0000
# 2 29.7974 56.3630 35.4137 0.0000 0.9790 0.0000
# 3 54.3967 35.4137 135.2014 0.0000 -8.1179 0.0000
# 4 0.0000 0.0000 0.0000 14.5194 0.0000 -4.8273
# 5 4.3781 0.9790 -8.1179 0.0000 29.3685 0.0000
# 6 0.0000 0.0000 0.0000 -4.8273 0.0000 22.1104
#
#
#
# Elastic Compliance Matrix: (Units=1/GPa)
#
#
# Indices 1 2 3 4 5 6 
#
# 1 0.011272 -0.003551 -0.003761 0.000000 -0.002602 0.000000
# 2 -0.003551 0.022507 -0.004556 0.000000 -0.001480 0.000000
# 3 -0.003761 -0.004556 0.010317 0.000000 0.003564 0.000000
# 4 0.000000 0.000000 0.000000 0.074264 0.000000 0.016214
# 5 -0.002602 -0.001480 0.003564 0.000000 0.035473 0.000000
# 6 0.000000 0.000000 0.000000 0.016214 0.000000 0.048768
#
#
# Mechanical properties :
#
#
# Convention : Reuss Voigt Hill
#
# Bulk Modulus (GPa) = 49.11364 60.89375 55.00370
# Shear Modulus (GPa) = 21.44787 25.81432 23.63110
#
# Velocity S-wave (km/s) = 3.29844 3.61865 3.46225
# Velocity P-wave (km/s) = 6.27852 6.95332 6.62452
#
# Compressibility (1/GPa) = 0.02036094
#
# Stress axis : x y z
#
# Youngs Moduli (GPa) = 88.71541 44.42976 96.92722
#
# Poissons Ratio (x) = 0.15776 0.36458
# Poissons Ratio (y) = 0.31500 0.44158
# Poissons Ratio (z) = 0.33369 0.20241
#
# Static dielectric constant tensor:
#      x y z
#    x 3.812880 0.000000 -0.288190 
#    y 0.000000 3.471540 0.000000 
#    z -0.288190 0.000000 3.745030 
# 
# 
# High freq. dielectric constant tensor:
#      x y z
#    x 1.784130 0.000000 -0.012990 
#    y 0.000000 1.736800 0.000000 
#    z -0.012990 0.000000 1.780210 
# 
# From -- ./inp_files/73643.got.cif
#   From: 2010.06.25/outbox.cif.g09.slc.cpg/sg13_37_cif.got.tgz:73643.got - 2010.06.28 04:50:58.
