data_PCOD8118605
_publ_section_title
;
Structure prediction by ZEFSAII (Michael W. Deem and Ramdas Pophale) SiO2 
 PCOD8118605
Probable space group: P 2/C
;
_chemical_formula_sum "Si O2"
_cell_formula_units_Z 32
_cell_length_a 13.351524
_cell_length_b 24.465890
_cell_length_c 5.096237
_cell_angle_alpha 90.000000
_cell_angle_beta 75.673200
_cell_angle_gamma 90.000000
_cell_volume 1612.948397
_symmetry_space_group_name_H-M "P 2/C"
_symmetry_group_IT_number 13
_symmetry_cell_setting 'monoclinic'
loop_
_space_group_symop_operation_xyz
x,y,z
-x,y,1/2-z
-x,-y,-z
x,-y,1/2+z
loop_
_atom_site_type_symbol
_atom_site_label
_atom_site_fract_x
_atom_site_fract_y
_atom_site_fract_z
Si Si1 0.932752 0.802653 0.535472
Si Si2 0.207135 0.706399 0.718874
Si Si3 0.432645 0.872134 0.538345
Si Si4 0.118343 0.473272 0.727552
Si Si5 0.712352 0.967641 0.746899
Si Si6 0.932701 0.074696 0.035861
Si Si7 0.431748 0.253028 0.036293
Si Si8 0.883472 0.347412 0.742030
O O1 0.834181 0.764643 0.650013
O O2 0.894759 0.863829 0.486572
O O3 0.000000 0.803718 0.750000
O O4 0.000000 0.778761 0.250000
O O5 0.329577 0.710197 0.599348
O O6 0.149213 0.687819 0.490761
O O7 0.189526 0.663219 0.961914
O O8 0.500000 0.878526 0.750000
O O9 0.331667 0.908949 0.642076
O O10 0.397004 0.809841 0.519360
O O11 0.500000 0.893040 0.250000
O O12 0.171816 0.488388 0.415261
O O13 0.128577 0.411059 0.815472
O O14 0.000000 0.490162 0.750000
O O15 0.835785 0.963740 0.654778
O O16 0.674818 0.987923 0.486253
O O17 0.000000 0.076399 0.250000
O O18 0.000000 0.050454 0.750000
O O19 0.500000 0.261455 0.250000
O O20 0.500000 0.273216 0.750000
O O21 0.000000 0.332164 0.750000
#
# Coordination Sequence:
#
# PCOD8118605 Si02
#       8
#     4   4   4   4   4   4   4   4
#     4  10  20  34  53  77 106 142 178 210 258 326
#     4  12  21  34  55  80 116 146 177 229 284 325
#     4  10  22  41  62  82 106 135 171 217 271 331
#     4   9  17  31  49  70 106 156 197 226 258 305
#     4  12  25  38  57  83 107 134 171 216 270 321
#     4  10  22  39  56  75 103 141 182 215 248 306
#     4  10  22  40  60  81 106 143 187 226 271 333
#     4  11  22  33  51  84 121 154 188 224 270 325
#
# _framework density 19.839441999999998
#
# number of rings (size 3 to 8) (size 9 to 14) (size 15 to 20)
#    0.000    1.500    0.000    6.000    0.000    5.000 
#    0.000   10.000    0.000    0.000    0.000    0.000 
#    0.000   35.000    0.000    0.000    0.000    0.000 
#
# Total GULP energy -396812.592424 kJ/mol
# GULP energy per Si atom -12400.393513 kJ/mol
# Density = 1.979429 g / cm^3
# Si number density = 19.839442 Si / 1000 Ang^3
#
#
#
# Elastic Constant Matrix: (Units=GPa)
#
#
# Indices 1 2 3 4 5 6 
#
# 1 66.0043 23.9733 44.8920 0.0000 -9.3407 0.0000
# 2 23.9733 55.6516 31.0143 0.0000 -4.1795 0.0000
# 3 44.8920 31.0143 165.7702 0.0000 2.5948 0.0000
# 4 0.0000 0.0000 0.0000 44.6036 0.0000 9.3896
# 5 -9.3407 -4.1795 2.5948 0.0000 29.5401 0.0000
# 6 0.0000 0.0000 0.0000 9.3896 0.0000 19.5438
#
#
#
# Elastic Compliance Matrix: (Units=1/GPa)
#
#
# Indices 1 2 3 4 5 6 
#
# 1 0.021531 -0.006132 -0.004783 0.000000 0.006361 0.000000
# 2 -0.006132 0.022108 -0.002498 0.000000 0.001409 0.000000
# 3 -0.004783 -0.002498 0.007835 0.000000 -0.002554 0.000000
# 4 0.000000 0.000000 0.000000 0.024942 0.000000 -0.011983
# 5 0.006361 0.001409 -0.002554 0.000000 0.036287 0.000000
# 6 0.000000 0.000000 0.000000 -0.011983 0.000000 0.056924
#
#
# Mechanical properties :
#
#
# Convention : Reuss Voigt Hill
#
# Bulk Modulus (GPa) = 40.56976 54.13169 47.35073
# Shear Modulus (GPa) = 24.42964 31.24060 27.83512
#
# Velocity S-wave (km/s) = 3.51289 3.97252 3.74975
# Velocity P-wave (km/s) = 6.07843 6.95596 6.53195
#
# Compressibility (1/GPa) = 0.02464890
#
# Stress axis : x y z
#
# Youngs Moduli (GPa) = 46.44475 45.23234 127.63143
#
# Poissons Ratio (x) = 0.27735 0.61048
# Poissons Ratio (y) = 0.28478 0.31880
# Poissons Ratio (z) = 0.22215 0.11298
#
# Static dielectric constant tensor:
#      x y z
#    x 3.217790 0.000000 0.097450 
#    y 0.000000 3.638340 0.000000 
#    z 0.097450 0.000000 3.945380 
# 
# 
# High freq. dielectric constant tensor:
#      x y z
#    x 1.738880 0.000000 0.012940 
#    y 0.000000 1.766160 0.000000 
#    z 0.012940 0.000000 1.799390 
# 
# From -- ./inp_files/4428.got.cif
#   From: 2010.06.25/outbox.cif.g09.slc.cpg/sg13_3_cif.got.tgz:4428.got - 2010.06.28 04:50:58.
