data_PCOD8118943
_publ_section_title
;
Structure prediction by ZEFSAII (Michael W. Deem and Ramdas Pophale) SiO2 
 PCOD8118943
Probable space group: P 2/C
;
_chemical_formula_sum "Si O2"
_cell_formula_units_Z 26
_cell_length_a 24.976255
_cell_length_b 8.654036
_cell_length_c 11.404938
_cell_angle_alpha 90.000000
_cell_angle_beta 29.899385
_cell_angle_gamma 90.000000
_cell_volume 1228.811651
_symmetry_space_group_name_H-M "P 2/C"
_symmetry_group_IT_number 13
_symmetry_cell_setting 'monoclinic'
loop_
_space_group_symop_operation_xyz
x,y,z
-x,y,1/2-z
-x,-y,-z
x,-y,1/2+z
loop_
_atom_site_type_symbol
_atom_site_label
_atom_site_fract_x
_atom_site_fract_y
_atom_site_fract_z
Si Si1 0.855862 0.389169 0.982620
Si Si2 0.532700 0.237252 0.344208
Si Si3 0.045256 0.344948 0.473014
Si Si4 0.356506 0.245162 0.125915
Si Si5 0.330857 0.901327 0.115374
Si Si6 0.107686 0.750264 0.616395
Si Si7 0.500000 0.481877 0.750000
O O1 0.855448 0.368206 0.125205
O O2 0.751378 0.320119 0.119321
O O3 0.864758 0.571098 0.946142
O O4 0.948822 0.290723 0.741042
O O5 0.558593 0.224559 0.431094
O O6 0.418613 0.151815 0.544561
O O7 0.518012 0.414126 0.331183
O O8 0.630469 0.162207 0.084022
O O9 0.081121 0.221588 0.305387
O O10 0.000000 0.500000 0.500000
O O11 0.332092 0.085966 0.106450
O O12 0.398207 0.369883 0.953560
O O13 0.210456 0.847314 0.377351
O O14 0.000000 0.795981 0.750000
#
# Coordination Sequence:
#
# PCOD8118943 Si02
#       7
#     4   4   4   4   4   4   2
#     4  10  20  36  59  93 118 163 218 263 324 365
#     4  10  23  45  67  90 132 169 211 264 320 398
#     4   9  18  36  58  83 121 157 212 265 308 364
#     4  12  24  39  67  96 131 165 208 276 320 386
#     4  10  24  42  60  95 129 174 212 249 331 393
#     4  11  21  38  64  89 122 172 217 262 315 381
#     4  10  22  40  64 100 116 158 222 262 320 380
#
# _framework density 21.158653000000001
#
# number of rings (size 3 to 8) (size 9 to 14) (size 15 to 20)
#    0.000    1.846    3.077    3.692    2.154    4.923 
#    2.769    0.769    0.000    0.000    0.000    0.000 
#    0.000    0.000    0.000    0.000    0.000    0.000 
#
# Total GULP energy -322168.975309 kJ/mol
# GULP energy per Si atom -12391.114435 kJ/mol
# Density = 2.111049 g / cm^3
# Si number density = 21.158653 Si / 1000 Ang^3
#
#
#
# Elastic Constant Matrix: (Units=GPa)
#
#
# Indices 1 2 3 4 5 6 
#
# 1 76.2896 13.5167 30.8396 0.0000 -4.2399 0.0000
# 2 13.5167 108.0996 56.8703 0.0000 -8.7202 0.0000
# 3 30.8396 56.8703 120.7567 0.0000 -15.4328 0.0000
# 4 0.0000 0.0000 0.0000 -22.7733 0.0000 -2.9721
# 5 -4.2399 -8.7202 -15.4328 0.0000 35.6613 0.0000
# 6 0.0000 0.0000 0.0000 -2.9721 0.0000 11.3401
#
#
#
# Elastic Compliance Matrix: (Units=1/GPa)
#
#
# Indices 1 2 3 4 5 6 
#
# 1 0.014620 0.000184 -0.003803 0.000000 0.000137 0.000000
# 2 0.000184 0.012309 -0.005776 0.000000 0.000532 0.000000
# 3 -0.003803 -0.005776 0.012421 0.000000 0.003511 0.000000
# 4 0.000000 0.000000 0.000000 -0.042459 0.000000 -0.011128
# 5 0.000137 0.000532 0.003511 0.000000 0.029707 0.000000
# 6 0.000000 0.000000 0.000000 -0.011128 0.000000 0.085266
#
#
# Mechanical properties :
#
#
# Convention : Reuss Voigt Hill
#
# Bulk Modulus (GPa) = 48.63670 56.39991 52.51830
# Shear Modulus (GPa) = 36.36111 18.44024 27.40068
#
# Velocity S-wave (km/s) = 4.14997 2.95536 3.60253
# Velocity P-wave (km/s) = 6.78230 6.19347 6.49456
#
# Compressibility (1/GPa) = 0.02056061
#
# Stress axis : x y z
#
# Youngs Moduli (GPa) = 68.39815 81.23878 80.50792
#
# Poissons Ratio (x) = -0.01491 0.30615
# Poissons Ratio (y) = -0.01255 0.46501
# Poissons Ratio (z) = 0.26010 0.46923
#
# Static dielectric constant tensor:
#      x y z
#    x 3.901400 0.000000 0.082150 
#    y 0.000000 3.634510 0.000000 
#    z 0.082150 0.000000 4.161510 
# 
# 
# High freq. dielectric constant tensor:
#      x y z
#    x 1.827040 0.000000 -0.001060 
#    y 0.000000 1.809130 0.000000 
#    z -0.001060 0.000000 1.838480 
# 
# From -- ./inp_files/42264.got.cif
#   From: 2010.06.25/outbox.cif.g09.slc.cpg/sg13_22_cif.got.tgz:42264.got - 2010.06.28 04:50:58.
