data_PCOD8118678
_publ_section_title
;
Structure prediction by ZEFSAII (Michael W. Deem and Ramdas Pophale) SiO2 
 PCOD8118678
Probable space group: P 2/C
;
_chemical_formula_sum "Si O2"
_cell_formula_units_Z 20
_cell_length_a 12.650424
_cell_length_b 10.964658
_cell_length_c 8.811566
_cell_angle_alpha 90.000000
_cell_angle_beta 55.090346
_cell_angle_gamma 90.000000
_cell_volume 1002.297150
_symmetry_space_group_name_H-M "P 2/C"
_symmetry_group_IT_number 13
_symmetry_cell_setting 'monoclinic'
loop_
_space_group_symop_operation_xyz
x,y,z
-x,y,1/2-z
-x,-y,-z
x,-y,1/2+z
loop_
_atom_site_type_symbol
_atom_site_label
_atom_site_fract_x
_atom_site_fract_y
_atom_site_fract_z
Si Si1 0.848618 0.348535 0.381018
Si Si2 0.134194 0.092982 0.227236
Si Si3 0.365691 0.332524 0.400836
Si Si4 0.280413 0.471096 0.743452
Si Si5 0.138402 0.858769 0.071119
O O1 0.788971 0.215546 0.386654
O O2 0.809441 0.382869 0.583102
O O3 0.809036 0.450379 0.293633
O O4 0.000000 0.333406 0.250000
O O5 0.113278 0.092132 0.423481
O O6 0.000000 0.082634 0.250000
O O7 0.204151 0.967111 0.117960
O O8 0.500000 0.262207 0.250000
O O9 0.372056 0.384812 0.566731
O O10 0.364742 0.444878 0.283486
O O11 0.238771 0.251909 0.484539
O O12 0.000000 0.812718 0.250000
#
# Coordination Sequence:
#
# PCOD8118678 Si02
#       5
#     4   4   4   4   4
#     4  10  20  34  59  93 124 149 198 250 303 356
#     4  10  21  37  61  89 126 155 199 241 307 358
#     4  11  24  42  63  87 122 160 204 247 302 360
#     4  10  22  38  60  84 121 163 198 243 303 364
#     4  11  23  39  65  90 120 159 204 249 300 355
#
# _framework density 19.954160999999999
#
# number of rings (size 3 to 8) (size 9 to 14) (size 15 to 20)
#    0.000    1.600    2.000    3.600    8.400    3.200 
#    0.000    1.000    0.000    0.000    0.000    0.000 
#    0.000    0.000    0.000    0.000    0.000    0.000 
#
# Total GULP energy -247911.984725 kJ/mol
# GULP energy per Si atom -12395.599236 kJ/mol
# Density = 1.990874 g / cm^3
# Si number density = 19.954161 Si / 1000 Ang^3
#
#
#
# Elastic Constant Matrix: (Units=GPa)
#
#
# Indices 1 2 3 4 5 6 
#
# 1 54.7666 18.5217 60.4674 0.0000 9.4470 0.0000
# 2 18.5217 88.0935 65.0056 0.0000 -3.7279 0.0000
# 3 60.4674 65.0056 153.4129 0.0000 12.7531 0.0000
# 4 0.0000 0.0000 0.0000 -20.4894 0.0000 -3.7591
# 5 9.4470 -3.7279 12.7531 0.0000 41.3904 0.0000
# 6 0.0000 0.0000 0.0000 -3.7591 0.0000 12.3144
#
#
#
# Elastic Compliance Matrix: (Units=1/GPa)
#
#
# Indices 1 2 3 4 5 6 
#
# 1 0.033543 0.003498 -0.014463 0.000000 -0.002884 0.000000
# 2 0.003498 0.017464 -0.009076 0.000000 0.003571 0.000000
# 3 -0.014463 -0.009076 0.016275 0.000000 -0.002531 0.000000
# 4 0.000000 0.000000 0.000000 -0.046217 0.000000 -0.014108
# 5 -0.002884 0.003571 -0.002531 0.000000 0.025920 0.000000
# 6 0.000000 0.000000 0.000000 -0.014108 0.000000 0.076899
#
#
# Mechanical properties :
#
#
# Convention : Reuss Voigt Hill
#
# Bulk Modulus (GPa) = 36.76421 64.91804 50.84112
# Shear Modulus (GPa) = 28.89633 16.79496 22.84565
#
# Velocity S-wave (km/s) = 3.80957 2.90431 3.38732
# Velocity P-wave (km/s) = 6.14937 6.62200 6.39006
#
# Compressibility (1/GPa) = 0.02720037
#
# Stress axis : x y z
#
# Youngs Moduli (GPa) = 29.81285 57.25936 61.44339
#
# Poissons Ratio (x) = -0.20031 0.88867
# Poissons Ratio (y) = -0.10429 0.55765
# Poissons Ratio (z) = 0.43119 0.51968
#
# Static dielectric constant tensor:
#      x y z
#    x 3.334850 0.000000 0.321790 
#    y 0.000000 4.259610 0.000000 
#    z 0.321790 0.000000 3.871180 
# 
# 
# High freq. dielectric constant tensor:
#      x y z
#    x 1.755560 0.000000 0.031000 
#    y 0.000000 1.785980 0.000000 
#    z 0.031000 0.000000 1.784540 
# 
# From -- ./inp_files/11754.got.cif
#   From: 2010.06.25/outbox.cif.g09.slc.cpg/sg13_6_cif.got.tgz:11754.got - 2010.06.28 04:50:58.
