data_PCOD8118076
_publ_section_title
;
Structure prediction by ZEFSAII (Michael W. Deem and Ramdas Pophale) SiO2 
 PCOD8118076
Probable space group: P 2/C
;
_chemical_formula_sum "Si O2"
_cell_formula_units_Z 24
_cell_length_a 15.776475
_cell_length_b 7.721032
_cell_length_c 15.543961
_cell_angle_alpha 90.000000
_cell_angle_beta 37.757497
_cell_angle_gamma 90.000000
_cell_volume 1159.380495
_symmetry_space_group_name_H-M "P 2/C"
_symmetry_group_IT_number 13
_symmetry_cell_setting 'monoclinic'
loop_
_space_group_symop_operation_xyz
x,y,z
-x,y,1/2-z
-x,-y,-z
x,-y,1/2+z
loop_
_atom_site_type_symbol
_atom_site_label
_atom_site_fract_x
_atom_site_fract_y
_atom_site_fract_z
Si Si1 0.255086 0.458119 0.067305
Si Si2 0.192668 0.466053 0.426081
Si Si3 0.546817 0.389731 0.882169
Si Si4 0.891999 0.893005 0.765318
Si Si5 0.247476 0.200545 0.688263
Si Si6 0.996226 0.244078 0.490257
O O1 0.157340 0.300147 0.172689
O O2 0.238820 0.612748 0.148714
O O3 0.214464 0.544934 0.010215
O O4 0.408865 0.372678 0.935458
O O5 0.335970 0.513583 0.265963
O O6 0.066579 0.595501 0.511544
O O7 0.137654 0.286350 0.429683
O O8 0.611098 0.207783 0.867479
O O9 0.500000 0.500000 0.000000
O O10 0.000000 0.958724 0.750000
O O11 0.966127 0.896197 0.612652
O O12 0.763467 0.032848 0.865845
O O13 0.117407 0.173039 0.854042
#
# Coordination Sequence:
#
# PCOD8118076 Si02
#       6
#     4   4   4   4   4   4
#     4  11  22  39  63  88 123 159 200 254 298 361
#     4  10  19  35  63  90 118 159 201 242 305 360
#     4   9  19  39  61  86 116 159 203 241 297 360
#     4  12  24  38  60  92 122 159 208 253 301 361
#     4  10  24  39  62  89 123 161 200 250 308 360
#     4  10  20  37  58  88 124 158 197 249 304 357
#
# _framework density 20.700710999999998
#
# number of rings (size 3 to 8) (size 9 to 14) (size 15 to 20)
#    0.000    1.667    1.667    5.000    2.333    0.667 
#    0.000    0.000    0.000    4.000    0.000    0.000 
#    0.000    0.000    0.000    0.000    0.000    0.000 
#
# Total GULP energy -297342.314326 kJ/mol
# GULP energy per Si atom -12389.263097 kJ/mol
# Density = 2.065360 g / cm^3
# Si number density = 20.700711 Si / 1000 Ang^3
#
#
#
# Elastic Constant Matrix: (Units=GPa)
#
#
# Indices 1 2 3 4 5 6 
#
# 1 138.8207 36.1027 41.0415 0.0000 -2.5608 0.0000
# 2 36.1027 83.2605 21.4891 0.0000 2.2848 0.0000
# 3 41.0415 21.4891 97.9007 0.0000 -0.8475 0.0000
# 4 0.0000 0.0000 0.0000 8.3972 0.0000 -3.5845
# 5 -2.5608 2.2848 -0.8475 0.0000 32.6766 0.0000
# 6 0.0000 0.0000 0.0000 -3.5845 0.0000 22.0732
#
#
#
# Elastic Compliance Matrix: (Units=1/GPa)
#
#
# Indices 1 2 3 4 5 6 
#
# 1 0.008930 -0.003107 -0.003054 0.000000 0.000838 0.000000
# 2 -0.003107 0.013843 -0.001747 0.000000 -0.001257 0.000000
# 3 -0.003054 -0.001747 0.011880 0.000000 0.000191 0.000000
# 4 0.000000 0.000000 0.000000 0.127957 0.000000 0.020779
# 5 0.000838 -0.001257 0.000191 0.000000 0.030761 0.000000
# 6 0.000000 0.000000 0.000000 0.020779 0.000000 0.048678
#
#
# Mechanical properties :
#
#
# Convention : Reuss Voigt Hill
#
# Bulk Modulus (GPa) = 53.08808 57.47206 55.28007
# Shear Modulus (GPa) = 18.92900 27.38596 23.15748
#
# Velocity S-wave (km/s) = 3.02721 3.64118 3.34830
# Velocity P-wave (km/s) = 6.15791 6.74546 6.45837
#
# Compressibility (1/GPa) = 0.01883662
#
# Stress axis : x y z
#
# Youngs Moduli (GPa) = 111.98219 72.23860 84.17512
#
# Poissons Ratio (x) = 0.22443 0.25710
# Poissons Ratio (y) = 0.34791 0.14705
# Poissons Ratio (z) = 0.34204 0.12620
#
# Static dielectric constant tensor:
#      x y z
#    x 4.384860 0.000000 0.051430 
#    y 0.000000 3.617900 0.000000 
#    z 0.051430 0.000000 13.964790 
# 
# 
# High freq. dielectric constant tensor:
#      x y z
#    x 1.823780 0.000000 0.001450 
#    y 0.000000 1.790200 0.000000 
#    z 0.001450 0.000000 1.808130 
# 
# From -- ./inp_files/52896.got.cif
#   From: 2010.06.25/outbox.cif.g09.slc.cpg/sg13_27_cif.got.tgz:52896.got - 2010.06.28 04:50:58.
