data_PCOD8118743
_publ_section_title
;
Structure prediction by ZEFSAII (Michael W. Deem and Ramdas Pophale) SiO2 
 PCOD8118743
Probable space group: P 2/C
;
_chemical_formula_sum "Si O2"
_cell_formula_units_Z 24
_cell_length_a 13.258719
_cell_length_b 5.035742
_cell_length_c 16.866118
_cell_angle_alpha 90.000000
_cell_angle_beta 100.878038
_cell_angle_gamma 90.000000
_cell_volume 1105.873431
_symmetry_space_group_name_H-M "P 2/C"
_symmetry_group_IT_number 13
_symmetry_cell_setting 'monoclinic'
loop_
_space_group_symop_operation_xyz
x,y,z
-x,y,1/2-z
-x,-y,-z
x,-y,1/2+z
loop_
_atom_site_type_symbol
_atom_site_label
_atom_site_fract_x
_atom_site_fract_y
_atom_site_fract_z
Si Si1 0.895141 0.896263 0.884195
Si Si2 0.000000 0.116164 0.750000
Si Si3 0.704238 0.345136 0.294268
Si Si4 0.839055 0.238999 0.602574
Si Si5 0.677538 0.172526 0.697892
Si Si6 0.500000 0.567096 0.250000
Si Si7 0.095454 0.275139 0.479978
O O1 0.931979 0.931287 0.798944
O O2 0.783385 0.756356 0.872159
O O3 0.972064 0.700180 0.945203
O O4 0.887499 0.184005 0.926443
O O5 0.921412 0.294952 0.686026
O O6 0.698619 0.131125 0.222382
O O7 0.742415 0.629573 0.265992
O O8 0.586276 0.386220 0.307977
O O9 0.721618 0.227721 0.616711
O O10 0.865068 0.954729 0.571644
O O11 0.844772 0.458865 0.534700
O O12 0.556914 0.252036 0.691040
#
# Coordination Sequence:
#
# PCOD8118743 Si02
#       7
#     4   2   4   4   4   2   4
#     4  10  22  40  58  89 121 161 197 238 294 350
#     4  10  22  34  64  88 118 152 206 246 278 348
#     4  10  20  35  59  86 115 147 190 254 295 338
#     4  11  22  38  58  85 120 161 193 242 291 348
#     4  10  20  35  56  90 112 145 190 253 293 341
#     4   8  22  32  60  90 114 138 192 268 302 320
#     4  10  25  38  56  84 130 163 190 231 294 367
#
# _framework density 21.702300999999999
#
# number of rings (size 3 to 8) (size 9 to 14) (size 15 to 20)
#    1.000    1.000    1.667    1.500    4.667    8.000 
#    0.000    0.000    0.000    2.000    0.000    0.000 
#    0.000    0.000    0.000    0.000    0.000    0.000 
#
# Total GULP energy -297321.017216 kJ/mol
# GULP energy per Si atom -12388.375717 kJ/mol
# Density = 2.165291 g / cm^3
# Si number density = 21.702301 Si / 1000 Ang^3
#
#
#
# Elastic Constant Matrix: (Units=GPa)
#
#
# Indices 1 2 3 4 5 6 
#
# 1 129.5969 2.1698 25.1154 0.0000 -16.0732 0.0000
# 2 2.1698 38.7697 -13.3529 0.0000 -4.5963 0.0000
# 3 25.1154 -13.3529 62.7555 0.0000 -9.9029 0.0000
# 4 0.0000 0.0000 0.0000 21.0796 0.0000 2.2578
# 5 -16.0732 -4.5963 -9.9029 0.0000 29.9825 0.0000
# 6 0.0000 0.0000 0.0000 2.2578 0.0000 15.8685
#
#
#
# Elastic Compliance Matrix: (Units=1/GPa)
#
#
# Indices 1 2 3 4 5 6 
#
# 1 0.008791 -0.001192 -0.003225 0.000000 0.003465 0.000000
# 2 -0.001192 0.029276 0.007716 0.000000 0.006397 0.000000
# 3 -0.003225 0.007716 0.019814 0.000000 0.005998 0.000000
# 4 0.000000 0.000000 0.000000 0.048173 0.000000 -0.006854
# 5 0.003465 0.006397 0.005998 0.000000 0.038172 0.000000
# 6 0.000000 0.000000 0.000000 -0.006854 0.000000 0.063993
#
#
# Mechanical properties :
#
#
# Convention : Reuss Voigt Hill
#
# Bulk Modulus (GPa) = 15.50915 28.77630 22.14273
# Shear Modulus (GPa) = 22.41001 27.86544 25.13772
#
# Velocity S-wave (km/s) = 3.21691 3.58716 3.40707
# Velocity P-wave (km/s) = 4.57819 5.51773 5.06977
#
# Compressibility (1/GPa) = 0.06447805
#
# Stress axis : x y z
#
# Youngs Moduli (GPa) = 113.75377 34.15776 50.46978
#
# Poissons Ratio (x) = 0.04072 0.16277
# Poissons Ratio (y) = 0.13560 -0.38941
# Poissons Ratio (z) = 0.36687 -0.26355
#
# Static dielectric constant tensor:
#      x y z
#    x 4.033460 0.000000 -0.167330 
#    y 0.000000 3.846050 0.000000 
#    z -0.167330 0.000000 3.654210 
# 
# 
# High freq. dielectric constant tensor:
#      x y z
#    x 1.846110 0.000000 -0.023180 
#    y 0.000000 1.862290 0.000000 
#    z -0.023180 0.000000 1.814420 
# 
# From -- ./inp_files/51942.got.cif
#   From: 2010.06.25/outbox.cif.g09.slc.cpg/sg13_26_cif.got.tgz:51942.got - 2010.06.28 04:50:58.
