data_PCOD8118999
_publ_section_title
;
Structure prediction by ZEFSAII (Michael W. Deem and Ramdas Pophale) SiO2 
 PCOD8118999
Probable space group: P 2/C
;
_chemical_formula_sum "Si O2"
_cell_formula_units_Z 14
_cell_length_a 8.766922
_cell_length_b 9.853467
_cell_length_c 8.935268
_cell_angle_alpha 90.000000
_cell_angle_beta 56.254262
_cell_angle_gamma 90.000000
_cell_volume 641.817800
_symmetry_space_group_name_H-M "P 2/C"
_symmetry_group_IT_number 13
_symmetry_cell_setting 'monoclinic'
loop_
_space_group_symop_operation_xyz
x,y,z
-x,y,1/2-z
-x,-y,-z
x,-y,1/2+z
loop_
_atom_site_type_symbol
_atom_site_label
_atom_site_fract_x
_atom_site_fract_y
_atom_site_fract_z
Si Si1 0.692998 0.317233 0.188763
Si Si2 0.800722 0.436444 0.426838
Si Si3 0.000000 0.973547 0.250000
Si Si4 0.076968 0.816618 0.476638
O O1 0.500000 0.246058 0.250000
O O2 0.670471 0.387165 0.363778
O O3 0.726306 0.430289 0.044305
O O4 0.856258 0.208244 0.101672
O O5 0.813123 0.320250 0.548827
O O6 0.000000 0.466151 0.250000
O O7 0.873060 0.875980 0.214489
O O8 0.876036 0.069737 0.423838
#
# Coordination Sequence:
#
# PCOD8118999 Si02
#       4
#     4   4   2   4
#     4  11  22  36  56  87 119 141 175 234 290 327
#     4  10  20  37  58  84 111 145 189 227 269 336
#     4  10  20  36  62  80 102 152 194 230 254 318
#     4  10  20  37  60  81 109 142 198 221 268 325
#
# _framework density 21.813044999999999
#
# number of rings (size 3 to 8) (size 9 to 14) (size 15 to 20)
#    0.000    1.714    4.286    4.286    6.000    0.000 
#    0.000    1.429    0.000    0.000    0.000    0.000 
#    0.000    0.000    0.000    0.000    0.000    0.000 
#
# Total GULP energy -173525.335035 kJ/mol
# GULP energy per Si atom -12394.666788 kJ/mol
# Density = 2.176340 g / cm^3
# Si number density = 21.813045 Si / 1000 Ang^3
#
#
#
# Elastic Constant Matrix: (Units=GPa)
#
#
# Indices 1 2 3 4 5 6 
#
# 1 102.5707 10.5303 28.8480 0.0000 8.8769 0.0000
# 2 10.5303 70.1507 30.0018 0.0000 1.7851 0.0000
# 3 28.8480 30.0018 65.2756 0.0000 31.6281 0.0000
# 4 0.0000 0.0000 0.0000 29.3001 0.0000 16.0014
# 5 8.8769 1.7851 31.6281 0.0000 31.3848 0.0000
# 6 0.0000 0.0000 0.0000 16.0014 0.0000 19.1292
#
#
#
# Elastic Compliance Matrix: (Units=1/GPa)
#
#
# Indices 1 2 3 4 5 6 
#
# 1 0.011467 0.001681 -0.008252 0.000000 0.004977 0.000000
# 2 0.001681 0.021874 -0.019471 0.000000 0.017902 0.000000
# 3 -0.008252 -0.019471 0.051295 0.000000 -0.048251 0.000000
# 4 0.000000 0.000000 0.000000 0.062834 0.000000 -0.052560
# 5 0.004977 0.017902 -0.048251 0.000000 0.078062 0.000000
# 6 0.000000 0.000000 0.000000 -0.052560 0.000000 0.096242
#
#
# Mechanical properties :
#
#
# Convention : Reuss Voigt Hill
#
# Bulk Modulus (GPa) = 30.71942 41.86193 36.29068
# Shear Modulus (GPa) = 12.99686 27.20393 20.10040
#
# Velocity S-wave (km/s) = 2.44361 3.53532 3.03889
# Velocity P-wave (km/s) = 4.69843 5.99146 5.38390
#
# Compressibility (1/GPa) = 0.03255269
#
# Stress axis : x y z
#
# Youngs Moduli (GPa) = 87.20755 45.71539 19.49504
#
# Poissons Ratio (x) = -0.07686 0.16087
# Poissons Ratio (y) = -0.14661 0.37959
# Poissons Ratio (z) = 0.71963 0.89013
#
# Static dielectric constant tensor:
#      x y z
#    x 4.027050 0.000000 0.543520 
#    y 0.000000 3.945420 0.000000 
#    z 0.543520 0.000000 3.876280 
# 
# 
# High freq. dielectric constant tensor:
#      x y z
#    x 1.837350 0.000000 0.053330 
#    y 0.000000 1.859030 0.000000 
#    z 0.053330 0.000000 1.839480 
# 
# From -- ./inp_files/10800.got.cif
#   From: 2010.06.25/outbox.cif.g09.slc.cpg/sg13_6_cif.got.tgz:10800.got - 2010.06.28 04:50:58.
