data_PCOD8118797
_publ_section_title
;
Structure prediction by ZEFSAII (Michael W. Deem and Ramdas Pophale) SiO2 
 PCOD8118797
Probable space group: P 2/C
;
_chemical_formula_sum "Si O2"
_cell_formula_units_Z 28
_cell_length_a 11.014627
_cell_length_b 22.054139
_cell_length_c 5.439740
_cell_angle_alpha 90.000000
_cell_angle_beta 98.628165
_cell_angle_gamma 90.000000
_cell_volume 1306.456649
_symmetry_space_group_name_H-M "P 2/C"
_symmetry_group_IT_number 13
_symmetry_cell_setting 'monoclinic'
loop_
_space_group_symop_operation_xyz
x,y,z
-x,y,1/2-z
-x,-y,-z
x,-y,1/2+z
loop_
_atom_site_type_symbol
_atom_site_label
_atom_site_fract_x
_atom_site_fract_y
_atom_site_fract_z
Si Si1 0.862821 0.422543 0.733079
Si Si2 0.856989 0.035106 0.701619
Si Si3 0.320141 0.127143 0.049247
Si Si4 0.361242 0.483468 0.339620
Si Si5 0.776545 0.368763 0.198722
Si Si6 0.500000 0.962547 0.750000
Si Si7 0.500000 0.818040 0.250000
Si Si8 0.634975 0.245127 0.175070
O O1 0.767674 0.478715 0.730228
O O2 0.840751 0.383519 0.478496
O O3 0.000000 0.449880 0.750000
O O4 0.858202 0.379397 0.976399
O O5 0.792125 0.100697 0.645842
O O6 0.000000 0.049253 0.750000
O O7 0.820503 0.993177 0.455191
O O8 0.372658 0.075453 0.245378
O O9 0.288294 0.191026 0.169206
O O10 0.442998 0.137966 0.930866
O O11 0.432810 0.509052 0.601043
O O12 0.339981 0.412701 0.370689
O O13 0.726101 0.301237 0.198438
O O14 0.500000 0.000000 0.500000
O O15 0.608543 0.775301 0.388683
O O16 0.500000 0.258925 0.250000
#
# Coordination Sequence:
#
# PCOD8118797 Si02
#       8
#     4   4   4   4   4   2   2   4
#     4  10  20  35  59  89 123 157 196 254 317 363
#     4  10  23  42  65  93 125 167 206 239 294 374
#     4  11  22  39  62  94 125 160 202 256 311 366
#     4   8  16  30  51  82 114 148 191 242 304 355
#     4  10  21  35  58  87 116 159 203 246 293 368
#     4  12  23  34  58  96 128 147 184 258 322 350
#     4  10  21  40  64  88 118 159 208 250 316 360
#     4  10  23  40  62  85 117 165 206 252 306 373
#
# _framework density 21.432016000000001
#
# number of rings (size 3 to 8) (size 9 to 14) (size 15 to 20)
#    0.000    2.000    2.143    1.714    6.000    5.143 
#    0.000    0.714    3.143    7.714    0.000    0.000 
#    0.000    0.000    0.000    0.000    0.000    0.000 
#
# Total GULP energy -346895.666718 kJ/mol
# GULP energy per Si atom -12389.130954 kJ/mol
# Density = 2.138324 g / cm^3
# Si number density = 21.432016 Si / 1000 Ang^3
#
#
#
# Elastic Constant Matrix: (Units=GPa)
#
#
# Indices 1 2 3 4 5 6 
#
# 1 75.4591 39.2185 26.3134 0.0000 2.0195 0.0000
# 2 39.2185 136.2632 45.8587 0.0000 6.5419 0.0000
# 3 26.3134 45.8587 148.8784 0.0000 -12.7520 0.0000
# 4 0.0000 0.0000 0.0000 21.0553 0.0000 3.4132
# 5 2.0195 6.5419 -12.7520 0.0000 32.6383 0.0000
# 6 0.0000 0.0000 0.0000 3.4132 0.0000 25.8028
#
#
#
# Elastic Compliance Matrix: (Units=1/GPa)
#
#
# Indices 1 2 3 4 5 6 
#
# 1 0.015924 -0.003985 -0.001658 0.000000 -0.000835 0.000000
# 2 -0.003985 0.009424 -0.002420 0.000000 -0.002588 0.000000
# 3 -0.001658 -0.002420 0.008076 0.000000 0.003743 0.000000
# 4 0.000000 0.000000 0.000000 0.048535 0.000000 -0.006420
# 5 -0.000835 -0.002588 0.003743 0.000000 0.032672 0.000000
# 6 0.000000 0.000000 0.000000 -0.006420 0.000000 0.039605
#
#
# Mechanical properties :
#
#
# Convention : Reuss Voigt Hill
#
# Bulk Modulus (GPa) = 57.81328 64.82021 61.31674
# Shear Modulus (GPa) = 28.38829 32.51331 30.45080
#
# Velocity S-wave (km/s) = 3.64342 3.89915 3.77345
# Velocity P-wave (km/s) = 6.68828 7.11206 6.90342
#
# Compressibility (1/GPa) = 0.01729707
#
# Stress axis : x y z
#
# Youngs Moduli (GPa) = 62.79840 106.10680 123.82098
#
# Poissons Ratio (x) = 0.42283 0.20536
# Poissons Ratio (y) = 0.25025 0.29969
# Poissons Ratio (z) = 0.10415 0.25682
#
# Static dielectric constant tensor:
#      x y z
#    x 3.737110 0.000000 -0.163890 
#    y 0.000000 3.715600 0.000000 
#    z -0.163890 0.000000 4.969570 
# 
# 
# High freq. dielectric constant tensor:
#      x y z
#    x 1.831440 0.000000 -0.003050 
#    y 0.000000 1.824040 0.000000 
#    z -0.003050 0.000000 1.877510 
# 
# From -- ./inp_files/4179.got.cif
#   From: 2010.06.25/outbox.cif.g09.slc.cpg/sg13_3_cif.got.tgz:4179.got - 2010.06.28 04:50:58.
