data_PCOD8118901
_publ_section_title
;
Structure prediction by ZEFSAII (Michael W. Deem and Ramdas Pophale) SiO2 
 PCOD8118901
Probable space group: P 2/C
;
_chemical_formula_sum "Si O2"
_cell_formula_units_Z 32
_cell_length_a 19.660160
_cell_length_b 13.814997
_cell_length_c 9.403095
_cell_angle_alpha 90.000000
_cell_angle_beta 41.824443
_cell_angle_gamma 90.000000
_cell_volume 1703.088072
_symmetry_space_group_name_H-M "P 2/C"
_symmetry_group_IT_number 13
_symmetry_cell_setting 'monoclinic'
loop_
_space_group_symop_operation_xyz
x,y,z
-x,y,1/2-z
-x,-y,-z
x,-y,1/2+z
loop_
_atom_site_type_symbol
_atom_site_label
_atom_site_fract_x
_atom_site_fract_y
_atom_site_fract_z
Si Si1 0.810324 0.678557 0.211425
Si Si2 0.114644 0.184262 0.125703
Si Si3 0.074410 0.510509 0.011320
Si Si4 0.599326 0.611657 0.169687
Si Si5 0.401517 0.589932 0.986832
Si Si6 0.803273 0.694883 0.757253
Si Si7 0.075336 0.019927 0.756352
Si Si8 0.113323 0.224739 0.637975
O O1 0.867189 0.589705 0.042635
O O2 0.691440 0.657343 0.415164
O O3 0.865591 0.693948 0.276049
O O4 0.814724 0.774922 0.108789
O O5 0.119297 0.253849 0.254344
O O6 0.147344 0.073614 0.114545
O O7 0.000000 0.180865 0.250000
O O8 0.159825 0.588939 0.843925
O O9 0.000000 0.546015 0.250000
O O10 0.000000 0.500000 0.000000
O O11 0.500000 0.660286 0.250000
O O12 0.584343 0.588062 0.362000
O O13 0.620428 0.516028 0.042996
O O14 0.692515 0.686335 0.003115
O O15 0.500000 0.632279 0.750000
O O16 0.802850 0.761399 0.617137
O O17 0.000000 0.046399 0.750000
O O18 0.137263 0.120414 0.675358
O O19 0.000000 0.000000 0.000000
O O20 0.000000 0.240287 0.750000
#
# Coordination Sequence:
#
# PCOD8118901 Si02
#       8
#     4   4   4   4   4   4   4   4
#     4  12  23  37  58  84 119 159 203 238 294 354
#     4  11  21  37  58  83 120 158 198 245 290 353
#     4  12  24  34  49  76 121 164 187 218 270 345
#     4  11  24  42  63  86 115 155 202 259 300 344
#     4  11  24  42  64  86 113 155 205 256 301 345
#     4  12  23  37  57  85 121 157 202 238 293 359
#     4  10  20  36  58  82 117 158 205 252 295 334
#     4  11  23  37  56  89 121 162 200 244 290 351
#
# _framework density 18.789399
#
# number of rings (size 3 to 8) (size 9 to 14) (size 15 to 20)
#    0.000    0.750    2.500    9.000    3.500    0.000 
#    0.000    0.000    0.000    0.000    0.000    5.250 
#    0.000    0.000    0.000    0.000    0.000    0.000 
#
# Total GULP energy -396598.737447 kJ/mol
# GULP energy per Si atom -12393.710545 kJ/mol
# Density = 1.874663 g / cm^3
# Si number density = 18.789399 Si / 1000 Ang^3
#
#
#
# Elastic Constant Matrix: (Units=GPa)
#
#
# Indices 1 2 3 4 5 6 
#
# 1 86.0988 35.8326 38.2209 0.0000 10.4771 0.0000
# 2 35.8326 92.7466 39.8314 0.0000 -5.9614 0.0000
# 3 38.2209 39.8314 112.0251 0.0000 6.3509 0.0000
# 4 0.0000 0.0000 0.0000 32.0582 0.0000 7.0733
# 5 10.4771 -5.9614 6.3509 0.0000 40.5182 0.0000
# 6 0.0000 0.0000 0.0000 7.0733 0.0000 15.4075
#
#
#
# Elastic Compliance Matrix: (Units=1/GPa)
#
#
# Indices 1 2 3 4 5 6 
#
# 1 0.015653 -0.004874 -0.003368 0.000000 -0.004237 0.000000
# 2 -0.004874 0.014521 -0.003726 0.000000 0.003981 0.000000
# 3 -0.003368 -0.003726 0.011484 0.000000 -0.001477 0.000000
# 4 0.000000 0.000000 0.000000 0.034709 0.000000 -0.015934
# 5 -0.004237 0.003981 -0.001477 0.000000 0.026593 0.000000
# 6 0.000000 0.000000 0.000000 -0.015934 0.000000 0.072219
#
#
# Mechanical properties :
#
#
# Convention : Reuss Voigt Hill
#
# Bulk Modulus (GPa) = 56.42049 57.62670 57.02360
# Shear Modulus (GPa) = 24.38767 29.39581 26.89174
#
# Velocity S-wave (km/s) = 3.60661 3.95965 3.78725
# Velocity P-wave (km/s) = 6.88742 7.18620 7.03840
#
# Compressibility (1/GPa) = 0.01772406
#
# Stress axis : x y z
#
# Youngs Moduli (GPa) = 63.88383 68.86553 87.07729
#
# Poissons Ratio (x) = 0.33564 0.29324
# Poissons Ratio (y) = 0.31136 0.32444
# Poissons Ratio (z) = 0.21513 0.25659
#
# Static dielectric constant tensor:
#      x y z
#    x 3.509690 0.000000 0.145340 
#    y 0.000000 3.767460 0.000000 
#    z 0.145340 0.000000 3.617290 
# 
# 
# High freq. dielectric constant tensor:
#      x y z
#    x 1.723110 0.000000 0.029680 
#    y 0.000000 1.720180 0.000000 
#    z 0.029680 0.000000 1.730860 
# 
# From -- ./inp_files/23540.got.cif
#   From: 2010.06.25/outbox.cif.g09.slc.cpg/sg13_12_cif.got.tgz:23540.got - 2010.06.28 04:50:58.
