data_PCOD8118362
_publ_section_title
;
Structure prediction by ZEFSAII (Michael W. Deem and Ramdas Pophale) SiO2 
 PCOD8118362
Probable space group: P 2/C
;
_chemical_formula_sum "Si O2"
_cell_formula_units_Z 16
_cell_length_a 12.386840
_cell_length_b 9.374567
_cell_length_c 8.328435
_cell_angle_alpha 90.000000
_cell_angle_beta 136.108258
_cell_angle_gamma 90.000000
_cell_volume 670.494274
_symmetry_space_group_name_H-M "P 2/C"
_symmetry_group_IT_number 13
_symmetry_cell_setting 'monoclinic'
loop_
_space_group_symop_operation_xyz
x,y,z
-x,y,1/2-z
-x,-y,-z
x,-y,1/2+z
loop_
_atom_site_type_symbol
_atom_site_label
_atom_site_fract_x
_atom_site_fract_y
_atom_site_fract_z
Si Si1 0.830356 0.449000 0.864804
Si Si2 0.676214 0.049758 0.188490
Si Si3 0.172429 0.827819 0.961271
Si Si4 0.811336 0.291423 0.535291
O O1 0.748809 0.362157 0.633229
O O2 0.830040 0.342766 0.018372
O O3 0.752127 0.597022 0.834911
O O4 0.000000 0.500000 0.000000
O O5 0.717574 0.132404 0.070380
O O6 0.722021 0.145481 0.395004
O O7 0.772706 0.903644 0.314773
O O8 0.500000 0.000000 0.000000
O O9 0.000000 0.886062 0.750000
O O10 0.000000 0.269352 0.750000
#
# Coordination Sequence:
#
# PCOD8118362 Si02
#       4
#     4   4   4   4
#     4  10  20  37  68 105 136 170 229 296 347 405
#     4  12  26  43  65 101 146 190 234 286 345 415
#     4  12  23  42  69 100 134 184 237 291 348 414
#     4  10  19  38  65 100 136 180 231 287 344 412
#
# _framework density 23.862994
#
# number of rings (size 3 to 8) (size 9 to 14) (size 15 to 20)
#    0.000    1.000    0.000   10.500    0.000    0.000 
#    0.000    1.250    0.000    6.000    0.000    0.000 
#    0.000    0.000    0.000    0.000    0.000    0.000 
#
# Total GULP energy -198255.573253 kJ/mol
# GULP energy per Si atom -12390.973328 kJ/mol
# Density = 2.380868 g / cm^3
# Si number density = 23.862994 Si / 1000 Ang^3
#
#
#
# Elastic Constant Matrix: (Units=GPa)
#
#
# Indices 1 2 3 4 5 6 
#
# 1 96.5029 26.0165 31.8353 0.0000 6.0029 0.0000
# 2 26.0165 131.2190 45.3727 0.0000 16.4726 0.0000
# 3 31.8353 45.3727 97.9961 0.0000 12.8310 0.0000
# 4 0.0000 0.0000 0.0000 36.8279 0.0000 -21.4675
# 5 6.0029 16.4726 12.8310 0.0000 33.2022 0.0000
# 6 0.0000 0.0000 0.0000 -21.4675 0.0000 41.1079
#
#
#
# Elastic Compliance Matrix: (Units=1/GPa)
#
#
# Indices 1 2 3 4 5 6 
#
# 1 0.011766 -0.001176 -0.003240 0.000000 -0.000292 0.000000
# 2 -0.001176 0.009490 -0.003606 0.000000 -0.003102 0.000000
# 3 -0.003240 -0.003606 0.013288 0.000000 -0.002760 0.000000
# 4 0.000000 0.000000 0.000000 0.039037 0.000000 0.020386
# 5 -0.000292 -0.003102 -0.002760 0.000000 0.032777 0.000000
# 6 0.000000 0.000000 0.000000 0.020386 0.000000 0.034972
#
#
# Mechanical properties :
#
#
# Convention : Reuss Voigt Hill
#
# Bulk Modulus (GPa) = 54.04994 59.12967 56.58980
# Shear Modulus (GPa) = 30.57344 37.06050 33.81697
#
# Velocity S-wave (km/s) = 3.58328 3.94515 3.76856
# Velocity P-wave (km/s) = 6.31024 6.75166 6.53468
#
# Compressibility (1/GPa) = 0.01850141
#
# Stress axis : x y z
#
# Youngs Moduli (GPa) = 84.98822 105.37106 75.25650
#
# Poissons Ratio (x) = 0.12392 0.24381
# Poissons Ratio (y) = 0.09995 0.27136
# Poissons Ratio (z) = 0.27534 0.37995
#
# Static dielectric constant tensor:
#      x y z
#    x 4.225810 0.000000 -0.646220 
#    y 0.000000 4.833920 0.000000 
#    z -0.646220 0.000000 4.418190 
# 
# 
# High freq. dielectric constant tensor:
#      x y z
#    x 1.918880 0.000000 -0.040070 
#    y 0.000000 1.977310 0.000000 
#    z -0.040070 0.000000 1.930580 
# 
# From -- ./inp_files/10850.got.cif
#   From: 2010.06.25/outbox.cif.g09.slc.cpg/sg13_6_cif.got.tgz:10850.got - 2010.06.28 04:50:58.
