data_PCOD8118978
_publ_section_title
;
Structure prediction by ZEFSAII (Michael W. Deem and Ramdas Pophale) SiO2 
 PCOD8118978
Probable space group: P 2/C
;
_chemical_formula_sum "Si O2"
_cell_formula_units_Z 26
_cell_length_a 7.847879
_cell_length_b 10.753617
_cell_length_c 18.203721
_cell_angle_alpha 90.000000
_cell_angle_beta 118.210725
_cell_angle_gamma 90.000000
_cell_volume 1353.782531
_symmetry_space_group_name_H-M "P 2/C"
_symmetry_group_IT_number 13
_symmetry_cell_setting 'monoclinic'
loop_
_space_group_symop_operation_xyz
x,y,z
-x,y,1/2-z
-x,-y,-z
x,-y,1/2+z
loop_
_atom_site_type_symbol
_atom_site_label
_atom_site_fract_x
_atom_site_fract_y
_atom_site_fract_z
Si Si1 0.452568 0.293794 0.974218
Si Si2 0.369997 0.534117 0.870322
Si Si3 0.500000 0.008015 0.750000
Si Si4 0.500000 0.412309 0.250000
Si Si5 0.000000 0.674851 0.750000
Si Si6 0.713902 0.119738 0.927532
Si Si7 0.205725 0.799803 0.675186
Si Si8 0.855582 0.860511 0.004709
O O1 0.357020 0.404868 0.909476
O O2 0.617813 0.221737 0.961424
O O3 0.543980 0.351764 0.065627
O O4 0.274619 0.206641 0.961179
O O5 0.501908 0.506578 0.824896
O O6 0.162588 0.576515 0.802870
O O7 0.316388 0.920137 0.730032
O O8 0.553657 0.090090 0.832280
O O9 0.684858 0.326099 0.284781
O O10 0.016724 0.772660 0.685064
O O11 0.780676 0.002669 0.990974
O O12 0.916639 0.160438 0.929384
O O13 0.169152 0.807860 0.581905
#
# Coordination Sequence:
#
# PCOD8118978 Si02
#       8
#     4   4   2   2   2   4   4   4
#     4  11  22  41  60  89 123 161 194 244 302 360
#     4  10  22  38  60  89 118 155 205 242 298 353
#     4   9  20  39  54  88 118 155 199 242 306 356
#     4   9  16  35  58  80 114 155 187 248 290 332
#     4  10  20  36  60  92 112 150 204 256 286 344
#     4  10  22  39  61  87 122 161 198 243 300 357
#     4   9  17  34  61  83 114 146 201 250 287 342
#     4  10  20  40  62  88 118 155 203 245 293 362
#
# _framework density 19.205448000000001
#
# number of rings (size 3 to 8) (size 9 to 14) (size 15 to 20)
#    0.000    2.154    1.538    1.385    2.154    0.615 
#   16.615    2.308    0.000    0.000    0.000    0.000 
#    0.000    0.000    0.000    0.000    0.000    0.000 
#
# Total GULP energy -322113.840680 kJ/mol
# GULP energy per Si atom -12388.993872 kJ/mol
# Density = 1.916174 g / cm^3
# Si number density = 19.205448 Si / 1000 Ang^3
#
#
#
# Elastic Constant Matrix: (Units=GPa)
#
#
# Indices 1 2 3 4 5 6 
#
# 1 102.6858 47.5896 38.8241 0.0000 -8.2261 0.0000
# 2 47.5896 71.8592 25.8869 0.0000 -4.2740 0.0000
# 3 38.8241 25.8869 95.1056 0.0000 0.7508 0.0000
# 4 0.0000 0.0000 0.0000 14.0649 0.0000 -3.8260
# 5 -8.2261 -4.2740 0.7508 0.0000 27.7713 0.0000
# 6 0.0000 0.0000 0.0000 -3.8260 0.0000 29.8600
#
#
#
# Elastic Compliance Matrix: (Units=1/GPa)
#
#
# Indices 1 2 3 4 5 6 
#
# 1 0.015530 -0.008638 -0.004015 0.000000 0.003379 0.000000
# 2 -0.008638 0.020407 -0.002034 0.000000 0.000637 0.000000
# 3 -0.004015 -0.002034 0.012722 0.000000 -0.001846 0.000000
# 4 0.000000 0.000000 0.000000 0.073666 0.000000 0.009439
# 5 0.003379 0.000637 -0.001846 0.000000 0.037157 0.000000
# 6 0.000000 0.000000 0.000000 0.009439 0.000000 0.034699
#
#
# Mechanical properties :
#
#
# Convention : Reuss Voigt Hill
#
# Bulk Modulus (GPa) = 51.85108 54.91689 53.38398
# Shear Modulus (GPa) = 21.74062 24.82925 23.28493
#
# Velocity S-wave (km/s) = 3.36817 3.59949 3.48575
# Velocity P-wave (km/s) = 6.49483 6.77728 6.63756
#
# Compressibility (1/GPa) = 0.01928600
#
# Stress axis : x y z
#
# Youngs Moduli (GPa) = 64.38944 49.00286 78.60460
#
# Poissons Ratio (x) = 0.42327 0.31563
# Poissons Ratio (y) = 0.55618 0.15985
# Poissons Ratio (z) = 0.25855 0.09965
#
# Static dielectric constant tensor:
#      x y z
#    x 3.667430 0.000000 -0.073220 
#    y 0.000000 3.433030 0.000000 
#    z -0.073220 0.000000 3.607150 
# 
# 
# High freq. dielectric constant tensor:
#      x y z
#    x 1.751050 0.000000 -0.003410 
#    y 0.000000 1.735800 0.000000 
#    z -0.003410 0.000000 1.748900 
# 
# From -- ./inp_files/64127.got.cif
#   From: 2010.06.25/outbox.cif.g09.slc.cpg/sg13_33_cif.got.tgz:64127.got - 2010.06.28 04:50:58.
