data_PCOD8118305
_publ_section_title
;
Structure prediction by ZEFSAII (Michael W. Deem and Ramdas Pophale) SiO2 
 PCOD8118305
Probable space group: P 2/C
;
_chemical_formula_sum "Si O2"
_cell_formula_units_Z 26
_cell_length_a 19.987073
_cell_length_b 14.415540
_cell_length_c 8.917566
_cell_angle_alpha 90.000000
_cell_angle_beta 30.367679
_cell_angle_gamma 90.000000
_cell_volume 1298.937031
_symmetry_space_group_name_H-M "P 2/C"
_symmetry_group_IT_number 13
_symmetry_cell_setting 'monoclinic'
loop_
_space_group_symop_operation_xyz
x,y,z
-x,y,1/2-z
-x,-y,-z
x,-y,1/2+z
loop_
_atom_site_type_symbol
_atom_site_label
_atom_site_fract_x
_atom_site_fract_y
_atom_site_fract_z
Si Si1 0.060102 0.587315 0.798217
Si Si2 0.363961 0.606430 0.268730
Si Si3 0.489545 0.206855 0.442832
Si Si4 0.255552 0.080896 0.876822
Si Si5 0.018603 0.791087 0.891252
Si Si6 0.241650 0.113930 0.554125
Si Si7 0.500000 0.493601 0.750000
O O1 0.218037 0.585665 0.491715
O O2 0.027857 0.686405 0.937997
O O3 0.000000 0.582859 0.750000
O O4 0.000000 0.500000 0.000000
O O5 0.384081 0.569427 0.400032
O O6 0.412399 0.712772 0.180615
O O7 0.454580 0.556355 0.973366
O O8 0.500000 0.237424 0.250000
O O9 0.402427 0.114622 0.633376
O O10 0.636093 0.182902 0.220947
O O11 0.238902 0.083513 0.731263
O O12 0.148112 0.145695 0.169985
O O13 0.243546 0.975052 0.945953
O O14 0.000000 0.784946 0.750000
O O15 0.894259 0.833472 0.219263
#
# Coordination Sequence:
#
# PCOD8118305 Si02
#       7
#     4   4   4   4   4   4   2
#     4  11  23  39  64  90 121 160 204 253 300 365
#     4  11  21  42  59  91 122 160 206 252 305 364
#     4  10  20  35  61  82 118 155 194 245 301 366
#     4  10  19  38  55  83 112 154 193 245 300 355
#     4   9  19  35  59  82 115 158 196 236 300 366
#     4  10  21  35  59  84 113 152 202 242 300 361
#     4  10  24  36  66  86 120 164 202 252 302 358
#
# _framework density 20.016366999999999
#
# number of rings (size 3 to 8) (size 9 to 14) (size 15 to 20)
#    0.000    1.846    2.308    1.846    2.154    2.462 
#    2.769    1.538    0.000    0.000    0.000    0.000 
#    0.000    0.000    0.000    0.000    0.000    0.000 
#
# Total GULP energy -322270.655043 kJ/mol
# GULP energy per Si atom -12395.025194 kJ/mol
# Density = 1.997081 g / cm^3
# Si number density = 20.016367 Si / 1000 Ang^3
#
#
#
# Elastic Constant Matrix: (Units=GPa)
#
#
# Indices 1 2 3 4 5 6 
#
# 1 68.3354 16.1784 19.0825 0.0000 -17.9419 0.0000
# 2 16.1784 100.8361 25.2897 0.0000 -1.4830 0.0000
# 3 19.0825 25.2897 83.8300 0.0000 -27.6922 0.0000
# 4 0.0000 0.0000 0.0000 32.6809 0.0000 -3.8483
# 5 -17.9419 -1.4830 -27.6922 0.0000 28.2888 0.0000
# 6 0.0000 0.0000 0.0000 -3.8483 0.0000 25.4637
#
#
#
# Elastic Compliance Matrix: (Units=1/GPa)
#
#
# Indices 1 2 3 4 5 6 
#
# 1 0.018326 -0.002949 0.000748 0.000000 0.012201 0.000000
# 2 -0.002949 0.011495 -0.004752 0.000000 -0.005919 0.000000
# 3 0.000748 -0.004752 0.019607 0.000000 0.019419 0.000000
# 4 0.000000 0.000000 0.000000 0.031153 0.000000 0.004708
# 5 0.012201 -0.005919 0.019419 0.000000 0.061787 0.000000
# 6 0.000000 0.000000 0.000000 0.004708 0.000000 0.039983
#
#
# Mechanical properties :
#
#
# Convention : Reuss Voigt Hill
#
# Bulk Modulus (GPa) = 28.14997 41.56694 34.85846
# Shear Modulus (GPa) = 24.02721 30.11675 27.07198
#
# Velocity S-wave (km/s) = 3.46841 3.88313 3.68161
# Velocity P-wave (km/s) = 5.48943 6.39660 5.96030
#
# Compressibility (1/GPa) = 0.03552401
#
# Stress axis : x y z
#
# Youngs Moduli (GPa) = 54.56633 86.99522 51.00236
#
# Poissons Ratio (x) = 0.25651 -0.03817
# Poissons Ratio (y) = 0.16089 0.24236
# Poissons Ratio (z) = -0.04084 0.41339
#
# Static dielectric constant tensor:
#      x y z
#    x 3.635580 0.000000 -0.255240 
#    y 0.000000 3.829930 0.000000 
#    z -0.255240 0.000000 3.665680 
# 
# 
# High freq. dielectric constant tensor:
#      x y z
#    x 1.761670 0.000000 -0.023150 
#    y 0.000000 1.794800 0.000000 
#    z -0.023150 0.000000 1.778900 
# 
# From -- ./inp_files/23522.got.cif
#   From: 2010.06.25/outbox.cif.g09.slc.cpg/sg13_12_cif.got.tgz:23522.got - 2010.06.28 04:50:58.
