data_PCOD8118342
_publ_section_title
;
Structure prediction by ZEFSAII (Michael W. Deem and Ramdas Pophale) SiO2 
 PCOD8118342
Probable space group: P 2/C
;
_chemical_formula_sum "Si O2"
_cell_formula_units_Z 30
_cell_length_a 6.413965
_cell_length_b 8.586238
_cell_length_c 26.182636
_cell_angle_alpha 90.000000
_cell_angle_beta 90.955216
_cell_angle_gamma 90.000000
_cell_volume 1441.725296
_symmetry_space_group_name_H-M "P 2/C"
_symmetry_group_IT_number 13
_symmetry_cell_setting 'monoclinic'
loop_
_space_group_symop_operation_xyz
x,y,z
-x,y,1/2-z
-x,-y,-z
x,-y,1/2+z
loop_
_atom_site_type_symbol
_atom_site_label
_atom_site_fract_x
_atom_site_fract_y
_atom_site_fract_z
Si Si1 0.781959 0.537890 0.661043
Si Si2 0.331676 0.910267 0.126394
Si Si3 0.531428 0.375460 0.573145
Si Si4 0.500000 0.444493 0.750000
Si Si5 0.030603 0.075490 0.053850
Si Si6 0.881950 0.296943 0.799837
Si Si7 0.666183 0.671010 0.961304
Si Si8 0.651695 0.841847 0.613757
O O1 0.698975 0.460624 0.609229
O O2 0.637079 0.541558 0.710737
O O3 0.787968 0.723395 0.649613
O O4 0.998762 0.447105 0.674713
O O5 0.450316 0.758951 0.108579
O O6 0.151338 0.856945 0.165567
O O7 0.219848 0.980545 0.077580
O O8 0.501379 0.040998 0.146221
O O9 0.340608 0.490454 0.556195
O O10 0.635465 0.310940 0.522008
O O11 0.646650 0.341130 0.785952
O O12 0.106934 0.256430 0.050566
O O13 0.821616 0.054548 0.085285
O O14 0.000000 0.000000 0.000000
O O15 0.000000 0.238892 0.750000
O O16 0.481020 0.754894 0.930017
#
# Coordination Sequence:
#
# PCOD8118342 Si02
#       8
#     4   4   4   2   4   4   4   4
#     4  10  22  39  66  90 117 159 209 257 314 383
#     4  11  23  38  62  90 125 163 203 259 320 371
#     4  10  19  38  62  87 124 160 213 260 306 363
#     4  10  20  44  66  90 122 148 202 266 326 364
#     4  11  23  37  58  84 132 176 210 254 318 378
#     4  10  23  39  66  98 118 155 213 267 320 381
#     4   9  21  38  55  89 124 166 210 260 301 367
#     4  10  23  40  57  89 129 164 207 250 314 384
#
# _framework density 20.808402000000001
#
# number of rings (size 3 to 8) (size 9 to 14) (size 15 to 20)
#    0.000    1.867    1.333    1.600    5.600    3.200 
#    0.000    4.667    0.000    0.000    0.000    0.000 
#    0.000    0.000    0.000    0.000    0.000    0.000 
#
# Total GULP energy -371696.188733 kJ/mol
# GULP energy per Si atom -12389.872958 kJ/mol
# Density = 2.076104 g / cm^3
# Si number density = 20.808402 Si / 1000 Ang^3
#
#
#
# Elastic Constant Matrix: (Units=GPa)
#
#
# Indices 1 2 3 4 5 6 
#
# 1 98.0159 44.7445 30.2376 0.0000 -1.9938 0.0000
# 2 44.7445 105.7619 35.1593 0.0000 -4.6111 0.0000
# 3 30.2376 35.1593 90.8453 0.0000 -5.1060 0.0000
# 4 0.0000 0.0000 0.0000 23.8404 0.0000 -8.4067
# 5 -1.9938 -4.6111 -5.1060 0.0000 26.3972 0.0000
# 6 0.0000 0.0000 0.0000 -8.4067 0.0000 30.6932
#
#
#
# Elastic Compliance Matrix: (Units=1/GPa)
#
#
# Indices 1 2 3 4 5 6 
#
# 1 0.013143 -0.004722 -0.002566 0.000000 -0.000328 0.000000
# 2 -0.004722 0.012579 -0.003228 0.000000 0.001216 0.000000
# 3 -0.002566 -0.003228 0.013212 0.000000 0.001798 0.000000
# 4 0.000000 0.000000 0.000000 0.046430 0.000000 0.012717
# 5 -0.000328 0.001216 0.001798 0.000000 0.038418 0.000000
# 6 0.000000 0.000000 0.000000 0.012717 0.000000 0.036064
#
#
# Mechanical properties :
#
#
# Convention : Reuss Voigt Hill
#
# Bulk Modulus (GPa) = 55.85781 57.21174 56.53478
# Shear Modulus (GPa) = 26.76022 28.48494 27.62258
#
# Velocity S-wave (km/s) = 3.59002 3.70390 3.64740
# Velocity P-wave (km/s) = 6.63976 6.77097 6.70569
#
# Compressibility (1/GPa) = 0.01790260
#
# Stress axis : x y z
#
# Youngs Moduli (GPa) = 76.08804 79.49715 75.68763
#
# Poissons Ratio (x) = 0.37536 0.19418
# Poissons Ratio (y) = 0.35926 0.24435
# Poissons Ratio (z) = 0.19521 0.25665
#
# Static dielectric constant tensor:
#      x y z
#    x 3.550950 0.000000 0.188020 
#    y 0.000000 3.994230 0.000000 
#    z 0.188020 0.000000 3.781430 
# 
# 
# High freq. dielectric constant tensor:
#      x y z
#    x 1.811730 0.000000 0.000050 
#    y 0.000000 1.810650 0.000000 
#    z 0.000050 0.000000 1.816300 
# 
# From -- ./inp_files/94885.got.cif
#   From: 2010.06.25/outbox.cif.g09.slc.cpg/sg13_48_cif.got.tgz:94885.got - 2010.06.28 04:50:58.
