data_PCOD8118952
_publ_section_title
;
Structure prediction by ZEFSAII (Michael W. Deem and Ramdas Pophale) SiO2 
 PCOD8118952
Probable space group: P 2/C
;
_chemical_formula_sum "Si O2"
_cell_formula_units_Z 24
_cell_length_a 12.852612
_cell_length_b 12.674024
_cell_length_c 15.018805
_cell_angle_alpha 90.000000
_cell_angle_beta 150.238694
_cell_angle_gamma 90.000000
_cell_volume 1214.401825
_symmetry_space_group_name_H-M "P 2/C"
_symmetry_group_IT_number 13
_symmetry_cell_setting 'monoclinic'
loop_
_space_group_symop_operation_xyz
x,y,z
-x,y,1/2-z
-x,-y,-z
x,-y,1/2+z
loop_
_atom_site_type_symbol
_atom_site_label
_atom_site_fract_x
_atom_site_fract_y
_atom_site_fract_z
Si Si1 0.275229 0.633951 0.605563
Si Si2 0.500000 0.433609 0.750000
Si Si3 0.811638 0.715261 0.554948
Si Si4 0.960638 0.214925 0.445020
Si Si5 0.000000 0.282486 0.750000
Si Si6 0.300107 0.108802 0.394952
Si Si7 0.222821 0.120834 0.794933
O O1 0.500000 0.689679 0.750000
O O2 0.321847 0.509715 0.661807
O O3 0.162966 0.686491 0.605509
O O4 0.122261 0.641447 0.407539
O O5 0.391244 0.360531 0.593812
O O6 0.774274 0.827386 0.574252
O O7 0.000000 0.659021 0.750000
O O8 0.863868 0.737758 0.490481
O O9 0.788608 0.150301 0.263800
O O10 0.059006 0.137206 0.592138
O O11 0.175380 0.210756 0.831913
O O12 0.548058 0.123825 0.577184
O O13 0.209608 0.990559 0.336878
#
# Coordination Sequence:
#
# PCOD8118952 Si02
#       7
#     4   2   4   4   2   4   4
#     4   9  21  37  59  83 117 147 197 245 288 341
#     4  10  22  38  60  82 116 154 198 244 298 334
#     4  10  22  38  60  84 121 151 195 242 287 344
#     4  10  20  38  60  85 119 151 193 240 285 344
#     4  10  20  36  60  84 116 150 190 242 288 340
#     4  10  21  38  56  87 120 150 191 235 287 348
#     4  10  21  35  61  85 116 155 189 229 292 349
#
# _framework density 19.762817999999999
#
# number of rings (size 3 to 8) (size 9 to 14) (size 15 to 20)
#    0.500    1.667    0.000    2.500    4.667    0.667 
#    0.000    3.333    1.833    0.000    0.000    0.000 
#    0.000    0.000    0.000    0.000    0.000    0.000 
#
# Total GULP energy -297437.183459 kJ/mol
# GULP energy per Si atom -12393.215977 kJ/mol
# Density = 1.971784 g / cm^3
# Si number density = 19.762818 Si / 1000 Ang^3
#
#
#
# Elastic Constant Matrix: (Units=GPa)
#
#
# Indices 1 2 3 4 5 6 
#
# 1 91.5697 42.8318 31.1091 0.0000 -5.3478 0.0000
# 2 42.8318 111.3909 57.8460 0.0000 11.6125 0.0000
# 3 31.1091 57.8460 105.3241 0.0000 10.3808 0.0000
# 4 0.0000 0.0000 0.0000 29.7026 0.0000 3.1840
# 5 -5.3478 11.6125 10.3808 0.0000 18.6809 0.0000
# 6 0.0000 0.0000 0.0000 3.1840 0.0000 13.4496
#
#
#
# Elastic Compliance Matrix: (Units=1/GPa)
#
#
# Indices 1 2 3 4 5 6 
#
# 1 0.014735 -0.005421 -0.002246 0.000000 0.008836 0.000000
# 2 -0.005421 0.014874 -0.005823 0.000000 -0.007562 0.000000
# 3 -0.002246 -0.005823 0.013819 0.000000 -0.004703 0.000000
# 4 0.000000 0.000000 0.000000 0.034544 0.000000 -0.008178
# 5 0.008836 -0.007562 -0.004703 0.000000 0.063374 0.000000
# 6 0.000000 0.000000 0.000000 -0.008178 0.000000 0.076287
#
#
# Mechanical properties :
#
#
# Convention : Reuss Voigt Hill
#
# Bulk Modulus (GPa) = 60.79119 63.53981 62.16550
# Shear Modulus (GPa) = 19.99235 24.13315 22.06275
#
# Velocity S-wave (km/s) = 3.18404 3.49827 3.34485
# Velocity P-wave (km/s) = 6.65918 6.96694 6.81479
#
# Compressibility (1/GPa) = 0.01644975
#
# Stress axis : x y z
#
# Youngs Moduli (GPa) = 67.86434 67.23226 72.36286
#
# Poissons Ratio (x) = 0.36445 0.16253
# Poissons Ratio (y) = 0.36788 0.42134
# Poissons Ratio (z) = 0.15242 0.39146
#
# Static dielectric constant tensor:
#      x y z
#    x 3.436570 0.000000 0.132710 
#    y 0.000000 3.530740 0.000000 
#    z 0.132710 0.000000 3.783000 
# 
# 
# High freq. dielectric constant tensor:
#      x y z
#    x 1.759470 0.000000 0.008800 
#    y 0.000000 1.762870 0.000000 
#    z 0.008800 0.000000 1.786290 
# 
# From -- ./inp_files/53783.got.cif
#   From: 2010.06.25/outbox.cif.g09.slc.cpg/sg13_27_cif.got.tgz:53783.got - 2010.06.28 04:50:58.
