data_PCOD8118640
_publ_section_title
;
Structure prediction by ZEFSAII (Michael W. Deem and Ramdas Pophale) SiO2 
 PCOD8118640
Probable space group: P 2/C
;
_chemical_formula_sum "Si O2"
_cell_formula_units_Z 26
_cell_length_a 7.988463
_cell_length_b 12.361279
_cell_length_c 14.276914
_cell_angle_alpha 90.000000
_cell_angle_beta 120.213661
_cell_angle_gamma 90.000000
_cell_volume 1218.295243
_symmetry_space_group_name_H-M "P 2/C"
_symmetry_group_IT_number 13
_symmetry_cell_setting 'monoclinic'
loop_
_space_group_symop_operation_xyz
x,y,z
-x,y,1/2-z
-x,-y,-z
x,-y,1/2+z
loop_
_atom_site_type_symbol
_atom_site_label
_atom_site_fract_x
_atom_site_fract_y
_atom_site_fract_z
Si Si1 0.432418 0.805105 0.835953
Si Si2 0.292814 0.376557 0.411526
Si Si3 0.281692 0.028994 0.418182
Si Si4 0.822927 0.804917 0.063473
Si Si5 0.691454 0.608344 0.131547
Si Si6 0.180224 0.214145 0.528376
Si Si7 0.500000 0.302038 0.750000
O O1 0.500000 0.815650 0.750000
O O2 0.316479 0.693892 0.823021
O O3 0.285188 0.903615 0.821323
O O4 0.617239 0.808393 0.954947
O O5 0.202766 0.492632 0.356390
O O6 0.501847 0.391300 0.515374
O O7 0.159455 0.314387 0.449723
O O8 0.198144 0.101975 0.478560
O O9 0.500000 0.000000 0.500000
O O10 0.152965 0.919528 0.374731
O O11 0.832275 0.706377 0.140236
O O12 0.988436 0.787391 0.034882
O O13 0.638311 0.621642 0.226070
O O14 0.370655 0.226232 0.646749
#
# Coordination Sequence:
#
# PCOD8118640 Si02
#       7
#     4   4   4   4   4   4   2
#     4   9  18  34  59  81 107 144 188 222 266 331
#     4   8  17  34  55  79 108 148 176 223 279 323
#     4   9  18  37  56  77 110 147 180 222 280 327
#     4  10  20  36  56  80 116 144 178 227 281 322
#     4   9  18  34  54  80 111 142 184 221 273 328
#     4  10  20  36  59  79 111 146 185 226 277 325
#     4  10  20  34  56  82 106 148 188 224 266 330
#
# _framework density 21.341294999999999
#
# number of rings (size 3 to 8) (size 9 to 14) (size 15 to 20)
#    0.000    2.769    0.000    3.231    1.077    1.231 
#   12.462    3.077   10.154    0.000    0.000    0.000 
#    0.000    0.000    0.000    0.000    0.000    0.000 
#
# Total GULP energy -322233.068267 kJ/mol
# GULP energy per Si atom -12393.579549 kJ/mol
# Density = 2.129272 g / cm^3
# Si number density = 21.341295 Si / 1000 Ang^3
#
#
#
# Elastic Constant Matrix: (Units=GPa)
#
#
# Indices 1 2 3 4 5 6 
#
# 1 122.6284 83.7455 22.9547 0.0000 -50.2725 0.0000
# 2 83.7455 213.2465 48.4858 0.0000 -44.5471 0.0000
# 3 22.9547 48.4858 64.4471 0.0000 -38.3748 0.0000
# 4 0.0000 0.0000 0.0000 6.3635 0.0000 -12.9955
# 5 -50.2725 -44.5471 -38.3748 0.0000 47.0857 0.0000
# 6 0.0000 0.0000 0.0000 -12.9955 0.0000 24.4375
#
#
#
# Elastic Compliance Matrix: (Units=1/GPa)
#
#
# Indices 1 2 3 4 5 6 
#
# 1 0.020758 -0.005332 0.013233 0.000000 0.027903 0.000000
# 2 -0.005332 0.007371 -0.005602 0.000000 -0.003285 0.000000
# 3 0.013233 -0.005602 0.039391 0.000000 0.040931 0.000000
# 4 0.000000 0.000000 0.000000 -1.826883 0.000000 -0.971510
# 5 0.027903 -0.003285 0.040931 0.000000 0.081281 0.000000
# 6 0.000000 0.000000 0.000000 -0.971510 0.000000 -0.475715
#
#
# Mechanical properties :
#
#
# Convention : Reuss Voigt Hill
#
# Bulk Modulus (GPa) = 13.86644 78.96601 46.41622
# Shear Modulus (GPa) = -2.34263 31.91974 14.78856
#
# Velocity S-wave (km/s) = -1.04885 3.87160 2.63526
# Velocity P-wave (km/s) = 2.24606 7.55430 5.57281
#
# Compressibility (1/GPa) = 0.07211655
#
# Stress axis : x y z
#
# Youngs Moduli (GPa) = 48.17401 135.66994 25.38671
#
# Poissons Ratio (x) = 0.72336 -0.33593
# Poissons Ratio (y) = 0.25685 0.14223
# Poissons Ratio (z) = -0.63747 0.76007
#
# Static dielectric constant tensor:
#      x y z
#    x 3.868670 0.000000 -0.348680 
#    y 0.000000 4.830290 0.000000 
#    z -0.348680 0.000000 3.536540 
# 
# 
# High freq. dielectric constant tensor:
#      x y z
#    x 1.832930 0.000000 -0.023250 
#    y 0.000000 1.850800 0.000000 
#    z -0.023250 0.000000 1.808260 
# 
# From -- ./inp_files/46684.got.cif
#   From: 2010.06.25/outbox.cif.g09.slc.cpg/sg13_24_cif.got.tgz:46684.got - 2010.06.28 04:50:58.
