data_PCOD8118628
_publ_section_title
;
Structure prediction by ZEFSAII (Michael W. Deem and Ramdas Pophale) SiO2 
 PCOD8118628
Probable space group: P 2/C
;
_chemical_formula_sum "Si O2"
_cell_formula_units_Z 32
_cell_length_a 12.989560
_cell_length_b 9.243786
_cell_length_c 20.504151
_cell_angle_alpha 90.000000
_cell_angle_beta 142.116142
_cell_angle_gamma 90.000000
_cell_volume 1511.816044
_symmetry_space_group_name_H-M "P 2/C"
_symmetry_group_IT_number 13
_symmetry_cell_setting 'monoclinic'
loop_
_space_group_symop_operation_xyz
x,y,z
-x,y,1/2-z
-x,-y,-z
x,-y,1/2+z
loop_
_atom_site_type_symbol
_atom_site_label
_atom_site_fract_x
_atom_site_fract_y
_atom_site_fract_z
Si Si1 0.684613 0.058383 0.018522
Si Si2 0.805341 0.626967 0.579002
Si Si3 0.199578 0.582095 0.163607
Si Si4 0.194660 0.373034 0.273662
Si Si5 0.809401 0.098486 0.461173
Si Si6 0.199579 0.582095 0.535972
Si Si7 0.315387 0.941616 0.833909
Si Si8 0.809401 0.901515 0.348227
O O1 0.694608 0.230092 0.011906
O O2 0.741134 0.020647 0.120567
O O3 0.807664 0.979312 0.030138
O O4 0.500000 1.000000 0.911574
O O5 0.782582 0.569250 0.641290
O O6 0.737303 0.502693 0.496778
O O7 0.000000 0.665594 0.662361
O O8 0.262697 0.497309 0.259477
O O9 0.265583 0.500000 0.132792
O O10 0.277329 0.743784 0.200897
O O11 1.000000 0.588586 0.065720
O O12 0.305393 0.230093 0.317299
O O13 0.722670 0.256216 0.423566
O O14 1.000000 0.123890 0.534702
O O15 0.721396 1.000000 0.360698
O O16 0.192336 0.020686 0.722474
#
# Coordination Sequence:
#
# PCOD8118628 Si02
#       8
#     4   4   4   4   4   4   4   4
#     4  10  21  36  53  75 105 141 178 216 262 315
#     4   9  17  31  52  76 103 137 175 215 261 313
#     4   9  17  30  50  76 104 132 166 212 263 314
#     4   9  17  31  52  76 103 137 175 215 261 313
#     4  10  20  34  55  81 106 135 174 220 267 315
#     4   9  17  30  50  76 104 132 166 212 263 314
#     4  10  21  36  53  75 105 141 178 216 262 315
#     4  10  20  34  55  81 106 135 174 220 267 315
#
# _framework density 21.166596999999999
#
# number of rings (size 3 to 8) (size 9 to 14) (size 15 to 20)
#    0.000    2.500    0.000    2.250    0.000    7.000 
#    0.000    3.750    0.000    6.000    0.000    0.000 
#    0.000    0.000    0.000    0.000    0.000    0.000 
#
# Total GULP energy -396750.272107 kJ/mol
# GULP energy per Si atom -12398.446003 kJ/mol
# Density = 2.111842 g / cm^3
# Si number density = 21.166597 Si / 1000 Ang^3
#
#
#
# Elastic Constant Matrix: (Units=GPa)
#
#
# Indices 1 2 3 4 5 6 
#
# 1 72.8860 71.0455 46.4497 0.0000 -38.5175 0.0000
# 2 71.0455 191.9860 65.4419 0.0000 -44.1229 0.0000
# 3 46.4497 65.4419 63.5927 0.0000 -34.6591 0.0000
# 4 0.0000 0.0000 0.0000 30.7133 0.0000 -16.2014
# 5 -38.5175 -44.1229 -34.6591 0.0000 41.1583 0.0000
# 6 0.0000 0.0000 0.0000 -16.2014 0.0000 32.7707
#
#
#
# Elastic Compliance Matrix: (Units=1/GPa)
#
#
# Indices 1 2 3 4 5 6 
#
# 1 0.035219 -0.005288 -0.009998 0.000000 0.018871 0.000000
# 2 -0.005288 0.009029 -0.005269 0.000000 0.000294 0.000000
# 3 -0.009998 -0.005269 0.037469 0.000000 0.016547 0.000000
# 4 0.000000 0.000000 0.000000 0.044046 0.000000 0.021776
# 5 0.018871 0.000294 0.016547 0.000000 0.056205 0.000000
# 6 0.000000 0.000000 0.000000 0.021776 0.000000 0.041281
#
#
# Mechanical properties :
#
#
# Convention : Reuss Voigt Hill
#
# Bulk Modulus (GPa) = 24.62671 77.14878 50.88775
# Shear Modulus (GPa) = 17.99250 30.63031 24.31141
#
# Velocity S-wave (km/s) = 2.91871 3.80821 3.39274
# Velocity P-wave (km/s) = 4.79776 7.47423 6.28023
#
# Compressibility (1/GPa) = 0.04060632
#
# Stress axis : x y z
#
# Youngs Moduli (GPa) = 28.39408 110.75253 26.68907
#
# Poissons Ratio (x) = 0.58565 0.26683
# Poissons Ratio (y) = 0.15015 0.14063
# Poissons Ratio (z) = 0.28388 0.58358
#
# Static dielectric constant tensor:
#      x y z
#    x 3.630190 0.000000 -0.363690 
#    y 0.000000 4.054690 0.000000 
#    z -0.363690 0.000000 3.584000 
# 
# 
# High freq. dielectric constant tensor:
#      x y z
#    x 1.813360 0.000000 -0.032210 
#    y 0.000000 1.837170 0.000000 
#    z -0.032210 0.000000 1.809270 
# 
# From -- ./inp_files/79829.got.cif
#   From: 2010.06.25/outbox.cif.g09.slc.cpg/sg13_40_cif.got.tgz:79829.got - 2010.06.28 04:50:58.
