data_PCOD8118264
_publ_section_title
;
Structure prediction by ZEFSAII (Michael W. Deem and Ramdas Pophale) SiO2 
 PCOD8118264
Probable space group: P 2/C
;
_chemical_formula_sum "Si O2"
_cell_formula_units_Z 32
_cell_length_a 23.718820
_cell_length_b 11.385985
_cell_length_c 17.747340
_cell_angle_alpha 90.000000
_cell_angle_beta 159.894167
_cell_angle_gamma 90.000000
_cell_volume 1647.579409
_symmetry_space_group_name_H-M "P 2/C"
_symmetry_group_IT_number 13
_symmetry_cell_setting 'monoclinic'
loop_
_space_group_symop_operation_xyz
x,y,z
-x,y,1/2-z
-x,-y,-z
x,-y,1/2+z
loop_
_atom_site_type_symbol
_atom_site_label
_atom_site_fract_x
_atom_site_fract_y
_atom_site_fract_z
Si Si1 0.987644 0.966727 0.357686
Si Si2 0.088900 0.171255 0.586499
Si Si3 0.776865 0.878118 0.971355
Si Si4 0.905313 0.365378 0.697894
Si Si5 0.084422 0.383512 0.075385
Si Si6 0.458755 0.610746 0.998014
Si Si7 0.417554 0.518347 0.720574
Si Si8 0.536084 0.250195 0.455734
O O1 0.934566 0.894441 0.364144
O O2 0.142552 0.908866 0.508294
O O3 0.831778 0.974512 0.103706
O O4 0.043496 0.094658 0.456341
O O5 0.277067 0.212498 0.818215
O O6 0.964823 0.281421 0.427829
O O7 0.580787 0.859157 0.716539
O O8 0.848910 0.757604 0.093094
O O9 0.758962 0.451268 0.533100
O O10 0.000000 0.432284 0.750000
O O11 0.015163 0.344820 0.907974
O O12 0.278201 0.395546 0.307802
O O13 0.000000 0.500000 0.000000
O O14 0.500000 0.500000 0.000000
O O15 0.583621 0.593798 0.224662
O O16 0.491905 0.725448 0.988751
O O17 0.500000 0.470894 0.750000
O O18 0.504408 0.633932 0.865754
#
# Coordination Sequence:
#
# PCOD8118264 Si02
#       8
#     4   4   4   4   4   4   4   4
#     4  10  21  37  61  86 121 150 203 259 305 355
#     4  11  22  37  57  93 123 155 198 257 311 360
#     4  10  19  37  63  87 111 156 202 253 302 352
#     4  11  18  32  58  87 111 146 201 248 289 352
#     4  12  22  36  61  91 123 164 203 245 307 369
#     4  10  20  36  54  86 126 163 200 247 299 362
#     4  10  20  32  53  83 123 153 195 249 295 349
#     4  10  21  33  59  89 120 153 203 252 306 366
#
# _framework density 19.422432000000001
#
# number of rings (size 3 to 8) (size 9 to 14) (size 15 to 20)
#    0.000    1.500    2.500    6.000    1.750    0.500 
#    0.000    0.000   13.750    0.000    3.250    0.000 
#    0.000    0.000    0.000    0.000    0.000    0.000 
#
# Total GULP energy -396439.849497 kJ/mol
# GULP energy per Si atom -12388.745297 kJ/mol
# Density = 1.937823 g / cm^3
# Si number density = 19.422432 Si / 1000 Ang^3
#
#
#
# Elastic Constant Matrix: (Units=GPa)
#
#
# Indices 1 2 3 4 5 6 
#
# 1 95.2351 23.2058 10.5655 0.0000 -2.5449 0.0000
# 2 23.2058 60.6281 22.4284 0.0000 0.3723 0.0000
# 3 10.5655 22.4284 61.1172 0.0000 5.9227 0.0000
# 4 0.0000 0.0000 0.0000 39.5771 0.0000 -7.1914
# 5 -2.5449 0.3723 5.9227 0.0000 36.1155 0.0000
# 6 0.0000 0.0000 0.0000 -7.1914 0.0000 31.0802
#
#
#
# Elastic Compliance Matrix: (Units=1/GPa)
#
#
# Indices 1 2 3 4 5 6 
#
# 1 0.011622 -0.004255 -0.000540 0.000000 0.000951 0.000000
# 2 -0.004255 0.020676 -0.006912 0.000000 0.000621 0.000000
# 3 -0.000540 -0.006912 0.019295 0.000000 -0.003131 0.000000
# 4 0.000000 0.000000 0.000000 0.026376 0.000000 0.006103
# 5 0.000951 0.000621 -0.003131 0.000000 0.028263 0.000000
# 6 0.000000 0.000000 0.000000 0.006103 0.000000 0.033587
#
#
# Mechanical properties :
#
#
# Convention : Reuss Voigt Hill
#
# Bulk Modulus (GPa) = 35.48621 36.59773 36.04197
# Shear Modulus (GPa) = 28.96431 32.07326 30.51879
#
# Velocity S-wave (km/s) = 3.86590 4.06809 3.96828
# Velocity P-wave (km/s) = 6.18363 6.39920 6.29234
#
# Compressibility (1/GPa) = 0.02817996
#
# Stress axis : x y z
#
# Youngs Moduli (GPa) = 86.04092 48.36605 51.82604
#
# Poissons Ratio (x) = 0.20578 0.02799
# Poissons Ratio (y) = 0.36607 0.35822
# Poissons Ratio (z) = 0.04647 0.33431
#
# Static dielectric constant tensor:
#      x y z
#    x 3.989490 0.000000 -0.051600 
#    y 0.000000 3.493280 0.000000 
#    z -0.051600 0.000000 3.746590 
# 
# 
# High freq. dielectric constant tensor:
#      x y z
#    x 1.776460 0.000000 0.004610 
#    y 0.000000 1.719770 0.000000 
#    z 0.004610 0.000000 1.752360 
# 
# From -- ./inp_files/71480.got.cif
#   From: 2010.06.25/outbox.cif.g09.slc.cpg/sg13_36_cif.got.tgz:71480.got - 2010.06.28 04:50:58.
