data_PCOD8118872
_publ_section_title
;
Structure prediction by ZEFSAII (Michael W. Deem and Ramdas Pophale) SiO2 
 PCOD8118872
Probable space group: P 2/C
;
_chemical_formula_sum "Si O2"
_cell_formula_units_Z 28
_cell_length_a 26.725519
_cell_length_b 10.600181
_cell_length_c 26.745923
_cell_angle_alpha 90.000000
_cell_angle_beta 10.847852
_cell_angle_gamma 90.000000
_cell_volume 1426.002875
_symmetry_space_group_name_H-M "P 2/C"
_symmetry_group_IT_number 13
_symmetry_cell_setting 'monoclinic'
loop_
_space_group_symop_operation_xyz
x,y,z
-x,y,1/2-z
-x,-y,-z
x,-y,1/2+z
loop_
_atom_site_type_symbol
_atom_site_label
_atom_site_fract_x
_atom_site_fract_y
_atom_site_fract_z
Si Si1 0.606136 0.644820 0.752101
Si Si2 0.344547 0.463261 0.603568
Si Si3 0.094404 0.534905 0.213609
Si Si4 0.281570 0.828842 0.308983
Si Si5 0.373957 0.111800 0.208866
Si Si6 0.804603 0.680643 0.814571
Si Si7 0.154053 0.199615 0.818750
O O1 0.627390 0.793740 0.742600
O O2 0.880255 0.600163 0.459482
O O3 0.557389 0.569753 0.851634
O O4 0.362637 0.618007 0.953310
O O5 0.500000 0.500000 0.500000
O O6 0.169185 0.581640 0.757401
O O7 0.152102 0.345348 0.803153
O O8 0.148507 0.392439 0.179355
O O9 0.000000 0.528852 0.250000
O O10 0.247332 0.811536 0.283721
O O11 0.017760 0.790334 0.597666
O O12 0.340755 0.973362 0.264205
O O13 0.514366 0.740921 0.101051
O O14 0.140765 0.145228 0.398368
O O15 0.649101 0.118278 0.908835
#
# Coordination Sequence:
#
# PCOD8118872 Si02
#       7
#     4   4   4   4   4   4   4
#     4  10  22  39  61  92 113 151 199 236 300 343
#     4  10  20  36  56  85 126 154 189 243 280 346
#     4  11  23  43  68  88 114 143 192 259 306 356
#     4  12  23  36  56  81 124 163 197 233 275 350
#     4  11  22  39  55  81 120 160 203 240 270 333
#     4  11  23  37  56  91 114 155 197 231 306 350
#     4  11  22  35  55  81 116 170 206 232 274 328
#
# _framework density 19.635303
#
# number of rings (size 3 to 8) (size 9 to 14) (size 15 to 20)
#    0.000    1.143    1.429    7.286    2.000    1.714 
#    0.000    0.000    0.000    5.143    0.000    0.000 
#    0.000    0.000    0.000    0.000    0.000    0.000 
#
# Total GULP energy -347351.567456 kJ/mol
# GULP energy per Si atom -12405.413123 kJ/mol
# Density = 1.959061 g / cm^3
# Si number density = 19.635303 Si / 1000 Ang^3
#
#
#
# Elastic Constant Matrix: (Units=GPa)
#
#
# Indices 1 2 3 4 5 6 
#
# 1 97.6914 34.6122 -1.1754 0.0000 -14.1858 0.0000
# 2 34.6122 123.0580 17.0644 0.0000 -9.3379 0.0000
# 3 -1.1754 17.0644 54.0009 0.0000 -15.1347 0.0000
# 4 0.0000 0.0000 0.0000 29.5132 0.0000 -2.7448
# 5 -14.1858 -9.3379 -15.1347 0.0000 23.8593 0.0000
# 6 0.0000 0.0000 0.0000 -2.7448 0.0000 12.1029
#
#
#
# Elastic Compliance Matrix: (Units=1/GPa)
#
#
# Indices 1 2 3 4 5 6 
#
# 1 0.012762 -0.003460 0.003793 0.000000 0.008640 0.000000
# 2 -0.003460 0.009514 -0.003180 0.000000 -0.000351 0.000000
# 3 0.003793 -0.003180 0.024189 0.000000 0.016354 0.000000
# 4 0.000000 0.000000 0.000000 0.034613 0.000000 0.007850
# 5 0.008640 -0.000351 0.016354 0.000000 0.057286 0.000000
# 6 0.000000 0.000000 0.000000 0.007850 0.000000 0.084405
#
#
# Mechanical properties :
#
#
# Convention : Reuss Voigt Hill
#
# Bulk Modulus (GPa) = 24.52755 41.75029 33.13892
# Shear Modulus (GPa) = 20.65654 28.04505 24.35079
#
# Velocity S-wave (km/s) = 3.24699 3.78338 3.52540
# Velocity P-wave (km/s) = 5.15518 6.35565 5.78663
#
# Compressibility (1/GPa) = 0.04077048
#
# Stress axis : x y z
#
# Youngs Moduli (GPa) = 78.35540 105.11093 41.34074
#
# Poissons Ratio (x) = 0.36368 -0.15679
# Poissons Ratio (y) = 0.27111 0.13146
# Poissons Ratio (z) = -0.29717 0.33425
#
# Static dielectric constant tensor:
#      x y z
#    x 3.369980 0.000000 -0.114620 
#    y 0.000000 3.901230 0.000000 
#    z -0.114620 0.000000 3.663810 
# 
# 
# High freq. dielectric constant tensor:
#      x y z
#    x 1.733180 0.000000 -0.012380 
#    y 0.000000 1.771390 0.000000 
#    z -0.012380 0.000000 1.781150 
# 
# From -- ./inp_files/94149.got.cif
#   From: 2010.06.25/outbox.cif.g09.slc.cpg/sg13_48_cif.got.tgz:94149.got - 2010.06.28 04:50:58.
