data_PCOD8118583
_publ_section_title
;
Structure prediction by ZEFSAII (Michael W. Deem and Ramdas Pophale) SiO2 
 PCOD8118583
Probable space group: P 2/C
;
_chemical_formula_sum "Si O2"
_cell_formula_units_Z 30
_cell_length_a 12.912364
_cell_length_b 14.651958
_cell_length_c 18.942064
_cell_angle_alpha 90.000000
_cell_angle_beta 26.249197
_cell_angle_gamma 90.000000
_cell_volume 1584.974270
_symmetry_space_group_name_H-M "P 2/C"
_symmetry_group_IT_number 13
_symmetry_cell_setting 'monoclinic'
loop_
_space_group_symop_operation_xyz
x,y,z
-x,y,1/2-z
-x,-y,-z
x,-y,1/2+z
loop_
_atom_site_type_symbol
_atom_site_label
_atom_site_fract_x
_atom_site_fract_y
_atom_site_fract_z
Si Si1 0.609996 0.012619 0.257211
Si Si2 0.889382 0.674958 0.067910
Si Si3 0.805826 0.874217 0.424599
Si Si4 0.500000 0.429118 0.750000
Si Si5 0.016954 0.869805 0.448472
Si Si6 0.871876 0.599654 0.220412
Si Si7 0.285857 0.559133 0.771265
Si Si8 0.683874 0.330045 0.976578
O O1 0.500000 0.984415 0.250000
O O2 0.409716 0.054040 0.432192
O O3 0.735563 0.922841 0.212198
O O4 0.821037 0.082184 0.115581
O O5 0.719352 0.640673 0.109115
O O6 0.950193 0.780352 0.023514
O O7 0.778632 0.662948 0.213491
O O8 0.104262 0.603098 0.937042
O O9 0.711339 0.778737 0.451776
O O10 0.000000 0.913441 0.250000
O O11 0.923012 0.850775 0.427738
O O12 0.462754 0.491198 0.703738
O O13 0.842988 0.493719 0.214399
O O14 0.711808 0.621110 0.384730
O O15 0.138974 0.625477 0.075446
O O16 0.422091 0.647285 0.659506
#
# Coordination Sequence:
#
# PCOD8118583 Si02
#       8
#     4   4   4   2   4   4   4   4
#     4   9  21  37  58  84 112 138 179 231 283 338
#     4  11  20  35  54  78 105 143 181 227 271 327
#     4  11  20  36  58  84 110 143 187 225 279 332
#     4  10  22  32  50  78 108 142 174 230 264 318
#     4  10  20  37  57  83 110 143 181 230 283 333
#     4  10  20  34  49  76 109 143 181 223 272 308
#     4  11  21  33  52  77 109 142 191 224 268 315
#     4  11  19  34  54  77 107 148 181 229 265 320
#
# _framework density 18.927752000000002
#
# number of rings (size 3 to 8) (size 9 to 14) (size 15 to 20)
#    0.000    1.600    2.667    4.400    0.933    0.533 
#    0.000    0.000    0.000    0.000    0.000    0.000 
#    0.000    0.000    0.000    0.000    0.000    0.000 
#
# Total GULP energy -371739.946727 kJ/mol
# GULP energy per Si atom -12391.331558 kJ/mol
# Density = 1.888467 g / cm^3
# Si number density = 18.927752 Si / 1000 Ang^3
#
#
#
# Elastic Constant Matrix: (Units=GPa)
#
#
# Indices 1 2 3 4 5 6 
#
# 1 67.0028 41.2480 33.7856 0.0000 -2.2472 0.0000
# 2 41.2480 100.8331 36.5830 0.0000 -5.1429 0.0000
# 3 33.7856 36.5830 87.5404 0.0000 -4.6639 0.0000
# 4 0.0000 0.0000 0.0000 29.9229 0.0000 -5.7937
# 5 -2.2472 -5.1429 -4.6639 0.0000 24.6396 0.0000
# 6 0.0000 0.0000 0.0000 -5.7937 0.0000 22.6272
#
#
#
# Elastic Compliance Matrix: (Units=1/GPa)
#
#
# Indices 1 2 3 4 5 6 
#
# 1 0.022052 -0.007013 -0.005608 0.000000 -0.000514 0.000000
# 2 -0.007013 0.013977 -0.003044 0.000000 0.001702 0.000000
# 3 -0.005608 -0.003044 0.014949 0.000000 0.001683 0.000000
# 4 0.000000 0.000000 0.000000 0.035162 0.000000 0.009003
# 5 -0.000514 0.001702 0.001683 0.000000 0.041212 0.000000
# 6 0.000000 0.000000 0.000000 0.009003 0.000000 0.046500
#
#
# Mechanical properties :
#
#
# Convention : Reuss Voigt Hill
#
# Bulk Modulus (GPa) = 50.89016 53.17884 52.03450
# Shear Modulus (GPa) = 23.61481 25.02193 24.31837
#
# Velocity S-wave (km/s) = 3.53601 3.63984 3.58830
# Velocity P-wave (km/s) = 6.60425 6.76914 6.68720
#
# Compressibility (1/GPa) = 0.01965016
#
# Stress axis : x y z
#
# Youngs Moduli (GPa) = 45.34684 71.54513 66.89290
#
# Poissons Ratio (x) = 0.50172 0.37512
# Poissons Ratio (y) = 0.31800 0.20362
# Poissons Ratio (z) = 0.25429 0.21778
#
# Static dielectric constant tensor:
#      x y z
#    x 3.436970 0.000000 -0.178540 
#    y 0.000000 3.466140 0.000000 
#    z -0.178540 0.000000 3.512110 
# 
# 
# High freq. dielectric constant tensor:
#      x y z
#    x 1.725750 0.000000 -0.005990 
#    y 0.000000 1.732110 0.000000 
#    z -0.005990 0.000000 1.731580 
# 
# From -- ./inp_files/30359.got.cif
#   From: 2010.06.25/outbox.cif.g09.slc.cpg/sg13_16_cif.got.tgz:30359.got - 2010.06.28 04:50:58.
