data_PCOD8118592
_publ_section_title
;
Structure prediction by ZEFSAII (Michael W. Deem and Ramdas Pophale) SiO2 
 PCOD8118592
Probable space group: P 2/C
;
_chemical_formula_sum "Si O2"
_cell_formula_units_Z 26
_cell_length_a 10.641978
_cell_length_b 24.005863
_cell_length_c 5.246433
_cell_angle_alpha 90.000000
_cell_angle_beta 110.536048
_cell_angle_gamma 90.000000
_cell_volume 1255.131355
_symmetry_space_group_name_H-M "P 2/C"
_symmetry_group_IT_number 13
_symmetry_cell_setting 'monoclinic'
loop_
_space_group_symop_operation_xyz
x,y,z
-x,y,1/2-z
-x,-y,-z
x,-y,1/2+z
loop_
_atom_site_type_symbol
_atom_site_label
_atom_site_fract_x
_atom_site_fract_y
_atom_site_fract_z
Si Si1 0.344701 0.527448 0.129778
Si Si2 0.000000 0.692761 0.750000
Si Si3 0.887349 0.208796 0.480989
Si Si4 0.000000 0.882314 0.750000
Si Si5 0.500000 0.963324 0.250000
Si Si6 0.648123 0.721638 0.907642
Si Si7 0.278232 0.655247 0.043250
Si Si8 0.209788 0.962856 0.100491
O O1 0.500000 0.510909 0.250000
O O2 0.276267 0.502685 0.337038
O O3 0.329958 0.593171 0.102157
O O4 0.065130 0.731536 0.584482
O O5 0.883685 0.655130 0.541469
O O6 0.740696 0.222532 0.489217
O O7 0.883001 0.157960 0.279530
O O8 0.000000 0.186377 0.750000
O O9 0.914396 0.920017 0.495054
O O10 0.355682 0.931079 0.166225
O O11 0.500000 0.000000 0.500000
O O12 0.500000 0.744592 0.750000
O O13 0.683382 0.679309 0.704964
O O14 0.654682 0.690757 0.183448
O O15 0.196790 0.991791 0.365882
#
# Coordination Sequence:
#
# PCOD8118592 Si02
#       8
#     4   2   4   2   2   4   4   4
#     4  10  20  34  51  78 117 151 185 238 298 348
#     4   9  20  38  60  84 108 158 196 241 288 360
#     4  10  21  40  58  82 121 155 188 240 303 353
#     4  11  24  36  60  90 118 162 190 241 292 356
#     4   8  16  34  58  80 114 150 188 238 282 318
#     4  11  22  38  63  88 113 148 203 253 287 346
#     4  11  21  37  62  87 113 153 201 239 294 355
#     4  10  21  38  61  89 118 154 200 242 278 338
#
# _framework density 20.714964999999999
#
# number of rings (size 3 to 8) (size 9 to 14) (size 15 to 20)
#    0.000    1.846    1.538    2.769    2.154    1.231 
#    0.000    2.308    1.692    0.000    0.000    0.000 
#    0.000    0.000    0.000    0.000    0.000    0.000 
#
# Total GULP energy -322113.853869 kJ/mol
# GULP energy per Si atom -12388.994380 kJ/mol
# Density = 2.066782 g / cm^3
# Si number density = 20.714965 Si / 1000 Ang^3
#
#
#
# Elastic Constant Matrix: (Units=GPa)
#
#
# Indices 1 2 3 4 5 6 
#
# 1 70.4668 19.2122 18.2264 0.0000 18.7933 0.0000
# 2 19.2122 63.5792 9.6397 0.0000 1.1925 0.0000
# 3 18.2264 9.6397 93.5654 0.0000 -2.1386 0.0000
# 4 0.0000 0.0000 0.0000 -11.1920 0.0000 17.3982
# 5 18.7933 1.1925 -2.1386 0.0000 42.1012 0.0000
# 6 0.0000 0.0000 0.0000 17.3982 0.0000 2.0744
#
#
#
# Elastic Compliance Matrix: (Units=1/GPa)
#
#
# Indices 1 2 3 4 5 6 
#
# 1 0.018626 -0.004971 -0.003307 0.000000 -0.008342 0.000000
# 2 -0.004971 0.017317 -0.000777 0.000000 0.001689 0.000000
# 3 -0.003307 -0.000777 0.011460 0.000000 0.002080 0.000000
# 4 0.000000 0.000000 0.000000 -0.006365 0.000000 0.053383
# 5 -0.008342 0.001689 0.002080 0.000000 0.027534 0.000000
# 6 0.000000 0.000000 0.000000 0.053383 0.000000 0.034340
#
#
# Mechanical properties :
#
#
# Convention : Reuss Voigt Hill
#
# Bulk Modulus (GPa) = 34.13792 35.75199 34.94495
# Shear Modulus (GPa) = 38.23058 18.63227 28.43143
#
# Velocity S-wave (km/s) = 4.30065 3.00235 3.70875
# Velocity P-wave (km/s) = 6.41689 5.41436 5.93682
#
# Compressibility (1/GPa) = 0.02929294
#
# Stress axis : x y z
#
# Youngs Moduli (GPa) = 53.68749 57.74817 87.26374
#
# Poissons Ratio (x) = 0.28704 0.28858
# Poissons Ratio (y) = 0.26686 0.06782
# Poissons Ratio (z) = 0.17754 0.04488
#
# Static dielectric constant tensor:
#      x y z
#    x 4.077820 0.000000 0.134430 
#    y 0.000000 3.410270 0.000000 
#    z 0.134430 0.000000 4.133470 
# 
# 
# High freq. dielectric constant tensor:
#      x y z
#    x 1.810670 0.000000 0.000210 
#    y 0.000000 1.778230 0.000000 
#    z 0.000210 0.000000 1.829330 
# 
# From -- ./inp_files/4079.got.cif
#   From: 2010.06.25/outbox.cif.g09.slc.cpg/sg13_3_cif.got.tgz:4079.got - 2010.06.28 04:50:58.
