data_PCOD8118913
_publ_section_title
;
Structure prediction by ZEFSAII (Michael W. Deem and Ramdas Pophale) SiO2 
 PCOD8118913
Probable space group: P 2/C
;
_chemical_formula_sum "Si O2"
_cell_formula_units_Z 32
_cell_length_a 26.378492
_cell_length_b 8.830129
_cell_length_c 15.821303
_cell_angle_alpha 90.000000
_cell_angle_beta 154.670775
_cell_angle_gamma 90.000000
_cell_volume 1576.591873
_symmetry_space_group_name_H-M "P 2/C"
_symmetry_group_IT_number 13
_symmetry_cell_setting 'monoclinic'
loop_
_space_group_symop_operation_xyz
x,y,z
-x,y,1/2-z
-x,-y,-z
x,-y,1/2+z
loop_
_atom_site_type_symbol
_atom_site_label
_atom_site_fract_x
_atom_site_fract_y
_atom_site_fract_z
Si Si1 0.851916 0.259645 0.977187
Si Si2 0.691763 0.506287 0.679409
Si Si3 0.953626 0.337118 0.771316
Si Si4 0.300238 0.001212 0.299098
Si Si5 0.298601 0.257223 0.163117
Si Si6 0.176542 0.759791 0.713328
Si Si7 0.483976 0.255556 0.127465
Si Si8 0.096221 0.336196 0.271165
O O1 0.788945 0.374953 0.818711
O O2 0.806877 0.090045 0.902870
O O3 0.815638 0.320605 0.016476
O O4 0.985090 0.251714 0.145226
O O5 0.688614 0.585555 0.766469
O O6 0.730956 0.625266 0.666822
O O7 0.568533 0.421750 0.473668
O O8 0.834531 0.238866 0.576386
O O9 0.925258 0.487245 0.783683
O O10 0.000000 0.394610 0.750000
O O11 0.057734 0.245319 0.975732
O O12 0.336311 0.124978 0.284121
O O13 0.247772 0.084499 0.303573
O O14 0.408267 0.888476 0.481537
O O15 0.386628 0.251249 0.217699
O O16 0.141590 0.754265 0.758443
O O17 0.500000 0.237655 0.250000
#
# Coordination Sequence:
#
# PCOD8118913 Si02
#       8
#     4   4   4   4   4   4   4   4
#     4  10  20  36  58  85 128 170 200 249 309 380
#     4  10  20  40  63  89 120 159 211 257 308 370
#     4  12  19  37  66  98 132 157 207 257 316 373
#     4  10  24  43  61  86 124 170 211 251 312 377
#     4  11  22  42  68  90 122 169 212 252 309 374
#     4  11  23  37  65  98 127 164 204 264 313 368
#     4  11  26  42  64  91 125 163 212 266 312 359
#     4  11  20  34  59  96 130 161 205 257 315 365
#
# _framework density 20.296944
#
# number of rings (size 3 to 8) (size 9 to 14) (size 15 to 20)
#    0.000    1.250    6.250    1.125    1.750    4.500 
#    0.000    2.500    0.000    0.000    0.000    0.000 
#    0.000    0.000    0.000    0.000    0.000    0.000 
#
# Total GULP energy -396625.512557 kJ/mol
# GULP energy per Si atom -12394.547267 kJ/mol
# Density = 2.025075 g / cm^3
# Si number density = 20.296944 Si / 1000 Ang^3
#
#
#
# Elastic Constant Matrix: (Units=GPa)
#
#
# Indices 1 2 3 4 5 6 
#
# 1 142.3574 30.0443 26.1108 0.0000 11.0541 0.0000
# 2 30.0443 88.9002 36.4226 0.0000 8.4518 0.0000
# 3 26.1108 36.4226 66.8915 0.0000 14.4672 0.0000
# 4 0.0000 0.0000 0.0000 25.6564 0.0000 -3.3853
# 5 11.0541 8.4518 14.4672 0.0000 22.2473 0.0000
# 6 0.0000 0.0000 0.0000 -3.3853 0.0000 14.5789
#
#
#
# Elastic Compliance Matrix: (Units=1/GPa)
#
#
# Indices 1 2 3 4 5 6 
#
# 1 0.007869 -0.001785 -0.001630 0.000000 -0.002172 0.000000
# 2 -0.001785 0.014887 -0.007422 0.000000 0.000058 0.000000
# 3 -0.001630 -0.007422 0.021926 0.000000 -0.010629 0.000000
# 4 0.000000 0.000000 0.000000 0.040209 0.000000 0.009337
# 5 -0.002172 0.000058 -0.010629 0.000000 0.052918 0.000000
# 6 0.000000 0.000000 0.000000 0.009337 0.000000 0.070760
#
#
# Mechanical properties :
#
#
# Convention : Reuss Voigt Hill
#
# Bulk Modulus (GPa) = 43.46255 53.70050 48.58152
# Shear Modulus (GPa) = 21.01619 26.20128 23.60873
#
# Velocity S-wave (km/s) = 3.22131 3.59680 3.41422
# Velocity P-wave (km/s) = 5.94101 6.61545 6.28728
#
# Compressibility (1/GPa) = 0.02300832
#
# Stress axis : x y z
#
# Youngs Moduli (GPa) = 127.08246 67.17245 45.60852
#
# Poissons Ratio (x) = 0.11991 0.07434
# Poissons Ratio (y) = 0.22685 0.33849
# Poissons Ratio (z) = 0.20713 0.49853
#
# Static dielectric constant tensor:
#      x y z
#    x 3.566880 0.000000 0.012070 
#    y 0.000000 3.682450 0.000000 
#    z 0.012070 0.000000 3.737000 
# 
# 
# High freq. dielectric constant tensor:
#      x y z
#    x 1.787780 0.000000 0.003010 
#    y 0.000000 1.792880 0.000000 
#    z 0.003010 0.000000 1.784060 
# 
# From -- ./inp_files/58830.got.cif
#   From: 2010.06.25/outbox.cif.g09.slc.cpg/sg13_30_cif.got.tgz:58830.got - 2010.06.28 04:50:58.
