data_PCOD8118970
_publ_section_title
;
Structure prediction by ZEFSAII (Michael W. Deem and Ramdas Pophale) SiO2 
 PCOD8118970
Probable space group: P 2/C
;
_chemical_formula_sum "Si O2"
_cell_formula_units_Z 28
_cell_length_a 20.411304
_cell_length_b 10.942091
_cell_length_c 17.686502
_cell_angle_alpha 90.000000
_cell_angle_beta 159.776242
_cell_angle_gamma 90.000000
_cell_volume 1365.514987
_symmetry_space_group_name_H-M "P 2/C"
_symmetry_group_IT_number 13
_symmetry_cell_setting 'monoclinic'
loop_
_space_group_symop_operation_xyz
x,y,z
-x,y,1/2-z
-x,-y,-z
x,-y,1/2+z
loop_
_atom_site_type_symbol
_atom_site_label
_atom_site_fract_x
_atom_site_fract_y
_atom_site_fract_z
Si Si1 0.858620 0.894998 0.948289
Si Si2 0.687747 0.710788 0.411966
Si Si3 0.402733 0.012241 0.722543
Si Si4 0.269977 0.389176 0.701293
Si Si5 0.112659 0.732496 0.723172
Si Si6 0.784163 0.998669 0.711975
Si Si7 0.679299 0.654026 0.689725
O O1 0.804127 0.994557 0.824394
O O2 0.772677 0.762964 0.837996
O O3 0.780592 0.936668 0.946275
O O4 0.090008 0.894132 0.192751
O O5 0.500000 0.667013 0.250000
O O6 0.662098 0.848100 0.353108
O O7 0.715310 0.618637 0.373157
O O8 0.861614 0.701169 0.660111
O O9 0.500000 0.965776 0.750000
O O10 0.561591 0.988503 0.957622
O O11 0.237413 0.530534 0.685119
O O12 0.090180 0.307663 0.529877
O O13 0.450490 0.339920 0.944186
O O14 0.137748 0.876227 0.742547
O O15 0.269851 0.662639 0.843769
#
# Coordination Sequence:
#
# PCOD8118970 Si02
#       7
#     4   4   4   4   4   4   4
#     4  10  22  36  58  83 121 154 189 234 284 354
#     4  11  19  37  61  87 119 141 189 250 287 337
#     4  11  21  37  59  87 120 150 187 239 293 348
#     4  11  22  37  63  85 114 155 193 242 297 332
#     4  11  20  37  62  89 112 145 194 247 288 341
#     4  10  20  36  60  90 112 150 193 232 295 344
#     4  10  23  41  57  85 118 152 199 242 281 344
#
# _framework density 20.505085999999999
#
# number of rings (size 3 to 8) (size 9 to 14) (size 15 to 20)
#    0.000    1.429    4.286    3.000    0.000    4.000 
#    0.000    0.714    6.286    0.000    0.000    0.000 
#    0.000    0.000    0.000    0.000    0.000    0.000 
#
# Total GULP energy -347054.393923 kJ/mol
# GULP energy per Si atom -12394.799783 kJ/mol
# Density = 2.045842 g / cm^3
# Si number density = 20.505086 Si / 1000 Ang^3
#
#
#
# Elastic Constant Matrix: (Units=GPa)
#
#
# Indices 1 2 3 4 5 6 
#
# 1 88.0011 24.7856 -12.0778 0.0000 0.1589 0.0000
# 2 24.7856 75.0171 21.6815 0.0000 4.9209 0.0000
# 3 -12.0778 21.6815 73.9314 0.0000 6.1842 0.0000
# 4 0.0000 0.0000 0.0000 27.3370 0.0000 1.9809
# 5 0.1589 4.9209 6.1842 0.0000 33.2906 0.0000
# 6 0.0000 0.0000 0.0000 1.9809 0.0000 19.7021
#
#
#
# Elastic Compliance Matrix: (Units=1/GPa)
#
#
# Indices 1 2 3 4 5 6 
#
# 1 0.013452 -0.005552 0.003822 0.000000 0.000047 0.000000
# 2 -0.005552 0.016919 -0.005751 0.000000 -0.001406 0.000000
# 3 0.003822 -0.005751 0.016016 0.000000 -0.002143 0.000000
# 4 0.000000 0.000000 0.000000 0.036849 0.000000 -0.003705
# 5 0.000047 -0.001406 -0.002143 0.000000 0.030644 0.000000
# 6 0.000000 0.000000 0.000000 -0.003705 0.000000 0.051129
#
#
# Mechanical properties :
#
#
# Convention : Reuss Voigt Hill
#
# Bulk Modulus (GPa) = 31.82242 33.96978 32.89610
# Shear Modulus (GPa) = 26.25411 29.56998 27.91204
#
# Velocity S-wave (km/s) = 3.58211 3.80159 3.69348
# Velocity P-wave (km/s) = 5.71504 5.98932 5.85378
#
# Compressibility (1/GPa) = 0.03142439
#
# Stress axis : x y z
#
# Youngs Moduli (GPa) = 74.34007 59.10469 62.43627
#
# Poissons Ratio (x) = 0.32815 -0.23862
# Poissons Ratio (y) = 0.41274 0.35908
# Poissons Ratio (z) = -0.28412 0.33992
#
# Static dielectric constant tensor:
#      x y z
#    x 3.838070 0.000000 0.119110 
#    y 0.000000 3.356060 0.000000 
#    z 0.119110 0.000000 4.015430 
# 
# 
# High freq. dielectric constant tensor:
#      x y z
#    x 1.806880 0.000000 0.013580 
#    y 0.000000 1.762930 0.000000 
#    z 0.013580 0.000000 1.811630 
# 
# From -- ./inp_files/70728.got.cif
#   From: 2010.06.25/outbox.cif.g09.slc.cpg/sg13_36_cif.got.tgz:70728.got - 2010.06.28 04:50:58.
