data_PCOD8118904
_publ_section_title
;
Structure prediction by ZEFSAII (Michael W. Deem and Ramdas Pophale) SiO2 
 PCOD8118904
Probable space group: P 2/C
;
_chemical_formula_sum "Si O2"
_cell_formula_units_Z 20
_cell_length_a 8.866740
_cell_length_b 22.960805
_cell_length_c 10.145795
_cell_angle_alpha 90.000000
_cell_angle_beta 150.296842
_cell_angle_gamma 90.000000
_cell_volume 1023.496971
_symmetry_space_group_name_H-M "P 2/C"
_symmetry_group_IT_number 13
_symmetry_cell_setting 'monoclinic'
loop_
_space_group_symop_operation_xyz
x,y,z
-x,y,1/2-z
-x,-y,-z
x,-y,1/2+z
loop_
_atom_site_type_symbol
_atom_site_label
_atom_site_fract_x
_atom_site_fract_y
_atom_site_fract_z
Si Si1 0.848919 0.831395 0.499007
Si Si2 0.671419 0.471344 0.246851
Si Si3 0.668738 0.664372 0.743965
Si Si4 0.302077 0.717065 0.231059
Si Si5 0.860974 0.960045 0.506605
O O1 0.500000 0.846118 0.250000
O O2 0.862060 0.781145 0.396144
O O3 0.984537 0.894474 0.563706
O O4 0.000000 0.807767 0.750000
O O5 0.500000 0.486796 0.250000
O O6 0.645957 0.403304 0.194811
O O7 0.000000 0.500000 0.500000
O O8 0.500000 0.500000 0.000000
O O9 0.500000 0.681270 0.750000
O O10 0.524439 0.706088 0.522897
O O11 0.029634 0.671688 0.031915
O O12 0.500000 0.709031 0.250000
O O13 0.500000 0.966297 0.250000
O O14 0.000000 0.000000 0.500000
O O15 0.000000 0.980244 0.750000
#
# Coordination Sequence:
#
# PCOD8118904 Si02
#       5
#     4   4   4   4   4
#     4   9  18  34  56  82 113 149 188 235 286 332
#     4  11  24  41  61  84 114 149 186 228 279 336
#     4  11  24  40  57  84 120 149 175 229 298 335
#     4  11  21  37  61  85 108 147 198 233 265 335
#     4  10  20  36  58  83 115 152 191 237 288 340
#
# _framework density 19.540849000000001
#
# number of rings (size 3 to 8) (size 9 to 14) (size 15 to 20)
#    0.000    1.600    0.000    6.000    0.000    8.000 
#    0.000    3.000    0.000    0.000    0.000    0.000 
#    0.000    0.000    0.000    0.000    0.000    0.000 
#
# Total GULP energy -247836.180249 kJ/mol
# GULP energy per Si atom -12391.809012 kJ/mol
# Density = 1.949637 g / cm^3
# Si number density = 19.540849 Si / 1000 Ang^3
#
#
#
# Elastic Constant Matrix: (Units=GPa)
#
#
# Indices 1 2 3 4 5 6 
#
# 1 107.1084 62.4160 34.2829 0.0000 1.8822 0.0000
# 2 62.4160 101.2375 34.4207 0.0000 -18.8056 0.0000
# 3 34.2829 34.4207 120.0115 0.0000 -0.1080 0.0000
# 4 0.0000 0.0000 0.0000 783.5166 0.0000 -109.2087
# 5 1.8822 -18.8056 -0.1080 0.0000 34.0777 0.0000
# 6 0.0000 0.0000 0.0000 -109.2087 0.0000 48.1204
#
#
#
# Elastic Compliance Matrix: (Units=1/GPa)
#
#
# Indices 1 2 3 4 5 6 
#
# 1 0.016208 -0.010730 -0.001559 0.000000 -0.006821 0.000000
# 2 -0.010730 0.019446 -0.002502 0.000000 0.011316 0.000000
# 3 -0.001559 -0.002502 0.009494 0.000000 -0.001264 0.000000
# 4 0.000000 0.000000 0.000000 0.001867 0.000000 0.004237
# 5 -0.006821 0.011316 -0.001264 0.000000 0.035962 0.000000
# 6 0.000000 0.000000 0.000000 0.004237 0.000000 0.030396
#
#
# Mechanical properties :
#
#
# Convention : Reuss Voigt Hill
#
# Bulk Modulus (GPa) = 64.23905 65.62186 64.93046
# Shear Modulus (GPa) = 33.75134 186.29213 110.02174
#
# Velocity S-wave (km/s) = 4.16049 9.77454 7.51170
# Velocity P-wave (km/s) = 7.48500 12.69030 10.41799
#
# Compressibility (1/GPa) = 0.01556686
#
# Stress axis : x y z
#
# Youngs Moduli (GPa) = 61.69911 51.42559 105.32696
#
# Poissons Ratio (x) = 0.55178 0.16417
# Poissons Ratio (y) = 0.66201 0.26352
# Poissons Ratio (z) = 0.09617 0.12866
#
# Static dielectric constant tensor:
#      x y z
#    x 3.390970 0.000000 0.051050 
#    y 0.000000 3.621530 0.000000 
#    z 0.051050 0.000000 3.730410 
# 
# 
# High freq. dielectric constant tensor:
#      x y z
#    x 1.739080 0.000000 0.005230 
#    y 0.000000 1.774740 0.000000 
#    z 0.005230 0.000000 1.787930 
# 
# From -- ./inp_files/13837.got.cif
#   From: 2010.06.25/outbox.cif.g09.slc.cpg/sg13_7_cif.got.tgz:13837.got - 2010.06.28 04:50:58.
