data_PCOD8118916
_publ_section_title
;
Structure prediction by ZEFSAII (Michael W. Deem and Ramdas Pophale) SiO2 
 PCOD8118916
Probable space group: P 2/C
;
_chemical_formula_sum "Si O2"
_cell_formula_units_Z 32
_cell_length_a 8.941723
_cell_length_b 23.850093
_cell_length_c 15.475385
_cell_angle_alpha 90.000000
_cell_angle_beta 30.077678
_cell_angle_gamma 90.000000
_cell_volume 1654.020828
_symmetry_space_group_name_H-M "P 2/C"
_symmetry_group_IT_number 13
_symmetry_cell_setting 'monoclinic'
loop_
_space_group_symop_operation_xyz
x,y,z
-x,y,1/2-z
-x,-y,-z
x,-y,1/2+z
loop_
_atom_site_type_symbol
_atom_site_label
_atom_site_fract_x
_atom_site_fract_y
_atom_site_fract_z
Si Si1 0.149908 0.555367 0.524189
Si Si2 0.853801 0.325195 0.410317
Si Si3 0.853803 0.674806 0.235880
Si Si4 0.154011 0.863702 0.922994
Si Si5 0.149904 0.444632 0.825906
Si Si6 0.146536 0.059313 0.264914
Si Si7 0.146418 0.255011 0.926791
Si Si8 0.853465 0.940686 0.411449
O O1 0.040314 0.610691 0.628829
O O2 0.500002 0.548057 0.356992
O O3 0.049891 0.562319 0.475055
O O4 0.000003 0.499999 0.640384
O O5 0.499999 0.321398 0.580505
O O6 0.974533 0.287051 0.428172
O O7 0.000000 0.301707 0.250000
O O8 0.959690 0.610692 0.169140
O O9 0.974534 0.712951 0.097294
O O10 0.000000 0.698293 0.250000
O O11 0.500000 0.847569 0.750000
O O12 0.068827 0.898516 0.880606
O O13 0.068826 0.898515 0.050567
O O14 0.961547 0.808155 0.019225
O O15 0.000000 0.083064 0.250000
O O16 0.500001 0.051710 0.075961
O O17 0.000003 0.999999 0.361782
O O18 0.500000 0.256285 0.750000
O O19 0.000000 0.916935 0.250000
#
# Coordination Sequence:
#
# PCOD8118916 Si02
#       8
#     4   4   4   4   4   4   4   4
#     4   9  17  32  54  78 107 139 174 218 270 329
#     4  10  21  38  58  80 107 142 182 227 276 328
#     4  10  21  38  58  80 107 142 182 227 276 328
#     4  10  23  39  57  83 115 148 186 232 275 320
#     4   9  17  32  54  78 107 139 174 218 270 329
#     4  10  20  36  58  86 119 151 184 225 272 323
#     4  10  22  41  60  77 106 148 189 228 275 326
#     4  10  20  36  58  86 119 151 184 225 272 323
#
# _framework density 19.346793000000002
#
# number of rings (size 3 to 8) (size 9 to 14) (size 15 to 20)
#    0.000    2.250    1.250    1.875    0.000    5.500 
#    0.000    7.500    0.000    0.000    0.000    0.000 
#    0.000    0.000    0.000    0.000    0.000    0.000 
#
# Total GULP energy -396837.934064 kJ/mol
# GULP energy per Si atom -12401.185439 kJ/mol
# Density = 1.930276 g / cm^3
# Si number density = 19.346793 Si / 1000 Ang^3
#
#
#
# Elastic Constant Matrix: (Units=GPa)
#
#
# Indices 1 2 3 4 5 6 
#
# 1 126.9853 70.6174 45.4487 0.0000 24.5791 0.0000
# 2 70.6174 123.3021 52.2402 0.0000 18.6859 0.0000
# 3 45.4487 52.2402 79.2216 0.0000 23.9833 0.0000
# 4 0.0000 0.0000 0.0000 28.2374 0.0000 -10.3308
# 5 24.5791 18.6859 23.9833 0.0000 29.2871 0.0000
# 6 0.0000 0.0000 0.0000 -10.3308 0.0000 18.0765
#
#
#
# Elastic Compliance Matrix: (Units=1/GPa)
#
#
# Indices 1 2 3 4 5 6 
#
# 1 0.012788 -0.005671 -0.001919 0.000000 -0.005543 0.000000
# 2 -0.005671 0.013817 -0.006156 0.000000 0.000985 0.000000
# 3 -0.001919 -0.006156 0.021416 0.000000 -0.011999 0.000000
# 4 0.000000 0.000000 0.000000 0.044776 0.000000 0.025590
# 5 -0.005543 0.000985 -0.011999 0.000000 0.047994 0.000000
# 6 0.000000 0.000000 0.000000 0.025590 0.000000 0.069945
#
#
# Mechanical properties :
#
#
# Convention : Reuss Voigt Hill
#
# Bulk Modulus (GPa) = 48.71127 74.01351 61.36239
# Shear Modulus (GPa) = 20.40223 25.86703 23.13463
#
# Velocity S-wave (km/s) = 3.25091 3.66049 3.46177
# Velocity P-wave (km/s) = 6.27087 7.49699 6.91118
#
# Compressibility (1/GPa) = 0.02052913
#
# Stress axis : x y z
#
# Youngs Moduli (GPa) = 78.19629 72.37480 46.69502
#
# Poissons Ratio (x) = 0.41045 0.08960
# Poissons Ratio (y) = 0.44346 0.28745
# Poissons Ratio (z) = 0.15005 0.44553
#
# Static dielectric constant tensor:
#      x y z
#    x 3.603890 0.000000 0.153640 
#    y 0.000000 3.517440 0.000000 
#    z 0.153640 0.000000 3.452760 
# 
# 
# High freq. dielectric constant tensor:
#      x y z
#    x 1.756670 0.000000 0.008560 
#    y 0.000000 1.751260 0.000000 
#    z 0.008560 0.000000 1.748250 
# 
# From -- ./inp_files/48288.got.cif
#   From: 2010.06.25/outbox.cif.g09.slc.cpg/sg13_25_cif.got.tgz:48288.got - 2010.06.28 04:50:58.
