data_PCOD8118835
_publ_section_title
;
Structure prediction by ZEFSAII (Michael W. Deem and Ramdas Pophale) SiO2 
 PCOD8118835
Probable space group: P 2/C
;
_chemical_formula_sum "Si O2"
_cell_formula_units_Z 32
_cell_length_a 8.964163
_cell_length_b 16.263052
_cell_length_c 22.869384
_cell_angle_alpha 90.000000
_cell_angle_beta 152.383064
_cell_angle_gamma 90.000000
_cell_volume 1545.504635
_symmetry_space_group_name_H-M "P 2/C"
_symmetry_group_IT_number 13
_symmetry_cell_setting 'monoclinic'
loop_
_space_group_symop_operation_xyz
x,y,z
-x,y,1/2-z
-x,-y,-z
x,-y,1/2+z
loop_
_atom_site_type_symbol
_atom_site_label
_atom_site_fract_x
_atom_site_fract_y
_atom_site_fract_z
Si Si1 0.249631 0.668884 0.712595
Si Si2 0.562703 0.632693 0.424081
Si Si3 0.663196 0.321233 0.535201
Si Si4 0.238019 0.067178 0.777246
Si Si5 0.332620 0.242875 0.753130
Si Si6 0.749842 0.965268 0.541718
Si Si7 0.360728 0.549746 0.851639
Si Si8 0.900063 0.803790 0.654566
O O1 0.500000 0.692483 0.750000
O O2 0.401793 0.599739 0.806329
O O3 0.921165 0.633566 0.572848
O O4 0.193100 0.751627 0.730007
O O5 0.311516 0.663049 0.386510
O O6 0.549921 0.693460 0.364717
O O7 0.474471 0.541016 0.374773
O O8 0.590252 0.409137 0.480031
O O9 0.384322 0.256551 0.425196
O O10 0.988711 0.284295 0.622617
O O11 0.295665 0.158730 0.775432
O O12 0.000000 0.069703 0.750000
O O13 0.584294 0.028403 0.919435
O O14 0.086692 0.014137 0.670282
O O15 0.500000 0.224001 0.750000
O O16 0.795491 0.868848 0.569806
O O17 0.500000 0.000000 0.500000
O O18 0.000000 0.551547 0.750000
O O19 0.000000 0.849104 0.750000
#
# Coordination Sequence:
#
# PCOD8118835 Si02
#       8
#     4   4   4   4   4   4   4   4
#     4  11  25  42  60  91 133 171 212 271 326 392
#     4  11  25  41  68  90 124 173 221 271 332 387
#     4  11  21  41  64  94 122 170 216 274 322 394
#     4  10  20  42  64  97 128 167 215 275 323 396
#     4  12  27  42  63  93 135 177 214 264 333 399
#     4  10  20  35  67 100 128 159 220 275 330 381
#     4  12  22  42  66  96 123 163 227 280 323 387
#     4  11  19  38  65  94 126 168 219 266 325 390
#
# _framework density 20.705210999999998
#
# number of rings (size 3 to 8) (size 9 to 14) (size 15 to 20)
#    0.000    1.000    3.750    6.375    3.500    1.000 
#    0.000    1.250    0.000    0.000    0.000    0.000 
#    0.000    0.000    0.000    0.000    0.000    0.000 
#
# Total GULP energy -396789.568858 kJ/mol
# GULP energy per Si atom -12399.674027 kJ/mol
# Density = 2.065808 g / cm^3
# Si number density = 20.705211 Si / 1000 Ang^3
#
#
#
# Elastic Constant Matrix: (Units=GPa)
#
#
# Indices 1 2 3 4 5 6 
#
# 1 77.6410 18.9559 36.5112 0.0000 2.9811 0.0000
# 2 18.9559 119.7995 43.2122 0.0000 -8.4581 0.0000
# 3 36.5112 43.2122 108.8452 0.0000 -18.0753 0.0000
# 4 0.0000 0.0000 0.0000 3.6822 0.0000 -13.4369
# 5 2.9811 -8.4581 -18.0753 0.0000 29.4417 0.0000
# 6 0.0000 0.0000 0.0000 -13.4369 0.0000 -4.1561
#
#
#
# Elastic Compliance Matrix: (Units=1/GPa)
#
#
# Indices 1 2 3 4 5 6 
#
# 1 0.016112 -0.000770 -0.006021 0.000000 -0.005549 0.000000
# 2 -0.000770 0.009785 -0.003504 0.000000 0.000738 0.000000
# 3 -0.006021 -0.003504 0.013955 0.000000 0.008170 0.000000
# 4 0.000000 0.000000 0.000000 0.021220 0.000000 -0.068607
# 5 -0.005549 0.000738 0.008170 0.000000 0.039755 0.000000
# 6 0.000000 0.000000 0.000000 -0.068607 0.000000 -0.018801
#
#
# Mechanical properties :
#
#
# Convention : Reuss Voigt Hill
#
# Bulk Modulus (GPa) = 51.91157 55.96047 53.93602
# Shear Modulus (GPa) = 45.85642 19.63400 32.74521
#
# Velocity S-wave (km/s) = 4.71120 3.08273 3.98112
# Velocity P-wave (km/s) = 7.39730 6.30531 6.87302
#
# Compressibility (1/GPa) = 0.01926353
#
# Stress axis : x y z
#
# Youngs Moduli (GPa) = 62.06583 102.19660 71.65968
#
# Poissons Ratio (x) = 0.07864 0.43143
# Poissons Ratio (y) = 0.04776 0.25110
# Poissons Ratio (z) = 0.37367 0.35811
#
# Static dielectric constant tensor:
#      x y z
#    x 3.582870 0.000000 -0.176960 
#    y 0.000000 3.785400 0.000000 
#    z -0.176960 0.000000 4.200030 
# 
# 
# High freq. dielectric constant tensor:
#      x y z
#    x 1.777990 0.000000 -0.016170 
#    y 0.000000 1.819270 0.000000 
#    z -0.016170 0.000000 1.825110 
# 
# From -- ./inp_files/85358.got.cif
#   From: 2010.06.25/outbox.cif.g09.slc.cpg/sg13_43_cif.got.tgz:85358.got - 2010.06.28 04:50:58.
