data_PCOD8118239
_publ_section_title
;
Structure prediction by ZEFSAII (Michael W. Deem and Ramdas Pophale) SiO2 
 PCOD8118239
Probable space group: P 2/C
;
_chemical_formula_sum "Si O2"
_cell_formula_units_Z 28
_cell_length_a 6.259744
_cell_length_b 16.355200
_cell_length_c 14.368298
_cell_angle_alpha 90.000000
_cell_angle_beta 63.999334
_cell_angle_gamma 90.000000
_cell_volume 1322.134029
_symmetry_space_group_name_H-M "P 2/C"
_symmetry_group_IT_number 13
_symmetry_cell_setting 'monoclinic'
loop_
_space_group_symop_operation_xyz
x,y,z
-x,y,1/2-z
-x,-y,-z
x,-y,1/2+z
loop_
_atom_site_type_symbol
_atom_site_label
_atom_site_fract_x
_atom_site_fract_y
_atom_site_fract_z
Si Si1 0.347646 0.908694 0.490733
Si Si2 0.427502 0.060886 0.367829
Si Si3 0.035647 0.378221 0.035371
Si Si4 0.079895 0.795442 0.962904
Si Si5 0.786789 0.190851 0.855781
Si Si6 0.456077 0.646773 0.154406
Si Si7 0.235235 0.527274 0.071148
O O1 0.353006 0.926002 0.601593
O O2 0.613880 0.885563 0.406968
O O3 0.175606 0.834535 0.504347
O O4 0.270211 0.988255 0.444994
O O5 0.500000 0.034235 0.250000
O O6 0.280707 0.144824 0.384488
O O7 0.296705 0.357833 0.946899
O O8 0.917357 0.292336 0.091229
O O9 0.861652 0.417442 0.993661
O O10 0.070680 0.445138 0.112014
O O11 0.111854 0.776494 0.065747
O O12 0.646493 0.262300 0.830630
O O13 0.000000 0.159200 0.750000
O O14 0.500000 0.619717 0.250000
O O15 0.250728 0.583753 0.159277
O O16 0.500000 0.500000 0.000000
#
# Coordination Sequence:
#
# PCOD8118239 Si02
#       7
#     4   4   4   4   4   4   4
#     4  10  23  43  62  93 127 164 208 257 319 384
#     4  10  24  42  63  92 125 163 213 262 312 378
#     4  10  19  37  61  83 115 163 205 251 303 370
#     4  11  21  39  65  88 121 166 213 259 313 376
#     4  11  23  34  57  98 128 164 202 254 320 386
#     4  11  21  33  55  89 127 156 199 254 313 383
#     4   9  20  35  56  84 111 160 204 246 308 366
#
# _framework density 21.177882
#
# number of rings (size 3 to 8) (size 9 to 14) (size 15 to 20)
#    0.000    1.714    2.857    1.286    2.000    0.571 
#    0.000    0.000    0.000   20.571    0.000    0.000 
#    0.000    0.000    0.000    0.000    0.000    0.000 
#
# Total GULP energy -347001.693098 kJ/mol
# GULP energy per Si atom -12392.917611 kJ/mol
# Density = 2.112968 g / cm^3
# Si number density = 21.177882 Si / 1000 Ang^3
#
#
#
# Elastic Constant Matrix: (Units=GPa)
#
#
# Indices 1 2 3 4 5 6 
#
# 1 97.3777 43.2377 24.8259 0.0000 16.7726 0.0000
# 2 43.2377 149.6910 14.6625 0.0000 16.7218 0.0000
# 3 24.8259 14.6625 69.0067 0.0000 19.3099 0.0000
# 4 0.0000 0.0000 0.0000 18.4040 0.0000 6.5652
# 5 16.7726 16.7218 19.3099 0.0000 28.3494 0.0000
# 6 0.0000 0.0000 0.0000 6.5652 0.0000 32.8161
#
#
#
# Elastic Compliance Matrix: (Units=1/GPa)
#
#
# Indices 1 2 3 4 5 6 
#
# 1 0.013047 -0.003042 -0.002952 0.000000 -0.003914 0.000000
# 2 -0.003042 0.007871 0.000269 0.000000 -0.003026 0.000000
# 3 -0.002952 0.000269 0.018596 0.000000 -0.011079 0.000000
# 4 0.000000 0.000000 0.000000 0.058512 0.000000 -0.011706
# 5 -0.003914 -0.003026 -0.011079 0.000000 0.046921 0.000000
# 6 0.000000 0.000000 0.000000 -0.011706 0.000000 0.032815
#
#
# Mechanical properties :
#
#
# Convention : Reuss Voigt Hill
#
# Bulk Modulus (GPa) = 35.63423 53.50306 44.56865
# Shear Modulus (GPa) = 25.18049 31.47051 28.32550
#
# Velocity S-wave (km/s) = 3.45193 3.85906 3.66116
# Velocity P-wave (km/s) = 5.72280 6.72123 6.24201
#
# Compressibility (1/GPa) = 0.02806290
#
# Stress axis : x y z
#
# Youngs Moduli (GPa) = 76.64701 127.05144 53.77389
#
# Poissons Ratio (x) = 0.38651 0.15875
# Poissons Ratio (y) = 0.23317 -0.01445
# Poissons Ratio (z) = 0.22627 -0.03414
#
# Static dielectric constant tensor:
#      x y z
#    x 4.088200 0.000000 0.242000 
#    y 0.000000 4.195400 0.000000 
#    z 0.242000 0.000000 3.397980 
# 
# 
# High freq. dielectric constant tensor:
#      x y z
#    x 1.848370 0.000000 0.015160 
#    y 0.000000 1.852760 0.000000 
#    z 0.015160 0.000000 1.777310 
# 
# From -- ./inp_files/44260.got.cif
#   From: 2010.06.25/outbox.cif.g09.slc.cpg/sg13_23_cif.got.tgz:44260.got - 2010.06.28 04:50:58.
