data_PCOD8118086
_publ_section_title
;
Structure prediction by ZEFSAII (Michael W. Deem and Ramdas Pophale) SiO2 
 PCOD8118086
Probable space group: P 2/C
;
_chemical_formula_sum "Si O2"
_cell_formula_units_Z 28
_cell_length_a 6.438032
_cell_length_b 12.335492
_cell_length_c 19.581553
_cell_angle_alpha 90.000000
_cell_angle_beta 118.597917
_cell_angle_gamma 90.000000
_cell_volume 1365.373414
_symmetry_space_group_name_H-M "P 2/C"
_symmetry_group_IT_number 13
_symmetry_cell_setting 'monoclinic'
loop_
_space_group_symop_operation_xyz
x,y,z
-x,y,1/2-z
-x,-y,-z
x,-y,1/2+z
loop_
_atom_site_type_symbol
_atom_site_label
_atom_site_fract_x
_atom_site_fract_y
_atom_site_fract_z
Si Si1 0.647035 0.864152 0.132105
Si Si2 0.500000 0.937269 0.250000
Si Si3 0.014163 0.441677 0.177457
Si Si4 0.128456 0.155050 0.512468
Si Si5 0.977423 0.004032 0.883998
Si Si6 0.150352 0.398997 0.492374
Si Si7 0.500000 0.547737 0.250000
Si Si8 0.639916 0.375550 0.630260
O O1 0.604686 0.863164 0.206660
O O2 0.401053 0.882273 0.054437
O O3 0.832871 0.958751 0.143038
O O4 0.734132 0.743841 0.126242
O O5 0.715180 0.010181 0.312070
O O6 0.282709 0.467456 0.201218
O O7 0.000000 0.381282 0.250000
O O8 0.870525 0.552719 0.160945
O O9 0.900224 0.377837 0.096042
O O10 0.086765 0.283653 0.517291
O O11 0.996925 0.096420 0.554077
O O12 0.030597 0.113890 0.424139
O O13 0.430782 0.418623 0.547281
O O14 0.000000 0.500000 0.500000
O O15 0.462430 0.623860 0.309165
#
# Coordination Sequence:
#
# PCOD8118086 Si02
#       8
#     4   2   4   4   4   4   2   4
#     4  10  20  34  59  87 116 150 192 245 300 345
#     4  10  21  34  57  90 120 146 197 239 294 366
#     4  10  22  37  55  80 120 155 195 237 298 353
#     4   9  22  39  59  85 114 151 200 245 291 350
#     4  10  20  39  59  83 118 153 193 242 299 351
#     4  11  21  39  63  85 118 154 201 249 292 351
#     4  10  19  36  51  80 120 158 185 251 294 348
#     4  10  21  34  58  86 116 154 197 244 301 353
#
# _framework density 20.507210000000001
#
# number of rings (size 3 to 8) (size 9 to 14) (size 15 to 20)
#    0.000    2.000    1.429    1.714    2.000    4.571 
#    0.000    2.143    0.000    0.000    0.000    0.000 
#    0.000    0.000    0.000    0.000    0.000    0.000 
#
# Total GULP energy -347040.568195 kJ/mol
# GULP energy per Si atom -12394.306007 kJ/mol
# Density = 2.046053 g / cm^3
# Si number density = 20.507210 Si / 1000 Ang^3
#
#
#
# Elastic Constant Matrix: (Units=GPa)
#
#
# Indices 1 2 3 4 5 6 
#
# 1 90.2767 25.7753 31.7921 0.0000 7.2974 0.0000
# 2 25.7753 70.4448 19.8496 0.0000 4.1792 0.0000
# 3 31.7921 19.8496 134.3530 0.0000 11.4498 0.0000
# 4 0.0000 0.0000 0.0000 20.3507 0.0000 0.2962
# 5 7.2974 4.1792 11.4498 0.0000 32.5037 0.0000
# 6 0.0000 0.0000 0.0000 0.2962 0.0000 20.9650
#
#
#
# Elastic Compliance Matrix: (Units=1/GPa)
#
#
# Indices 1 2 3 4 5 6 
#
# 1 0.013208 -0.004065 -0.002388 0.000000 -0.001601 0.000000
# 2 -0.004065 0.016106 -0.001360 0.000000 -0.000679 0.000000
# 3 -0.002388 -0.001360 0.008401 0.000000 -0.002248 0.000000
# 4 0.000000 0.000000 0.000000 0.049149 0.000000 -0.000694
# 5 -0.001601 -0.000679 -0.002248 0.000000 0.032005 0.000000
# 6 0.000000 0.000000 0.000000 -0.000694 0.000000 0.047708
#
#
# Mechanical properties :
#
#
# Convention : Reuss Voigt Hill
#
# Bulk Modulus (GPa) = 45.27130 49.98987 47.63058
# Shear Modulus (GPa) = 26.37606 29.27437 27.82521
#
# Velocity S-wave (km/s) = 3.59023 3.78235 3.68754
# Velocity P-wave (km/s) = 6.26978 6.59580 6.43485
#
# Compressibility (1/GPa) = 0.02208905
#
# Stress axis : x y z
#
# Youngs Moduli (GPa) = 75.71066 62.08768 119.03683
#
# Poissons Ratio (x) = 0.25237 0.28431
# Poissons Ratio (y) = 0.30775 0.16187
# Poissons Ratio (z) = 0.18083 0.08443
#
# Static dielectric constant tensor:
#      x y z
#    x 3.658580 0.000000 0.018140 
#    y 0.000000 3.313750 0.000000 
#    z 0.018140 0.000000 4.198550 
# 
# 
# High freq. dielectric constant tensor:
#      x y z
#    x 1.800140 0.000000 0.008330 
#    y 0.000000 1.763770 0.000000 
#    z 0.008330 0.000000 1.821100 
# 
# From -- ./inp_files/73705.got.cif
#   From: 2010.06.25/outbox.cif.g09.slc.cpg/sg13_37_cif.got.tgz:73705.got - 2010.06.28 04:50:58.
