data_PCOD8118396
_publ_section_title
;
Structure prediction by ZEFSAII (Michael W. Deem and Ramdas Pophale) SiO2 
 PCOD8118396
Probable space group: P 2/C
;
_chemical_formula_sum "Si O2"
_cell_formula_units_Z 28
_cell_length_a 11.498797
_cell_length_b 9.257765
_cell_length_c 14.426763
_cell_angle_alpha 90.000000
_cell_angle_beta 109.485946
_cell_angle_gamma 90.000000
_cell_volume 1447.810484
_symmetry_space_group_name_H-M "P 2/C"
_symmetry_group_IT_number 13
_symmetry_cell_setting 'monoclinic'
loop_
_space_group_symop_operation_xyz
x,y,z
-x,y,1/2-z
-x,-y,-z
x,-y,1/2+z
loop_
_atom_site_type_symbol
_atom_site_label
_atom_site_fract_x
_atom_site_fract_y
_atom_site_fract_z
Si Si1 0.000000 0.967866 0.250000
Si Si2 0.406559 0.383904 0.577237
Si Si3 0.213461 0.806122 0.952458
Si Si4 0.070945 0.194620 0.120563
Si Si5 0.500000 0.580595 0.750000
Si Si6 0.667074 0.384050 0.590423
Si Si7 0.737002 0.360622 0.217486
Si Si8 0.174579 0.131932 0.946540
O O1 0.919462 0.862707 0.164696
O O2 0.920521 0.067809 0.299749
O O3 0.301121 0.261245 0.555516
O O4 0.405160 0.480555 0.667967
O O5 0.543460 0.314078 0.601644
O O6 0.374026 0.483078 0.482509
O O7 0.250369 0.751862 0.861713
O O8 0.071380 0.759526 0.930437
O O9 0.239445 0.976636 0.962034
O O10 0.156751 0.327310 0.177870
O O11 0.113507 0.144010 0.030846
O O12 0.403458 0.674117 0.784214
O O13 0.748813 0.468962 0.690470
O O14 0.733688 0.263658 0.547232
#
# Coordination Sequence:
#
# PCOD8118396 Si02
#       8
#     2   4   4   4   2   4   4   4
#     4  10  20  40  58  88 130 156 194 248 310 350
#     4   9  19  39  57  82 120 158 198 248 298 356
#     4  10  20  38  62  84 122 162 192 249 308 348
#     4  11  20  39  64  88 121 166 200 235 304 372
#     4  10  20  36  60  88 114 160 204 252 300 352
#     4   9  20  38  60  84 118 158 200 248 303 344
#     4  10  19  39  63  83 121 162 201 246 296 364
#     4  11  22  39  62  93 118 164 200 249 302 362
#
# _framework density 19.339548000000001
#
# number of rings (size 3 to 8) (size 9 to 14) (size 15 to 20)
#    0.000    2.000    2.857    3.429    0.000    0.571 
#   15.429    3.571    0.000    1.714    0.000    0.000 
#    0.000    0.000    0.000    0.000    0.000    0.000 
#
# Total GULP energy -346871.379312 kJ/mol
# GULP energy per Si atom -12388.263547 kJ/mol
# Density = 1.929553 g / cm^3
# Si number density = 19.339548 Si / 1000 Ang^3
#
#
#
# Elastic Constant Matrix: (Units=GPa)
#
#
# Indices 1 2 3 4 5 6 
#
# 1 127.5445 66.7858 44.1214 0.0000 -17.6230 0.0000
# 2 66.7858 83.0919 29.0011 0.0000 0.4046 0.0000
# 3 44.1214 29.0011 92.4683 0.0000 -5.9553 0.0000
# 4 0.0000 0.0000 0.0000 60.6061 0.0000 36.5867
# 5 -17.6230 0.4046 -5.9553 0.0000 30.1067 0.0000
# 6 0.0000 0.0000 0.0000 36.5867 0.0000 55.9984
#
#
#
# Elastic Compliance Matrix: (Units=1/GPa)
#
#
# Indices 1 2 3 4 5 6 
#
# 1 0.016799 -0.012306 -0.003558 0.000000 0.009295 0.000000
# 2 -0.012306 0.022561 -0.001709 0.000000 -0.007845 0.000000
# 3 -0.003558 -0.001709 0.013082 0.000000 0.000528 0.000000
# 4 0.000000 0.000000 0.000000 0.027246 0.000000 -0.017801
# 5 0.009295 -0.007845 0.000528 0.000000 0.038866 0.000000
# 6 0.000000 0.000000 0.000000 -0.017801 0.000000 0.029488
#
#
# Mechanical properties :
#
#
# Convention : Reuss Voigt Hill
#
# Bulk Modulus (GPa) = 57.81526 64.76904 61.29215
# Shear Modulus (GPa) = 26.46153 40.22199 33.34176
#
# Velocity S-wave (km/s) = 3.70301 4.56541 4.15664
# Velocity P-wave (km/s) = 6.94570 7.83286 7.40259
#
# Compressibility (1/GPa) = 0.01729647
#
# Stress axis : x y z
#
# Youngs Moduli (GPa) = 59.52680 44.32486 76.44050
#
# Poissons Ratio (x) = 0.54546 0.27194
# Poissons Ratio (y) = 0.73254 0.13065
# Poissons Ratio (z) = 0.21177 0.07576
#
# Static dielectric constant tensor:
#      x y z
#    x 3.720370 0.000000 0.218040 
#    y 0.000000 3.377150 0.000000 
#    z 0.218040 0.000000 4.009370 
# 
# 
# High freq. dielectric constant tensor:
#      x y z
#    x 1.752990 0.000000 -0.003620 
#    y 0.000000 1.725340 0.000000 
#    z -0.003620 0.000000 1.765580 
# 
# From -- ./inp_files/50117.got.cif
#   From: 2010.06.25/outbox.cif.g09.slc.cpg/sg13_26_cif.got.tgz:50117.got - 2010.06.28 04:50:58.
