data_PCOD8118194
_publ_section_title
;
Structure prediction by ZEFSAII (Michael W. Deem and Ramdas Pophale) SiO2 
 PCOD8118194
Probable space group: P 2/C
;
_chemical_formula_sum "Si O2"
_cell_formula_units_Z 32
_cell_length_a 20.058217
_cell_length_b 8.785690
_cell_length_c 11.468009
_cell_angle_alpha 90.000000
_cell_angle_beta 51.118119
_cell_angle_gamma 90.000000
_cell_volume 1573.194122
_symmetry_space_group_name_H-M "P 2/C"
_symmetry_group_IT_number 13
_symmetry_cell_setting 'monoclinic'
loop_
_space_group_symop_operation_xyz
x,y,z
-x,y,1/2-z
-x,-y,-z
x,-y,1/2+z
loop_
_atom_site_type_symbol
_atom_site_label
_atom_site_fract_x
_atom_site_fract_y
_atom_site_fract_z
Si Si1 0.704104 0.715377 0.113757
Si Si2 0.873390 0.880122 0.945480
Si Si3 0.652575 0.142530 0.445007
Si Si4 0.961843 0.862566 0.613619
Si Si5 0.632323 0.788536 0.437858
Si Si6 0.703028 0.626165 0.576858
Si Si7 0.460631 0.339619 0.082318
Si Si8 0.817908 0.198506 0.116075
O O1 0.652733 0.712531 0.290700
O O2 0.707050 0.552419 0.046957
O O3 0.801509 0.754175 0.031891
O O4 0.659867 0.837652 0.076377
O O5 0.899177 0.923605 0.784886
O O6 0.952758 0.792673 0.922236
O O7 0.836688 0.031360 0.045811
O O8 0.570787 0.241952 0.494556
O O9 0.740501 0.198787 0.291929
O O10 0.640885 0.968355 0.424135
O O11 0.905277 0.752397 0.590353
O O12 0.000000 0.000000 0.500000
O O13 0.695563 0.716555 0.463959
O O14 0.533915 0.749390 0.572958
O O15 0.619280 0.652876 0.744871
O O16 0.790392 0.684781 0.544177
O O17 0.500000 0.500000 0.000000
#
# Coordination Sequence:
#
# PCOD8118194 Si02
#       8
#     4   4   4   4   4   4   4   4
#     4  12  24  41  66  93 130 171 212 263 326 388
#     4  10  19  36  63  97 125 161 208 263 316 380
#     4  11  24  39  66  94 125 167 219 269 318 375
#     4   9  19  34  64  95 126 159 205 260 320 375
#     4  12  25  43  64  93 128 167 221 271 322 378
#     4  11  26  41  64  92 127 176 214 261 324 386
#     4  11  23  46  65  88 130 171 218 267 325 381
#     4  10  20  39  63  90 127 163 213 262 312 380
#
# _framework density 20.340783999999999
#
# number of rings (size 3 to 8) (size 9 to 14) (size 15 to 20)
#    0.000    1.250    3.750    2.250    3.500    0.500 
#    2.250    0.625    0.000    6.000    0.000    0.000 
#    0.000    0.000    0.000    0.000    0.000    0.000 
#
# Total GULP energy -396630.037172 kJ/mol
# GULP energy per Si atom -12394.688662 kJ/mol
# Density = 2.029449 g / cm^3
# Si number density = 20.340784 Si / 1000 Ang^3
#
#
#
# Elastic Constant Matrix: (Units=GPa)
#
#
# Indices 1 2 3 4 5 6 
#
# 1 137.9756 34.3370 22.5349 0.0000 0.6576 0.0000
# 2 34.3370 84.5936 6.5979 0.0000 -1.5403 0.0000
# 3 22.5349 6.5979 64.3047 0.0000 6.6951 0.0000
# 4 0.0000 0.0000 0.0000 24.3773 0.0000 -0.1038
# 5 0.6576 -1.5403 6.6951 0.0000 33.5638 0.0000
# 6 0.0000 0.0000 0.0000 -0.1038 0.0000 29.7851
#
#
#
# Elastic Compliance Matrix: (Units=1/GPa)
#
#
# Indices 1 2 3 4 5 6 
#
# 1 0.008486 -0.003233 -0.002665 0.000000 0.000217 0.000000
# 2 -0.003233 0.013170 -0.000294 0.000000 0.000726 0.000000
# 3 -0.002665 -0.000294 0.016861 0.000000 -0.003325 0.000000
# 4 0.000000 0.000000 0.000000 0.041022 0.000000 0.000143
# 5 0.000217 0.000726 -0.003325 0.000000 0.030486 0.000000
# 6 0.000000 0.000000 0.000000 0.000143 0.000000 0.033574
#
#
# Mechanical properties :
#
#
# Convention : Reuss Voigt Hill
#
# Bulk Modulus (GPa) = 38.26463 45.97928 42.12195
# Shear Modulus (GPa) = 30.35919 32.43884 31.39901
#
# Velocity S-wave (km/s) = 3.86752 3.99779 3.93319
# Velocity P-wave (km/s) = 6.22866 6.63048 6.43271
#
# Compressibility (1/GPa) = 0.02613380
#
# Stress axis : x y z
#
# Youngs Moduli (GPa) = 117.83553 75.93240 59.30798
#
# Poissons Ratio (x) = 0.24548 0.15805
# Poissons Ratio (y) = 0.38095 0.01743
# Poissons Ratio (z) = 0.31401 0.02232
#
# Static dielectric constant tensor:
#      x y z
#    x 4.479710 0.000000 -0.095710 
#    y 0.000000 3.604600 0.000000 
#    z -0.095710 0.000000 3.746770 
# 
# 
# High freq. dielectric constant tensor:
#      x y z
#    x 1.821320 0.000000 0.001910 
#    y 0.000000 1.767960 0.000000 
#    z 0.001910 0.000000 1.794700 
# 
# From -- ./inp_files/40519.got.cif
#   From: 2010.06.25/outbox.cif.g09.slc.cpg/sg13_21_cif.got.tgz:40519.got - 2010.06.28 04:50:58.
