data_PCOD8118906
_publ_section_title
;
Structure prediction by ZEFSAII (Michael W. Deem and Ramdas Pophale) SiO2 
 PCOD8118906
Probable space group: P 2/C
;
_chemical_formula_sum "Si O2"
_cell_formula_units_Z 32
_cell_length_a 8.368561
_cell_length_b 14.977808
_cell_length_c 14.366601
_cell_angle_alpha 90.000000
_cell_angle_beta 118.579245
_cell_angle_gamma 90.000000
_cell_volume 1581.338728
_symmetry_space_group_name_H-M "P 2/C"
_symmetry_group_IT_number 13
_symmetry_cell_setting 'monoclinic'
loop_
_space_group_symop_operation_xyz
x,y,z
-x,y,1/2-z
-x,-y,-z
x,-y,1/2+z
loop_
_atom_site_type_symbol
_atom_site_label
_atom_site_fract_x
_atom_site_fract_y
_atom_site_fract_z
Si Si1 0.172576 0.562669 0.545657
Si Si2 0.691596 0.335100 0.256799
Si Si3 0.805609 0.147199 0.648863
Si Si4 0.545980 0.000365 0.619734
Si Si5 0.452276 0.498735 0.880063
Si Si6 0.195298 0.352010 0.849545
Si Si7 0.828851 0.936219 0.951642
Si Si8 0.821343 0.147702 0.257015
O O1 0.161042 0.636549 0.623483
O O2 0.355339 0.504238 0.621644
O O3 0.190514 0.611998 0.452897
O O4 0.000000 0.500000 0.500000
O O5 0.500000 0.308457 0.250000
O O6 0.670412 0.414966 0.176953
O O7 0.769731 0.250323 0.223581
O O8 0.742068 0.249549 0.633927
O O9 0.811902 0.115885 0.543797
O O10 0.000000 0.133241 0.750000
O O11 0.661961 0.090340 0.670872
O O12 0.353488 0.995336 0.621148
O O13 0.658909 0.912675 0.675087
O O14 0.500000 0.000000 0.500000
O O15 0.339683 0.408308 0.827802
O O16 0.500000 0.500000 0.000000
O O17 0.000000 0.364484 0.750000
O O18 0.854714 0.865249 0.876296
O O19 0.000000 0.000000 0.000000
O O20 0.000000 0.120741 0.250000
#
# Coordination Sequence:
#
# PCOD8118906 Si02
#       8
#     4   4   4   4   4   4   4   4
#     4  10  20  36  58  84 117 155 195 241 295 351
#     4  10  21  38  59  85 117 154 197 249 302 353
#     4  10  21  39  62  88 119 156 200 245 298 361
#     4  10  21  38  60  84 115 155 194 244 299 353
#     4   9  20  36  56  80 111 149 189 237 292 349
#     4  10  20  36  58  83 115 155 192 236 293 356
#     4  11  22  39  62  87 121 159 198 247 302 358
#     4  12  24  38  60  91 122 157 201 249 302 363
#
# _framework density 20.236018000000001
#
# number of rings (size 3 to 8) (size 9 to 14) (size 15 to 20)
#    0.000    1.750    0.000    5.250    0.000    7.500 
#    0.000    2.500    0.000    7.500    0.000    0.000 
#    0.000    0.000    0.000    0.000    0.000    0.000 
#
# Total GULP energy -396767.798037 kJ/mol
# GULP energy per Si atom -12398.993689 kJ/mol
# Density = 2.018996 g / cm^3
# Si number density = 20.236018 Si / 1000 Ang^3
#
#
#
# Elastic Constant Matrix: (Units=GPa)
#
#
# Indices 1 2 3 4 5 6 
#
# 1 115.4711 72.8898 30.4152 0.0000 19.9955 0.0000
# 2 72.8898 169.1874 54.3326 0.0000 20.1222 0.0000
# 3 30.4152 54.3326 94.7530 0.0000 6.9135 0.0000
# 4 0.0000 0.0000 0.0000 36.4355 0.0000 -2.1834
# 5 19.9955 20.1222 6.9135 0.0000 35.8461 0.0000
# 6 0.0000 0.0000 0.0000 -2.1834 0.0000 34.1585
#
#
#
# Elastic Compliance Matrix: (Units=1/GPa)
#
#
# Indices 1 2 3 4 5 6 
#
# 1 0.012559 -0.004549 -0.001114 0.000000 -0.004237 0.000000
# 2 -0.004549 0.009302 -0.003730 0.000000 -0.001965 0.000000
# 3 -0.001114 -0.003730 0.013036 0.000000 0.000201 0.000000
# 4 0.000000 0.000000 0.000000 0.027551 0.000000 0.001761
# 5 -0.004237 -0.001965 0.000201 0.000000 0.031325 0.000000
# 6 0.000000 0.000000 0.000000 0.001761 0.000000 0.029388
#
#
# Mechanical properties :
#
#
# Convention : Reuss Voigt Hill
#
# Bulk Modulus (GPa) = 62.07204 77.18740 69.62972
# Shear Modulus (GPa) = 33.94056 36.07296 35.00676
#
# Velocity S-wave (km/s) = 4.09985 4.22668 4.16375
# Velocity P-wave (km/s) = 7.29056 7.87694 7.58941
#
# Compressibility (1/GPa) = 0.01611031
#
# Stress axis : x y z
#
# Youngs Moduli (GPa) = 79.62584 107.50307 76.71305
#
# Poissons Ratio (x) = 0.48903 0.08543
# Poissons Ratio (y) = 0.36222 0.28617
# Poissons Ratio (z) = 0.08868 0.40102
#
# Static dielectric constant tensor:
#      x y z
#    x 4.078740 0.000000 0.160640 
#    y 0.000000 3.883060 0.000000 
#    z 0.160640 0.000000 3.775880 
# 
# 
# High freq. dielectric constant tensor:
#      x y z
#    x 1.783700 0.000000 0.010740 
#    y 0.000000 1.787900 0.000000 
#    z 0.010740 0.000000 1.809260 
# 
# From -- ./inp_files/47711.got.cif
#   From: 2010.06.25/outbox.cif.g09.slc.cpg/sg13_24_cif.got.tgz:47711.got - 2010.06.28 04:50:58.
