data_PCOD8118579
_publ_section_title
;
Structure prediction by ZEFSAII (Michael W. Deem and Ramdas Pophale) SiO2 
 PCOD8118579
Probable space group: P 2/C
;
_chemical_formula_sum "Si O2"
_cell_formula_units_Z 24
_cell_length_a 8.936538
_cell_length_b 7.430932
_cell_length_c 19.125477
_cell_angle_alpha 90.000000
_cell_angle_beta 64.083151
_cell_angle_gamma 90.000000
_cell_volume 1142.330822
_symmetry_space_group_name_H-M "P 2/C"
_symmetry_group_IT_number 13
_symmetry_cell_setting 'monoclinic'
loop_
_space_group_symop_operation_xyz
x,y,z
-x,y,1/2-z
-x,-y,-z
x,-y,1/2+z
loop_
_atom_site_type_symbol
_atom_site_label
_atom_site_fract_x
_atom_site_fract_y
_atom_site_fract_z
Si Si1 0.530479 0.102135 0.318698
Si Si2 0.318120 0.357631 0.982948
Si Si3 0.357845 0.272003 0.824661
Si Si4 0.384866 0.244929 0.489805
Si Si5 0.906242 0.042684 0.447856
Si Si6 0.128732 0.068931 0.781397
O O1 0.500000 0.203699 0.250000
O O2 0.474149 0.222237 0.395969
O O3 0.725240 0.047869 0.285234
O O4 0.415943 0.924520 0.339882
O O5 0.320866 0.390775 0.899187
O O6 0.305193 0.557415 0.016064
O O7 0.474976 0.238676 0.978382
O O8 0.155151 0.247298 0.036132
O O9 0.500000 0.368705 0.750000
O O10 0.198359 0.245334 0.807158
O O11 0.244662 0.097608 0.533603
O O12 0.032852 0.049818 0.357987
O O13 0.000000 0.000000 0.500000
O O14 0.000000 0.138573 0.750000
#
# Coordination Sequence:
#
# PCOD8118579 Si02
#       6
#     4   4   4   4   4   4
#     4   9  18  38  60  85 115 158 206 245 295 359
#     4  11  23  40  60  93 121 160 212 246 297 364
#     4   9  19  36  58  84 117 156 201 244 295 360
#     4  11  24  38  66  90 119 164 211 250 293 364
#     4  12  22  40  63  90 126 162 194 260 316 353
#     4  10  20  33  61  91 116 158 200 243 311 365
#
# _framework density 21.009675999999999
#
# number of rings (size 3 to 8) (size 9 to 14) (size 15 to 20)
#    0.000    2.000    3.333    2.500    4.667    1.333 
#    0.000    0.000    3.667    1.000    0.000    0.000 
#    0.000    0.000    0.000    0.000    0.000    0.000 
#
# Total GULP energy -297480.835148 kJ/mol
# GULP energy per Si atom -12395.034798 kJ/mol
# Density = 2.096186 g / cm^3
# Si number density = 21.009676 Si / 1000 Ang^3
#
#
#
# Elastic Constant Matrix: (Units=GPa)
#
#
# Indices 1 2 3 4 5 6 
#
# 1 126.1257 18.5386 24.0501 0.0000 9.8002 0.0000
# 2 18.5386 49.0211 3.8521 0.0000 -9.6781 0.0000
# 3 24.0501 3.8521 73.6814 0.0000 -2.8198 0.0000
# 4 0.0000 0.0000 0.0000 19.4335 0.0000 2.8458
# 5 9.8002 -9.6781 -2.8198 0.0000 36.0947 0.0000
# 6 0.0000 0.0000 0.0000 2.8458 0.0000 20.1717
#
#
#
# Elastic Compliance Matrix: (Units=1/GPa)
#
#
# Indices 1 2 3 4 5 6 
#
# 1 0.009404 -0.004087 -0.003005 0.000000 -0.003884 0.000000
# 2 -0.004087 0.023377 0.000395 0.000000 0.007409 0.000000
# 3 -0.003005 0.000395 0.014611 0.000000 0.002063 0.000000
# 4 0.000000 0.000000 0.000000 0.052543 0.000000 -0.007413
# 5 -0.003884 0.007409 0.002063 0.000000 0.030907 0.000000
# 6 0.000000 0.000000 0.000000 -0.007413 0.000000 0.050620
#
#
# Mechanical properties :
#
#
# Convention : Reuss Voigt Hill
#
# Bulk Modulus (GPa) = 29.41241 37.96778 33.69009
# Shear Modulus (GPa) = 24.24981 28.63247 26.44114
#
# Velocity S-wave (km/s) = 3.40107 3.69565 3.55141
# Velocity P-wave (km/s) = 5.42705 6.02671 5.73472
#
# Compressibility (1/GPa) = 0.03399925
#
# Stress axis : x y z
#
# Youngs Moduli (GPa) = 106.33724 42.77781 68.44188
#
# Poissons Ratio (x) = 0.17484 0.20563
# Poissons Ratio (y) = 0.43461 -0.02706
# Poissons Ratio (z) = 0.31949 -0.01692
#
# Static dielectric constant tensor:
#      x y z
#    x 4.114030 0.000000 0.164900 
#    y 0.000000 3.306380 0.000000 
#    z 0.164900 0.000000 4.024670 
# 
# 
# High freq. dielectric constant tensor:
#      x y z
#    x 1.836870 0.000000 0.008570 
#    y 0.000000 1.781610 0.000000 
#    z 0.008570 0.000000 1.832340 
# 
# From -- ./inp_files/75199.got.cif
#   From: 2010.06.25/outbox.cif.g09.slc.cpg/sg13_38_cif.got.tgz:75199.got - 2010.06.28 04:50:58.
