data_PCOD8118299
_publ_section_title
;
Structure prediction by ZEFSAII (Michael W. Deem and Ramdas Pophale) SiO2 
 PCOD8118299
Probable space group: P 2/C
;
_chemical_formula_sum "Si O2"
_cell_formula_units_Z 20
_cell_length_a 9.741441
_cell_length_b 11.049530
_cell_length_c 11.058444
_cell_angle_alpha 90.000000
_cell_angle_beta 38.874887
_cell_angle_gamma 90.000000
_cell_volume 747.066247
_symmetry_space_group_name_H-M "P 2/C"
_symmetry_group_IT_number 13
_symmetry_cell_setting 'monoclinic'
loop_
_space_group_symop_operation_xyz
x,y,z
-x,y,1/2-z
-x,-y,-z
x,-y,1/2+z
loop_
_atom_site_type_symbol
_atom_site_label
_atom_site_fract_x
_atom_site_fract_y
_atom_site_fract_z
Si Si1 0.737683 0.430378 0.915623
Si Si2 0.226198 0.437681 0.876127
Si Si3 0.712014 0.816585 0.535749
Si Si4 0.241396 0.004931 0.689800
Si Si5 0.955682 0.182537 0.496028
O O1 0.649299 0.461480 0.839421
O O2 0.000000 0.440231 0.750000
O O3 0.646481 0.509088 0.092722
O O4 0.651164 0.292971 0.988567
O O5 0.000000 0.500000 0.000000
O O6 0.191524 0.296982 0.940600
O O7 0.500000 0.867337 0.750000
O O8 0.887851 0.763273 0.507786
O O9 0.830230 0.925500 0.383086
O O10 0.114213 0.875282 0.782771
O O11 0.500000 0.000000 0.500000
O O12 0.194739 0.075727 0.846983
#
# Coordination Sequence:
#
# PCOD8118299 Si02
#       5
#     4   4   4   4   4
#     4  10  19  37  67  94 131 176 228 283 340 415
#     4  10  19  37  69  98 129 176 233 279 348 409
#     4  12  21  39  68  95 130 179 227 281 355 420
#     4  11  23  39  66  99 130 173 229 283 338 417
#     4  11  22  41  67  95 134 182 222 283 351 410
#
# _framework density 26.771388999999999
#
# number of rings (size 3 to 8) (size 9 to 14) (size 15 to 20)
#    0.000    1.200    8.000    0.600    0.000    0.000 
#    0.000   13.000    8.800    0.000    0.000    0.000 
#    0.000    0.000    0.000    0.000    0.000    0.000 
#
# Total GULP energy -247787.788214 kJ/mol
# GULP energy per Si atom -12389.389411 kJ/mol
# Density = 2.671046 g / cm^3
# Si number density = 26.771389 Si / 1000 Ang^3
#
#
#
# Elastic Constant Matrix: (Units=GPa)
#
#
# Indices 1 2 3 4 5 6 
#
# 1 120.4041 30.3197 45.5356 0.0000 40.8898 0.0000
# 2 30.3197 122.3254 61.5775 0.0000 41.4787 0.0000
# 3 45.5356 61.5775 190.9596 0.0000 24.1526 0.0000
# 4 0.0000 0.0000 0.0000 3.7619 0.0000 29.6746
# 5 40.8898 41.4787 24.1526 0.0000 43.1473 0.0000
# 6 0.0000 0.0000 0.0000 29.6746 0.0000 10.9138
#
#
#
# Elastic Compliance Matrix: (Units=1/GPa)
#
#
# Indices 1 2 3 4 5 6 
#
# 1 0.013130 0.002458 -0.002207 0.000000 -0.013570 0.000000
# 2 0.002458 0.013945 -0.003328 0.000000 -0.013872 0.000000
# 3 -0.002207 -0.003328 0.006637 0.000000 0.001576 0.000000
# 4 0.000000 0.000000 0.000000 -0.013000 0.000000 0.035347
# 5 -0.013570 -0.013872 0.001576 0.000000 0.048490 0.000000
# 6 0.000000 0.000000 0.000000 0.035347 0.000000 -0.004481
#
#
# Mechanical properties :
#
#
# Convention : Reuss Voigt Hill
#
# Bulk Modulus (GPa) = 36.28853 78.72831 57.50842
# Shear Modulus (GPa) = 62.45248 31.31501 46.88375
#
# Velocity S-wave (km/s) = 4.83515 3.42383 4.18935
# Velocity P-wave (km/s) = 6.68999 6.71577 6.70289
#
# Compressibility (1/GPa) = 0.02755692
#
# Stress axis : x y z
#
# Youngs Moduli (GPa) = 76.16374 71.71067 150.67167
#
# Poissons Ratio (x) = -0.17628 0.33256
# Poissons Ratio (y) = -0.18723 0.50149
# Poissons Ratio (z) = 0.16811 0.23868
#
# Static dielectric constant tensor:
#      x y z
#    x 4.919470 0.000000 0.607820 
#    y 0.000000 4.826410 0.000000 
#    z 0.607820 0.000000 5.618430 
# 
# 
# High freq. dielectric constant tensor:
#      x y z
#    x 2.067870 0.000000 -0.002680 
#    y 0.000000 2.058220 0.000000 
#    z -0.002680 0.000000 2.113010 
# 
# From -- ./inp_files/33577.got.cif
#   From: 2010.06.25/outbox.cif.g09.slc.cpg/sg13_17_cif.got.tgz:33577.got - 2010.06.28 04:50:58.
