data_PCOD8118284
_publ_section_title
;
Structure prediction by ZEFSAII (Michael W. Deem and Ramdas Pophale) SiO2 
 PCOD8118284
Probable space group: P 2/C
;
_chemical_formula_sum "Si O2"
_cell_formula_units_Z 22
_cell_length_a 5.776894
_cell_length_b 7.094769
_cell_length_c 26.573193
_cell_angle_alpha 90.000000
_cell_angle_beta 75.577602
_cell_angle_gamma 90.000000
_cell_volume 1054.798950
_symmetry_space_group_name_H-M "P 2/C"
_symmetry_group_IT_number 13
_symmetry_cell_setting 'monoclinic'
loop_
_space_group_symop_operation_xyz
x,y,z
-x,y,1/2-z
-x,-y,-z
x,-y,1/2+z
loop_
_atom_site_type_symbol
_atom_site_label
_atom_site_fract_x
_atom_site_fract_y
_atom_site_fract_z
Si Si1 0.264458 0.095154 0.987575
Si Si2 0.132801 0.724794 0.587376
Si Si3 0.815024 0.546268 0.160920
Si Si4 0.424375 0.737676 0.667890
Si Si5 0.227516 0.948341 0.377872
Si Si6 0.000000 0.372206 0.250000
O O1 0.331702 0.129233 0.925646
O O2 0.226418 0.282376 0.024400
O O3 0.500000 0.000000 0.000000
O O4 0.000000 0.000000 0.000000
O O5 0.351325 0.710707 0.613920
O O6 0.951456 0.553410 0.606698
O O7 0.012402 0.930195 0.602508
O O8 0.552309 0.456740 0.177117
O O9 0.819537 0.769066 0.154279
O O10 0.942510 0.506461 0.206564
O O11 0.210897 0.765776 0.719583
O O12 0.586936 0.922222 0.662672
#
# Coordination Sequence:
#
# PCOD8118284 Si02
#       6
#     4   4   4   4   4   2
#     4  10  19  37  64  96 135 171 211 255 314 387
#     4   9  20  38  61  87 128 164 199 251 314 372
#     4  10  22  40  60  88 118 160 208 267 312 383
#     4  10  20  40  61  83 118 160 203 261 318 376
#     4  10  21  38  64  90 124 163 209 251 317 378
#     4  10  22  42  58  78 122 154 204 266 334 370
#
# _framework density 20.857054999999999
#
# number of rings (size 3 to 8) (size 9 to 14) (size 15 to 20)
#    0.000    2.182    1.818    0.545    0.000    3.636 
#    0.000   22.727    0.000    0.000    0.000    0.000 
#    0.000    0.000    0.000    0.000    0.000    0.000 
#
# Total GULP energy -272550.623630 kJ/mol
# GULP energy per Si atom -12388.664710 kJ/mol
# Density = 2.080958 g / cm^3
# Si number density = 20.857055 Si / 1000 Ang^3
#
#
#
# Elastic Constant Matrix: (Units=GPa)
#
#
# Indices 1 2 3 4 5 6 
#
# 1 103.2547 25.4618 17.9948 0.0000 1.6904 0.0000
# 2 25.4618 105.7032 26.5527 0.0000 -2.8545 0.0000
# 3 17.9948 26.5527 86.8629 0.0000 1.1866 0.0000
# 4 0.0000 0.0000 0.0000 22.1385 0.0000 7.2006
# 5 1.6904 -2.8545 1.1866 0.0000 27.0443 0.0000
# 6 0.0000 0.0000 0.0000 7.2006 0.0000 13.2541
#
#
#
# Elastic Compliance Matrix: (Units=1/GPa)
#
#
# Indices 1 2 3 4 5 6 
#
# 1 0.010495 -0.002174 -0.001499 0.000000 -0.000820 0.000000
# 2 -0.002174 0.010738 -0.002851 0.000000 0.001394 0.000000
# 3 -0.001499 -0.002851 0.012705 0.000000 -0.000765 0.000000
# 4 0.000000 0.000000 0.000000 0.054865 0.000000 -0.029807
# 5 -0.000820 0.001394 -0.000765 0.000000 0.037208 0.000000
# 6 0.000000 0.000000 0.000000 -0.029807 0.000000 0.091641
#
#
# Mechanical properties :
#
#
# Convention : Reuss Voigt Hill
#
# Bulk Modulus (GPa) = 47.86718 48.42659 48.14688
# Shear Modulus (GPa) = 21.03813 27.54147 24.28980
#
# Velocity S-wave (km/s) = 3.17942 3.63779 3.41630
# Velocity P-wave (km/s) = 6.03972 6.39636 6.22060
#
# Compressibility (1/GPa) = 0.02089114
#
# Stress axis : x y z
#
# Youngs Moduli (GPa) = 95.27963 93.12766 78.71020
#
# Poissons Ratio (x) = 0.20244 0.11795
# Poissons Ratio (y) = 0.20712 0.22441
# Poissons Ratio (z) = 0.14278 0.26552
#
# Static dielectric constant tensor:
#      x y z
#    x 4.049750 0.000000 -0.039850 
#    y 0.000000 3.336100 0.000000 
#    z -0.039850 0.000000 4.158720 
# 
# 
# High freq. dielectric constant tensor:
#      x y z
#    x 1.831990 0.000000 0.004220 
#    y 0.000000 1.774240 0.000000 
#    z 0.004220 0.000000 1.827190 
# 
# From -- ./inp_files/94555.got.cif
#   From: 2010.06.25/outbox.cif.g09.slc.cpg/sg13_48_cif.got.tgz:94555.got - 2010.06.28 04:50:58.
