data_PCOD8118803
_publ_section_title
;
Structure prediction by ZEFSAII (Michael W. Deem and Ramdas Pophale) SiO2 
 PCOD8118803
Probable space group: P 2/C
;
_chemical_formula_sum "Si O2"
_cell_formula_units_Z 24
_cell_length_a 5.105467
_cell_length_b 8.098110
_cell_length_c 26.605872
_cell_angle_alpha 90.000000
_cell_angle_beta 74.107652
_cell_angle_gamma 90.000000
_cell_volume 1057.965318
_symmetry_space_group_name_H-M "P 2/C"
_symmetry_group_IT_number 13
_symmetry_cell_setting 'monoclinic'
loop_
_space_group_symop_operation_xyz
x,y,z
-x,y,1/2-z
-x,-y,-z
x,-y,1/2+z
loop_
_atom_site_type_symbol
_atom_site_label
_atom_site_fract_x
_atom_site_fract_y
_atom_site_fract_z
Si Si1 0.654066 0.374501 0.031516
Si Si2 0.746888 0.089241 0.958989
Si Si3 0.206892 0.756182 0.145037
Si Si4 0.632809 0.109456 0.690980
Si Si5 0.201465 0.135591 0.399458
Si Si6 0.076278 0.457604 0.083531
O O1 0.581771 0.224799 0.075075
O O2 0.355409 0.452658 0.034644
O O3 0.849957 0.502500 0.052321
O O4 0.796095 0.276340 0.977549
O O5 0.680994 0.118338 0.903444
O O6 0.030367 0.988284 0.945209
O O7 0.500000 0.000000 0.000000
O O8 0.445133 0.748570 0.174326
O O9 0.121679 0.578489 0.127733
O O10 0.934174 0.824475 0.185288
O O11 0.500000 0.053512 0.750000
O O12 0.645438 0.949184 0.654743
O O13 0.994834 0.278149 0.389491
#
# Coordination Sequence:
#
# PCOD8118803 Si02
#       6
#     4   4   4   4   4   4
#     4  10  20  35  60  89 130 165 202 241 305 372
#     4  11  19  37  60  93 129 172 210 249 302 374
#     4  11  25  41  63  92 127 166 206 262 315 376
#     4  11  24  44  69  88 115 158 217 265 319 374
#     4   9  22  37  64  90 124 160 208 262 304 366
#     4  10  22  38  59  88 131 160 200 250 313 366
#
# _framework density 22.685053
#
# number of rings (size 3 to 8) (size 9 to 14) (size 15 to 20)
#    1.000    0.667    1.667    3.000    2.333    5.333 
#    0.000    0.833    3.667    0.000    0.000    0.000 
#    0.000    0.000    0.000    0.000    0.000    0.000 
#
# Total GULP energy -297417.578617 kJ/mol
# GULP energy per Si atom -12392.399109 kJ/mol
# Density = 2.263342 g / cm^3
# Si number density = 22.685053 Si / 1000 Ang^3
#
#
#
# Elastic Constant Matrix: (Units=GPa)
#
#
# Indices 1 2 3 4 5 6 
#
# 1 127.0615 22.9006 35.9900 0.0000 -1.2986 0.0000
# 2 22.9006 92.2449 35.8382 0.0000 -7.2906 0.0000
# 3 35.9900 35.8382 134.5819 0.0000 -27.4123 0.0000
# 4 0.0000 0.0000 0.0000 21.6681 0.0000 -0.0249
# 5 -1.2986 -7.2906 -27.4123 0.0000 32.6160 0.0000
# 6 0.0000 0.0000 0.0000 -0.0249 0.0000 25.2186
#
#
#
# Elastic Compliance Matrix: (Units=1/GPa)
#
#
# Indices 1 2 3 4 5 6 
#
# 1 0.008776 -0.001413 -0.002369 0.000000 -0.001958 0.000000
# 2 -0.001413 0.012319 -0.002839 0.000000 0.000311 0.000000
# 3 -0.002369 -0.002839 0.010463 0.000000 0.008064 0.000000
# 4 0.000000 0.000000 0.000000 0.046151 0.000000 0.000045
# 5 -0.001958 0.000311 0.008064 0.000000 0.037429 0.000000
# 6 0.000000 0.000000 0.000000 0.000045 0.000000 0.039653
#
#
# Mechanical properties :
#
#
# Convention : Reuss Voigt Hill
#
# Bulk Modulus (GPa) = 54.60102 60.37177 57.48639
# Shear Modulus (GPa) = 28.71263 33.17784 30.94523
#
# Velocity S-wave (km/s) = 3.56154 3.82847 3.69741
# Velocity P-wave (km/s) = 6.40579 6.79806 6.60484
#
# Compressibility (1/GPa) = 0.01831468
#
# Stress axis : x y z
#
# Youngs Moduli (GPa) = 113.94742 81.17433 95.57711
#
# Poissons Ratio (x) = 0.11469 0.22646
# Poissons Ratio (y) = 0.16100 0.27137
# Poissons Ratio (z) = 0.26999 0.23048
#
# Static dielectric constant tensor:
#      x y z
#    x 4.027860 0.000000 0.031380 
#    y 0.000000 4.271090 0.000000 
#    z 0.031380 0.000000 3.780620 
# 
# 
# High freq. dielectric constant tensor:
#      x y z
#    x 1.904930 0.000000 -0.001600 
#    y 0.000000 1.902750 0.000000 
#    z -0.001600 0.000000 1.868610 
# 
# From -- ./inp_files/83300.got.cif
#   From: 2010.06.25/outbox.cif.g09.slc.cpg/sg13_42_cif.got.tgz:83300.got - 2010.06.28 04:50:58.
