data_PCOD8118895
_publ_section_title
;
Structure prediction by ZEFSAII (Michael W. Deem and Ramdas Pophale) SiO2 
 PCOD8118895
Probable space group: P 2/C
;
_chemical_formula_sum "Si O2"
_cell_formula_units_Z 28
_cell_length_a 7.721307
_cell_length_b 12.373324
_cell_length_c 15.707442
_cell_angle_alpha 90.000000
_cell_angle_beta 69.331795
_cell_angle_gamma 90.000000
_cell_volume 1404.078758
_symmetry_space_group_name_H-M "P 2/C"
_symmetry_group_IT_number 13
_symmetry_cell_setting 'monoclinic'
loop_
_space_group_symop_operation_xyz
x,y,z
-x,y,1/2-z
-x,-y,-z
x,-y,1/2+z
loop_
_atom_site_type_symbol
_atom_site_label
_atom_site_fract_x
_atom_site_fract_y
_atom_site_fract_z
Si Si1 0.183299 0.827742 0.163757
Si Si2 0.023921 0.311487 0.459968
Si Si3 0.950794 0.897457 0.060022
Si Si4 0.702064 0.994630 0.739370
Si Si5 0.308255 0.370642 0.555597
Si Si6 0.698680 0.611320 0.908051
Si Si7 0.285686 0.752708 0.761824
O O1 0.299648 0.929204 0.177977
O O2 0.296813 0.717067 0.134281
O O3 0.000000 0.805562 0.250000
O O4 0.135224 0.863914 0.077363
O O5 0.131542 0.364961 0.521704
O O6 0.172586 0.293258 0.360426
O O7 0.909718 0.203204 0.505843
O O8 0.856767 0.383682 0.453290
O O9 0.786641 0.930271 0.151288
O O10 0.000000 0.000000 0.000000
O O11 0.500000 0.961559 0.750000
O O12 0.790982 0.876066 0.741448
O O13 0.316603 0.483079 0.605826
O O14 0.499051 0.346270 0.473341
O O15 0.755319 0.679253 0.814279
O O16 0.500000 0.746648 0.750000
#
# Coordination Sequence:
#
# PCOD8118895 Si02
#       7
#     4   4   4   4   4   4   4
#     4   9  21  38  59  80 121 162 191 249 301 356
#     4  11  22  39  66  91 124 159 206 251 305 372
#     4  10  20  36  57  88 120 157 195 245 300 360
#     4  10  22  37  59  90 127 158 200 249 304 371
#     4  10  23  45  59  90 125 153 211 257 299 360
#     4  11  24  39  67  88 119 165 203 253 312 356
#     4  11  22  40  59  93 128 158 201 258 305 358
#
# _framework density 19.941898999999999
#
# number of rings (size 3 to 8) (size 9 to 14) (size 15 to 20)
#    0.000    1.714    2.857    0.857    4.000    2.286 
#    0.000    3.571    0.000    0.000    0.000    0.000 
#    0.000    0.000    0.000    0.000    0.000    0.000 
#
# Total GULP energy -346950.755701 kJ/mol
# GULP energy per Si atom -12391.098418 kJ/mol
# Density = 1.989651 g / cm^3
# Si number density = 19.941899 Si / 1000 Ang^3
#
#
#
# Elastic Constant Matrix: (Units=GPa)
#
#
# Indices 1 2 3 4 5 6 
#
# 1 69.7747 15.5567 6.1525 0.0000 -0.3089 0.0000
# 2 15.5567 120.4983 48.8810 0.0000 -7.5461 0.0000
# 3 6.1525 48.8810 71.5945 0.0000 4.0646 0.0000
# 4 0.0000 0.0000 0.0000 34.2737 0.0000 5.0943
# 5 -0.3089 -7.5461 4.0646 0.0000 17.8167 0.0000
# 6 0.0000 0.0000 0.0000 5.0943 0.0000 22.1400
#
#
#
# Elastic Compliance Matrix: (Units=1/GPa)
#
#
# Indices 1 2 3 4 5 6 
#
# 1 0.014763 -0.001998 0.000130 0.000000 -0.000620 0.000000
# 2 -0.001998 0.012606 -0.008851 0.000000 0.007324 0.000000
# 3 0.000130 -0.008851 0.020477 0.000000 -0.008418 0.000000
# 4 0.000000 0.000000 0.000000 0.030210 0.000000 -0.006951
# 5 -0.000620 0.007324 -0.008418 0.000000 0.061139 0.000000
# 6 0.000000 0.000000 0.000000 -0.006951 0.000000 0.046767
#
#
# Mechanical properties :
#
#
# Convention : Reuss Voigt Hill
#
# Bulk Modulus (GPa) = 37.86451 44.78310 41.32380
# Shear Modulus (GPa) = 23.12671 27.59789 25.36230
#
# Velocity S-wave (km/s) = 3.40914 3.72414 3.57011
# Velocity P-wave (km/s) = 5.87579 6.40295 6.14503
#
# Compressibility (1/GPa) = 0.02640996
#
# Stress axis : x y z
#
# Youngs Moduli (GPa) = 67.73693 79.32901 48.83528
#
# Poissons Ratio (x) = 0.15847 -0.00637
# Poissons Ratio (y) = 0.13532 0.43222
# Poissons Ratio (z) = -0.00883 0.70211
#
# Static dielectric constant tensor:
#      x y z
#    x 3.567920 0.000000 0.086130 
#    y 0.000000 3.874200 0.000000 
#    z 0.086130 0.000000 3.358700 
# 
# 
# High freq. dielectric constant tensor:
#      x y z
#    x 1.770810 0.000000 -0.000810 
#    y 0.000000 1.792640 0.000000 
#    z -0.000810 0.000000 1.774890 
# 
# From -- ./inp_files/46847.got.cif
#   From: 2010.06.25/outbox.cif.g09.slc.cpg/sg13_24_cif.got.tgz:46847.got - 2010.06.28 04:50:58.
