data_PCOD8118512
_publ_section_title
;
Structure prediction by ZEFSAII (Michael W. Deem and Ramdas Pophale) SiO2 
 PCOD8118512
Probable space group: P 2/C
;
_chemical_formula_sum "Si O2"
_cell_formula_units_Z 28
_cell_length_a 28.488707
_cell_length_b 8.661022
_cell_length_c 9.883226
_cell_angle_alpha 90.000000
_cell_angle_beta 142.480072
_cell_angle_gamma 90.000000
_cell_volume 1485.198555
_symmetry_space_group_name_H-M "P 2/C"
_symmetry_group_IT_number 13
_symmetry_cell_setting 'monoclinic'
loop_
_space_group_symop_operation_xyz
x,y,z
-x,y,1/2-z
-x,-y,-z
x,-y,1/2+z
loop_
_atom_site_type_symbol
_atom_site_label
_atom_site_fract_x
_atom_site_fract_y
_atom_site_fract_z
Si Si1 0.296482 0.836631 0.078259
Si Si2 0.992670 0.852979 0.077333
Si Si3 0.861193 0.651159 0.096844
Si Si4 0.850279 0.361538 0.264387
Si Si5 0.283470 0.871894 0.735751
Si Si6 0.535876 0.190573 0.466581
Si Si7 0.445313 0.175251 0.511712
O O1 0.378026 0.753869 0.298891
O O2 0.273860 0.967824 0.134453
O O3 0.234932 0.702189 0.951438
O O4 0.297025 0.906398 0.926595
O O5 0.059862 0.736892 0.189781
O O6 0.000000 0.905739 0.250000
O O7 0.911377 0.770202 0.863814
O O8 0.000000 0.000000 0.000000
O O9 0.857996 0.509800 0.190215
O O10 0.862335 0.587050 0.946913
O O11 0.790865 0.768008 0.959800
O O12 0.357145 0.781431 0.842629
O O13 0.473232 0.243931 0.433706
O O14 0.543714 0.007859 0.468166
O O15 0.500000 0.266116 0.250000
O O16 0.500000 0.248796 0.750000
#
# Coordination Sequence:
#
# PCOD8118512 Si02
#       7
#     4   4   4   4   4   4   4
#     4  10  20  33  51  79 110 139 180 229 272 318
#     4  10  21  38  62  89 115 139 176 223 267 316
#     4  10  22  39  56  81 112 147 183 218 264 321
#     4  10  22  39  57  80 112 147 182 220 263 321
#     4  10  20  32  52  79 109 140 181 227 272 320
#     4   9  17  27  45  73 105 136 175 224 272 322
#     4   9  15  27  45  71 103 137 173 220 277 317
#
# _framework density 18.852699000000001
#
# number of rings (size 3 to 8) (size 9 to 14) (size 15 to 20)
#    0.000    2.286    1.429    1.286    6.000    2.286 
#    0.000    0.000    0.000    1.714    0.000    0.000 
#    0.000    0.000    0.000    0.000    0.000    0.000 
#
# Total GULP energy -347137.925478 kJ/mol
# GULP energy per Si atom -12397.783053 kJ/mol
# Density = 1.880979 g / cm^3
# Si number density = 18.852699 Si / 1000 Ang^3
#
#
#
# Elastic Constant Matrix: (Units=GPa)
#
#
# Indices 1 2 3 4 5 6 
#
# 1 141.5731 48.5877 63.5951 0.0000 -4.3394 0.0000
# 2 48.5877 64.1845 36.8508 0.0000 -13.7217 0.0000
# 3 63.5951 36.8508 115.6865 0.0000 -2.1154 0.0000
# 4 0.0000 0.0000 0.0000 13.2793 0.0000 -9.4540
# 5 -4.3394 -13.7217 -2.1154 0.0000 34.7153 0.0000
# 6 0.0000 0.0000 0.0000 -9.4540 0.0000 25.8634
#
#
#
# Elastic Compliance Matrix: (Units=1/GPa)
#
#
# Indices 1 2 3 4 5 6 
#
# 1 0.011009 -0.006284 -0.004075 0.000000 -0.001356 0.000000
# 2 -0.006284 0.024624 -0.004230 0.000000 0.008690 0.000000
# 3 -0.004075 -0.004230 0.012205 0.000000 -0.001438 0.000000
# 4 0.000000 0.000000 0.000000 0.101797 0.000000 0.037210
# 5 -0.001356 0.008690 -0.001438 0.000000 0.031983 0.000000
# 6 0.000000 0.000000 0.000000 0.037210 0.000000 0.052266
#
#
# Mechanical properties :
#
#
# Convention : Reuss Voigt Hill
#
# Bulk Modulus (GPa) = 53.59229 68.83459 61.21344
# Shear Modulus (GPa) = 18.56783 26.26565 22.41674
#
# Velocity S-wave (km/s) = 3.14170 3.73661 3.45200
# Velocity P-wave (km/s) = 6.45360 7.43017 6.95904
#
# Compressibility (1/GPa) = 0.01865940
#
# Stress axis : x y z
#
# Youngs Moduli (GPa) = 90.83351 40.61135 81.93156
#
# Poissons Ratio (x) = 0.25521 0.33387
# Poissons Ratio (y) = 0.57082 0.34658
# Poissons Ratio (z) = 0.37014 0.17179
#
# Static dielectric constant tensor:
#      x y z
#    x 3.810950 0.000000 0.093880 
#    y 0.000000 2.898660 0.000000 
#    z 0.093880 0.000000 3.896810 
# 
# 
# High freq. dielectric constant tensor:
#      x y z
#    x 1.754530 0.000000 0.005360 
#    y 0.000000 1.683130 0.000000 
#    z 0.005360 0.000000 1.749940 
# 
# From -- ./inp_files/24608.got.cif
#   From: 2010.06.25/outbox.cif.g09.slc.cpg/sg13_13_cif.got.tgz:24608.got - 2010.06.28 04:50:58.
