data_PCOD8118383
_publ_section_title
;
Structure prediction by ZEFSAII (Michael W. Deem and Ramdas Pophale) SiO2 
 PCOD8118383
Probable space group: P 2/C
;
_chemical_formula_sum "Si O2"
_cell_formula_units_Z 28
_cell_length_a 6.158280
_cell_length_b 13.510730
_cell_length_c 19.485204
_cell_angle_alpha 90.000000
_cell_angle_beta 56.925571
_cell_angle_gamma 90.000000
_cell_volume 1358.525245
_symmetry_space_group_name_H-M "P 2/C"
_symmetry_group_IT_number 13
_symmetry_cell_setting 'monoclinic'
loop_
_space_group_symop_operation_xyz
x,y,z
-x,y,1/2-z
-x,-y,-z
x,-y,1/2+z
loop_
_atom_site_type_symbol
_atom_site_label
_atom_site_fract_x
_atom_site_fract_y
_atom_site_fract_z
Si Si1 0.012214 0.452723 0.167561
Si Si2 0.980535 0.238717 0.977260
Si Si3 0.566140 0.702710 0.889576
Si Si4 0.000000 0.801787 0.250000
Si Si5 0.762010 0.128850 0.445592
Si Si6 0.500000 0.346495 0.250000
Si Si7 0.781839 0.082683 0.906857
Si Si8 0.783075 0.348896 0.680365
O O1 0.749224 0.407930 0.180989
O O2 0.009044 0.567178 0.144213
O O3 0.000000 0.451027 0.250000
O O4 0.271968 0.389907 0.104969
O O5 0.926669 0.144899 0.939485
O O6 0.199073 0.304741 0.900276
O O7 0.726442 0.307032 0.031926
O O8 0.061844 0.198456 0.037287
O O9 0.683908 0.806113 0.893907
O O10 0.583203 0.713610 0.803727
O O11 0.817554 0.873497 0.325087
O O12 0.831098 0.735335 0.228220
O O13 0.525047 0.088520 0.531205
O O14 0.896392 0.029218 0.393045
O O15 0.500000 0.392710 0.750000
#
# Coordination Sequence:
#
# PCOD8118383 Si02
#       8
#     4   4   4   2   4   2   4   4
#     4  10  20  37  60  83 115 157 196 246 300 360
#     4  10  21  37  59  90 122 157 197 250 295 358
#     4  10  22  38  59  87 117 158 199 244 302 359
#     4  10  20  38  54  90 114 146 202 252 288 350
#     4  10  19  39  59  84 119 162 194 240 302 353
#     4  10  20  40  60  82 118 152 200 244 296 354
#     4   9  20  36  61  82 121 156 197 245 297 348
#     4  11  21  36  63  87 116 158 199 247 303 355
#
# _framework density 20.610583999999999
#
# number of rings (size 3 to 8) (size 9 to 14) (size 15 to 20)
#    0.000    2.000    1.429    2.143    0.000    0.571 
#    6.429    2.857    0.000    0.000    0.000    0.000 
#    0.000    0.000    0.000    0.000    0.000    0.000 
#
# Total GULP energy -346977.205779 kJ/mol
# GULP energy per Si atom -12392.043064 kJ/mol
# Density = 2.056367 g / cm^3
# Si number density = 20.610584 Si / 1000 Ang^3
#
#
#
# Elastic Constant Matrix: (Units=GPa)
#
#
# Indices 1 2 3 4 5 6 
#
# 1 90.4539 44.1116 36.8956 0.0000 -0.8571 0.0000
# 2 44.1116 125.6575 63.0167 0.0000 -3.8796 0.0000
# 3 36.8956 63.0167 87.5843 0.0000 7.5838 0.0000
# 4 0.0000 0.0000 0.0000 28.5197 0.0000 -3.7354
# 5 -0.8571 -3.8796 7.5838 0.0000 30.5425 0.0000
# 6 0.0000 0.0000 0.0000 -3.7354 0.0000 21.9657
#
#
#
# Elastic Compliance Matrix: (Units=1/GPa)
#
#
# Indices 1 2 3 4 5 6 
#
# 1 0.014099 -0.002969 -0.003888 0.000000 0.000984 0.000000
# 2 -0.002969 0.013545 -0.008826 0.000000 0.003829 0.000000
# 3 -0.003888 -0.008826 0.019941 0.000000 -0.006182 0.000000
# 4 0.000000 0.000000 0.000000 0.035862 0.000000 0.006099
# 5 0.000984 0.003829 -0.006182 0.000000 0.034790 0.000000
# 6 0.000000 0.000000 0.000000 0.006099 0.000000 0.046563
#
#
# Mechanical properties :
#
#
# Convention : Reuss Voigt Hill
#
# Bulk Modulus (GPa) = 61.66072 65.74928 63.70500
# Shear Modulus (GPa) = 24.80489 26.85035 25.82762
#
# Velocity S-wave (km/s) = 3.47292 3.61327 3.54379
# Velocity P-wave (km/s) = 6.78701 7.02692 6.90801
#
# Compressibility (1/GPa) = 0.01621778
#
# Stress axis : x y z
#
# Youngs Moduli (GPa) = 70.92950 73.82781 50.14698
#
# Poissons Ratio (x) = 0.21919 0.19498
# Poissons Ratio (y) = 0.21059 0.44262
# Poissons Ratio (z) = 0.27578 0.65164
#
# Static dielectric constant tensor:
#      x y z
#    x 4.034790 0.000000 -0.115690 
#    y 0.000000 4.018490 0.000000 
#    z -0.115690 0.000000 3.716360 
# 
# 
# High freq. dielectric constant tensor:
#      x y z
#    x 1.802290 0.000000 0.006870 
#    y 0.000000 1.806420 0.000000 
#    z 0.006870 0.000000 1.794840 
# 
# From -- ./inp_files/61535.got.cif
#   From: 2010.06.25/outbox.cif.g09.slc.cpg/sg13_31_cif.got.tgz:61535.got - 2010.06.28 04:50:58.
