data_PCOD8118260
_publ_section_title
;
Structure prediction by ZEFSAII (Michael W. Deem and Ramdas Pophale) SiO2 
 PCOD8118260
Probable space group: P 2/C
;
_chemical_formula_sum "Si O2"
_cell_formula_units_Z 28
_cell_length_a 16.903126
_cell_length_b 12.219768
_cell_length_c 18.661249
_cell_angle_alpha 90.000000
_cell_angle_beta 157.992575
_cell_angle_gamma 90.000000
_cell_volume 1444.393042
_symmetry_space_group_name_H-M "P 2/C"
_symmetry_group_IT_number 13
_symmetry_cell_setting 'monoclinic'
loop_
_space_group_symop_operation_xyz
x,y,z
-x,y,1/2-z
-x,-y,-z
x,-y,1/2+z
loop_
_atom_site_type_symbol
_atom_site_label
_atom_site_fract_x
_atom_site_fract_y
_atom_site_fract_z
Si Si1 0.836230 0.769409 0.175081
Si Si2 0.543791 0.833969 0.204062
Si Si3 0.428649 0.631281 0.368783
Si Si4 0.663641 0.996222 0.572306
Si Si5 0.991994 0.895694 0.943219
Si Si6 0.030797 0.307565 0.983644
Si Si7 0.524624 0.387074 0.110576
O O1 0.000000 0.792732 0.250000
O O2 0.973038 0.722521 0.354592
O O3 0.726075 0.881219 0.105836
O O4 0.653808 0.683157 0.997120
O O5 0.500000 0.814051 0.250000
O O6 0.481021 0.725229 0.107181
O O7 0.786743 0.858173 0.400254
O O8 0.422905 0.939567 0.071990
O O9 0.527474 0.515931 0.426985
O O10 0.516149 0.655933 0.521658
O O11 0.171426 0.630044 0.151836
O O12 0.858084 0.922209 0.760549
O O13 0.500000 0.000000 0.500000
O O14 0.897678 0.798457 0.911494
O O15 0.000000 0.000000 0.000000
O O16 0.241704 0.379659 0.159796
#
# Coordination Sequence:
#
# PCOD8118260 Si02
#       7
#     4   4   4   4   4   4   4
#     4  11  25  38  54  91 129 154 199 255 303 366
#     4  11  25  39  59  91 127 159 198 253 316 359
#     4   9  20  41  63  92 118 151 211 259 285 368
#     4  12  22  40  64  86 122 164 204 249 300 370
#     4  11  20  36  62  88 117 158 202 245 292 367
#     4  10  19  37  62  92 116 152 209 247 296 360
#     4  10  20  39  69  86 115 163 205 251 307 351
#
# _framework density 19.385304999999999
#
# number of rings (size 3 to 8) (size 9 to 14) (size 15 to 20)
#    0.000    1.429    2.857    3.857    2.000    0.571 
#    2.571    0.000    0.000    0.000    0.000    0.000 
#    0.000    0.000    0.000    0.000    0.000    0.000 
#
# Total GULP energy -347188.169185 kJ/mol
# GULP energy per Si atom -12399.577471 kJ/mol
# Density = 1.934118 g / cm^3
# Si number density = 19.385305 Si / 1000 Ang^3
#
#
#
# Elastic Constant Matrix: (Units=GPa)
#
#
# Indices 1 2 3 4 5 6 
#
# 1 95.8687 40.1328 19.0883 0.0000 6.2426 0.0000
# 2 40.1328 87.9609 27.5636 0.0000 1.2331 0.0000
# 3 19.0883 27.5636 87.4011 0.0000 -10.0192 0.0000
# 4 0.0000 0.0000 0.0000 32.8964 0.0000 -1.2030
# 5 6.2426 1.2331 -10.0192 0.0000 25.6289 0.0000
# 6 0.0000 0.0000 0.0000 -1.2030 0.0000 20.0145
#
#
#
# Elastic Compliance Matrix: (Units=1/GPa)
#
#
# Indices 1 2 3 4 5 6 
#
# 1 0.013288 -0.005520 -0.001572 0.000000 -0.003586 0.000000
# 2 -0.005520 0.015035 -0.003627 0.000000 -0.000797 0.000000
# 3 -0.001572 -0.003627 0.013602 0.000000 0.005875 0.000000
# 4 0.000000 0.000000 0.000000 0.030465 0.000000 0.001831
# 5 -0.003586 -0.000797 0.005875 0.000000 0.042227 0.000000
# 6 0.000000 0.000000 0.000000 0.001831 0.000000 0.050074
#
#
# Mechanical properties :
#
#
# Convention : Reuss Voigt Hill
#
# Bulk Modulus (GPa) = 48.81307 49.42221 49.11764
# Shear Modulus (GPa) = 25.91209 28.00434 26.95822
#
# Velocity S-wave (km/s) = 3.66004 3.80494 3.73319
# Velocity P-wave (km/s) = 6.56478 6.69727 6.63135
#
# Compressibility (1/GPa) = 0.02048632
#
# Stress axis : x y z
#
# Youngs Moduli (GPa) = 75.25451 66.51138 73.51659
#
# Poissons Ratio (x) = 0.36713 0.11560
# Poissons Ratio (y) = 0.41539 0.26667
# Poissons Ratio (z) = 0.11833 0.24126
#
# Static dielectric constant tensor:
#      x y z
#    x 3.544320 0.000000 -0.969980 
#    y 0.000000 3.702150 0.000000 
#    z -0.969980 0.000000 7.998850 
# 
# 
# High freq. dielectric constant tensor:
#      x y z
#    x 1.729660 0.000000 -0.007590 
#    y 0.000000 1.766750 0.000000 
#    z -0.007590 0.000000 1.765360 
# 
# From -- ./inp_files/70669.got.cif
#   From: 2010.06.25/outbox.cif.g09.slc.cpg/sg13_36_cif.got.tgz:70669.got - 2010.06.28 04:50:58.
