data_PCOD8118417
_publ_section_title
;
Structure prediction by ZEFSAII (Michael W. Deem and Ramdas Pophale) SiO2 
 PCOD8118417
Probable space group: P 2/C
;
_chemical_formula_sum "Si O2"
_cell_formula_units_Z 28
_cell_length_a 8.248246
_cell_length_b 9.120096
_cell_length_c 29.107690
_cell_angle_alpha 90.000000
_cell_angle_beta 141.355408
_cell_angle_gamma 90.000000
_cell_volume 1367.390657
_symmetry_space_group_name_H-M "P 2/C"
_symmetry_group_IT_number 13
_symmetry_cell_setting 'monoclinic'
loop_
_space_group_symop_operation_xyz
x,y,z
-x,y,1/2-z
-x,-y,-z
x,-y,1/2+z
loop_
_atom_site_type_symbol
_atom_site_label
_atom_site_fract_x
_atom_site_fract_y
_atom_site_fract_z
Si Si1 0.647343 0.588539 0.403299
Si Si2 0.692878 0.922196 0.888918
Si Si3 0.271354 0.580999 0.976885
Si Si4 0.718377 0.852772 0.168340
Si Si5 0.403378 0.850713 0.458825
Si Si6 0.314394 0.633043 0.665827
Si Si7 0.930390 0.182988 0.531616
O O1 0.737519 0.520935 0.472557
O O2 0.394779 0.689660 0.351693
O O3 0.577269 0.456623 0.353745
O O4 0.874514 0.685728 0.432627
O O5 0.662311 0.805803 0.840862
O O6 0.441106 0.023558 0.839461
O O7 0.740261 0.832087 0.946207
O O8 0.935375 0.025786 0.930407
O O9 0.984251 0.580207 0.890275
O O10 0.500000 0.500000 0.000000
O O11 0.347650 0.751825 0.997937
O O12 0.746737 0.889476 0.120928
O O13 0.000000 0.853073 0.250000
O O14 0.221899 0.769821 0.456027
O O15 0.500000 0.000000 0.500000
O O16 0.500000 0.598232 0.750000
#
# Coordination Sequence:
#
# PCOD8118417 Si02
#       7
#     4   4   4   4   4   4   4
#     4  10  23  42  66  85 124 176 217 258 305 396
#     4  10  21  39  64  93 126 166 207 267 320 378
#     4  11  24  40  64  93 122 167 223 263 309 382
#     4  10  23  41  61  94 131 166 210 268 327 377
#     4  11  21  35  62  94 120 157 214 263 304 377
#     4  12  26  43  63  96 135 168 212 267 334 386
#     4  10  19  39  68  91 118 164 223 257 305 376
#
# _framework density 20.476958
#
# number of rings (size 3 to 8) (size 9 to 14) (size 15 to 20)
#    0.000    1.429    2.857    2.143    2.000    5.714 
#    0.000    3.571    0.000    0.000    0.000    0.000 
#    0.000    0.000    0.000    0.000    0.000    0.000 
#
# Total GULP energy -347214.711596 kJ/mol
# GULP energy per Si atom -12400.525414 kJ/mol
# Density = 2.043035 g / cm^3
# Si number density = 20.476958 Si / 1000 Ang^3
#
#
#
# Elastic Constant Matrix: (Units=GPa)
#
#
# Indices 1 2 3 4 5 6 
#
# 1 94.0004 7.2342 48.4818 0.0000 -10.9303 0.0000
# 2 7.2342 63.1972 34.5034 0.0000 -9.2855 0.0000
# 3 48.4818 34.5034 163.6575 0.0000 3.3777 0.0000
# 4 0.0000 0.0000 0.0000 26.9068 0.0000 -8.6483
# 5 -10.9303 -9.2855 3.3777 0.0000 32.0982 0.0000
# 6 0.0000 0.0000 0.0000 -8.6483 0.0000 32.5951
#
#
#
# Elastic Compliance Matrix: (Units=1/GPa)
#
#
# Indices 1 2 3 4 5 6 
#
# 1 0.013452 0.001710 -0.004460 0.000000 0.005545 0.000000
# 2 0.001710 0.019156 -0.004682 0.000000 0.006616 0.000000
# 3 -0.004460 -0.004682 0.008496 0.000000 -0.003767 0.000000
# 4 0.000000 0.000000 0.000000 0.040630 0.000000 0.010780
# 5 0.005545 0.006616 -0.003767 0.000000 0.035353 0.000000
# 6 0.000000 0.000000 0.000000 0.010780 0.000000 0.033540
#
#
# Mechanical properties :
#
#
# Convention : Reuss Voigt Hill
#
# Bulk Modulus (GPa) = 38.10921 55.69932 46.90426
# Shear Modulus (GPa) = 28.69661 33.69574 31.19617
#
# Velocity S-wave (km/s) = 3.74760 4.06093 3.90741
# Velocity P-wave (km/s) = 6.11369 7.01771 6.58124
#
# Compressibility (1/GPa) = 0.02624038
#
# Stress axis : x y z
#
# Youngs Moduli (GPa) = 74.34076 52.20321 117.69915
#
# Poissons Ratio (x) = -0.08925 0.52491
# Poissons Ratio (y) = -0.12710 0.55102
# Poissons Ratio (z) = 0.33154 0.24440
#
# Static dielectric constant tensor:
#      x y z
#    x 3.879490 0.000000 0.055860 
#    y 0.000000 4.044570 0.000000 
#    z 0.055860 0.000000 3.460210 
# 
# 
# High freq. dielectric constant tensor:
#      x y z
#    x 1.806950 0.000000 -0.002910 
#    y 0.000000 1.819800 0.000000 
#    z -0.002910 0.000000 1.779660 
# 
# From -- ./inp_files/91486.got.cif
#   From: 2010.06.25/outbox.cif.g09.slc.cpg/sg13_46_cif.got.tgz:91486.got - 2010.06.28 04:50:58.
