data_PCOD8118980
_publ_section_title
;
Structure prediction by ZEFSAII (Michael W. Deem and Ramdas Pophale) SiO2 
 PCOD8118980
Probable space group: P 2/C
;
_chemical_formula_sum "Si O2"
_cell_formula_units_Z 30
_cell_length_a 12.202202
_cell_length_b 15.697210
_cell_length_c 8.723749
_cell_angle_alpha 90.000000
_cell_angle_beta 115.269372
_cell_angle_gamma 90.000000
_cell_volume 1511.059587
_symmetry_space_group_name_H-M "P 2/C"
_symmetry_group_IT_number 13
_symmetry_cell_setting 'monoclinic'
loop_
_space_group_symop_operation_xyz
x,y,z
-x,y,1/2-z
-x,-y,-z
x,-y,1/2+z
loop_
_atom_site_type_symbol
_atom_site_label
_atom_site_fract_x
_atom_site_fract_y
_atom_site_fract_z
Si Si1 0.238099 0.594081 0.322490
Si Si2 0.492795 0.597794 0.027992
Si Si3 0.754105 0.412981 0.006884
Si Si4 0.868137 0.916886 0.593026
Si Si5 0.865131 0.088296 0.728058
Si Si6 0.500000 0.293045 0.250000
Si Si7 0.137212 0.748587 0.775306
Si Si8 0.237583 0.756606 0.505026
O O1 0.372038 0.627789 0.357200
O O2 0.226590 0.504665 0.402555
O O3 0.186990 0.668973 0.398441
O O4 0.177404 0.586836 0.116989
O O5 0.390801 0.607280 0.099624
O O6 0.444964 0.647749 0.850254
O O7 0.500000 0.500000 0.000000
O O8 0.805139 0.341205 0.147998
O O9 0.871221 0.920905 0.413138
O O10 0.799232 0.829766 0.601967
O O11 0.000000 0.914648 0.750000
O O12 0.804985 0.002520 0.620192
O O13 0.783543 0.167303 0.626865
O O14 0.000000 0.103403 0.750000
O O15 0.617769 0.239257 0.372955
O O16 0.153520 0.766123 0.604614
O O17 0.000000 0.744712 0.750000
#
# Coordination Sequence:
#
# PCOD8118980 Si02
#       8
#     4   4   4   4   4   2   4   4
#     4  10  22  33  55  81 112 151 197 241 294 345
#     4   9  19  29  56  79 111 141 197 248 294 330
#     4  11  20  36  53  82 115 151 195 245 295 349
#     4  10  20  36  60  92 119 149 198 249 302 353
#     4  11  20  36  62  91 120 151 197 250 304 358
#     4  10  20  38  54  90 118 162 200 252 300 358
#     4  11  22  38  59  84 116 155 192 239 300 354
#     4  11  22  39  59  87 124 159 201 249 301 358
#
# _framework density 19.853618000000001
#
# number of rings (size 3 to 8) (size 9 to 14) (size 15 to 20)
#    0.000    1.600    1.333    6.000    9.333    0.000 
#    0.000    3.333    0.000    3.200    0.000    0.000 
#    0.000    0.000    0.000    0.000    0.000    0.000 
#
# Total GULP energy -371655.023472 kJ/mol
# GULP energy per Si atom -12388.500782 kJ/mol
# Density = 1.980843 g / cm^3
# Si number density = 19.853618 Si / 1000 Ang^3
#
#
#
# Elastic Constant Matrix: (Units=GPa)
#
#
# Indices 1 2 3 4 5 6 
#
# 1 65.3440 31.4155 32.5542 0.0000 -17.2489 0.0000
# 2 31.4155 162.7762 61.7908 0.0000 -8.3747 0.0000
# 3 32.5542 61.7908 131.8527 0.0000 -35.2712 0.0000
# 4 0.0000 0.0000 0.0000 39.9375 0.0000 -5.5618
# 5 -17.2489 -8.3747 -35.2712 0.0000 38.1964 0.0000
# 6 0.0000 0.0000 0.0000 -5.5618 0.0000 4.2614
#
#
#
# Elastic Compliance Matrix: (Units=1/GPa)
#
#
# Indices 1 2 3 4 5 6 
#
# 1 0.019177 -0.002710 -0.001736 0.000000 0.006463 0.000000
# 2 -0.002710 0.007987 -0.003895 0.000000 -0.003069 0.000000
# 3 -0.001736 -0.003895 0.012484 0.000000 0.009890 0.000000
# 4 0.000000 0.000000 0.000000 0.030601 0.000000 0.039939
# 5 0.006463 -0.003069 0.009890 0.000000 0.037558 0.000000
# 6 0.000000 0.000000 0.000000 0.039939 0.000000 0.286794
#
#
# Mechanical properties :
#
#
# Convention : Reuss Voigt Hill
#
# Bulk Modulus (GPa) = 43.54177 67.94378 55.74277
# Shear Modulus (GPa) = 11.93493 32.09321 22.01407
#
# Velocity S-wave (km/s) = 2.45449 4.02492 3.33351
# Velocity P-wave (km/s) = 5.47829 7.47641 6.55394
#
# Compressibility (1/GPa) = 0.02296645
#
# Stress axis : x y z
#
# Youngs Moduli (GPa) = 52.14499 125.20318 80.10410
#
# Poissons Ratio (x) = 0.33925 0.13908
# Poissons Ratio (y) = 0.14129 0.31201
# Poissons Ratio (z) = 0.09053 0.48767
#
# Static dielectric constant tensor:
#      x y z
#    x 4.259760 0.000000 -0.240840 
#    y 0.000000 4.195540 0.000000 
#    z -0.240840 0.000000 3.708470 
# 
# 
# High freq. dielectric constant tensor:
#      x y z
#    x 1.744860 0.000000 -0.027920 
#    y 0.000000 1.781660 0.000000 
#    z -0.027920 0.000000 1.783660 
# 
# From -- ./inp_files/16829.got.cif
#   From: 2010.06.25/outbox.cif.g09.slc.cpg/sg13_9_cif.got.tgz:16829.got - 2010.06.28 04:50:58.
