data_PCOD8118661
_publ_section_title
;
Structure prediction by ZEFSAII (Michael W. Deem and Ramdas Pophale) SiO2 
 PCOD8118661
Probable space group: P 2/C
;
_chemical_formula_sum "Si O2"
_cell_formula_units_Z 28
_cell_length_a 7.959529
_cell_length_b 10.721309
_cell_length_c 24.148529
_cell_angle_alpha 90.000000
_cell_angle_beta 41.898750
_cell_angle_gamma 90.000000
_cell_volume 1376.204234
_symmetry_space_group_name_H-M "P 2/C"
_symmetry_group_IT_number 13
_symmetry_cell_setting 'monoclinic'
loop_
_space_group_symop_operation_xyz
x,y,z
-x,y,1/2-z
-x,-y,-z
x,-y,1/2+z
loop_
_atom_site_type_symbol
_atom_site_label
_atom_site_fract_x
_atom_site_fract_y
_atom_site_fract_z
Si Si1 0.721271 0.389531 0.089072
Si Si2 0.827924 0.643770 0.095983
Si Si3 0.514821 0.863125 0.811486
Si Si4 0.000000 0.222853 0.750000
Si Si5 0.000000 0.218579 0.250000
Si Si6 0.345698 0.621076 0.586986
Si Si7 0.786695 0.353815 0.906207
Si Si8 0.478401 0.134806 0.689934
O O1 0.704564 0.505361 0.136904
O O2 0.641888 0.254492 0.130125
O O3 0.542775 0.431930 0.083029
O O4 0.005645 0.371223 0.999690
O O5 0.626970 0.748433 0.128211
O O6 0.983875 0.690585 0.110976
O O7 0.500000 0.856897 0.750000
O O8 0.797629 0.861923 0.766223
O O9 0.407701 0.999382 0.856332
O O10 0.832538 0.305705 0.833052
O O11 0.809758 0.139307 0.760653
O O12 0.136315 0.296024 0.168012
O O13 0.206242 0.504110 0.593865
O O14 0.516257 0.692796 0.498175
O O15 0.500000 0.149003 0.750000
#
# Coordination Sequence:
#
# PCOD8118661 Si02
#       8
#     4   4   4   2   2   4   4   4
#     4   9  20  38  60  89 121 157 194 251 308 355
#     4  10  20  37  62  89 122 155 201 249 300 362
#     4  10  23  40  61  86 120 157 200 247 304 358
#     4  12  22  38  62  84 117 166 201 248 305 348
#     4  10  20  40  62  84 117 160 197 254 301 358
#     4   9  19  35  57  88 126 153 201 247 301 361
#     4  10  20  34  57  90 126 158 197 250 300 360
#     4  11  23  41  60  86 119 160 203 248 295 362
#
# _framework density 20.345818000000001
#
# number of rings (size 3 to 8) (size 9 to 14) (size 15 to 20)
#    0.000    2.000    1.429    1.714    2.000    3.429 
#    0.000    0.000    0.000    3.429    0.000    0.000 
#    0.000    0.000    0.000    0.000    0.000    0.000 
#
# Total GULP energy -346914.793480 kJ/mol
# GULP energy per Si atom -12389.814053 kJ/mol
# Density = 2.029951 g / cm^3
# Si number density = 20.345818 Si / 1000 Ang^3
#
#
#
# Elastic Constant Matrix: (Units=GPa)
#
#
# Indices 1 2 3 4 5 6 
#
# 1 95.0113 40.3738 23.7439 0.0000 -1.8863 0.0000
# 2 40.3738 154.6730 56.6172 0.0000 -9.5685 0.0000
# 3 23.7439 56.6172 104.4660 0.0000 3.6126 0.0000
# 4 0.0000 0.0000 0.0000 11.1130 0.0000 1.0817
# 5 -1.8863 -9.5685 3.6126 0.0000 27.1442 0.0000
# 6 0.0000 0.0000 0.0000 1.0817 0.0000 34.4651
#
#
#
# Elastic Compliance Matrix: (Units=1/GPa)
#
#
# Indices 1 2 3 4 5 6 
#
# 1 0.011974 -0.002650 -0.001288 0.000000 0.000069 0.000000
# 2 -0.002650 0.008985 -0.004391 0.000000 0.003567 0.000000
# 3 -0.001288 -0.004391 0.012358 0.000000 -0.003282 0.000000
# 4 0.000000 0.000000 0.000000 0.090260 0.000000 -0.002833
# 5 0.000069 0.003567 -0.003282 0.000000 0.038539 0.000000
# 6 0.000000 0.000000 0.000000 -0.002833 0.000000 0.029104
#
#
# Mechanical properties :
#
#
# Convention : Reuss Voigt Hill
#
# Bulk Modulus (GPa) = 60.02139 66.18003 63.10071
# Shear Modulus (GPa) = 23.42675 30.10547 26.76611
#
# Velocity S-wave (km/s) = 3.39695 3.85085 3.63100
# Velocity P-wave (km/s) = 6.70450 7.23673 6.97569
#
# Compressibility (1/GPa) = 0.01666073
#
# Stress axis : x y z
#
# Youngs Moduli (GPa) = 83.51198 111.29952 80.91773
#
# Poissons Ratio (x) = 0.29493 0.10421
# Poissons Ratio (y) = 0.22130 0.35527
# Poissons Ratio (z) = 0.10755 0.48866
#
# Static dielectric constant tensor:
#      x y z
#    x 3.792630 0.000000 -0.028120 
#    y 0.000000 3.844910 0.000000 
#    z -0.028120 0.000000 3.621540 
# 
# 
# High freq. dielectric constant tensor:
#      x y z
#    x 1.809190 0.000000 -0.000950 
#    y 0.000000 1.786740 0.000000 
#    z -0.000950 0.000000 1.778500 
# 
# From -- ./inp_files/85099.got.cif
#   From: 2010.06.25/outbox.cif.g09.slc.cpg/sg13_43_cif.got.tgz:85099.got - 2010.06.28 04:50:58.
