data_PCOD8118167
_publ_section_title
;
Structure prediction by ZEFSAII (Michael W. Deem and Ramdas Pophale) SiO2 
 PCOD8118167
Probable space group: P 2/C
;
_chemical_formula_sum "Si O2"
_cell_formula_units_Z 26
_cell_length_a 14.796237
_cell_length_b 9.253691
_cell_length_c 15.488485
_cell_angle_alpha 90.000000
_cell_angle_beta 36.009009
_cell_angle_gamma 90.000000
_cell_volume 1246.774384
_symmetry_space_group_name_H-M "P 2/C"
_symmetry_group_IT_number 13
_symmetry_cell_setting 'monoclinic'
loop_
_space_group_symop_operation_xyz
x,y,z
-x,y,1/2-z
-x,-y,-z
x,-y,1/2+z
loop_
_atom_site_type_symbol
_atom_site_label
_atom_site_fract_x
_atom_site_fract_y
_atom_site_fract_z
Si Si1 0.278861 0.627382 0.929563
Si Si2 0.000000 0.703567 0.250000
Si Si3 0.667160 0.135627 0.707687
Si Si4 0.017285 0.831701 0.634350
Si Si5 0.500000 0.119936 0.250000
Si Si6 0.115439 0.131568 0.812082
Si Si7 0.085715 0.350461 0.426698
Si Si8 0.500000 0.376715 0.750000
O O1 0.369534 0.772111 0.889831
O O2 0.252095 0.633524 0.845279
O O3 0.366448 0.481843 0.888321
O O4 0.111222 0.610207 0.103114
O O5 0.118884 0.799828 0.214088
O O6 0.803538 0.162035 0.532334
O O7 0.720935 0.134485 0.765655
O O8 0.553430 0.272578 0.786639
O O9 0.577837 0.984532 0.760919
O O10 0.000000 0.824745 0.750000
O O11 0.920656 0.695642 0.669241
O O12 0.938334 0.969472 0.653899
O O13 0.996666 0.218799 0.961724
O O14 0.000000 0.500000 0.500000
#
# Coordination Sequence:
#
# PCOD8118167 Si02
#       8
#     4   2   4   4   2   4   4   2
#     4  10  20  38  62  87 116 164 206 248 302 371
#     4  10  20  36  62  94 118 146 212 274 294 336
#     4  10  20  38  60  85 122 166 198 245 307 376
#     4  11  21  36  63  97 123 151 211 270 306 347
#     4  10  20  34  62  82 118 166 202 228 308 388
#     4  10  19  36  61  91 123 157 201 257 311 358
#     4  10  20  37  60  89 122 161 205 252 312 366
#     4  10  22  40  62  80 124 168 208 234 304 396
#
# _framework density 20.853812999999999
#
# number of rings (size 3 to 8) (size 9 to 14) (size 15 to 20)
#    0.000    1.846    0.769    6.462    0.000    0.000 
#   12.462    1.538   13.538    0.000    0.000    0.000 
#    0.000    0.000    0.000    0.000    0.000    0.000 
#
# Total GULP energy -322143.475860 kJ/mol
# GULP energy per Si atom -12390.133687 kJ/mol
# Density = 2.080635 g / cm^3
# Si number density = 20.853813 Si / 1000 Ang^3
#
#
#
# Elastic Constant Matrix: (Units=GPa)
#
#
# Indices 1 2 3 4 5 6 
#
# 1 183.4021 73.0857 43.9329 0.0000 1.7746 0.0000
# 2 73.0857 152.2294 37.4703 0.0000 -0.3711 0.0000
# 3 43.9329 37.4703 60.5901 0.0000 -4.1297 0.0000
# 4 0.0000 0.0000 0.0000 6.8177 0.0000 -14.4551
# 5 1.7746 -0.3711 -4.1297 0.0000 32.0159 0.0000
# 6 0.0000 0.0000 0.0000 -14.4551 0.0000 32.4715
#
#
#
# Elastic Compliance Matrix: (Units=1/GPa)
#
#
# Indices 1 2 3 4 5 6 
#
# 1 0.007423 -0.002625 -0.003823 0.000000 -0.000935 0.000000
# 2 -0.002625 0.008686 -0.003482 0.000000 -0.000203 0.000000
# 3 -0.003823 -0.003482 0.021631 0.000000 0.002962 0.000000
# 4 0.000000 0.000000 0.000000 2.612373 0.000000 1.162933
# 5 -0.000935 -0.000203 0.002962 0.000000 0.031666 0.000000
# 6 0.000000 0.000000 0.000000 1.162933 0.000000 0.548492
#
#
# Mechanical properties :
#
#
# Convention : Reuss Voigt Hill
#
# Bulk Modulus (GPa) = 55.92594 78.35550 67.14072
# Shear Modulus (GPa) = 1.53558 30.37653 15.95605
#
# Velocity S-wave (km/s) = 0.85904 3.82074 2.76911
# Velocity P-wave (km/s) = 5.27828 7.55773 6.51842
#
# Compressibility (1/GPa) = 0.01788079
#
# Stress axis : x y z
#
# Youngs Moduli (GPa) = 134.70779 115.12763 46.22928
#
# Poissons Ratio (x) = 0.30225 0.17672
# Poissons Ratio (y) = 0.35365 0.16096
# Poissons Ratio (z) = 0.51496 0.40086
#
# Static dielectric constant tensor:
#      x y z
#    x 4.634880 0.000000 -0.035960 
#    y 0.000000 3.980640 0.000000 
#    z -0.035960 0.000000 3.240660 
# 
# 
# High freq. dielectric constant tensor:
#      x y z
#    x 1.841970 0.000000 -0.009870 
#    y 0.000000 1.836460 0.000000 
#    z -0.009870 0.000000 1.755910 
# 
# From -- ./inp_files/53338.got.cif
#   From: 2010.06.25/outbox.cif.g09.slc.cpg/sg13_27_cif.got.tgz:53338.got - 2010.06.28 04:50:58.
