data_PCOD8118389
_publ_section_title
;
Structure prediction by ZEFSAII (Michael W. Deem and Ramdas Pophale) SiO2 
 PCOD8118389
Probable space group: P 2/C
;
_chemical_formula_sum "Si O2"
_cell_formula_units_Z 30
_cell_length_a 14.981801
_cell_length_b 8.761673
_cell_length_c 15.191203
_cell_angle_alpha 90.000000
_cell_angle_beta 132.488598
_cell_angle_gamma 90.000000
_cell_volume 1470.460270
_symmetry_space_group_name_H-M "P 2/C"
_symmetry_group_IT_number 13
_symmetry_cell_setting 'monoclinic'
loop_
_space_group_symop_operation_xyz
x,y,z
-x,y,1/2-z
-x,-y,-z
x,-y,1/2+z
loop_
_atom_site_type_symbol
_atom_site_label
_atom_site_fract_x
_atom_site_fract_y
_atom_site_fract_z
Si Si1 0.737294 0.681774 0.712903
Si Si2 0.507866 0.148448 0.445626
Si Si3 0.865215 0.140627 0.148679
Si Si4 0.251010 0.334821 0.085281
Si Si5 0.114576 0.403516 0.684081
Si Si6 0.221838 0.812164 0.392001
Si Si7 0.500000 0.800282 0.750000
Si Si8 0.893900 0.620195 0.519526
O O1 0.597962 0.729175 0.600479
O O2 0.829221 0.749916 0.704013
O O3 0.782261 0.734498 0.840596
O O4 0.758396 0.498138 0.724795
O O5 0.639603 0.227332 0.543945
O O6 0.487988 0.096283 0.329951
O O7 0.500000 0.000000 0.500000
O O8 0.000000 0.079353 0.250000
O O9 0.141328 0.230956 0.448018
O O10 0.779439 0.994653 0.099103
O O11 0.392368 0.317700 0.164268
O O12 0.180871 0.247491 0.960707
O O13 0.223742 0.513220 0.058895
O O14 0.127984 0.260716 0.759542
O O15 0.083033 0.333157 0.567018
O O16 0.006356 0.523220 0.635150
#
# Coordination Sequence:
#
# PCOD8118389 Si02
#       8
#     4   4   4   4   4   4   2   4
#     4  10  20  40  64  84 124 165 206 253 316 360
#     4  10  19  39  60  87 125 165 205 253 315 369
#     4  12  24  38  58  93 126 163 199 256 312 377
#     4   9  20  37  64  86 115 166 205 257 305 364
#     4  10  22  42  63  91 120 166 208 262 303 371
#     4  11  24  38  62  94 122 159 214 252 313 374
#     4   8  18  36  60  86 120 160 210 254 306 364
#     4  10  22  41  63  85 128 161 205 252 318 362
#
# _framework density 20.401776999999999
#
# number of rings (size 3 to 8) (size 9 to 14) (size 15 to 20)
#    0.000    1.867    2.667    0.800    1.867    1.600 
#    2.400    4.000    0.000    0.000    0.000    0.000 
#    0.000    0.000    0.000    0.000    0.000    0.000 
#
# Total GULP energy -371687.774761 kJ/mol
# GULP energy per Si atom -12389.592492 kJ/mol
# Density = 2.035534 g / cm^3
# Si number density = 20.401777 Si / 1000 Ang^3
#
#
#
# Elastic Constant Matrix: (Units=GPa)
#
#
# Indices 1 2 3 4 5 6 
#
# 1 85.1784 31.8515 39.5477 0.0000 -11.3061 0.0000
# 2 31.8515 93.1418 50.1518 0.0000 -13.0295 0.0000
# 3 39.5477 50.1518 107.5388 0.0000 -10.1784 0.0000
# 4 0.0000 0.0000 0.0000 30.1914 0.0000 -3.8938
# 5 -11.3061 -13.0295 -10.1784 0.0000 33.3113 0.0000
# 6 0.0000 0.0000 0.0000 -3.8938 0.0000 29.7195
#
#
#
# Elastic Compliance Matrix: (Units=1/GPa)
#
#
# Indices 1 2 3 4 5 6 
#
# 1 0.014943 -0.002535 -0.004044 0.000000 0.002845 0.000000
# 2 -0.002535 0.015216 -0.005851 0.000000 0.003303 0.000000
# 3 -0.004044 -0.005851 0.013561 0.000000 0.000482 0.000000
# 4 0.000000 0.000000 0.000000 0.033691 0.000000 0.004414
# 5 0.002845 0.003303 0.000482 0.000000 0.032425 0.000000
# 6 0.000000 0.000000 0.000000 0.004414 0.000000 0.034226
#
#
# Mechanical properties :
#
#
# Convention : Reuss Voigt Hill
#
# Bulk Modulus (GPa) = 53.02341 58.77346 55.89843
# Shear Modulus (GPa) = 28.53747 29.59831 29.06789
#
# Velocity S-wave (km/s) = 3.74408 3.81303 3.77871
# Velocity P-wave (km/s) = 6.68856 6.94667 6.81883
#
# Compressibility (1/GPa) = 0.01885960
#
# Stress axis : x y z
#
# Youngs Moduli (GPa) = 66.92067 65.72135 73.74288
#
# Poissons Ratio (x) = 0.16658 0.29822
# Poissons Ratio (y) = 0.16962 0.43149
# Poissons Ratio (z) = 0.27063 0.38455
#
# Static dielectric constant tensor:
#      x y z
#    x 3.972570 0.000000 -0.123730 
#    y 0.000000 3.376890 0.000000 
#    z -0.123730 0.000000 3.876970 
# 
# 
# High freq. dielectric constant tensor:
#      x y z
#    x 1.811220 0.000000 -0.005410 
#    y 0.000000 1.763560 0.000000 
#    z -0.005410 0.000000 1.803470 
# 
# From -- ./inp_files/69487.got.cif
#   From: 2010.06.25/outbox.cif.g09.slc.cpg/sg13_35_cif.got.tgz:69487.got - 2010.06.28 04:50:58.
