data_PCOD8118487
_publ_section_title
;
Structure prediction by ZEFSAII (Michael W. Deem and Ramdas Pophale) SiO2 
 PCOD8118487
Probable space group: P 2/C
;
_chemical_formula_sum "Si O2"
_cell_formula_units_Z 28
_cell_length_a 12.928301
_cell_length_b 11.618164
_cell_length_c 10.475418
_cell_angle_alpha 90.000000
_cell_angle_beta 97.356758
_cell_angle_gamma 90.000000
_cell_volume 1560.488050
_symmetry_space_group_name_H-M "P 2/C"
_symmetry_group_IT_number 13
_symmetry_cell_setting 'monoclinic'
loop_
_space_group_symop_operation_xyz
x,y,z
-x,y,1/2-z
-x,-y,-z
x,-y,1/2+z
loop_
_atom_site_type_symbol
_atom_site_label
_atom_site_fract_x
_atom_site_fract_y
_atom_site_fract_z
Si Si1 0.724611 0.298112 0.524987
Si Si2 0.560434 0.436821 0.626976
Si Si3 0.087448 0.146508 0.557615
Si Si4 0.112771 0.743584 0.794772
Si Si5 0.856954 0.106482 0.443580
Si Si6 0.116916 0.645750 0.242777
Si Si7 0.746961 0.556577 0.781213
O O1 0.616781 0.316936 0.587868
O O2 0.754481 0.164995 0.494611
O O3 0.825474 0.346744 0.613038
O O4 0.709325 0.377284 0.399637
O O5 0.500000 0.407124 0.750000
O O6 0.500000 0.500000 0.500000
O O7 0.648231 0.525854 0.680899
O O8 0.124013 0.201731 0.433358
O O9 0.119717 0.229714 0.677282
O O10 0.962270 0.127746 0.543239
O O11 0.154653 0.029601 0.579786
O O12 0.133482 0.842100 0.695047
O O13 0.191864 0.639799 0.803157
O O14 0.000000 0.689536 0.750000
O O15 0.179971 0.552018 0.168153
O O16 0.000000 0.602619 0.250000
#
# Coordination Sequence:
#
# PCOD8118487 Si02
#       7
#     4   4   4   4   4   4   4
#     4  10  21  37  55  82 117 147 195 241 295 346
#     4  11  22  39  62  87 114 147 192 250 308 357
#     4  10  20  31  54  76 115 159 199 225 275 331
#     4   9  19  34  51  78 113 156 187 226 285 346
#     4   9  19  35  51  77 114 156 198 241 266 339
#     4  11  22  31  51  82 119 155 190 231 278 343
#     4  10  22  36  55  82 118 148 186 238 299 361
#
# _framework density 17.943106
#
# number of rings (size 3 to 8) (size 9 to 14) (size 15 to 20)
#    0.000    2.000    2.857    0.429    6.000    1.143 
#    0.000    0.000    0.000    0.000    0.000   10.000 
#    0.000    0.143    0.000    0.000    0.000    0.000 
#
# Total GULP energy -346955.232527 kJ/mol
# GULP energy per Si atom -12391.258305 kJ/mol
# Density = 1.790227 g / cm^3
# Si number density = 17.943106 Si / 1000 Ang^3
#
#
#
# Elastic Constant Matrix: (Units=GPa)
#
#
# Indices 1 2 3 4 5 6 
#
# 1 108.0297 52.1646 45.0304 0.0000 -9.8405 0.0000
# 2 52.1646 113.0730 33.3522 0.0000 -4.5039 0.0000
# 3 45.0304 33.3522 80.4288 0.0000 0.0254 0.0000
# 4 0.0000 0.0000 0.0000 255.8599 0.0000 -46.3715
# 5 -9.8405 -4.5039 0.0254 0.0000 30.4102 0.0000
# 6 0.0000 0.0000 0.0000 -46.3715 0.0000 32.6990
#
#
#
# Elastic Compliance Matrix: (Units=1/GPa)
#
#
# Indices 1 2 3 4 5 6 
#
# 1 0.014447 -0.004694 -0.006143 0.000000 0.003985 0.000000
# 2 -0.004694 0.011670 -0.002211 0.000000 0.000211 0.000000
# 3 -0.006143 -0.002211 0.016791 0.000000 -0.002329 0.000000
# 4 0.000000 0.000000 0.000000 0.005260 0.000000 0.007460
# 5 0.003985 0.000211 -0.002329 0.000000 0.034206 0.000000
# 6 0.000000 0.000000 0.000000 0.007460 0.000000 0.041161
#
#
# Mechanical properties :
#
#
# Convention : Reuss Voigt Hill
#
# Bulk Modulus (GPa) = 59.48740 62.51399 61.00069
# Shear Modulus (GPa) = 32.20886 75.19277 53.70081
#
# Velocity S-wave (km/s) = 4.24141 6.48052 5.47662
# Velocity P-wave (km/s) = 7.56382 9.53478 8.60591
#
# Compressibility (1/GPa) = 0.01681028
#
# Stress axis : x y z
#
# Youngs Moduli (GPa) = 69.21779 85.68909 59.55728
#
# Poissons Ratio (x) = 0.40224 0.36588
# Poissons Ratio (y) = 0.32492 0.13169
# Poissons Ratio (z) = 0.42523 0.18948
#
# Static dielectric constant tensor:
#      x y z
#    x 3.345960 0.000000 -0.143690 
#    y 0.000000 3.416980 0.000000 
#    z -0.143690 0.000000 3.348490 
# 
# 
# High freq. dielectric constant tensor:
#      x y z
#    x 1.672500 0.000000 -0.009930 
#    y 0.000000 1.685850 0.000000 
#    z -0.009930 0.000000 1.706390 
# 
# From -- ./inp_files/33294.got.cif
#   From: 2010.06.25/outbox.cif.g09.slc.cpg/sg13_17_cif.got.tgz:33294.got - 2010.06.28 04:50:58.
