data_PCOD8118806
_publ_section_title
;
Structure prediction by ZEFSAII (Michael W. Deem and Ramdas Pophale) SiO2 
 PCOD8118806
Probable space group: P 2/C
;
_chemical_formula_sum "Si O2"
_cell_formula_units_Z 30
_cell_length_a 20.742212
_cell_length_b 7.742995
_cell_length_c 23.594424
_cell_angle_alpha 90.000000
_cell_angle_beta 157.661368
_cell_angle_gamma 90.000000
_cell_volume 1440.284648
_symmetry_space_group_name_H-M "P 2/C"
_symmetry_group_IT_number 13
_symmetry_cell_setting 'monoclinic'
loop_
_space_group_symop_operation_xyz
x,y,z
-x,y,1/2-z
-x,-y,-z
x,-y,1/2+z
loop_
_atom_site_type_symbol
_atom_site_label
_atom_site_fract_x
_atom_site_fract_y
_atom_site_fract_z
Si Si1 0.908787 0.201873 0.595046
Si Si2 0.168344 0.910139 0.792483
Si Si3 0.984318 0.561807 0.802350
Si Si4 0.705210 0.703767 0.818766
Si Si5 0.500000 0.111699 0.750000
Si Si6 0.646218 0.109759 0.463330
Si Si7 0.072883 0.849553 0.596518
Si Si8 0.761908 0.337499 0.903929
O O1 0.791331 0.206964 0.443357
O O2 0.804758 0.227575 0.570283
O O3 0.048291 0.360074 0.706403
O O4 0.997392 0.014812 0.669520
O O5 0.154909 0.702235 0.790677
O O6 0.191068 0.929422 0.742979
O O7 0.318282 0.993510 0.951853
O O8 0.000000 0.592278 0.750000
O O9 0.167468 0.603646 0.977928
O O10 0.518546 0.779303 0.657315
O O11 0.813554 0.728173 0.850169
O O12 0.685347 0.499684 0.808590
O O13 0.604799 0.213793 0.787670
O O14 0.370987 0.002435 0.607617
O O15 0.913285 0.745551 0.491123
O O16 0.000000 0.000000 0.500000
#
# Coordination Sequence:
#
# PCOD8118806 Si02
#       8
#     4   4   4   4   2   4   4   4
#     4  11  21  40  63  96 126 168 215 263 331 396
#     4  11  23  40  64  95 124 171 217 273 321 390
#     4  10  20  35  60  92 125 160 209 266 329 384
#     4  11  23  40  64  92 130 171 216 267 327 393
#     4  12  22  38  62  94 138 164 208 268 348 390
#     4  12  23  39  63  96 135 165 214 272 342 390
#     4  11  21  43  68  86 122 174 230 260 321 396
#     4  10  24  37  63  96 123 173 218 273 323 400
#
# _framework density 20.829215999999999
#
# number of rings (size 3 to 8) (size 9 to 14) (size 15 to 20)
#    0.000    1.067    2.667    5.600    3.733    0.533 
#    2.400    0.000    0.000    1.600    0.000    0.000 
#    0.000    0.000    0.000    0.000    0.000    0.000 
#
# Total GULP energy -371815.988752 kJ/mol
# GULP energy per Si atom -12393.866292 kJ/mol
# Density = 2.078181 g / cm^3
# Si number density = 20.829216 Si / 1000 Ang^3
#
#
#
# Elastic Constant Matrix: (Units=GPa)
#
#
# Indices 1 2 3 4 5 6 
#
# 1 130.5601 45.7834 43.3997 0.0000 -5.4679 0.0000
# 2 45.7834 118.4057 45.0529 0.0000 1.1828 0.0000
# 3 43.3997 45.0529 80.2591 0.0000 -7.7368 0.0000
# 4 0.0000 0.0000 0.0000 -6.7599 0.0000 -9.4335
# 5 -5.4679 1.1828 -7.7368 0.0000 48.6159 0.0000
# 6 0.0000 0.0000 0.0000 -9.4335 0.0000 30.7026
#
#
#
# Elastic Compliance Matrix: (Units=1/GPa)
#
#
# Indices 1 2 3 4 5 6 
#
# 1 0.009801 -0.002286 -0.003966 0.000000 0.000527 0.000000
# 2 -0.002286 0.011347 -0.005265 0.000000 -0.001371 0.000000
# 3 -0.003966 -0.005265 0.017802 0.000000 0.002515 0.000000
# 4 0.000000 0.000000 0.000000 -0.103537 0.000000 -0.031812
# 5 0.000527 -0.001371 0.002515 0.000000 0.021062 0.000000
# 6 0.000000 0.000000 0.000000 -0.031812 0.000000 0.022796
#
#
# Mechanical properties :
#
#
# Convention : Reuss Voigt Hill
#
# Bulk Modulus (GPa) = 62.83162 66.41076 64.62119
# Shear Modulus (GPa) = 656.86446 27.51098 342.18772
#
# Velocity S-wave (km/s) = 17.77757 3.63821 12.83118
# Velocity P-wave (km/s) = 21.25135 7.04283 15.83069
#
# Compressibility (1/GPa) = 0.01591555
#
# Stress axis : x y z
#
# Youngs Moduli (GPa) = 102.02665 88.13201 56.17238
#
# Poissons Ratio (x) = 0.20148 0.22278
# Poissons Ratio (y) = 0.23324 0.29577
# Poissons Ratio (z) = 0.40464 0.46404
#
# Static dielectric constant tensor:
#      x y z
#    x 3.958250 0.000000 -0.207830 
#    y 0.000000 4.307850 0.000000 
#    z -0.207830 0.000000 3.628680 
# 
# 
# High freq. dielectric constant tensor:
#      x y z
#    x 1.809030 0.000000 -0.023480 
#    y 0.000000 1.829190 0.000000 
#    z -0.023480 0.000000 1.803160 
# 
# From -- ./inp_files/88554.got.cif
#   From: 2010.06.25/outbox.cif.g09.slc.cpg/sg13_45_cif.got.tgz:88554.got - 2010.06.28 04:50:58.
