data_PCOD8118131
_publ_section_title
;
Structure prediction by ZEFSAII (Michael W. Deem and Ramdas Pophale) SiO2 
 PCOD8118131
Probable space group: P 2/C
;
_chemical_formula_sum "Si O2"
_cell_formula_units_Z 22
_cell_length_a 17.015940
_cell_length_b 10.940659
_cell_length_c 8.816224
_cell_angle_alpha 90.000000
_cell_angle_beta 42.335279
_cell_angle_gamma 90.000000
_cell_volume 1105.347622
_symmetry_space_group_name_H-M "P 2/C"
_symmetry_group_IT_number 13
_symmetry_cell_setting 'monoclinic'
loop_
_space_group_symop_operation_xyz
x,y,z
-x,y,1/2-z
-x,-y,-z
x,-y,1/2+z
loop_
_atom_site_type_symbol
_atom_site_label
_atom_site_fract_x
_atom_site_fract_y
_atom_site_fract_z
Si Si1 0.748708 0.606712 0.439182
Si Si2 0.645133 0.166280 0.209447
Si Si3 0.500000 0.333767 0.250000
Si Si4 0.869501 0.866766 0.896689
Si Si5 0.268110 0.008417 0.157234
Si Si6 0.130594 0.408866 0.042392
O O1 0.751975 0.738541 0.520104
O O2 0.617016 0.585883 0.556503
O O3 0.775801 0.500368 0.519285
O O4 0.844634 0.604633 0.171131
O O5 0.524568 0.243561 0.360910
O O6 0.656510 0.111168 0.360932
O O7 0.647017 0.059036 0.081253
O O8 0.836618 0.926251 0.783115
O O9 0.000000 0.907210 0.750000
O O10 0.858166 0.721622 0.892620
O O11 0.783799 0.911599 0.150953
O O12 0.000000 0.461245 0.250000
#
# Coordination Sequence:
#
# PCOD8118131 Si02
#       6
#     4   4   2   4   4   4
#     4  10  22  42  57  89 120 155 204 252 298 355
#     4   9  20  38  58  89 119 155 196 246 299 355
#     4   8  20  40  62  88 124 154 196 264 290 356
#     4  10  20  35  56  85 116 155 202 238 293 353
#     4  10  19  36  59  83 123 157 187 249 296 360
#     4  11  23  39  62  85 120 159 205 249 297 359
#
# _framework density 19.903243
#
# number of rings (size 3 to 8) (size 9 to 14) (size 15 to 20)
#    1.091    1.091    1.818    1.091    2.545    1.455 
#    0.000    0.909    0.000    3.273    0.000    0.000 
#    0.000    0.000    0.000    0.000    0.000    0.000 
#
# Total GULP energy -272640.803389 kJ/mol
# GULP energy per Si atom -12392.763790 kJ/mol
# Density = 1.985794 g / cm^3
# Si number density = 19.903243 Si / 1000 Ang^3
#
#
#
# Elastic Constant Matrix: (Units=GPa)
#
#
# Indices 1 2 3 4 5 6 
#
# 1 117.0083 52.4497 22.7876 0.0000 -0.3688 0.0000
# 2 52.4497 89.5749 15.8211 0.0000 1.1777 0.0000
# 3 22.7876 15.8211 49.5261 0.0000 4.0951 0.0000
# 4 0.0000 0.0000 0.0000 16.9711 0.0000 -3.1279
# 5 -0.3688 1.1777 4.0951 0.0000 27.3046 0.0000
# 6 0.0000 0.0000 0.0000 -3.1279 0.0000 47.0856
#
#
#
# Elastic Compliance Matrix: (Units=1/GPa)
#
#
# Indices 1 2 3 4 5 6 
#
# 1 0.012164 -0.006500 -0.003602 0.000000 0.000985 0.000000
# 2 -0.006500 0.015304 -0.001860 0.000000 -0.000469 0.000000
# 3 -0.003602 -0.001860 0.022722 0.000000 -0.003376 0.000000
# 4 0.000000 0.000000 0.000000 0.059654 0.000000 0.003963
# 5 0.000985 -0.000469 -0.003376 0.000000 0.037164 0.000000
# 6 0.000000 0.000000 0.000000 0.003963 0.000000 0.021501
#
#
# Mechanical properties :
#
#
# Convention : Reuss Voigt Hill
#
# Bulk Modulus (GPa) = 38.06913 48.69180 43.38046
# Shear Modulus (GPa) = 24.85234 29.27564 27.06399
#
# Velocity S-wave (km/s) = 3.53747 3.83939 3.69152
# Velocity P-wave (km/s) = 5.98778 6.64620 6.32556
#
# Compressibility (1/GPa) = 0.02626800
#
# Stress axis : x y z
#
# Youngs Moduli (GPa) = 82.20644 65.34162 44.01014
#
# Poissons Ratio (x) = 0.42469 0.15853
# Poissons Ratio (y) = 0.53430 0.08184
# Poissons Ratio (z) = 0.29613 0.12151
#
# Static dielectric constant tensor:
#      x y z
#    x 3.594730 0.000000 -0.007990 
#    y 0.000000 3.642050 0.000000 
#    z -0.007990 0.000000 3.273730 
# 
# 
# High freq. dielectric constant tensor:
#      x y z
#    x 1.773440 0.000000 0.000200 
#    y 0.000000 1.777790 0.000000 
#    z 0.000200 0.000000 1.753700 
# 
# From -- ./inp_files/21489.got.cif
#   From: 2010.06.25/outbox.cif.g09.slc.cpg/sg13_11_cif.got.tgz:21489.got - 2010.06.28 04:50:58.
