data_PCOD8118834
_publ_section_title
;
Structure prediction by ZEFSAII (Michael W. Deem and Ramdas Pophale) SiO2 
 PCOD8118834
Probable space group: P 2/C
;
_chemical_formula_sum "Si O2"
_cell_formula_units_Z 28
_cell_length_a 19.060666
_cell_length_b 11.021250
_cell_length_c 13.102882
_cell_angle_alpha 90.000000
_cell_angle_beta 149.819223
_cell_angle_gamma 90.000000
_cell_volume 1383.791040
_symmetry_space_group_name_H-M "P 2/C"
_symmetry_group_IT_number 13
_symmetry_cell_setting 'monoclinic'
loop_
_space_group_symop_operation_xyz
x,y,z
-x,y,1/2-z
-x,-y,-z
x,-y,1/2+z
loop_
_atom_site_type_symbol
_atom_site_label
_atom_site_fract_x
_atom_site_fract_y
_atom_site_fract_z
Si Si1 0.508239 0.312285 0.443717
Si Si2 0.513396 0.424540 0.652840
Si Si3 0.007222 0.612309 0.935529
Si Si4 0.792200 0.185606 0.757919
Si Si5 0.845542 0.931673 0.519587
Si Si6 0.186504 0.348226 0.471904
Si Si7 0.359487 0.889803 0.629124
O O1 0.442881 0.342445 0.474163
O O2 0.535522 0.436108 0.414493
O O3 0.658568 0.248978 0.643284
O O4 0.399884 0.227241 0.247228
O O5 0.500000 0.369960 0.750000
O O6 0.674507 0.419077 0.828147
O O7 0.087285 0.588638 0.930354
O O8 0.851147 0.634822 0.695893
O O9 0.075692 0.724081 0.082675
O O10 0.000000 0.500000 0.000000
O O11 0.756234 0.145614 0.599191
O O12 0.836579 0.070305 0.884235
O O13 0.816067 0.795892 0.518141
O O14 0.000000 0.976302 0.750000
O O15 0.716256 0.012115 0.395863
O O16 0.500000 0.941071 0.750000
#
# Coordination Sequence:
#
# PCOD8118834 Si02
#       7
#     4   4   4   4   4   4   4
#     4  10  22  40  60  91 129 159 207 261 315 371
#     4  11  22  37  64  91 129 163 200 256 323 381
#     4  10  20  35  66  88 116 164 206 246 306 379
#     4  10  20  43  63  86 124 167 206 253 327 366
#     4  11  21  44  64  86 127 165 210 264 314 367
#     4  10  21  41  58  91 124 163 202 253 314 376
#     4  10  24  41  65  91 121 168 214 260 312 376
#
# _framework density 20.234268
#
# number of rings (size 3 to 8) (size 9 to 14) (size 15 to 20)
#    0.000    1.714    5.714    1.286    4.000    3.429 
#    2.571    1.429    0.000    0.000    0.000    0.000 
#    0.000    0.000    0.000    0.000    0.000    0.000 
#
# Total GULP energy -346873.836753 kJ/mol
# GULP energy per Si atom -12388.351313 kJ/mol
# Density = 2.018821 g / cm^3
# Si number density = 20.234268 Si / 1000 Ang^3
#
#
#
# Elastic Constant Matrix: (Units=GPa)
#
#
# Indices 1 2 3 4 5 6 
#
# 1 87.2215 51.3762 26.5293 0.0000 -28.1100 0.0000
# 2 51.3762 79.0063 32.7382 0.0000 -8.6237 0.0000
# 3 26.5293 32.7382 108.5720 0.0000 -26.0771 0.0000
# 4 0.0000 0.0000 0.0000 5.0378 0.0000 14.6299
# 5 -28.1100 -8.6237 -26.0771 0.0000 37.7336 0.0000
# 6 0.0000 0.0000 0.0000 14.6299 0.0000 25.7640
#
#
#
# Elastic Compliance Matrix: (Units=1/GPa)
#
#
# Indices 1 2 3 4 5 6 
#
# 1 0.025539 -0.015834 0.002679 0.000000 0.017258 0.000000
# 2 -0.015834 0.024285 -0.005940 0.000000 -0.010350 0.000000
# 3 0.002679 -0.005940 0.012590 0.000000 0.009339 0.000000
# 4 0.000000 0.000000 0.000000 -0.305834 0.000000 0.173667
# 5 0.017258 -0.010350 0.009339 0.000000 0.043447 0.000000
# 6 0.000000 0.000000 0.000000 0.173667 0.000000 -0.059802
#
#
# Mechanical properties :
#
#
# Convention : Reuss Voigt Hill
#
# Bulk Modulus (GPa) = 41.27946 55.12081 48.20013
# Shear Modulus (GPa) = -23.41789 24.65082 0.61647
#
# Velocity S-wave (km/s) = -3.40566 3.49416 0.55256
# Velocity P-wave (km/s) = 2.23168 6.60146 4.92746
#
# Compressibility (1/GPa) = 0.02422512
#
# Stress axis : x y z
#
# Youngs Moduli (GPa) = 39.15623 41.17749 79.42844
#
# Poissons Ratio (x) = 0.65199 -0.21280
# Poissons Ratio (y) = 0.61999 0.47179
# Poissons Ratio (z) = -0.10491 0.24459
#
# Static dielectric constant tensor:
#      x y z
#    x 3.085650 0.000000 0.025290 
#    y 0.000000 3.443030 0.000000 
#    z 0.025290 0.000000 4.091030 
# 
# 
# High freq. dielectric constant tensor:
#      x y z
#    x 1.775620 0.000000 -0.025690 
#    y 0.000000 1.763610 0.000000 
#    z -0.025690 0.000000 1.818060 
# 
# From -- ./inp_files/57530.got.cif
#   From: 2010.06.25/outbox.cif.g09.slc.cpg/sg13_29_cif.got.tgz:57530.got - 2010.06.28 04:50:58.
