data_PCOD8118185
_publ_section_title
;
Structure prediction by ZEFSAII (Michael W. Deem and Ramdas Pophale) SiO2 
 PCOD8118185
Probable space group: P 2/C
;
_chemical_formula_sum "Si O2"
_cell_formula_units_Z 30
_cell_length_a 12.202252
_cell_length_b 9.242369
_cell_length_c 14.320297
_cell_angle_alpha 90.000000
_cell_angle_beta 120.294748
_cell_angle_gamma 90.000000
_cell_volume 1394.467463
_symmetry_space_group_name_H-M "P 2/C"
_symmetry_group_IT_number 13
_symmetry_cell_setting 'monoclinic'
loop_
_space_group_symop_operation_xyz
x,y,z
-x,y,1/2-z
-x,-y,-z
x,-y,1/2+z
loop_
_atom_site_type_symbol
_atom_site_label
_atom_site_fract_x
_atom_site_fract_y
_atom_site_fract_z
Si Si1 0.801478 0.678981 0.723449
Si Si2 0.416683 0.043803 0.091341
Si Si3 0.029635 0.535980 0.118737
Si Si4 0.305958 0.026305 0.353727
Si Si5 0.500000 0.212422 0.750000
Si Si6 0.636927 0.664568 0.834049
Si Si7 0.241364 0.559240 0.431961
Si Si8 0.728177 0.724109 0.233653
O O1 0.938369 0.611663 0.809707
O O2 0.801086 0.849498 0.702557
O O3 0.721954 0.637345 0.780925
O O4 0.746102 0.600870 0.607130
O O5 0.557017 0.092354 0.116752
O O6 0.363832 0.164921 0.139248
O O7 0.426412 0.888446 0.144259
O O8 0.316405 0.029766 0.964148
O O9 0.143866 0.652072 0.172332
O O10 0.905666 0.603034 0.114191
O O11 0.000000 0.500000 0.000000
O O12 0.260601 0.898340 0.265663
O O13 0.393472 0.313333 0.753424
O O14 0.500000 0.605877 0.750000
O O15 0.683704 0.565203 0.939412
O O16 0.301035 0.671142 0.383846
#
# Coordination Sequence:
#
# PCOD8118185 Si02
#       8
#     4   4   4   4   2   4   4   4
#     4  11  23  42  68  95 131 179 220 276 328 401
#     4  10  19  36  62  95 144 174 198 275 350 403
#     4  11  24  48  69  90 131 185 228 275 339 388
#     4  10  20  38  65  97 133 175 218 267 341 401
#     4  10  20  36  64 104 136 162 220 280 334 394
#     4  12  21  40  68  99 133 177 221 267 343 408
#     4  11  25  46  66  92 137 184 224 273 339 394
#     4  10  21  41  69  98 132 175 218 270 336 404
#
# _framework density 21.513587999999999
#
# number of rings (size 3 to 8) (size 9 to 14) (size 15 to 20)
#    0.000    1.333    4.667    2.400    0.000    1.600 
#    4.800    3.333    0.000    0.000    0.000    0.000 
#    0.000    0.000    0.000    0.000    0.000    0.000 
#
# Total GULP energy -371973.610292 kJ/mol
# GULP energy per Si atom -12399.120343 kJ/mol
# Density = 2.146462 g / cm^3
# Si number density = 21.513588 Si / 1000 Ang^3
#
#
#
# Elastic Constant Matrix: (Units=GPa)
#
#
# Indices 1 2 3 4 5 6 
#
# 1 119.8445 35.7659 51.5227 0.0000 -9.9578 0.0000
# 2 35.7659 89.7819 35.1447 0.0000 13.2560 0.0000
# 3 51.5227 35.1447 139.7697 0.0000 9.2803 0.0000
# 4 0.0000 0.0000 0.0000 34.5677 0.0000 -4.0921
# 5 -9.9578 13.2560 9.2803 0.0000 32.8699 0.0000
# 6 0.0000 0.0000 0.0000 -4.0921 0.0000 28.7307
#
#
#
# Elastic Compliance Matrix: (Units=1/GPa)
#
#
# Indices 1 2 3 4 5 6 
#
# 1 0.011679 -0.004134 -0.003680 0.000000 0.006244 0.000000
# 2 -0.004134 0.014409 -0.001661 0.000000 -0.006594 0.000000
# 3 -0.003680 -0.001661 0.009130 0.000000 -0.003023 0.000000
# 4 0.000000 0.000000 0.000000 0.029425 0.000000 0.004191
# 5 0.006244 -0.006594 -0.003023 0.000000 0.035827 0.000000
# 6 0.000000 0.000000 0.000000 0.004191 0.000000 0.035403
#
#
# Mechanical properties :
#
#
# Convention : Reuss Voigt Hill
#
# Bulk Modulus (GPa) = 61.47624 66.02917 63.75271
# Shear Modulus (GPa) = 31.20213 34.36451 32.78332
#
# Velocity S-wave (km/s) = 3.81247 4.00101 3.90788
# Velocity P-wave (km/s) = 6.92947 7.21821 7.07531
#
# Compressibility (1/GPa) = 0.01626645
#
# Stress axis : x y z
#
# Youngs Moduli (GPa) = 85.62498 69.40217 109.53227
#
# Poissons Ratio (x) = 0.28689 0.40311
# Poissons Ratio (y) = 0.35395 0.18198
# Poissons Ratio (z) = 0.31513 0.11531
#
# Static dielectric constant tensor:
#      x y z
#    x 3.988930 0.000000 -0.180230 
#    y 0.000000 3.793610 0.000000 
#    z -0.180230 0.000000 4.038170 
# 
# 
# High freq. dielectric constant tensor:
#      x y z
#    x 1.834250 0.000000 -0.022050 
#    y 0.000000 1.836300 0.000000 
#    z -0.022050 0.000000 1.855560 
# 
# From -- ./inp_files/50392.got.cif
#   From: 2010.06.25/outbox.cif.g09.slc.cpg/sg13_26_cif.got.tgz:50392.got - 2010.06.28 04:50:58.
