data_PCOD8118378
_publ_section_title
;
Structure prediction by ZEFSAII (Michael W. Deem and Ramdas Pophale) SiO2 
 PCOD8118378
Probable space group: P 2/C
;
_chemical_formula_sum "Si O2"
_cell_formula_units_Z 20
_cell_length_a 11.985068
_cell_length_b 10.420689
_cell_length_c 9.868621
_cell_angle_alpha 90.000000
_cell_angle_beta 48.300296
_cell_angle_gamma 90.000000
_cell_volume 920.249525
_symmetry_space_group_name_H-M "P 2/C"
_symmetry_group_IT_number 13
_symmetry_cell_setting 'monoclinic'
loop_
_space_group_symop_operation_xyz
x,y,z
-x,y,1/2-z
-x,-y,-z
x,-y,1/2+z
loop_
_atom_site_type_symbol
_atom_site_label
_atom_site_fract_x
_atom_site_fract_y
_atom_site_fract_z
Si Si1 0.195960 0.855303 0.895943
Si Si2 0.016756 0.380420 0.889598
Si Si3 0.339411 0.736550 0.130011
Si Si4 0.743792 0.994252 0.913604
Si Si5 0.500000 0.249442 0.250000
Si Si6 0.500000 0.183467 0.750000
O O1 0.373649 0.837076 0.777784
O O2 0.164180 0.916537 0.774806
O O3 0.143545 0.950437 0.060794
O O4 0.110974 0.721504 0.972930
O O5 0.176162 0.317333 0.785042
O O6 0.000000 0.429207 0.750000
O O7 0.000000 0.500000 0.000000
O O8 0.338188 0.887763 0.094795
O O9 0.430633 0.720159 0.194562
O O10 0.421929 0.667194 0.934083
O O11 0.626371 0.901806 0.079670
#
# Coordination Sequence:
#
# PCOD8118378 Si02
#       6
#     4   4   4   4   2   2
#     4  11  23  41  69 104 143 179 223 279 357 418
#     4  12  28  53  70  90 139 194 245 289 334 397
#     4  11  23  41  68 101 137 180 221 282 348 417
#     4  11  20  35  69 101 145 172 211 278 354 419
#     4  10  19  38  73  96 138 175 214 279 346 418
#     4  12  21  36  67 118 142 175 214 279 364 434
#
# _framework density 21.733236999999999
#
# number of rings (size 3 to 8) (size 9 to 14) (size 15 to 20)
#    0.000    0.800    8.000    3.000    0.000    2.400 
#    3.600    2.000    0.000    0.000    0.000    0.000 
#    0.000    0.000    0.000    0.000    0.000    0.000 
#
# Total GULP energy -247908.666405 kJ/mol
# GULP energy per Si atom -12395.433320 kJ/mol
# Density = 2.168377 g / cm^3
# Si number density = 21.733237 Si / 1000 Ang^3
#
#
#
# Elastic Constant Matrix: (Units=GPa)
#
#
# Indices 1 2 3 4 5 6 
#
# 1 107.4868 66.3988 69.9680 0.0000 21.6442 0.0000
# 2 66.3988 84.0103 69.8258 0.0000 9.9014 0.0000
# 3 69.9680 69.8258 152.4405 0.0000 28.6749 0.0000
# 4 0.0000 0.0000 0.0000 8.4603 0.0000 27.8468
# 5 21.6442 9.9014 28.6749 0.0000 44.8102 0.0000
# 6 0.0000 0.0000 0.0000 27.8468 0.0000 3.1539
#
#
#
# Elastic Compliance Matrix: (Units=1/GPa)
#
#
# Indices 1 2 3 4 5 6 
#
# 1 0.020073 -0.013591 -0.001966 0.000000 -0.005435 0.000000
# 2 -0.013591 0.028521 -0.007817 0.000000 0.005264 0.000000
# 3 -0.001966 -0.007817 0.011981 0.000000 -0.004990 0.000000
# 4 0.000000 0.000000 0.000000 -0.004212 0.000000 0.037191
# 5 -0.005435 0.005264 -0.004990 0.000000 0.026972 0.000000
# 6 0.000000 0.000000 0.000000 0.037191 0.000000 -0.011299
#
#
# Mechanical properties :
#
#
# Convention : Reuss Voigt Hill
#
# Bulk Modulus (GPa) = 72.30825 84.03586 78.17205
# Shear Modulus (GPa) = 40.52164 20.46789 30.49477
#
# Velocity S-wave (km/s) = 4.32267 3.07217 3.74991
# Velocity P-wave (km/s) = 7.63263 7.16486 7.40244
#
# Compressibility (1/GPa) = 0.01382968
#
# Stress axis : x y z
#
# Youngs Moduli (GPa) = 49.81879 35.06170 83.46366
#
# Poissons Ratio (x) = 0.47651 0.16406
# Poissons Ratio (y) = 0.67706 0.65240
# Poissons Ratio (z) = 0.09793 0.27406
#
# Static dielectric constant tensor:
#      x y z
#    x 4.243430 0.000000 0.485790 
#    y 0.000000 3.630860 0.000000 
#    z 0.485790 0.000000 4.555690 
# 
# 
# High freq. dielectric constant tensor:
#      x y z
#    x 1.860290 0.000000 0.014010 
#    y 0.000000 1.801610 0.000000 
#    z 0.014010 0.000000 1.880760 
# 
# From -- ./inp_files/11716.got.cif
#   From: 2010.06.25/outbox.cif.g09.slc.cpg/sg13_6_cif.got.tgz:11716.got - 2010.06.28 04:50:58.
