data_PCOD8118129
_publ_section_title
;
Structure prediction by ZEFSAII (Michael W. Deem and Ramdas Pophale) SiO2 
 PCOD8118129
Probable space group: P 2/C
;
_chemical_formula_sum "Si O2"
_cell_formula_units_Z 28
_cell_length_a 17.335857
_cell_length_b 8.872199
_cell_length_c 21.273553
_cell_angle_alpha 90.000000
_cell_angle_beta 27.319140
_cell_angle_gamma 90.000000
_cell_volume 1501.684041
_symmetry_space_group_name_H-M "P 2/C"
_symmetry_group_IT_number 13
_symmetry_cell_setting 'monoclinic'
loop_
_space_group_symop_operation_xyz
x,y,z
-x,y,1/2-z
-x,-y,-z
x,-y,1/2+z
loop_
_atom_site_type_symbol
_atom_site_label
_atom_site_fract_x
_atom_site_fract_y
_atom_site_fract_z
Si Si1 0.617046 0.027613 0.611866
Si Si2 0.790476 0.748320 0.534264
Si Si3 0.336488 0.590820 0.990197
Si Si4 0.313456 0.933567 0.637743
Si Si5 0.626099 0.206425 0.279702
Si Si6 0.796622 0.261648 0.394762
Si Si7 0.902282 0.196454 0.760957
O O1 0.500000 0.104812 0.750000
O O2 0.729500 0.149962 0.496369
O O3 0.751451 0.922001 0.548297
O O4 0.504661 0.923194 0.647609
O O5 0.677064 0.637466 0.573773
O O6 0.755712 0.730268 0.633481
O O7 0.982220 0.720289 0.374661
O O8 0.301205 0.415943 0.022017
O O9 0.209166 0.674054 0.128581
O O10 0.522111 0.645066 0.877258
O O11 0.271715 0.866416 0.736731
O O12 0.274011 0.795880 0.620143
O O13 0.500000 0.000000 0.500000
O O14 0.193596 0.070164 0.707611
O O15 0.000000 0.278423 0.250000
O O16 0.000000 0.120778 0.750000
#
# Coordination Sequence:
#
# PCOD8118129 Si02
#       7
#     4   4   4   4   4   4   4
#     4   9  18  33  54  80 109 139 184 236 280 326
#     4   9  18  35  59  82 109 146 190 231 279 340
#     4  10  20  36  58  81 110 151 190 229 279 339
#     4  12  21  36  59  85 116 150 189 237 287 337
#     4  10  20  36  56  85 112 148 186 228 289 341
#     4  12  23  36  58  86 115 147 194 237 278 336
#     4  10  19  36  59  82 112 152 194 236 279 336
#
# _framework density 18.645734000000001
#
# number of rings (size 3 to 8) (size 9 to 14) (size 15 to 20)
#    0.000    1.714    2.857    5.571    0.000    2.286 
#    0.000    0.000    0.000    3.429    0.000    0.000 
#    0.000    0.000    0.000    0.000    0.000    0.000 
#
# Total GULP energy -346958.741429 kJ/mol
# GULP energy per Si atom -12391.383622 kJ/mol
# Density = 1.860330 g / cm^3
# Si number density = 18.645734 Si / 1000 Ang^3
#
#
#
# Elastic Constant Matrix: (Units=GPa)
#
#
# Indices 1 2 3 4 5 6 
#
# 1 81.2562 25.3005 33.7686 0.0000 6.8765 0.0000
# 2 25.3005 90.4702 25.8955 0.0000 5.0224 0.0000
# 3 33.7686 25.8955 107.7019 0.0000 15.4375 0.0000
# 4 0.0000 0.0000 0.0000 6.8959 0.0000 -6.2486
# 5 6.8765 5.0224 15.4375 0.0000 25.8472 0.0000
# 6 0.0000 0.0000 0.0000 -6.2486 0.0000 12.6123
#
#
#
# Elastic Compliance Matrix: (Units=1/GPa)
#
#
# Indices 1 2 3 4 5 6 
#
# 1 0.014918 -0.003025 -0.003790 0.000000 -0.001118 0.000000
# 2 -0.003025 0.012494 -0.001994 0.000000 -0.000432 0.000000
# 3 -0.003790 -0.001994 0.011759 0.000000 -0.005628 0.000000
# 4 0.000000 0.000000 0.000000 0.263150 0.000000 0.130374
# 5 -0.001118 -0.000432 -0.005628 0.000000 0.042431 0.000000
# 6 0.000000 0.000000 0.000000 0.130374 0.000000 0.143880
#
#
# Mechanical properties :
#
#
# Convention : Reuss Voigt Hill
#
# Bulk Modulus (GPa) = 46.39476 49.92860 48.16168
# Shear Modulus (GPa) = 9.73834 22.03533 15.88684
#
# Velocity S-wave (km/s) = 2.28783 3.44145 2.92213
# Velocity P-wave (km/s) = 5.64935 6.52894 6.10500
#
# Compressibility (1/GPa) = 0.02155416
#
# Stress axis : x y z
#
# Youngs Moduli (GPa) = 67.03193 80.03851 85.04037
#
# Poissons Ratio (x) = 0.24213 0.32229
# Poissons Ratio (y) = 0.20278 0.16953
# Poissons Ratio (z) = 0.25404 0.15956
#
# Static dielectric constant tensor:
#      x y z
#    x 3.333890 0.000000 0.098610 
#    y 0.000000 3.279810 0.000000 
#    z 0.098610 0.000000 3.769240 
# 
# 
# High freq. dielectric constant tensor:
#      x y z
#    x 1.705060 0.000000 0.010470 
#    y 0.000000 1.706490 0.000000 
#    z 0.010470 0.000000 1.737520 
# 
# From -- ./inp_files/80823.got.cif
#   From: 2010.06.25/outbox.cif.g09.slc.cpg/sg13_41_cif.got.tgz:80823.got - 2010.06.28 04:50:58.
