data_PCOD8118170
_publ_section_title
;
Structure prediction by ZEFSAII (Michael W. Deem and Ramdas Pophale) SiO2 
 PCOD8118170
Probable space group: P 2/C
;
_chemical_formula_sum "Si O2"
_cell_formula_units_Z 32
_cell_length_a 18.519638
_cell_length_b 5.163724
_cell_length_c 31.516743
_cell_angle_alpha 90.000000
_cell_angle_beta 146.234910
_cell_angle_gamma 90.000000
_cell_volume 1675.123945
_symmetry_space_group_name_H-M "P 2/C"
_symmetry_group_IT_number 13
_symmetry_cell_setting 'monoclinic'
loop_
_space_group_symop_operation_xyz
x,y,z
-x,y,1/2-z
-x,-y,-z
x,-y,1/2+z
loop_
_atom_site_type_symbol
_atom_site_label
_atom_site_fract_x
_atom_site_fract_y
_atom_site_fract_z
Si Si1 0.851705 0.475873 0.165986
Si Si2 0.425164 0.525704 0.256974
Si Si3 0.056294 0.989588 0.160286
Si Si4 0.116546 0.506382 0.916057
Si Si5 0.473786 0.024752 0.392099
Si Si6 0.764960 0.970762 0.169691
Si Si7 0.701899 0.976648 0.776058
Si Si8 0.601375 0.526898 0.425631
O O1 0.831800 0.512355 0.106546
O O2 0.767356 0.689687 0.149312
O O3 0.000000 0.524618 0.250000
O O4 0.807664 0.189065 0.157376
O O5 0.500000 0.495677 0.250000
O O6 0.324794 0.289097 0.212364
O O7 0.530422 0.527833 0.345848
O O8 0.338879 0.785043 0.213914
O O9 0.147376 0.004727 0.163261
O O10 0.968416 0.241319 0.118372
O O11 0.138612 0.974568 0.243405
O O12 0.967851 0.739010 0.112036
O O13 0.244556 0.516226 0.008048
O O14 0.380878 0.011015 0.306673
O O15 0.558554 0.283565 0.433173
O O16 0.383824 0.021163 0.389790
O O17 0.569449 0.779990 0.437865
#
# Coordination Sequence:
#
# PCOD8118170 Si02
#       8
#     4   4   4   4   4   4   4   4
#     4  12  21  34  50  79 108 134 185 226 268 305
#     4  10  19  36  62  85 106 134 170 219 261 305
#     4  11  20  35  55  79 106 143 181 217 260 304
#     4  12  23  34  54  76 110 146 173 219 268 316
#     4   9  19  36  56  73 105 141 177 224 261 307
#     4  11  20  35  55  77 101 137 187 234 262 297
#     4   9  19  33  57  86 106 132 179 219 252 309
#     4  10  21  38  53  80 108 138 178 208 263 331
#
# _framework density 19.103064
#
# number of rings (size 3 to 8) (size 9 to 14) (size 15 to 20)
#    0.000    1.500    2.500    3.750    0.000    4.000 
#    0.000    3.750    0.000    4.500    0.000    0.000 
#    0.000    0.000    0.000    0.000    0.000    0.000 
#
# Total GULP energy -396918.084609 kJ/mol
# GULP energy per Si atom -12403.690144 kJ/mol
# Density = 1.905958 g / cm^3
# Si number density = 19.103064 Si / 1000 Ang^3
#
#
#
# Elastic Constant Matrix: (Units=GPa)
#
#
# Indices 1 2 3 4 5 6 
#
# 1 100.9304 24.8277 28.9673 0.0000 14.3605 0.0000
# 2 24.8277 122.3984 31.2024 0.0000 8.6110 0.0000
# 3 28.9673 31.2024 66.1039 0.0000 21.0350 0.0000
# 4 0.0000 0.0000 0.0000 -54.1141 0.0000 -88.9458
# 5 14.3605 8.6110 21.0350 0.0000 21.1668 0.0000
# 6 0.0000 0.0000 0.0000 -88.9458 0.0000 -99.6422
#
#
#
# Elastic Compliance Matrix: (Units=1/GPa)
#
#
# Indices 1 2 3 4 5 6 
#
# 1 0.011744 -0.001269 -0.003182 0.000000 -0.004288 0.000000
# 2 -0.001269 0.009435 -0.004314 0.000000 0.001310 0.000000
# 3 -0.003182 -0.004314 0.025320 0.000000 -0.021248 0.000000
# 4 0.000000 0.000000 0.000000 0.039551 0.000000 -0.035305
# 5 -0.004288 0.001310 -0.021248 0.000000 0.070736 0.000000
# 6 0.000000 0.000000 0.000000 -0.035305 0.000000 0.021480
#
#
# Mechanical properties :
#
#
# Convention : Reuss Voigt Hill
#
# Bulk Modulus (GPa) = 34.52208 51.04751 42.78480
# Shear Modulus (GPa) = 24.33645 -12.88886 5.72379
#
# Velocity S-wave (km/s) = 3.57312 -2.60032 1.73285
# Velocity P-wave (km/s) = 5.92737 4.21481 5.14287
#
# Compressibility (1/GPa) = 0.02896697
#
# Stress axis : x y z
#
# Youngs Moduli (GPa) = 85.15323 105.98684 39.49428
#
# Poissons Ratio (x) = 0.13451 0.12569
# Poissons Ratio (y) = 0.10807 0.17039
# Poissons Ratio (z) = 0.27100 0.45726
#
# Static dielectric constant tensor:
#      x y z
#    x 3.557730 0.000000 0.228860 
#    y 0.000000 3.754100 0.000000 
#    z 0.228860 0.000000 3.320700 
# 
# 
# High freq. dielectric constant tensor:
#      x y z
#    x 1.738270 0.000000 0.024850 
#    y 0.000000 1.766320 0.000000 
#    z 0.024850 0.000000 1.716330 
# 
# From -- ./inp_files/96868.got.cif
#   From: 2010.06.25/outbox.cif.g09.slc.cpg/sg13_49_cif.got.tgz:96868.got - 2010.06.28 04:50:58.
