data_PCOD8118929
_publ_section_title
;
Structure prediction by ZEFSAII (Michael W. Deem and Ramdas Pophale) SiO2 
 PCOD8118929
Probable space group: P 2/C
;
_chemical_formula_sum "Si O2"
_cell_formula_units_Z 24
_cell_length_a 17.606053
_cell_length_b 8.864533
_cell_length_c 23.137822
_cell_angle_alpha 90.000000
_cell_angle_beta 160.654376
_cell_angle_gamma 90.000000
_cell_volume 1196.236301
_symmetry_space_group_name_H-M "P 2/C"
_symmetry_group_IT_number 13
_symmetry_cell_setting 'monoclinic'
loop_
_space_group_symop_operation_xyz
x,y,z
-x,y,1/2-z
-x,-y,-z
x,-y,1/2+z
loop_
_atom_site_type_symbol
_atom_site_label
_atom_site_fract_x
_atom_site_fract_y
_atom_site_fract_z
Si Si1 0.150469 0.597425 0.735285
Si Si2 0.495729 0.404369 0.910583
Si Si3 0.820051 0.411137 0.569533
Si Si4 0.189099 0.926822 0.434886
Si Si5 0.993277 0.916336 0.583950
Si Si6 0.348549 0.082217 0.765906
O O1 0.287797 0.487717 0.792010
O O2 0.078963 0.744989 0.648955
O O3 0.921081 0.510104 0.589908
O O4 0.305001 0.641531 0.901412
O O5 0.401079 0.256020 0.813048
O O6 0.588851 0.512271 0.926814
O O7 0.767422 0.242049 0.509676
O O8 0.000000 0.400784 0.750000
O O9 0.000000 0.927823 0.250000
O O10 0.421178 0.986756 0.573535
O O11 0.104806 0.034721 0.425077
O O12 0.791257 0.934687 0.393224
O O13 0.207474 0.020099 0.719484
#
# Coordination Sequence:
#
# PCOD8118929 Si02
#       6
#     4   4   4   4   4   4
#     4  10  20  36  59  85 113 148 194 242 286 340
#     4  10  20  36  59  85 113 148 194 242 286 340
#     4   9  19  35  56  84 112 141 184 239 292 338
#     4  11  22  39  64  88 114 151 196 245 294 344
#     4  11  24  40  58  85 122 159 195 237 290 353
#     4  11  24  40  58  85 122 159 195 237 290 353
#
# _framework density 20.062923999999999
#
# number of rings (size 3 to 8) (size 9 to 14) (size 15 to 20)
#    0.000    1.667    0.000    4.500    0.000    7.333 
#    0.000    3.333    0.000    0.000    0.000    0.000 
#    0.000    0.000    0.000    0.000    0.000    0.000 
#
# Total GULP energy -297734.671828 kJ/mol
# GULP energy per Si atom -12405.611326 kJ/mol
# Density = 2.001726 g / cm^3
# Si number density = 20.062924 Si / 1000 Ang^3
#
#
#
# Elastic Constant Matrix: (Units=GPa)
#
#
# Indices 1 2 3 4 5 6 
#
# 1 80.5776 16.2577 30.7667 0.0000 18.4827 0.0000
# 2 16.2577 102.4780 23.6831 0.0000 -4.7406 0.0000
# 3 30.7667 23.6831 72.7772 0.0000 8.5657 0.0000
# 4 0.0000 0.0000 0.0000 19.7221 0.0000 0.9723
# 5 18.4827 -4.7406 8.5657 0.0000 18.0253 0.0000
# 6 0.0000 0.0000 0.0000 0.9723 0.0000 34.4568
#
#
#
# Elastic Compliance Matrix: (Units=1/GPa)
#
#
# Indices 1 2 3 4 5 6 
#
# 1 0.018941 -0.002656 -0.005058 0.000000 -0.017717 0.000000
# 2 -0.002656 0.011308 -0.003419 0.000000 0.007322 0.000000
# 3 -0.005058 -0.003419 0.017464 0.000000 -0.004012 0.000000
# 4 0.000000 0.000000 0.000000 0.050775 0.000000 -0.001433
# 5 -0.017717 0.007322 -0.004012 0.000000 0.077476 0.000000
# 6 0.000000 0.000000 0.000000 -0.001433 0.000000 0.029062
#
#
# Mechanical properties :
#
#
# Convention : Reuss Voigt Hill
#
# Bulk Modulus (GPa) = 39.29595 44.13865 41.71730
# Shear Modulus (GPa) = 21.20666 26.78252 23.99459
#
# Velocity S-wave (km/s) = 3.25469 3.65763 3.46203
# Velocity P-wave (km/s) = 5.80972 6.31550 6.06788
#
# Compressibility (1/GPa) = 0.02544792
#
# Stress axis : x y z
#
# Youngs Moduli (GPa) = 52.79445 88.43017 57.26175
#
# Poissons Ratio (x) = 0.23484 0.28963
# Poissons Ratio (y) = 0.14020 0.19578
# Poissons Ratio (z) = 0.26704 0.30235
#
# Static dielectric constant tensor:
#      x y z
#    x 3.688380 0.000000 0.198020 
#    y 0.000000 3.769410 0.000000 
#    z 0.198020 0.000000 3.730410 
# 
# 
# High freq. dielectric constant tensor:
#      x y z
#    x 1.789440 0.000000 0.019260 
#    y 0.000000 1.799120 0.000000 
#    z 0.019260 0.000000 1.776470 
# 
# From -- ./inp_files/46111.got.cif
#   From: 2010.06.25/outbox.cif.g09.slc.cpg/sg13_24_cif.got.tgz:46111.got - 2010.06.28 04:50:58.
