data_PCOD8118213
_publ_section_title
;
Structure prediction by ZEFSAII (Michael W. Deem and Ramdas Pophale) SiO2 
 PCOD8118213
Probable space group: P 2/C
;
_chemical_formula_sum "Si O2"
_cell_formula_units_Z 24
_cell_length_a 34.964592
_cell_length_b 5.004588
_cell_length_c 17.312447
_cell_angle_alpha 90.000000
_cell_angle_beta 155.963848
_cell_angle_gamma 90.000000
_cell_volume 1233.910061
_symmetry_space_group_name_H-M "P 2/C"
_symmetry_group_IT_number 13
_symmetry_cell_setting 'monoclinic'
loop_
_space_group_symop_operation_xyz
x,y,z
-x,y,1/2-z
-x,-y,-z
x,-y,1/2+z
loop_
_atom_site_type_symbol
_atom_site_label
_atom_site_fract_x
_atom_site_fract_y
_atom_site_fract_z
Si Si1 0.064480 0.962695 0.941806
Si Si2 0.065766 0.465993 0.048128
Si Si3 0.276022 0.017316 0.329529
Si Si4 0.458912 0.931395 0.591061
Si Si5 0.532455 0.430209 0.644568
Si Si6 0.721730 0.480148 0.564960
O O1 0.000000 0.022341 0.750000
O O2 0.040804 0.677285 0.935279
O O3 0.170632 0.969006 0.105533
O O4 0.048793 0.176311 0.980608
O O5 0.173221 0.499235 0.275656
O O6 0.000000 0.500000 0.000000
O O7 0.345978 0.964151 0.387061
O O8 0.299197 0.817562 0.443123
O O9 0.289408 0.318775 0.383646
O O10 0.500000 0.009175 0.750000
O O11 0.483785 0.628278 0.615847
O O12 0.500965 0.129248 0.604673
O O13 0.500000 0.500000 0.500000
O O14 0.645741 0.453192 0.858660
#
# Coordination Sequence:
#
# PCOD8118213 Si02
#       6
#     4   4   4   4   4   4
#     4  10  21  39  59  85 117 140 182 244 283 316
#     4  10  21  38  61  82 111 152 190 221 277 347
#     4  10  20  35  61  84 105 149 193 224 270 333
#     4  12  21  38  63  81 109 151 198 222 263 352
#     4  12  24  38  55  86 121 145 180 239 287 313
#     4  10  19  37  57  81 113 149 185 227 275 333
#
# _framework density 19.450365000000001
#
# number of rings (size 3 to 8) (size 9 to 14) (size 15 to 20)
#    0.000    1.333    3.333    3.000    0.000    0.000 
#    6.000    0.000    0.000    0.000    0.000    0.000 
#    0.000    0.000    0.000    0.000    0.000    0.000 
#
# Total GULP energy -297713.518695 kJ/mol
# GULP energy per Si atom -12404.729946 kJ/mol
# Density = 1.940609 g / cm^3
# Si number density = 19.450365 Si / 1000 Ang^3
#
#
#
# Elastic Constant Matrix: (Units=GPa)
#
#
# Indices 1 2 3 4 5 6 
#
# 1 81.4302 7.2449 53.7896 0.0000 17.8723 0.0000
# 2 7.2449 74.0882 10.0233 0.0000 8.8842 0.0000
# 3 53.7896 10.0233 124.9958 0.0000 7.4011 0.0000
# 4 0.0000 0.0000 0.0000 22.3641 0.0000 3.3138
# 5 17.8723 8.8842 7.4011 0.0000 32.8545 0.0000
# 6 0.0000 0.0000 0.0000 3.3138 0.0000 26.7362
#
#
#
# Elastic Compliance Matrix: (Units=1/GPa)
#
#
# Indices 1 2 3 4 5 6 
#
# 1 0.019373 0.000225 -0.007832 0.000000 -0.008835 0.000000
# 2 0.000225 0.014055 -0.001005 0.000000 -0.003696 0.000000
# 3 -0.007832 -0.001005 0.011334 0.000000 0.001979 0.000000
# 4 0.000000 0.000000 0.000000 0.045551 0.000000 -0.005646
# 5 -0.008835 -0.003696 0.001979 0.000000 0.035797 0.000000
# 6 0.000000 0.000000 0.000000 -0.005646 0.000000 0.038102
#
#
# Mechanical properties :
#
#
# Convention : Reuss Voigt Hill
#
# Bulk Modulus (GPa) = 36.31398 46.95888 41.63643
# Shear Modulus (GPa) = 26.23093 30.35472 28.29283
#
# Velocity S-wave (km/s) = 3.67633 3.95476 3.81808
# Velocity P-wave (km/s) = 6.06062 6.71184 6.39453
#
# Compressibility (1/GPa) = 0.02753760
#
# Stress axis : x y z
#
# Youngs Moduli (GPa) = 51.61868 71.15087 88.23117
#
# Poissons Ratio (x) = -0.01598 0.69099
# Poissons Ratio (y) = -0.01159 0.08865
# Poissons Ratio (z) = 0.40426 0.07149
#
# Static dielectric constant tensor:
#      x y z
#    x 3.353700 0.000000 0.344690 
#    y 0.000000 3.772780 0.000000 
#    z 0.344690 0.000000 3.682520 
# 
# 
# High freq. dielectric constant tensor:
#      x y z
#    x 1.730300 0.000000 0.023150 
#    y 0.000000 1.780180 0.000000 
#    z 0.023150 0.000000 1.758330 
# 
# From -- ./inp_files/59702.got.cif
#   From: 2010.06.25/outbox.cif.g09.slc.cpg/sg13_30_cif.got.tgz:59702.got - 2010.06.28 04:50:58.
