data_PCOD8118499
_publ_section_title
;
Structure prediction by ZEFSAII (Michael W. Deem and Ramdas Pophale) SiO2 
 PCOD8118499
Probable space group: P 2/C
;
_chemical_formula_sum "Si O2"
_cell_formula_units_Z 32
_cell_length_a 11.293347
_cell_length_b 11.153507
_cell_length_c 20.293202
_cell_angle_alpha 90.000000
_cell_angle_beta 48.131713
_cell_angle_gamma 90.000000
_cell_volume 1903.509340
_symmetry_space_group_name_H-M "P 2/C"
_symmetry_group_IT_number 13
_symmetry_cell_setting 'monoclinic'
loop_
_space_group_symop_operation_xyz
x,y,z
-x,y,1/2-z
-x,-y,-z
x,-y,1/2+z
loop_
_atom_site_type_symbol
_atom_site_label
_atom_site_fract_x
_atom_site_fract_y
_atom_site_fract_z
Si Si1 0.965146 0.653113 0.953245
Si Si2 0.367189 0.055016 0.502733
Si Si3 0.731198 0.778082 0.698603
Si Si4 0.418596 0.743738 0.881733
Si Si5 0.866744 0.018479 0.640947
Si Si6 0.057482 0.810711 0.156461
Si Si7 0.132710 0.605203 0.027293
Si Si8 0.186106 0.106365 0.975682
O O1 0.114408 0.694118 0.853200
O O2 0.892054 0.534347 0.946957
O O3 0.019719 0.636583 0.008119
O O4 0.826426 0.752126 0.004844
O O5 0.437882 0.163122 0.433706
O O6 0.215163 0.105864 0.599441
O O7 0.500000 0.000000 0.500000
O O8 0.322439 0.946769 0.470937
O O9 0.594748 0.710401 0.790993
O O10 0.682557 0.800742 0.640490
O O11 0.762102 0.913057 0.714052
O O12 0.320027 0.626464 0.941482
O O13 0.772368 0.084072 0.616629
O O14 0.912682 0.115880 0.678115
O O15 0.020024 0.955716 0.553304
O O16 0.085168 0.688346 0.106199
O O17 0.000000 0.774124 0.250000
#
# Coordination Sequence:
#
# PCOD8118499 Si02
#       8
#     4   4   4   4   4   4   4   4
#     4   9  16  29  55  78  94 125 174 220 247 283
#     4  10  20  32  48  71 105 136 162 199 257 316
#     4   9  16  27  50  78  99 124 162 211 260 297
#     4   9  17  29  47  73 102 132 160 201 256 308
#     4   9  15  27  49  75  99 122 162 211 260 298
#     4  10  20  32  50  72 102 139 168 205 250 306
#     4   9  17  31  51  75  99 132 173 208 248 295
#     4   9  15  29  50  74  98 123 162 215 254 292
#
# _framework density 16.811053999999999
#
# number of rings (size 3 to 8) (size 9 to 14) (size 15 to 20)
#    0.000    2.750    2.500    0.000    1.750    0.000 
#    0.000    0.000    5.500    1.500    3.250    0.000 
#    0.000    0.000    0.000    0.000    0.000    0.000 
#
# Total GULP energy -396621.698374 kJ/mol
# GULP energy per Si atom -12394.428074 kJ/mol
# Density = 1.677279 g / cm^3
# Si number density = 16.811054 Si / 1000 Ang^3
#
#
#
# Elastic Constant Matrix: (Units=GPa)
#
#
# Indices 1 2 3 4 5 6 
#
# 1 83.0991 52.2069 34.1339 0.0000 -0.8784 0.0000
# 2 52.2069 126.6122 47.0546 0.0000 -1.3765 0.0000
# 3 34.1339 47.0546 89.9812 0.0000 0.7698 0.0000
# 4 0.0000 0.0000 0.0000 13.7148 0.0000 -1.1656
# 5 -0.8784 -1.3765 0.7698 0.0000 19.0143 0.0000
# 6 0.0000 0.0000 0.0000 -1.1656 0.0000 24.9365
#
#
#
# Elastic Compliance Matrix: (Units=1/GPa)
#
#
# Indices 1 2 3 4 5 6 
#
# 1 0.017076 -0.005743 -0.003479 0.000000 0.000514 0.000000
# 2 -0.005743 0.011751 -0.003973 0.000000 0.000746 0.000000
# 3 -0.003479 -0.003973 0.014520 0.000000 -0.001036 0.000000
# 4 0.000000 0.000000 0.000000 0.073205 0.000000 0.003422
# 5 0.000514 0.000746 -0.001036 0.000000 0.052712 0.000000
# 6 0.000000 0.000000 0.000000 0.003422 0.000000 0.040262
#
#
# Mechanical properties :
#
#
# Convention : Reuss Voigt Hill
#
# Bulk Modulus (GPa) = 58.97150 62.94258 60.95704
# Shear Modulus (GPa) = 20.69829 22.61960 21.65895
#
# Velocity S-wave (km/s) = 3.51270 3.67211 3.59329
# Velocity P-wave (km/s) = 7.18382 7.44994 7.31809
#
# Compressibility (1/GPa) = 0.01695734
#
# Stress axis : x y z
#
# Youngs Moduli (GPa) = 58.56141 85.10239 68.87229
#
# Poissons Ratio (x) = 0.48870 0.23962
# Poissons Ratio (y) = 0.33629 0.27362
# Poissons Ratio (z) = 0.20374 0.33809
#
# Static dielectric constant tensor:
#      x y z
#    x 2.991390 0.000000 -0.060490 
#    y 0.000000 3.182910 0.000000 
#    z -0.060490 0.000000 3.007640 
# 
# 
# High freq. dielectric constant tensor:
#      x y z
#    x 1.625590 0.000000 -0.002490 
#    y 0.000000 1.637650 0.000000 
#    z -0.002490 0.000000 1.633610 
# 
# From -- ./inp_files/78406.got.cif
#   From: 2010.06.25/outbox.cif.g09.slc.cpg/sg13_40_cif.got.tgz:78406.got - 2010.06.28 04:50:58.
