data_PCOD8118894
_publ_section_title
;
Structure prediction by ZEFSAII (Michael W. Deem and Ramdas Pophale) SiO2 
 PCOD8118894
Probable space group: P 2/C
;
_chemical_formula_sum "Si O2"
_cell_formula_units_Z 24
_cell_length_a 9.955790
_cell_length_b 8.779852
_cell_length_c 22.014589
_cell_angle_alpha 90.000000
_cell_angle_beta 35.695353
_cell_angle_gamma 90.000000
_cell_volume 1122.783479
_symmetry_space_group_name_H-M "P 2/C"
_symmetry_group_IT_number 13
_symmetry_cell_setting 'monoclinic'
loop_
_space_group_symop_operation_xyz
x,y,z
-x,y,1/2-z
-x,-y,-z
x,-y,1/2+z
loop_
_atom_site_type_symbol
_atom_site_label
_atom_site_fract_x
_atom_site_fract_y
_atom_site_fract_z
Si Si1 0.411476 0.197819 0.462085
Si Si2 0.764921 0.232042 0.434525
Si Si3 0.988750 0.946604 0.182250
Si Si4 0.474521 0.905451 0.366730
Si Si5 0.162450 0.522533 0.024309
Si Si6 0.270093 0.661960 0.365138
O O1 0.649106 0.199516 0.411840
O O2 0.383296 0.369427 0.449204
O O3 0.195999 0.159228 0.583990
O O4 0.424961 0.082798 0.399626
O O5 0.574149 0.192859 0.555222
O O6 0.853643 0.404905 0.412671
O O7 0.980211 0.116017 0.358116
O O8 0.742179 0.882846 0.250068
O O9 0.000000 0.952604 0.250000
O O10 0.318194 0.838503 0.368606
O O11 0.939900 0.635618 0.104477
O O12 0.197078 0.429605 0.950935
O O13 0.500000 0.594455 0.250000
#
# Coordination Sequence:
#
# PCOD8118894 Si02
#       6
#     4   4   4   4   4   4
#     4  11  20  35  59  90 118 151 192 244 304 359
#     4  10  20  36  57  87 123 150 184 243 308 361
#     4  11  18  34  58  86 119 152 190 245 296 347
#     4  10  20  36  60  83 113 153 195 247 296 344
#     4  10  23  39  59  83 119 161 193 239 299 358
#     4  10  22  43  58  77 114 158 205 245 285 347
#
# _framework density 21.375447999999999
#
# number of rings (size 3 to 8) (size 9 to 14) (size 15 to 20)
#    0.000    1.667    3.333    2.500    0.000    2.000 
#    0.000    5.000    0.000    0.000    0.000    0.000 
#    0.000    0.000    0.000    0.000    0.000    0.000 
#
# Total GULP energy -297452.224613 kJ/mol
# GULP energy per Si atom -12393.842692 kJ/mol
# Density = 2.132680 g / cm^3
# Si number density = 21.375448 Si / 1000 Ang^3
#
#
#
# Elastic Constant Matrix: (Units=GPa)
#
#
# Indices 1 2 3 4 5 6 
#
# 1 72.3184 52.4219 18.5816 0.0000 -19.3718 0.0000
# 2 52.4219 115.7054 2.7587 0.0000 -9.2488 0.0000
# 3 18.5816 2.7587 74.1717 0.0000 -15.7999 0.0000
# 4 0.0000 0.0000 0.0000 19.4041 0.0000 -10.4921
# 5 -19.3718 -9.2488 -15.7999 0.0000 20.4978 0.0000
# 6 0.0000 0.0000 0.0000 -10.4921 0.0000 22.0805
#
#
#
# Elastic Compliance Matrix: (Units=1/GPa)
#
#
# Indices 1 2 3 4 5 6 
#
# 1 0.027444 -0.010842 -0.002380 0.000000 0.019210 0.000000
# 2 -0.010842 0.013274 0.001574 0.000000 -0.003044 0.000000
# 3 -0.002380 0.001574 0.016382 0.000000 0.011088 0.000000
# 4 0.000000 0.000000 0.000000 0.069356 0.000000 0.032956
# 5 0.019210 -0.003044 0.011088 0.000000 0.074114 0.000000
# 6 0.000000 0.000000 0.000000 0.032956 0.000000 0.060949
#
#
# Mechanical properties :
#
#
# Convention : Reuss Voigt Hill
#
# Bulk Modulus (GPa) = 29.58186 45.52445 37.55316
# Shear Modulus (GPa) = 16.88727 24.95868 20.92298
#
# Velocity S-wave (km/s) = 2.81380 3.42077 3.13202
# Velocity P-wave (km/s) = 4.94225 6.07832 5.53949
#
# Compressibility (1/GPa) = 0.03380450
#
# Stress axis : x y z
#
# Youngs Moduli (GPa) = 36.43811 75.33679 61.04294
#
# Poissons Ratio (x) = 0.81677 0.14528
# Poissons Ratio (y) = 0.39504 -0.09608
# Poissons Ratio (z) = 0.08672 -0.11858
#
# Static dielectric constant tensor:
#      x y z
#    x 4.130570 0.000000 -0.162930 
#    y 0.000000 4.010110 0.000000 
#    z -0.162930 0.000000 3.860070 
# 
# 
# High freq. dielectric constant tensor:
#      x y z
#    x 1.828750 0.000000 -0.002770 
#    y 0.000000 1.834470 0.000000 
#    z -0.002770 0.000000 1.835880 
# 
# From -- ./inp_files/86283.got.cif
#   From: 2010.06.25/outbox.cif.g09.slc.cpg/sg13_44_cif.got.tgz:86283.got - 2010.06.28 04:50:58.
