data_PCOD8118461
_publ_section_title
;
Structure prediction by ZEFSAII (Michael W. Deem and Ramdas Pophale) SiO2 
 PCOD8118461
Probable space group: P 2/C
;
_chemical_formula_sum "Si O2"
_cell_formula_units_Z 24
_cell_length_a 14.535170
_cell_length_b 8.503498
_cell_length_c 13.935874
_cell_angle_alpha 90.000000
_cell_angle_beta 39.958957
_cell_angle_gamma 90.000000
_cell_volume 1106.237591
_symmetry_space_group_name_H-M "P 2/C"
_symmetry_group_IT_number 13
_symmetry_cell_setting 'monoclinic'
loop_
_space_group_symop_operation_xyz
x,y,z
-x,y,1/2-z
-x,-y,-z
x,-y,1/2+z
loop_
_atom_site_type_symbol
_atom_site_label
_atom_site_fract_x
_atom_site_fract_y
_atom_site_fract_z
Si Si1 0.692015 0.868243 0.268346
Si Si2 0.278399 0.596342 0.539624
Si Si3 0.500000 0.805784 0.250000
Si Si4 0.249934 0.781729 0.759790
Si Si5 0.000000 0.450792 0.750000
Si Si6 0.534891 0.649389 0.536891
Si Si7 0.969683 0.668541 0.070184
O O1 0.595656 0.902857 0.249744
O O2 0.590092 0.791230 0.428028
O O3 0.828974 0.754460 0.138815
O O4 0.739811 0.034321 0.273453
O O5 0.383755 0.701467 0.395729
O O6 0.240601 0.677488 0.671237
O O7 0.126494 0.565166 0.610154
O O8 0.346186 0.419211 0.487137
O O9 0.390810 0.715446 0.703625
O O10 0.110497 0.770734 0.937527
O O11 0.946260 0.345160 0.703706
O O12 0.500000 0.500000 0.500000
O O13 0.000000 0.500000 0.000000
#
# Coordination Sequence:
#
# PCOD8118461 Si02
#       7
#     4   4   2   4   2   4   4
#     4  12  24  46  67  99 145 177 227 286 350 411
#     4  11  24  42  71  99 135 182 232 282 336 407
#     4  12  26  40  70 106 134 180 234 282 346 410
#     4  11  24  44  70  95 138 186 219 286 359 396
#     4  12  24  44  72 110 130 184 244 276 336 414
#     4  10  19  42  68  93 126 181 223 274 335 397
#     4  12  24  46  73  99 138 185 232 285 337 413
#
# _framework density 21.695157999999999
#
# number of rings (size 3 to 8) (size 9 to 14) (size 15 to 20)
#    0.000    0.667    6.667    3.000    2.333    0.000 
#    6.000    0.000    0.000    0.000    0.000    0.000 
#    0.000    0.000    0.000    0.000    0.000    0.000 
#
# Total GULP energy -297399.315693 kJ/mol
# GULP energy per Si atom -12391.638154 kJ/mol
# Density = 2.164578 g / cm^3
# Si number density = 21.695158 Si / 1000 Ang^3
#
#
#
# Elastic Constant Matrix: (Units=GPa)
#
#
# Indices 1 2 3 4 5 6 
#
# 1 80.3366 15.3868 19.2782 0.0000 -22.0309 0.0000
# 2 15.3868 88.2774 1.4363 0.0000 -16.2938 0.0000
# 3 19.2782 1.4363 103.6969 0.0000 -30.3381 0.0000
# 4 0.0000 0.0000 0.0000 12.9379 0.0000 -8.2199
# 5 -22.0309 -16.2938 -30.3381 0.0000 43.7718 0.0000
# 6 0.0000 0.0000 0.0000 -8.2199 0.0000 15.7001
#
#
#
# Elastic Compliance Matrix: (Units=1/GPa)
#
#
# Indices 1 2 3 4 5 6 
#
# 1 0.014635 -0.001384 -0.000875 0.000000 0.006245 0.000000
# 2 -0.001384 0.012471 0.001554 0.000000 0.005023 0.000000
# 3 -0.000875 0.001554 0.012324 0.000000 0.008680 0.000000
# 4 0.000000 0.000000 0.000000 0.115817 0.000000 0.060637
# 5 0.006245 0.005023 0.008680 0.000000 0.033874 0.000000
# 6 0.000000 0.000000 0.000000 0.060637 0.000000 0.095441
#
#
# Mechanical properties :
#
#
# Convention : Reuss Voigt Hill
#
# Bulk Modulus (GPa) = 26.30149 38.27927 32.29038
# Shear Modulus (GPa) = 16.74223 30.22928 23.48575
#
# Velocity S-wave (km/s) = 2.78097 3.73683 3.29376
# Velocity P-wave (km/s) = 4.73933 6.02503 5.42044
#
# Compressibility (1/GPa) = 0.03802067
#
# Stress axis : x y z
#
# Youngs Moduli (GPa) = 68.32905 80.18633 81.14225
#
# Poissons Ratio (x) = 0.11098 0.07097
# Poissons Ratio (y) = 0.09457 -0.12610
# Poissons Ratio (z) = 0.05977 -0.12461
#
# Static dielectric constant tensor:
#      x y z
#    x 4.455050 0.000000 -0.708590 
#    y 0.000000 3.205250 0.000000 
#    z -0.708590 0.000000 4.721200 
# 
# 
# High freq. dielectric constant tensor:
#      x y z
#    x 1.841830 0.000000 -0.029450 
#    y 0.000000 1.842120 0.000000 
#    z -0.029450 0.000000 1.869050 
# 
# From -- ./inp_files/46254.got.cif
#   From: 2010.06.25/outbox.cif.g09.slc.cpg/sg13_24_cif.got.tgz:46254.got - 2010.06.28 04:50:58.
