data_PCOD8118881
_publ_section_title
;
Structure prediction by ZEFSAII (Michael W. Deem and Ramdas Pophale) SiO2 
 PCOD8118881
Probable space group: P 2/C
;
_chemical_formula_sum "Si O2"
_cell_formula_units_Z 32
_cell_length_a 23.411591
_cell_length_b 11.351871
_cell_length_c 17.340781
_cell_angle_alpha 90.000000
_cell_angle_beta 20.916748
_cell_angle_gamma 90.000000
_cell_volume 1645.313642
_symmetry_space_group_name_H-M "P 2/C"
_symmetry_group_IT_number 13
_symmetry_cell_setting 'monoclinic'
loop_
_space_group_symop_operation_xyz
x,y,z
-x,y,1/2-z
-x,-y,-z
x,-y,1/2+z
loop_
_atom_site_type_symbol
_atom_site_label
_atom_site_fract_x
_atom_site_fract_y
_atom_site_fract_z
Si Si1 0.663898 0.080105 0.584410
Si Si2 0.983215 0.783653 0.682709
Si Si3 0.290587 0.929432 0.294526
Si Si4 0.972441 0.543225 0.948928
Si Si5 0.846034 0.391513 0.894660
Si Si6 0.408920 0.824995 0.644638
Si Si7 0.656968 0.182709 0.093866
Si Si8 0.660987 0.432526 0.276002
O O1 0.500000 0.124054 0.750000
O O2 0.807781 0.168397 0.382507
O O3 0.641737 0.077160 0.703990
O O4 0.705607 0.947444 0.502125
O O5 0.000000 0.735390 0.750000
O O6 0.106727 0.892141 0.518685
O O7 0.025322 0.683729 0.567086
O O8 0.310782 0.062208 0.235164
O O9 0.401201 0.840097 0.107122
O O10 0.111424 0.495110 0.717783
O O11 0.799163 0.495974 0.147648
O O12 0.000000 0.500000 0.000000
O O13 0.000000 0.353405 0.750000
O O14 0.797831 0.277803 0.903938
O O15 0.702318 0.435819 0.132051
O O16 0.378638 0.819444 0.772077
O O17 0.350833 0.702892 0.679610
O O18 0.500000 0.230574 0.250000
O O19 0.500000 0.500000 0.500000
#
# Coordination Sequence:
#
# PCOD8118881 Si02
#       8
#     4   4   4   4   4   4   4   4
#     4   9  19  34  54  81 110 138 172 221 273 319
#     4  10  20  36  57  78 104 144 185 220 270 330
#     4   9  18  33  56  80 108 141 178 220 264 326
#     4  11  24  39  54  79 111 141 182 233 276 320
#     4   9  20  37  56  77 108 145 180 221 269 324
#     4   9  18  32  53  82 110 140 179 220 267 321
#     4   9  18  33  55  81 107 136 174 217 266 321
#     4  10  20  36  59  81 108 148 188 222 266 327
#
# _framework density 19.449179000000001
#
# number of rings (size 3 to 8) (size 9 to 14) (size 15 to 20)
#    0.000    2.500    0.000    1.875    0.000    9.500 
#    0.000    0.625    0.000   13.500    0.000    0.000 
#    0.000    0.000    0.000    0.000    0.000    0.000 
#
# Total GULP energy -396649.862817 kJ/mol
# GULP energy per Si atom -12395.308213 kJ/mol
# Density = 1.940491 g / cm^3
# Si number density = 19.449179 Si / 1000 Ang^3
#
#
#
# Elastic Constant Matrix: (Units=GPa)
#
#
# Indices 1 2 3 4 5 6 
#
# 1 53.7590 47.4065 29.9290 0.0000 -22.0995 0.0000
# 2 47.4065 128.5877 66.2964 0.0000 -14.3774 0.0000
# 3 29.9290 66.2964 113.5325 0.0000 -12.5823 0.0000
# 4 0.0000 0.0000 0.0000 40.1122 0.0000 -2.8510
# 5 -22.0995 -14.3774 -12.5823 0.0000 24.6905 0.0000
# 6 0.0000 0.0000 0.0000 -2.8510 0.0000 22.0917
#
#
#
# Elastic Compliance Matrix: (Units=1/GPa)
#
#
# Indices 1 2 3 4 5 6 
#
# 1 0.041636 -0.011511 -0.000919 0.000000 0.030096 0.000000
# 2 -0.011511 0.014578 -0.006019 0.000000 -0.004882 0.000000
# 3 -0.000919 -0.006019 0.012809 0.000000 0.002200 0.000000
# 4 0.000000 0.000000 0.000000 0.025161 0.000000 0.003247
# 5 0.030096 -0.004882 0.002200 0.000000 0.065717 0.000000
# 6 0.000000 0.000000 0.000000 0.003247 0.000000 0.045685
#
#
# Mechanical properties :
#
#
# Convention : Reuss Voigt Hill
#
# Bulk Modulus (GPa) = 31.12876 64.79365 47.96121
# Shear Modulus (GPa) = 19.74779 27.52870 23.63825
#
# Velocity S-wave (km/s) = 3.18992 3.76628 3.49002
# Velocity P-wave (km/s) = 5.44126 7.23186 6.39950
#
# Compressibility (1/GPa) = 0.03212463
#
# Stress axis : x y z
#
# Youngs Moduli (GPa) = 24.01777 68.59540 78.07031
#
# Poissons Ratio (x) = 0.78962 0.07171
# Poissons Ratio (y) = 0.27648 0.46993
# Poissons Ratio (z) = 0.02206 0.41290
#
# Static dielectric constant tensor:
#      x y z
#    x 3.092480 0.000000 0.199600 
#    y 0.000000 4.083040 0.000000 
#    z 0.199600 0.000000 3.485290 
# 
# 
# High freq. dielectric constant tensor:
#      x y z
#    x 1.731140 0.000000 0.000230 
#    y 0.000000 1.765160 0.000000 
#    z 0.000230 0.000000 1.758850 
# 
# From -- ./inp_files/71474.got.cif
#   From: 2010.06.25/outbox.cif.g09.slc.cpg/sg13_36_cif.got.tgz:71474.got - 2010.06.28 04:50:58.
