data_PCOD8118110
_publ_section_title
;
Structure prediction by ZEFSAII (Michael W. Deem and Ramdas Pophale) SiO2 
 PCOD8118110
Probable space group: P 2/C
;
_chemical_formula_sum "Si O2"
_cell_formula_units_Z 28
_cell_length_a 11.655074
_cell_length_b 8.375739
_cell_length_c 14.676637
_cell_angle_alpha 90.000000
_cell_angle_beta 108.669564
_cell_angle_gamma 90.000000
_cell_volume 1357.341555
_symmetry_space_group_name_H-M "P 2/C"
_symmetry_group_IT_number 13
_symmetry_cell_setting 'monoclinic'
loop_
_space_group_symop_operation_xyz
x,y,z
-x,y,1/2-z
-x,-y,-z
x,-y,1/2+z
loop_
_atom_site_type_symbol
_atom_site_label
_atom_site_fract_x
_atom_site_fract_y
_atom_site_fract_z
Si Si1 0.311168 0.520671 0.539024
Si Si2 0.123183 0.595131 0.729000
Si Si3 0.232865 0.025068 0.551031
Si Si4 0.092618 0.714359 0.516482
Si Si5 0.536425 0.188555 0.363496
Si Si6 0.831679 0.314280 0.867214
Si Si7 0.692658 0.752215 0.591123
O O1 0.189435 0.617692 0.479097
O O2 0.417375 0.636733 0.597659
O O3 0.279334 0.405456 0.614260
O O4 0.354936 0.411670 0.466601
O O5 0.113953 0.666672 0.626038
O O6 0.153379 0.402645 0.727253
O O7 0.223815 0.699583 0.804031
O O8 0.000000 0.618195 0.750000
O O9 0.205354 0.127387 0.637217
O O10 0.233221 0.140118 0.462426
O O11 0.122447 0.901635 0.510892
O O12 0.362846 0.944325 0.593451
O O13 0.958161 0.667553 0.453814
O O14 0.500000 0.187291 0.250000
O O15 0.420423 0.149195 0.397040
#
# Coordination Sequence:
#
# PCOD8118110 Si02
#       7
#     4   4   4   4   4   4   4
#     4   9  19  35  58  84 109 148 193 233 281 335
#     4  11  21  36  60  90 116 149 192 237 285 343
#     4  10  22  38  58  85 115 156 192 232 291 348
#     4  10  19  37  61  86 120 156 188 232 287 342
#     4  11  22  40  60  82 113 152 195 242 291 343
#     4  10  19  36  57  83 116 150 188 234 281 334
#     4  11  21  38  60  86 118 153 193 240 287 341
#
# _framework density 20.628558999999999
#
# number of rings (size 3 to 8) (size 9 to 14) (size 15 to 20)
#    0.000    1.714    0.000    8.143    0.000    0.000 
#    0.000   16.429    0.000    0.000    0.000    0.000 
#    0.000    0.000    0.000    0.000    0.000    0.000 
#
# Total GULP energy -347005.717667 kJ/mol
# GULP energy per Si atom -12393.061345 kJ/mol
# Density = 2.058161 g / cm^3
# Si number density = 20.628559 Si / 1000 Ang^3
#
#
#
# Elastic Constant Matrix: (Units=GPa)
#
#
# Indices 1 2 3 4 5 6 
#
# 1 64.0819 5.8330 24.4382 0.0000 -5.3746 0.0000
# 2 5.8330 92.9699 27.4190 0.0000 -6.8287 0.0000
# 3 24.4382 27.4190 86.9021 0.0000 1.8062 0.0000
# 4 0.0000 0.0000 0.0000 -54.0742 0.0000 -62.4845
# 5 -5.3746 -6.8287 1.8062 0.0000 22.2025 0.0000
# 6 0.0000 0.0000 0.0000 -62.4845 0.0000 -9.1840
#
#
#
# Elastic Compliance Matrix: (Units=1/GPa)
#
#
# Indices 1 2 3 4 5 6 
#
# 1 0.018028 0.000846 -0.005442 0.000000 0.005067 0.000000
# 2 0.000846 0.012257 -0.004195 0.000000 0.004316 0.000000
# 3 -0.005442 -0.004195 0.014440 0.000000 -0.003782 0.000000
# 4 0.000000 0.000000 0.000000 0.002695 0.000000 -0.018336
# 5 0.005067 0.004316 -0.003782 0.000000 0.047902 0.000000
# 6 0.000000 0.000000 0.000000 -0.018336 0.000000 0.015868
#
#
# Mechanical properties :
#
#
# Convention : Reuss Voigt Hill
#
# Bulk Modulus (GPa) = 36.84134 39.92602 38.38368
# Shear Modulus (GPa) = 36.27906 4.20644 20.24275
#
# Velocity S-wave (km/s) = 4.19821 1.42953 3.13596
# Velocity P-wave (km/s) = 6.43414 4.70335 5.63559
#
# Compressibility (1/GPa) = 0.02714342
#
# Stress axis : x y z
#
# Youngs Moduli (GPa) = 55.46803 81.58405 69.25299
#
# Poissons Ratio (x) = -0.06903 0.37688
# Poissons Ratio (y) = -0.04693 0.29052
# Poissons Ratio (z) = 0.30186 0.34225
#
# Static dielectric constant tensor:
#      x y z
#    x 3.877710 0.000000 -0.184010 
#    y 0.000000 4.107050 0.000000 
#    z -0.184010 0.000000 3.581310 
# 
# 
# High freq. dielectric constant tensor:
#      x y z
#    x 1.821190 0.000000 -0.005080 
#    y 0.000000 1.815830 0.000000 
#    z -0.005080 0.000000 1.778360 
# 
# From -- ./inp_files/50090.got.cif
#   From: 2010.06.25/outbox.cif.g09.slc.cpg/sg13_26_cif.got.tgz:50090.got - 2010.06.28 04:50:58.
