data_PCOD8118084
_publ_section_title
;
Structure prediction by ZEFSAII (Michael W. Deem and Ramdas Pophale) SiO2 
 PCOD8118084
Probable space group: P 2/C
;
_chemical_formula_sum "Si O2"
_cell_formula_units_Z 32
_cell_length_a 20.928296
_cell_length_b 8.698678
_cell_length_c 15.349808
_cell_angle_alpha 90.000000
_cell_angle_beta 35.093373
_cell_angle_gamma 90.000000
_cell_volume 1606.535777
_symmetry_space_group_name_H-M "P 2/C"
_symmetry_group_IT_number 13
_symmetry_cell_setting 'monoclinic'
loop_
_space_group_symop_operation_xyz
x,y,z
-x,y,1/2-z
-x,-y,-z
x,-y,1/2+z
loop_
_atom_site_type_symbol
_atom_site_label
_atom_site_fract_x
_atom_site_fract_y
_atom_site_fract_z
Si Si1 0.317818 0.191029 0.961622
Si Si2 0.874310 0.994813 0.887942
Si Si3 0.330176 0.662428 0.619904
Si Si4 0.308713 0.689283 0.157264
Si Si5 0.110167 0.849503 0.309098
Si Si6 0.141685 0.126262 0.404840
Si Si7 0.443017 0.086818 0.400437
Si Si8 0.557796 0.176974 0.846664
O O1 0.413128 0.230157 0.784668
O O2 0.351120 0.043091 0.982879
O O3 0.201760 0.154180 0.043972
O O4 0.302999 0.330352 0.046441
O O5 0.000000 0.932571 0.750000
O O6 0.862925 0.118909 0.822598
O O7 0.836869 0.067124 0.021201
O O8 0.332153 0.487670 0.649412
O O9 0.235537 0.748307 0.780852
O O10 0.452776 0.729553 0.501259
O O11 0.182419 0.707801 0.265055
O O12 0.334017 0.790697 0.215459
O O13 0.391521 0.757430 0.993194
O O14 0.981871 0.801277 0.463152
O O15 0.146646 0.995072 0.326302
O O16 0.500000 0.144465 0.250000
O O17 0.529675 0.006823 0.372403
#
# Coordination Sequence:
#
# PCOD8118084 Si02
#       8
#     4   4   4   4   4   4   4   4
#     4  10  19  39  61  85 116 151 196 249 293 341
#     4  10  19  35  65  91 113 147 201 253 293 340
#     4  11  23  39  56  85 126 161 191 238 306 362
#     4  12  22  37  58  87 125 156 193 242 296 369
#     4  10  20  39  62  92 115 151 207 244 292 349
#     4  10  21  38  66  87 118 155 195 255 293 344
#     4   9  19  34  59  85 113 152 201 248 287 338
#     4  10  22  39  58  84 118 158 204 244 285 348
#
# _framework density 19.918634999999998
#
# number of rings (size 3 to 8) (size 9 to 14) (size 15 to 20)
#    0.000    1.750    2.500    3.375    0.000    3.500 
#    2.250    0.000    0.000    0.000    0.000    0.000 
#    0.000    0.000    0.000    0.000    0.000    0.000 
#
# Total GULP energy -396683.703089 kJ/mol
# GULP energy per Si atom -12396.365722 kJ/mol
# Density = 1.987330 g / cm^3
# Si number density = 19.918635 Si / 1000 Ang^3
#
#
#
# Elastic Constant Matrix: (Units=GPa)
#
#
# Indices 1 2 3 4 5 6 
#
# 1 107.2649 11.5558 32.6157 0.0000 2.1653 0.0000
# 2 11.5558 54.2081 26.3312 0.0000 -2.0710 0.0000
# 3 32.6157 26.3312 98.0137 0.0000 6.7105 0.0000
# 4 0.0000 0.0000 0.0000 18.0110 0.0000 -2.2787
# 5 2.1653 -2.0710 6.7105 0.0000 29.1534 0.0000
# 6 0.0000 0.0000 0.0000 -2.2787 0.0000 22.3791
#
#
#
# Elastic Compliance Matrix: (Units=1/GPa)
#
#
# Indices 1 2 3 4 5 6 
#
# 1 0.010390 -0.000621 -0.003287 0.000000 -0.000059 0.000000
# 2 -0.000621 0.021491 -0.005766 0.000000 0.002900 0.000000
# 3 -0.003287 -0.005766 0.013062 0.000000 -0.003172 0.000000
# 4 0.000000 0.000000 0.000000 0.056246 0.000000 0.005727
# 5 -0.000059 0.002900 -0.003172 0.000000 0.035242 0.000000
# 6 0.000000 0.000000 0.000000 0.005727 0.000000 0.045268
#
#
# Mechanical properties :
#
#
# Convention : Reuss Voigt Hill
#
# Bulk Modulus (GPa) = 39.06576 44.49910 41.78243
# Shear Modulus (GPa) = 23.85749 26.50765 25.18257
#
# Velocity S-wave (km/s) = 3.46460 3.65197 3.55952
# Velocity P-wave (km/s) = 5.97159 6.33809 6.15757
#
# Compressibility (1/GPa) = 0.02559787
#
# Stress axis : x y z
#
# Youngs Moduli (GPa) = 96.24502 46.53085 76.55543
#
# Poissons Ratio (x) = 0.02888 0.25161
# Poissons Ratio (y) = 0.05974 0.44138
# Poissons Ratio (z) = 0.31633 0.26828
#
# Static dielectric constant tensor:
#      x y z
#    x 3.989690 0.000000 -0.042820 
#    y 0.000000 3.095690 0.000000 
#    z -0.042820 0.000000 3.780550 
# 
# 
# High freq. dielectric constant tensor:
#      x y z
#    x 1.795160 0.000000 0.000420 
#    y 0.000000 1.720880 0.000000 
#    z 0.000420 0.000000 1.794290 
# 
# From -- ./inp_files/57268.got.cif
#   From: 2010.06.25/outbox.cif.g09.slc.cpg/sg13_29_cif.got.tgz:57268.got - 2010.06.28 04:50:58.
