data_PCOD8118361
_publ_section_title
;
Structure prediction by ZEFSAII (Michael W. Deem and Ramdas Pophale) SiO2 
 PCOD8118361
Probable space group: P 2/C
;
_chemical_formula_sum "Si O2"
_cell_formula_units_Z 26
_cell_length_a 5.051457
_cell_length_b 10.084063
_cell_length_c 25.637604
_cell_angle_alpha 90.000000
_cell_angle_beta 118.670943
_cell_angle_gamma 90.000000
_cell_volume 1145.835106
_symmetry_space_group_name_H-M "P 2/C"
_symmetry_group_IT_number 13
_symmetry_cell_setting 'monoclinic'
loop_
_space_group_symop_operation_xyz
x,y,z
-x,y,1/2-z
-x,-y,-z
x,-y,1/2+z
loop_
_atom_site_type_symbol
_atom_site_label
_atom_site_fract_x
_atom_site_fract_y
_atom_site_fract_z
Si Si1 0.209674 0.325504 0.196533
Si Si2 0.000000 0.097583 0.250000
Si Si3 0.934924 0.179091 0.411897
Si Si4 0.911177 0.648119 0.476305
Si Si5 0.855839 0.395177 0.789001
Si Si6 0.362847 0.020003 0.379091
Si Si7 0.260064 0.268316 0.909194
O O1 0.500000 0.391437 0.250000
O O2 0.003148 0.456537 0.184200
O O3 0.161019 0.192019 0.224129
O O4 0.250968 0.288373 0.139611
O O5 0.773522 0.008944 0.193103
O O6 0.081434 0.251765 0.474379
O O7 0.285463 0.940343 0.592451
O O8 0.200962 0.131928 0.398563
O O9 0.562701 0.647887 0.424226
O O10 0.000000 0.500000 0.500000
O O11 0.150009 0.703988 0.457416
O O12 0.500000 0.374771 0.750000
O O13 0.000000 0.342217 0.750000
O O14 0.977677 0.301941 0.846242
O O15 0.342218 0.885082 0.408851
#
# Coordination Sequence:
#
# PCOD8118361 Si02
#       7
#     4   2   4   4   4   4   4
#     4  10  19  38  64  98 132 168 225 283 339 397
#     4  10  20  38  62  98 136 174 222 266 350 408
#     4  11  24  42  70 100 133 182 229 282 342 403
#     4  12  27  48  73 100 137 184 235 295 342 409
#     4  11  24  41  68 102 138 181 224 290 350 410
#     4  11  25  42  68 101 139 185 222 285 339 426
#     4  12  27  47  68 103 141 186 233 280 352 413
#
# _framework density 22.690871999999999
#
# number of rings (size 3 to 8) (size 9 to 14) (size 15 to 20)
#    0.000    0.923    2.308    4.154    1.077    7.385 
#    0.000    0.000    0.000    0.000    0.000    0.000 
#    0.000    0.000    0.000    0.000    0.000    0.000 
#
# Total GULP energy -322236.420058 kJ/mol
# GULP energy per Si atom -12393.708464 kJ/mol
# Density = 2.263923 g / cm^3
# Si number density = 22.690872 Si / 1000 Ang^3
#
#
#
# Elastic Constant Matrix: (Units=GPa)
#
#
# Indices 1 2 3 4 5 6 
#
# 1 107.7771 15.0818 29.9484 0.0000 -0.9308 0.0000
# 2 15.0818 78.2214 43.2266 0.0000 -0.3263 0.0000
# 3 29.9484 43.2266 104.0203 0.0000 -5.2773 0.0000
# 4 0.0000 0.0000 0.0000 33.1137 0.0000 -1.7924
# 5 -0.9308 -0.3263 -5.2773 0.0000 42.6684 0.0000
# 6 0.0000 0.0000 0.0000 -1.7924 0.0000 33.1830
#
#
#
# Elastic Compliance Matrix: (Units=1/GPa)
#
#
# Indices 1 2 3 4 5 6 
#
# 1 0.010098 -0.000438 -0.002731 0.000000 -0.000121 0.000000
# 2 -0.000438 0.016637 -0.006824 0.000000 -0.000726 0.000000
# 3 -0.002731 -0.006824 0.013314 0.000000 0.001535 0.000000
# 4 0.000000 0.000000 0.000000 0.030288 0.000000 0.001636
# 5 -0.000121 -0.000726 0.001535 0.000000 0.023618 0.000000
# 6 0.000000 0.000000 0.000000 0.001636 0.000000 0.030224
#
#
# Mechanical properties :
#
#
# Convention : Reuss Voigt Hill
#
# Bulk Modulus (GPa) = 49.84846 51.83693 50.84270
# Shear Modulus (GPa) = 33.14492 35.24380 34.19436
#
# Velocity S-wave (km/s) = 3.82608 3.94536 3.88618
# Velocity P-wave (km/s) = 6.44474 6.60673 6.52624
#
# Compressibility (1/GPa) = 0.02006080
#
# Stress axis : x y z
#
# Youngs Moduli (GPa) = 99.03325 60.10720 75.11070
#
# Poissons Ratio (x) = 0.02633 0.20515
# Poissons Ratio (y) = 0.04338 0.51258
# Poissons Ratio (z) = 0.27049 0.41019
#
# Static dielectric constant tensor:
#      x y z
#    x 4.108840 0.000000 0.111730 
#    y 0.000000 4.019660 0.000000 
#    z 0.111730 0.000000 4.497520 
# 
# 
# High freq. dielectric constant tensor:
#      x y z
#    x 1.892230 0.000000 -0.003120 
#    y 0.000000 1.893500 0.000000 
#    z -0.003120 0.000000 1.907430 
# 
# From -- ./inp_files/73719.got.cif
#   From: 2010.06.25/outbox.cif.g09.slc.cpg/sg13_37_cif.got.tgz:73719.got - 2010.06.28 04:50:58.
