data_PCOD8118412
_publ_section_title
;
Structure prediction by ZEFSAII (Michael W. Deem and Ramdas Pophale) SiO2 
 PCOD8118412
Probable space group: P 2/C
;
_chemical_formula_sum "Si O2"
_cell_formula_units_Z 32
_cell_length_a 22.891092
_cell_length_b 13.626146
_cell_length_c 16.358041
_cell_angle_alpha 90.000000
_cell_angle_beta 17.567049
_cell_angle_gamma 90.000000
_cell_volume 1540.001844
_symmetry_space_group_name_H-M "P 2/C"
_symmetry_group_IT_number 13
_symmetry_cell_setting 'monoclinic'
loop_
_space_group_symop_operation_xyz
x,y,z
-x,y,1/2-z
-x,-y,-z
x,-y,1/2+z
loop_
_atom_site_type_symbol
_atom_site_label
_atom_site_fract_x
_atom_site_fract_y
_atom_site_fract_z
Si Si1 0.203984 0.804938 0.933675
Si Si2 0.444673 0.134465 0.416765
Si Si3 0.584409 0.771272 0.224074
Si Si4 0.231437 0.662172 0.762664
Si Si5 0.706886 0.503629 0.435679
Si Si6 0.416936 0.940557 0.537187
Si Si7 0.936052 0.371744 0.246668
Si Si8 0.850875 0.699012 0.179450
O O1 0.377629 0.825143 0.765154
O O2 0.208636 0.692770 0.889535
O O3 0.232166 0.877158 0.816657
O O4 0.000000 0.824814 0.250000
O O5 0.500000 0.144115 0.250000
O O6 0.257658 0.199356 0.681192
O O7 0.370939 0.023239 0.531010
O O8 0.500000 0.804225 0.250000
O O9 0.441546 0.693208 0.453456
O O10 0.585296 0.868815 0.278719
O O11 0.793478 0.721937 0.940558
O O12 0.237588 0.547282 0.726588
O O13 0.060354 0.715794 0.941050
O O14 0.853354 0.465559 0.309377
O O15 0.729782 0.619785 0.393962
O O16 0.500000 0.477335 0.750000
O O17 0.500000 0.000000 0.500000
O O18 0.000000 0.408190 0.250000
O O19 0.125523 0.335800 0.945498
#
# Coordination Sequence:
#
# PCOD8118412 Si02
#       8
#     4   4   4   4   4   4   4   4
#     4  10  22  41  66  90 124 169 206 260 321 381
#     4  11  23  44  59  91 133 165 211 265 320 371
#     4  11  18  39  67  93 120 173 207 259 320 376
#     4  10  19  39  65  88 125 163 213 252 312 378
#     4  11  21  43  65  91 129 171 212 257 321 376
#     4   9  22  39  63  91 130 162 213 266 310 380
#     4  11  23  38  65  98 130 161 219 270 318 375
#     4  11  24  40  64  94 128 173 207 270 313 373
#
# _framework density 20.779195999999999
#
# number of rings (size 3 to 8) (size 9 to 14) (size 15 to 20)
#    0.000    1.500    3.750    3.000    5.250    0.000 
#    4.500   11.875    0.000    0.000    0.000    0.000 
#    0.000    0.000    0.000    0.000    0.000    0.000 
#
# Total GULP energy -396488.796226 kJ/mol
# GULP energy per Si atom -12390.274882 kJ/mol
# Density = 2.073190 g / cm^3
# Si number density = 20.779196 Si / 1000 Ang^3
#
#
#
# Elastic Constant Matrix: (Units=GPa)
#
#
# Indices 1 2 3 4 5 6 
#
# 1 91.4347 20.7547 17.6139 0.0000 12.0223 0.0000
# 2 20.7547 89.9414 21.2190 0.0000 -2.1218 0.0000
# 3 17.6139 21.2190 97.0632 0.0000 9.3237 0.0000
# 4 0.0000 0.0000 0.0000 84.0724 0.0000 48.6745
# 5 12.0223 -2.1218 9.3237 0.0000 26.6910 0.0000
# 6 0.0000 0.0000 0.0000 48.6745 0.0000 49.8115
#
#
#
# Elastic Compliance Matrix: (Units=1/GPa)
#
#
# Indices 1 2 3 4 5 6 
#
# 1 0.012496 -0.002742 -0.001145 0.000000 -0.005446 0.000000
# 2 -0.002742 0.012418 -0.002515 0.000000 0.003101 0.000000
# 3 -0.001145 -0.002515 0.011413 0.000000 -0.003671 0.000000
# 4 0.000000 0.000000 0.000000 0.027391 0.000000 -0.026765
# 5 -0.005446 0.003101 -0.003671 0.000000 0.041448 0.000000
# 6 0.000000 0.000000 0.000000 -0.026765 0.000000 0.046230
#
#
# Mechanical properties :
#
#
# Convention : Reuss Voigt Hill
#
# Bulk Modulus (GPa) = 42.51236 44.17937 43.34586
# Shear Modulus (GPa) = 29.06317 46.70509 37.88413
#
# Velocity S-wave (km/s) = 3.74393 4.74612 4.27450
# Velocity P-wave (km/s) = 6.26042 7.16531 6.72810
#
# Compressibility (1/GPa) = 0.02352257
#
# Stress axis : x y z
#
# Youngs Moduli (GPa) = 80.02663 80.53142 87.62134
#
# Poissons Ratio (x) = 0.22081 0.10033
# Poissons Ratio (y) = 0.21942 0.22036
# Poissons Ratio (z) = 0.09163 0.20253
#
# Static dielectric constant tensor:
#      x y z
#    x 3.966890 0.000000 0.358850 
#    y 0.000000 4.654160 0.000000 
#    z 0.358850 0.000000 3.917160 
# 
# 
# High freq. dielectric constant tensor:
#      x y z
#    x 1.807890 0.000000 0.019710 
#    y 0.000000 1.810020 0.000000 
#    z 0.019710 0.000000 1.816800 
# 
# From -- ./inp_files/57866.got.cif
#   From: 2010.06.25/outbox.cif.g09.slc.cpg/sg13_29_cif.got.tgz:57866.got - 2010.06.28 04:50:58.
