data_PCOD8118330
_publ_section_title
;
Structure prediction by ZEFSAII (Michael W. Deem and Ramdas Pophale) SiO2 
 PCOD8118330
Probable space group: P 2/C
;
_chemical_formula_sum "Si O2"
_cell_formula_units_Z 32
_cell_length_a 15.827633
_cell_length_b 13.954096
_cell_length_c 22.398998
_cell_angle_alpha 90.000000
_cell_angle_beta 161.588808
_cell_angle_gamma 90.000000
_cell_volume 1562.448368
_symmetry_space_group_name_H-M "P 2/C"
_symmetry_group_IT_number 13
_symmetry_cell_setting 'monoclinic'
loop_
_space_group_symop_operation_xyz
x,y,z
-x,y,1/2-z
-x,-y,-z
x,-y,1/2+z
loop_
_atom_site_type_symbol
_atom_site_label
_atom_site_fract_x
_atom_site_fract_y
_atom_site_fract_z
Si Si1 0.067239 0.624737 0.856351
Si Si2 0.335815 0.778692 0.772383
Si Si3 0.151826 0.828586 0.774113
Si Si4 0.648859 0.081136 0.971539
Si Si5 0.302126 0.888067 0.563189
Si Si6 0.683771 0.618877 0.265684
Si Si7 0.893284 0.180904 0.880802
Si Si8 0.861052 0.574774 0.837001
O O1 0.000000 0.569152 0.750000
O O2 0.880162 0.719457 0.726478
O O3 0.952266 0.559402 0.830893
O O4 0.379797 0.644583 0.078445
O O5 0.320499 0.834736 0.825677
O O6 0.602626 0.797529 0.912802
O O7 0.330081 0.665228 0.779518
O O8 0.093758 0.819391 0.570574
O O9 0.846168 0.862600 0.558903
O O10 0.283961 0.895371 0.913780
O O11 0.344573 0.111943 0.756914
O O12 0.699057 0.971224 0.987340
O O13 0.500000 0.914593 0.750000
O O14 0.017957 0.860518 0.402590
O O15 0.797188 0.709758 0.304700
O O16 0.693494 0.520872 0.235375
O O17 0.863792 0.594471 0.443549
#
# Coordination Sequence:
#
# PCOD8118330 Si02
#       8
#     4   4   4   4   4   4   4   4
#     4  11  19  36  58  85 118 152 195 240 297 349
#     4   9  21  39  60  86 122 154 194 245 298 352
#     4  10  21  39  57  85 115 149 194 251 295 335
#     4  11  22  38  58  83 113 154 199 249 289 351
#     4  10  24  39  57  86 119 158 198 243 305 358
#     4  10  19  38  61  90 119 152 198 243 295 350
#     4  10  21  39  62  86 117 158 198 245 296 355
#     4   9  21  35  61  92 118 154 196 242 294 354
#
# _framework density 20.480675999999999
#
# number of rings (size 3 to 8) (size 9 to 14) (size 15 to 20)
#    0.000    2.000    2.500    0.375    3.500    3.000 
#    2.250    3.750    0.000    0.000    0.000    0.000 
#    0.000    0.000    0.000    0.000    0.000    0.000 
#
# Total GULP energy -396485.706383 kJ/mol
# GULP energy per Si atom -12390.178324 kJ/mol
# Density = 2.043406 g / cm^3
# Si number density = 20.480676 Si / 1000 Ang^3
#
#
#
# Elastic Constant Matrix: (Units=GPa)
#
#
# Indices 1 2 3 4 5 6 
#
# 1 134.0438 59.3269 18.1470 0.0000 -0.2682 0.0000
# 2 59.3269 109.5799 19.2530 0.0000 -2.7052 0.0000
# 3 18.1470 19.2530 26.5955 0.0000 2.9150 0.0000
# 4 0.0000 0.0000 0.0000 17.4074 0.0000 -1.6701
# 5 -0.2682 -2.7052 2.9150 0.0000 20.0333 0.0000
# 6 0.0000 0.0000 0.0000 -1.6701 0.0000 26.9932
#
#
#
# Elastic Compliance Matrix: (Units=1/GPa)
#
#
# Indices 1 2 3 4 5 6 
#
# 1 0.010065 -0.004863 -0.003344 0.000000 -0.000035 0.000000
# 2 -0.004863 0.012935 -0.006331 0.000000 0.002603 0.000000
# 3 -0.003344 -0.006331 0.045286 0.000000 -0.007489 0.000000
# 4 0.000000 0.000000 0.000000 0.057790 0.000000 0.003576
# 5 -0.000035 0.002603 -0.007489 0.000000 0.051358 0.000000
# 6 0.000000 0.000000 0.000000 0.003576 0.000000 0.037268
#
#
# Mechanical properties :
#
#
# Convention : Reuss Voigt Hill
#
# Bulk Modulus (GPa) = 25.50311 51.51922 38.51116
# Shear Modulus (GPa) = 19.46689 24.45294 21.95991
#
# Velocity S-wave (km/s) = 3.08636 3.45911 3.27804
# Velocity P-wave (km/s) = 5.01798 6.41588 5.75950
#
# Compressibility (1/GPa) = 0.03921090
#
# Stress axis : x y z
#
# Youngs Moduli (GPa) = 99.35408 77.30926 22.08190
#
# Poissons Ratio (x) = 0.37593 0.07383
# Poissons Ratio (y) = 0.48312 0.13981
# Poissons Ratio (z) = 0.33221 0.48947
#
# Static dielectric constant tensor:
#      x y z
#    x 3.904980 0.000000 0.052020 
#    y 0.000000 3.643760 0.000000 
#    z 0.052020 0.000000 3.660610 
# 
# 
# High freq. dielectric constant tensor:
#      x y z
#    x 1.808170 0.000000 0.004020 
#    y 0.000000 1.790970 0.000000 
#    z 0.004020 0.000000 1.786700 
# 
# From -- ./inp_files/80400.got.cif
#   From: 2010.06.25/outbox.cif.g09.slc.cpg/sg13_41_cif.got.tgz:80400.got - 2010.06.28 04:50:58.
