data_PCOD8118654
_publ_section_title
;
Structure prediction by ZEFSAII (Michael W. Deem and Ramdas Pophale) SiO2 
 PCOD8118654
Probable space group: P 2/C
;
_chemical_formula_sum "Si O2"
_cell_formula_units_Z 24
_cell_length_a 28.147626
_cell_length_b 11.463996
_cell_length_c 9.693281
_cell_angle_alpha 90.000000
_cell_angle_beta 24.918915
_cell_angle_gamma 90.000000
_cell_volume 1317.881546
_symmetry_space_group_name_H-M "P 2/C"
_symmetry_group_IT_number 13
_symmetry_cell_setting 'monoclinic'
loop_
_space_group_symop_operation_xyz
x,y,z
-x,y,1/2-z
-x,-y,-z
x,-y,1/2+z
loop_
_atom_site_type_symbol
_atom_site_label
_atom_site_fract_x
_atom_site_fract_y
_atom_site_fract_z
Si Si1 0.580297 0.986513 0.161891
Si Si2 0.773599 0.137294 0.757697
Si Si3 0.067675 0.062077 0.701499
Si Si4 0.114158 0.626778 0.607561
Si Si5 0.256296 0.200622 0.354672
Si Si6 0.855940 0.422444 0.776931
O O1 0.500000 0.018746 0.250000
O O2 0.500000 0.000000 0.500000
O O3 0.634406 0.855223 0.009317
O O4 0.678093 0.084262 0.909191
O O5 0.831905 0.244917 0.523917
O O6 0.863314 0.038665 0.556065
O O7 0.726306 0.167391 0.031714
O O8 0.144398 0.157901 0.572525
O O9 0.000000 0.119910 0.750000
O O10 0.000000 0.000000 0.000000
O O11 0.157743 0.549518 0.620507
O O12 0.156976 0.565532 0.353908
O O13 0.978981 0.636142 0.976147
O O14 0.241319 0.341051 0.397493
#
# Coordination Sequence:
#
# PCOD8118654 Si02
#       6
#     4   4   4   4   4   4
#     4  11  22  39  58  81 105 137 184 234 284 324
#     4  10  20  34  57  77 106 147 179 218 272 326
#     4  11  20  31  48  78 112 140 172 214 265 326
#     4   9  18  34  55  77 111 146 180 212 260 316
#     4  10  20  35  55  79 106 144 182 217 271 328
#     4   9  18  35  53  79 111 147 178 214 258 319
#
# _framework density 18.211044000000001
#
# number of rings (size 3 to 8) (size 9 to 14) (size 15 to 20)
#    0.000    2.000    3.333    1.000    2.333    0.000 
#   12.000    0.000    0.000    2.000    0.000    0.000 
#    0.000    0.000    0.000    0.000    0.000    0.000 
#
# Total GULP energy -297351.034649 kJ/mol
# GULP energy per Si atom -12389.626444 kJ/mol
# Density = 1.816960 g / cm^3
# Si number density = 18.211044 Si / 1000 Ang^3
#
#
#
# Elastic Constant Matrix: (Units=GPa)
#
#
# Indices 1 2 3 4 5 6 
#
# 1 99.9718 17.7721 13.6575 0.0000 -7.2924 0.0000
# 2 17.7721 76.4968 21.1537 0.0000 -0.0195 0.0000
# 3 13.6575 21.1537 69.0612 0.0000 2.6352 0.0000
# 4 0.0000 0.0000 0.0000 30.6072 0.0000 4.8814
# 5 -7.2924 -0.0195 2.6352 0.0000 23.7678 0.0000
# 6 0.0000 0.0000 0.0000 4.8814 0.0000 24.5449
#
#
#
# Elastic Compliance Matrix: (Units=1/GPa)
#
#
# Indices 1 2 3 4 5 6 
#
# 1 0.010851 -0.002064 -0.001647 0.000000 0.003510 0.000000
# 2 -0.002064 0.014681 -0.004082 0.000000 -0.000169 0.000000
# 3 -0.001647 -0.004082 0.016144 0.000000 -0.002299 0.000000
# 4 0.000000 0.000000 0.000000 0.033742 0.000000 -0.006711
# 5 0.003510 -0.000169 -0.002299 0.000000 0.043405 0.000000
# 6 0.000000 0.000000 0.000000 -0.006711 0.000000 0.042076
#
#
# Mechanical properties :
#
#
# Convention : Reuss Voigt Hill
#
# Bulk Modulus (GPa) = 38.33250 38.96627 38.64939
# Shear Modulus (GPa) = 27.00024 28.64706 27.82365
#
# Velocity S-wave (km/s) = 3.85467 3.97048 3.91301
# Velocity P-wave (km/s) = 6.39578 6.51638 6.45636
#
# Compressibility (1/GPa) = 0.02608752
#
# Stress axis : x y z
#
# Youngs Moduli (GPa) = 92.15793 68.11599 61.94333
#
# Poissons Ratio (x) = 0.14062 0.10205
# Poissons Ratio (y) = 0.19026 0.25286
# Poissons Ratio (z) = 0.15183 0.27806
#
# Static dielectric constant tensor:
#      x y z
#    x 3.356400 0.000000 -0.024050 
#    y 0.000000 3.212490 0.000000 
#    z -0.024050 0.000000 3.421100 
# 
# 
# High freq. dielectric constant tensor:
#      x y z
#    x 1.708590 0.000000 0.013430 
#    y 0.000000 1.688910 0.000000 
#    z 0.013430 0.000000 1.691370 
# 
# From -- ./inp_files/15890.got.cif
#   From: 2010.06.25/outbox.cif.g09.slc.cpg/sg13_8_cif.got.tgz:15890.got - 2010.06.28 04:50:58.
