data_PCOD8118962
_publ_section_title
;
Structure prediction by ZEFSAII (Michael W. Deem and Ramdas Pophale) SiO2 
 PCOD8118962
Probable space group: P 2/C
;
_chemical_formula_sum "Si O2"
_cell_formula_units_Z 32
_cell_length_a 27.231526
_cell_length_b 8.818504
_cell_length_c 22.360039
_cell_angle_alpha 90.000000
_cell_angle_beta 162.268905
_cell_angle_gamma 90.000000
_cell_volume 1635.302520
_symmetry_space_group_name_H-M "P 2/C"
_symmetry_group_IT_number 13
_symmetry_cell_setting 'monoclinic'
loop_
_space_group_symop_operation_xyz
x,y,z
-x,y,1/2-z
-x,-y,-z
x,-y,1/2+z
loop_
_atom_site_type_symbol
_atom_site_label
_atom_site_fract_x
_atom_site_fract_y
_atom_site_fract_z
Si Si1 0.415269 0.340503 0.408385
Si Si2 0.204781 0.178715 0.828558
Si Si3 0.167082 0.327973 0.909475
Si Si4 0.930128 0.661679 0.935449
Si Si5 0.469736 0.677070 0.840266
Si Si6 0.780612 0.176844 0.150810
Si Si7 0.470727 0.682592 0.336467
Si Si8 0.835721 0.326114 0.093280
O O1 0.500000 0.500000 0.500000
O O2 0.225277 0.357289 0.202131
O O3 0.440433 0.258731 0.373694
O O4 0.503897 0.252668 0.566242
O O5 0.164815 0.219948 0.850039
O O6 0.064794 0.240783 0.624286
O O7 0.213073 0.000227 0.830521
O O8 0.376417 0.244817 0.009562
O O9 0.193775 0.501521 0.919174
O O10 0.000000 0.308859 0.750000
O O11 0.312430 0.276426 0.120608
O O12 0.889438 0.743347 0.826558
O O13 0.000000 0.500000 0.000000
O O14 0.499869 0.497402 0.873043
O O15 0.846282 0.214973 0.161519
O O16 0.599117 0.239756 0.941873
O O17 0.298004 0.725289 0.109915
O O18 0.000000 0.309916 0.250000
#
# Coordination Sequence:
#
# PCOD8118962 Si02
#       8
#     4   4   4   4   4   4   4   4
#     4   9  18  35  60  91 113 141 191 246 292 336
#     4  12  24  38  57  86 120 155 191 235 295 354
#     4  10  21  38  61  88 116 152 201 249 287 339
#     4  11  22  40  65  87 113 151 195 243 291 345
#     4  10  20  36  60  87 116 152 197 241 288 346
#     4  11  24  39  56  83 120 155 191 234 292 354
#     4   9  19  37  59  83 114 151 193 238 283 341
#     4  10  21  37  60  87 113 149 199 246 287 335
#
# _framework density 19.568244
#
# number of rings (size 3 to 8) (size 9 to 14) (size 15 to 20)
#    0.000    1.750    0.000    5.625    0.000    9.500 
#    0.000    3.750    0.000    0.000    0.000    0.000 
#    0.000    0.000    0.000    0.000    0.000    0.000 
#
# Total GULP energy -396817.396053 kJ/mol
# GULP energy per Si atom -12400.543627 kJ/mol
# Density = 1.952371 g / cm^3
# Si number density = 19.568244 Si / 1000 Ang^3
#
#
#
# Elastic Constant Matrix: (Units=GPa)
#
#
# Indices 1 2 3 4 5 6 
#
# 1 104.1199 36.6883 56.9437 0.0000 -7.6422 0.0000
# 2 36.6883 82.0927 54.1290 0.0000 -5.8868 0.0000
# 3 56.9437 54.1290 164.7841 0.0000 -3.4033 0.0000
# 4 0.0000 0.0000 0.0000 15.4248 0.0000 -7.3800
# 5 -7.6422 -5.8868 -3.4033 0.0000 30.5944 0.0000
# 6 0.0000 0.0000 0.0000 -7.3800 0.0000 13.0963
#
#
#
# Elastic Compliance Matrix: (Units=1/GPa)
#
#
# Indices 1 2 3 4 5 6 
#
# 1 0.012732 -0.003400 -0.003238 0.000000 0.002166 0.000000
# 2 -0.003400 0.016639 -0.004252 0.000000 0.001879 0.000000
# 3 -0.003238 -0.004252 0.008570 0.000000 -0.000674 0.000000
# 4 0.000000 0.000000 0.000000 0.088762 0.000000 0.050019
# 5 0.002166 0.001879 -0.000674 0.000000 0.033514 0.000000
# 6 0.000000 0.000000 0.000000 0.050019 0.000000 0.104544
#
#
# Mechanical properties :
#
#
# Convention : Reuss Voigt Hill
#
# Bulk Modulus (GPa) = 61.87472 71.83540 66.85506
# Shear Modulus (GPa) = 17.12745 25.37215 21.24980
#
# Velocity S-wave (km/s) = 2.96170 3.60474 3.29892
# Velocity P-wave (km/s) = 6.58667 7.35632 6.98210
#
# Compressibility (1/GPa) = 0.01616169
#
# Stress axis : x y z
#
# Youngs Moduli (GPa) = 78.54046 60.09928 116.68006
#
# Poissons Ratio (x) = 0.20432 0.37785
# Poissons Ratio (y) = 0.26701 0.49613
# Poissons Ratio (z) = 0.25434 0.25555
#
# Static dielectric constant tensor:
#      x y z
#    x 3.901510 0.000000 -0.182610 
#    y 0.000000 3.358440 0.000000 
#    z -0.182610 0.000000 3.832520 
# 
# 
# High freq. dielectric constant tensor:
#      x y z
#    x 1.777590 0.000000 -0.005210 
#    y 0.000000 1.734960 0.000000 
#    z -0.005210 0.000000 1.783440 
# 
# From -- ./inp_files/82528.got.cif
#   From: 2010.06.25/outbox.cif.g09.slc.cpg/sg13_42_cif.got.tgz:82528.got - 2010.06.28 04:50:58.
