data_PCOD8118732
_publ_section_title
;
Structure prediction by ZEFSAII (Michael W. Deem and Ramdas Pophale) SiO2 
 PCOD8118732
Probable space group: P 2/C
;
_chemical_formula_sum "Si O2"
_cell_formula_units_Z 28
_cell_length_a 15.172805
_cell_length_b 14.387653
_cell_length_c 8.628824
_cell_angle_alpha 90.000000
_cell_angle_beta 55.340150
_cell_angle_gamma 90.000000
_cell_volume 1549.408475
_symmetry_space_group_name_H-M "P 2/C"
_symmetry_group_IT_number 13
_symmetry_cell_setting 'monoclinic'
loop_
_space_group_symop_operation_xyz
x,y,z
-x,y,1/2-z
-x,-y,-z
x,-y,1/2+z
loop_
_atom_site_type_symbol
_atom_site_label
_atom_site_fract_x
_atom_site_fract_y
_atom_site_fract_z
Si Si1 0.374742 0.097815 0.694700
Si Si2 0.500000 0.602254 0.067627
Si Si3 0.304677 0.715696 0.127067
Si Si4 0.625258 0.902185 0.944185
Si Si5 0.124467 0.401367 0.306303
Si Si6 0.124466 0.598633 0.444762
Si Si7 0.695322 0.715696 0.736423
O O1 0.309575 0.177144 0.671555
O O2 0.500000 0.113960 0.538302
O O3 0.336785 0.000000 0.663215
O O4 0.347266 0.100938 0.902734
O O5 0.500000 0.594775 0.250000
O O6 0.394820 0.656592 0.122230
O O7 0.500000 0.500000 0.000000
O O8 0.605178 0.656593 0.911871
O O9 0.188477 0.678842 0.292483
O O10 0.322118 0.706186 0.927882
O O11 0.690425 0.822857 0.790706
O O12 0.160045 0.500000 0.339954
O O13 0.188478 0.321158 0.330560
O O14 0.000000 0.382265 0.462101
O O15 0.152620 0.400446 0.097379
#
# Coordination Sequence:
#
# PCOD8118732 Si02
#       7
#     4   4   4   4   4   4   4
#     4  10  20  35  56  81 112 147 184 228 273 328
#     4  12  24  38  53  76 111 148 184 224 274 332
#     4  12  23  36  56  82 113 147 184 227 276 331
#     4  10  20  35  56  81 112 147 184 228 273 328
#     4  10  21  38  59  82 110 146 189 233 276 326
#     4  10  21  38  59  82 110 146 189 233 276 326
#     4  12  23  36  56  82 113 147 184 227 276 331
#
# _framework density 18.071413
#
# number of rings (size 3 to 8) (size 9 to 14) (size 15 to 20)
#    0.000    1.143    1.429    6.429    0.000    2.857 
#    0.000    0.000    0.000    0.857    0.000    0.000 
#    0.000    0.000    0.000    0.000    0.000    0.000 
#
# Total GULP energy -347398.614181 kJ/mol
# GULP energy per Si atom -12407.093364 kJ/mol
# Density = 1.803028 g / cm^3
# Si number density = 18.071413 Si / 1000 Ang^3
#
#
#
# Elastic Constant Matrix: (Units=GPa)
#
#
# Indices 1 2 3 4 5 6 
#
# 1 95.2976 59.2299 46.6041 0.0000 18.1257 0.0000
# 2 59.2299 151.8041 61.5791 0.0000 5.0870 0.0000
# 3 46.6041 61.5791 112.9303 0.0000 20.0608 0.0000
# 4 0.0000 0.0000 0.0000 44.4382 0.0000 -7.0912
# 5 18.1257 5.0870 20.0608 0.0000 32.7230 0.0000
# 6 0.0000 0.0000 0.0000 -7.0912 0.0000 47.7117
#
#
#
# Elastic Compliance Matrix: (Units=1/GPa)
#
#
# Indices 1 2 3 4 5 6 
#
# 1 0.016183 -0.004949 -0.002833 0.000000 -0.006458 0.000000
# 2 -0.004949 0.010056 -0.004097 0.000000 0.003689 0.000000
# 3 -0.002833 -0.004097 0.013316 0.000000 -0.005958 0.000000
# 4 0.000000 0.000000 0.000000 0.023050 0.000000 0.003426
# 5 -0.006458 0.003689 -0.005958 0.000000 0.037215 0.000000
# 6 0.000000 0.000000 0.000000 0.003426 0.000000 0.021468
#
#
# Mechanical properties :
#
#
# Convention : Reuss Voigt Hill
#
# Bulk Modulus (GPa) = 63.29429 77.20645 70.25037
# Shear Modulus (GPa) = 33.26419 37.81583 35.54001
#
# Velocity S-wave (km/s) = 4.29500 4.57943 4.43950
# Velocity P-wave (km/s) = 7.72636 8.41293 8.07694
#
# Compressibility (1/GPa) = 0.01579921
#
# Stress axis : x y z
#
# Youngs Moduli (GPa) = 61.79433 99.43851 75.09615
#
# Poissons Ratio (x) = 0.49208 0.21273
# Poissons Ratio (y) = 0.30579 0.30766
# Poissons Ratio (z) = 0.17505 0.40738
#
# Static dielectric constant tensor:
#      x y z
#    x 3.676190 0.000000 -0.122280 
#    y 0.000000 3.538010 0.000000 
#    z -0.122280 0.000000 3.619750 
# 
# 
# High freq. dielectric constant tensor:
#      x y z
#    x 1.697120 0.000000 0.021230 
#    y 0.000000 1.706850 0.000000 
#    z 0.021230 0.000000 1.706930 
# 
# From -- ./inp_files/19609.got.cif
#   From: 2010.06.25/outbox.cif.g09.slc.cpg/sg13_10_cif.got.tgz:19609.got - 2010.06.28 04:50:58.
