data_PCOD8118150
_publ_section_title
;
Structure prediction by ZEFSAII (Michael W. Deem and Ramdas Pophale) SiO2 
 PCOD8118150
Probable space group: P 2/C
;
_chemical_formula_sum "Si O2"
_cell_formula_units_Z 26
_cell_length_a 9.585840
_cell_length_b 8.810373
_cell_length_c 26.991544
_cell_angle_alpha 90.000000
_cell_angle_beta 146.109844
_cell_angle_gamma 90.000000
_cell_volume 1271.091775
_symmetry_space_group_name_H-M "P 2/C"
_symmetry_group_IT_number 13
_symmetry_cell_setting 'monoclinic'
loop_
_space_group_symop_operation_xyz
x,y,z
-x,y,1/2-z
-x,-y,-z
x,-y,1/2+z
loop_
_atom_site_type_symbol
_atom_site_label
_atom_site_fract_x
_atom_site_fract_y
_atom_site_fract_z
Si Si1 0.911282 0.034355 0.614831
Si Si2 0.421985 0.972506 0.817070
Si Si3 0.500000 0.552133 0.250000
Si Si4 0.188655 0.372702 0.517417
Si Si5 0.661089 0.645104 0.876522
Si Si6 0.209085 0.806064 0.122692
Si Si7 0.492808 0.144606 0.939970
O O1 0.709419 0.907148 0.541618
O O2 0.137365 0.961833 0.713483
O O3 0.767869 0.158980 0.606847
O O4 0.988993 0.103004 0.584707
O O5 0.555437 0.808957 0.858061
O O6 0.556212 0.081544 0.816963
O O7 0.441313 0.033981 0.878432
O O8 0.547582 0.448901 0.215478
O O9 0.265746 0.664913 0.175316
O O10 0.263835 0.545713 0.552772
O O11 0.131777 0.260078 0.547097
O O12 0.414750 0.309605 0.551017
O O13 0.907061 0.359094 0.411897
#
# Coordination Sequence:
#
# PCOD8118150 Si02
#       7
#     4   4   2   4   4   4   4
#     4  11  21  36  63  88 114 154 201 252 283 348
#     4  11  21  37  62  88 115 154 199 253 293 342
#     4  10  20  32  52  90 112 140 192 246 286 360
#     4   9  20  39  57  85 120 156 187 243 300 363
#     4  10  21  33  59  87 119 149 192 247 303 344
#     4  10  19  36  60  86 109 146 203 241 291 341
#     4  10  23  38  60  86 121 155 201 236 300 351
#
# _framework density 20.454857000000001
#
# number of rings (size 3 to 8) (size 9 to 14) (size 15 to 20)
#    0.000    1.846    1.538    2.308    4.308    2.462 
#    0.000    0.000    6.769   10.154    0.000    0.000 
#    0.000    0.000    0.000    0.000    0.000    0.000 
#
# Total GULP energy -322094.818596 kJ/mol
# GULP energy per Si atom -12388.262254 kJ/mol
# Density = 2.040830 g / cm^3
# Si number density = 20.454857 Si / 1000 Ang^3
#
#
#
# Elastic Constant Matrix: (Units=GPa)
#
#
# Indices 1 2 3 4 5 6 
#
# 1 101.6006 23.7888 22.4344 0.0000 13.9265 0.0000
# 2 23.7888 87.8183 23.2266 0.0000 8.3095 0.0000
# 3 22.4344 23.2266 94.9479 0.0000 4.5739 0.0000
# 4 0.0000 0.0000 0.0000 19.5757 0.0000 4.8710
# 5 13.9265 8.3095 4.5739 0.0000 23.2996 0.0000
# 6 0.0000 0.0000 0.0000 4.8710 0.0000 24.5292
#
#
#
# Elastic Compliance Matrix: (Units=1/GPa)
#
#
# Indices 1 2 3 4 5 6 
#
# 1 0.011549 -0.002067 -0.001944 0.000000 -0.005784 0.000000
# 2 -0.002067 0.012886 -0.002526 0.000000 -0.002864 0.000000
# 3 -0.001944 -0.002526 0.011620 0.000000 -0.000218 0.000000
# 4 0.000000 0.000000 0.000000 0.053739 0.000000 -0.010671
# 5 -0.005784 -0.002864 -0.000218 0.000000 0.047441 0.000000
# 6 0.000000 0.000000 0.000000 -0.010671 0.000000 0.042887
#
#
# Mechanical properties :
#
#
# Convention : Reuss Voigt Hill
#
# Bulk Modulus (GPa) = 43.51566 47.02957 45.27262
# Shear Modulus (GPa) = 24.89348 27.80870 26.35109
#
# Velocity S-wave (km/s) = 3.49233 3.69116 3.59312
# Velocity P-wave (km/s) = 6.13042 6.41935 6.27655
#
# Compressibility (1/GPa) = 0.02298023
#
# Stress axis : x y z
#
# Youngs Moduli (GPa) = 86.59098 77.60286 86.05898
#
# Poissons Ratio (x) = 0.16039 0.16734
# Poissons Ratio (y) = 0.17896 0.21738
# Poissons Ratio (z) = 0.16838 0.19602
#
# Static dielectric constant tensor:
#      x y z
#    x 3.712990 0.000000 0.018560 
#    y 0.000000 3.702470 0.000000 
#    z 0.018560 0.000000 3.961310 
# 
# 
# High freq. dielectric constant tensor:
#      x y z
#    x 1.768610 0.000000 -0.002900 
#    y 0.000000 1.793710 0.000000 
#    z -0.002900 0.000000 1.818960 
# 
# From -- ./inp_files/91330.got.cif
#   From: 2010.06.25/outbox.cif.g09.slc.cpg/sg13_46_cif.got.tgz:91330.got - 2010.06.28 04:50:58.
