data_PCOD8118959
_publ_section_title
;
Structure prediction by ZEFSAII (Michael W. Deem and Ramdas Pophale) SiO2 
 PCOD8118959
Probable space group: P 2/C
;
_chemical_formula_sum "Si O2"
_cell_formula_units_Z 14
_cell_length_a 11.241346
_cell_length_b 8.346046
_cell_length_c 11.862514
_cell_angle_alpha 90.000000
_cell_angle_beta 38.721598
_cell_angle_gamma 90.000000
_cell_volume 696.191460
_symmetry_space_group_name_H-M "P 2/C"
_symmetry_group_IT_number 13
_symmetry_cell_setting 'monoclinic'
loop_
_space_group_symop_operation_xyz
x,y,z
-x,y,1/2-z
-x,-y,-z
x,-y,1/2+z
loop_
_atom_site_type_symbol
_atom_site_label
_atom_site_fract_x
_atom_site_fract_y
_atom_site_fract_z
Si Si1 0.258565 0.101983 0.294650
Si Si2 0.921555 0.823726 0.185908
Si Si3 0.473233 0.316277 0.546476
Si Si4 0.500000 0.857302 0.250000
O O1 0.094969 0.210370 0.471444
O O2 0.162678 0.003902 0.262802
O O3 0.329284 0.972420 0.335202
O O4 0.431988 0.209701 0.122435
O O5 0.753456 0.700760 0.283998
O O6 0.000000 0.791740 0.250000
O O7 0.500000 0.500000 0.500000
O O8 0.562310 0.258530 0.600149
#
# Coordination Sequence:
#
# PCOD8118959 Si02
#       4
#     4   4   4   2
#     4  10  20  37  62  85 114 156 205 242 280 345
#     4  10  20  36  60  86 113 155 203 241 283 345
#     4  11  24  39  59  91 125 153 188 244 305 349
#     4  10  20  40  64  84 116 162 202 238 284 346
#
# _framework density 20.109408999999999
#
# number of rings (size 3 to 8) (size 9 to 14) (size 15 to 20)
#    0.000    1.714    0.000    6.857    0.000    4.571 
#    0.000    7.143    0.000    0.000    0.000    0.000 
#    0.000    0.000    0.000    0.000    0.000    0.000 
#
# Total GULP energy -173554.068069 kJ/mol
# GULP energy per Si atom -12396.719148 kJ/mol
# Density = 2.006364 g / cm^3
# Si number density = 20.109409 Si / 1000 Ang^3
#
#
#
# Elastic Constant Matrix: (Units=GPa)
#
#
# Indices 1 2 3 4 5 6 
#
# 1 106.0422 41.9786 46.2288 0.0000 11.3123 0.0000
# 2 41.9786 115.6042 69.4386 0.0000 10.9323 0.0000
# 3 46.2288 69.4386 131.5184 0.0000 -7.0028 0.0000
# 4 0.0000 0.0000 0.0000 0.0462 0.0000 -4.3679
# 5 11.3123 10.9323 -7.0028 0.0000 28.9955 0.0000
# 6 0.0000 0.0000 0.0000 -4.3679 0.0000 20.0767
#
#
#
# Elastic Compliance Matrix: (Units=1/GPa)
#
#
# Indices 1 2 3 4 5 6 
#
# 1 0.012253 -0.001806 -0.003618 0.000000 -0.004974 0.000000
# 2 -0.001806 0.014259 -0.007236 0.000000 -0.006419 0.000000
# 3 -0.003618 -0.007236 0.013084 0.000000 0.007300 0.000000
# 4 0.000000 0.000000 0.000000 -1.106067 0.000000 -0.240640
# 5 -0.004974 -0.006419 0.007300 0.000000 0.040612 0.000000
# 6 0.000000 0.000000 0.000000 -0.240640 0.000000 -0.002545
#
#
# Mechanical properties :
#
#
# Convention : Reuss Voigt Hill
#
# Bulk Modulus (GPa) = 70.04219 74.27296 72.15758
# Shear Modulus (GPa) = -5.00838 22.85826 8.92494
#
# Velocity S-wave (km/s) = -1.57987 3.37515 2.10899
# Velocity P-wave (km/s) = 5.61945 7.22520 6.47231
#
# Compressibility (1/GPa) = 0.01427711
#
# Stress axis : x y z
#
# Youngs Moduli (GPa) = 81.61276 70.13126 76.42763
#
# Poissons Ratio (x) = 0.12663 0.27655
# Poissons Ratio (y) = 0.14736 0.55300
# Poissons Ratio (z) = 0.29531 0.50744
#
# Static dielectric constant tensor:
#      x y z
#    x 3.837880 0.000000 -0.068150 
#    y 0.000000 3.340200 0.000000 
#    z -0.068150 0.000000 3.885330 
# 
# 
# High freq. dielectric constant tensor:
#      x y z
#    x 1.793600 0.000000 -0.002920 
#    y 0.000000 1.754120 0.000000 
#    z -0.002920 0.000000 1.795090 
# 
# From -- ./inp_files/27327.got.cif
#   From: 2010.06.25/outbox.cif.g09.slc.cpg/sg13_14_cif.got.tgz:27327.got - 2010.06.28 04:50:58.
