data_PCOD8118741
_publ_section_title
;
Structure prediction by ZEFSAII (Michael W. Deem and Ramdas Pophale) SiO2 
 PCOD8118741
Probable space group: P 2/C
;
_chemical_formula_sum "Si O2"
_cell_formula_units_Z 32
_cell_length_a 8.747896
_cell_length_b 11.912021
_cell_length_c 15.427211
_cell_angle_alpha 90.000000
_cell_angle_beta 86.886644
_cell_angle_gamma 90.000000
_cell_volume 1605.221637
_symmetry_space_group_name_H-M "P 2/C"
_symmetry_group_IT_number 13
_symmetry_cell_setting 'monoclinic'
loop_
_space_group_symop_operation_xyz
x,y,z
-x,y,1/2-z
-x,-y,-z
x,-y,1/2+z
loop_
_atom_site_type_symbol
_atom_site_label
_atom_site_fract_x
_atom_site_fract_y
_atom_site_fract_z
Si Si1 0.930984 0.878776 0.505688
Si Si2 0.608637 0.537020 0.602014
Si Si3 0.425517 0.119635 0.484513
Si Si4 0.929566 0.737107 0.846485
Si Si5 0.065077 0.510554 0.843335
Si Si6 0.572743 0.255210 0.336325
Si Si7 0.935106 0.288634 0.848836
Si Si8 0.611926 0.656239 0.423405
O O1 0.752718 0.889858 0.530932
O O2 0.958724 0.815522 0.413267
O O3 0.013305 0.824400 0.585084
O O4 0.000000 0.000000 0.500000
O O5 0.754110 0.535910 0.661049
O O6 0.479661 0.619587 0.640371
O O7 0.665349 0.584510 0.506854
O O8 0.533097 0.413132 0.608437
O O9 0.513621 0.158229 0.398446
O O10 0.449123 0.217372 0.555948
O O11 0.500000 0.000000 0.500000
O O12 0.752584 0.746436 0.834686
O O13 0.000000 0.757852 0.750000
O O14 0.974341 0.615969 0.885457
O O15 0.000000 0.490355 0.750000
O O16 0.029657 0.391739 0.890461
O O17 0.500000 0.216362 0.250000
O O18 0.755910 0.329214 0.853215
O O19 0.000000 0.257409 0.750000
#
# Coordination Sequence:
#
# PCOD8118741 Si02
#       8
#     4   4   4   4   4   4   4   4
#     4  11  24  41  63  88 118 160 205 254 308 362
#     4  10  20  35  58  88 122 157 199 245 295 359
#     4  10  21  40  61  83 115 152 199 247 296 357
#     4  11  22  38  61  91 123 156 199 249 305 365
#     4  10  20  35  56  86 122 156 190 236 294 357
#     4  11  21  36  60  87 118 153 193 245 300 357
#     4  10  22  40  59  86 125 162 201 247 301 367
#     4   9  20  37  59  87 116 157 201 244 299 355
#
# _framework density 19.934940999999998
#
# number of rings (size 3 to 8) (size 9 to 14) (size 15 to 20)
#    0.000    1.750    0.000    6.000    0.000    7.500 
#    0.000    2.500    0.000    0.750    0.000    0.000 
#    0.000    0.000    0.000    0.000    0.000    0.000 
#
# Total GULP energy -396504.863369 kJ/mol
# GULP energy per Si atom -12390.776980 kJ/mol
# Density = 1.988957 g / cm^3
# Si number density = 19.934941 Si / 1000 Ang^3
#
#
#
# Elastic Constant Matrix: (Units=GPa)
#
#
# Indices 1 2 3 4 5 6 
#
# 1 188.2113 80.3379 74.3365 0.0000 2.9789 0.0000
# 2 80.3379 165.5160 46.2120 0.0000 1.3491 0.0000
# 3 74.3365 46.2120 100.3331 0.0000 -8.3006 0.0000
# 4 0.0000 0.0000 0.0000 22.2000 0.0000 3.8926
# 5 2.9789 1.3491 -8.3006 0.0000 38.0498 0.0000
# 6 0.0000 0.0000 0.0000 3.8926 0.0000 36.0395
#
#
#
# Elastic Compliance Matrix: (Units=1/GPa)
#
#
# Indices 1 2 3 4 5 6 
#
# 1 0.008554 -0.002673 -0.005249 0.000000 -0.001720 0.000000
# 2 -0.002673 0.007803 -0.001649 0.000000 -0.000427 0.000000
# 3 -0.005249 -0.001649 0.014924 0.000000 0.003725 0.000000
# 4 0.000000 0.000000 0.000000 0.045915 0.000000 -0.004959
# 5 -0.001720 -0.000427 0.003725 0.000000 0.027244 0.000000
# 6 0.000000 0.000000 0.000000 -0.004959 0.000000 0.028283
#
#
# Mechanical properties :
#
#
# Convention : Reuss Voigt Hill
#
# Bulk Modulus (GPa) = 82.37899 95.09259 88.73579
# Shear Modulus (GPa) = 32.06961 36.13612 34.10287
#
# Velocity S-wave (km/s) = 4.01523 4.26220 4.14056
# Velocity P-wave (km/s) = 7.93156 8.48686 8.21391
#
# Compressibility (1/GPa) = 0.01213902
#
# Stress axis : x y z
#
# Youngs Moduli (GPa) = 116.89800 128.15888 67.00707
#
# Poissons Ratio (x) = 0.34251 0.35174
# Poissons Ratio (y) = 0.31241 0.11050
# Poissons Ratio (z) = 0.61364 0.21135
#
# Static dielectric constant tensor:
#      x y z
#    x 3.715310 0.000000 -0.093240 
#    y 0.000000 3.992030 0.000000 
#    z -0.093240 0.000000 3.636450 
# 
# 
# High freq. dielectric constant tensor:
#      x y z
#    x 1.790970 0.000000 -0.006550 
#    y 0.000000 1.784110 0.000000 
#    z -0.006550 0.000000 1.766760 
# 
# From -- ./inp_files/47245.got.cif
#   From: 2010.06.25/outbox.cif.g09.slc.cpg/sg13_24_cif.got.tgz:47245.got - 2010.06.28 04:50:58.
