data_PCOD8118218
_publ_section_title
;
Structure prediction by ZEFSAII (Michael W. Deem and Ramdas Pophale) SiO2 
 PCOD8118218
Probable space group: P 2/C
;
_chemical_formula_sum "Si O2"
_cell_formula_units_Z 32
_cell_length_a 23.547744
_cell_length_b 11.976207
_cell_length_c 11.891891
_cell_angle_alpha 90.000000
_cell_angle_beta 150.587839
_cell_angle_gamma 90.000000
_cell_volume 1646.946239
_symmetry_space_group_name_H-M "P 2/C"
_symmetry_group_IT_number 13
_symmetry_cell_setting 'monoclinic'
loop_
_space_group_symop_operation_xyz
x,y,z
-x,y,1/2-z
-x,-y,-z
x,-y,1/2+z
loop_
_atom_site_type_symbol
_atom_site_label
_atom_site_fract_x
_atom_site_fract_y
_atom_site_fract_z
Si Si1 0.299492 0.142563 0.441213
Si Si2 0.631193 0.678784 0.012645
Si Si3 0.258495 0.495150 0.443155
Si Si4 0.147905 0.673927 0.398366
Si Si5 0.368088 0.197751 0.314280
Si Si6 0.408679 0.685791 0.298829
Si Si7 0.104075 0.308053 0.076939
Si Si8 0.385051 0.908823 0.620954
O O1 0.366816 0.154423 0.439120
O O2 0.367312 0.206633 0.656659
O O3 0.169053 0.190138 0.208734
O O4 0.294557 0.010892 0.458546
O O5 0.712295 0.578574 0.108708
O O6 0.646812 0.688202 0.173052
O O7 0.500000 0.654687 0.750000
O O8 0.672022 0.795827 0.027638
O O9 0.206358 0.561272 0.457095
O O10 0.375125 0.429478 0.679722
O O11 0.160779 0.404641 0.248078
O O12 0.239935 0.773696 0.549241
O O13 0.116518 0.650830 0.471962
O O14 0.031906 0.706186 0.128170
O O15 0.451684 0.306996 0.453592
O O16 0.417337 0.108532 0.308833
O O17 0.500000 0.939677 0.750000
#
# Coordination Sequence:
#
# PCOD8118218 Si02
#       8
#     4   4   4   4   4   4   4   4
#     4  10  24  37  60  87 114 157 194 244 290 347
#     4  11  22  37  53  86 121 158 185 235 296 350
#     4  11  21  35  58  86 114 157 192 242 293 349
#     4  10  19  37  58  80 111 154 197 242 286 346
#     4  11  21  38  58  88 115 156 194 233 296 354
#     4  11  22  38  56  88 128 148 191 238 293 355
#     4   9  21  38  56  82 111 148 203 245 286 339
#     4  11  21  38  57  85 120 154 190 235 293 355
#
# _framework density 19.429898999999999
#
# number of rings (size 3 to 8) (size 9 to 14) (size 15 to 20)
#    0.000    1.500    3.750    2.250    1.750    6.000 
#    0.000    0.625    0.000    0.000    0.000    0.000 
#    0.000    0.000    0.000    0.000    0.000    0.000 
#
# Total GULP energy -396707.504896 kJ/mol
# GULP energy per Si atom -12397.109528 kJ/mol
# Density = 1.938568 g / cm^3
# Si number density = 19.429899 Si / 1000 Ang^3
#
#
#
# Elastic Constant Matrix: (Units=GPa)
#
#
# Indices 1 2 3 4 5 6 
#
# 1 88.6031 38.2553 45.8008 0.0000 -14.2989 0.0000
# 2 38.2553 116.5554 49.9282 0.0000 -0.8052 0.0000
# 3 45.8008 49.9282 97.8691 0.0000 5.5538 0.0000
# 4 0.0000 0.0000 0.0000 18.1152 0.0000 -0.2444
# 5 -14.2989 -0.8052 5.5538 0.0000 34.4064 0.0000
# 6 0.0000 0.0000 0.0000 -0.2444 0.0000 12.3910
#
#
#
# Elastic Compliance Matrix: (Units=1/GPa)
#
#
# Indices 1 2 3 4 5 6 
#
# 1 0.017573 -0.002536 -0.007409 0.000000 0.008440 0.000000
# 2 -0.002536 0.011392 -0.004623 0.000000 -0.000041 0.000000
# 3 -0.007409 -0.004623 0.016374 0.000000 -0.005830 0.000000
# 4 0.000000 0.000000 0.000000 0.055217 0.000000 0.001089
# 5 0.008440 -0.000041 -0.005830 0.000000 0.033512 0.000000
# 6 0.000000 0.000000 0.000000 0.001089 0.000000 0.080725
#
#
# Mechanical properties :
#
#
# Convention : Reuss Voigt Hill
#
# Bulk Modulus (GPa) = 61.71263 63.44403 62.57833
# Shear Modulus (GPa) = 20.05377 24.25206 22.15292
#
# Velocity S-wave (km/s) = 3.21613 3.53680 3.38027
# Velocity P-wave (km/s) = 6.75440 7.02867 6.89290
#
# Compressibility (1/GPa) = 0.01620414
#
# Stress axis : x y z
#
# Youngs Moduli (GPa) = 56.90524 87.78325 61.07174
#
# Poissons Ratio (x) = 0.22258 0.45249
# Poissons Ratio (y) = 0.14429 0.28231
# Poissons Ratio (z) = 0.42162 0.40578
#
# Static dielectric constant tensor:
#      x y z
#    x 3.666230 0.000000 -0.038990 
#    y 0.000000 3.444940 0.000000 
#    z -0.038990 0.000000 3.719370 
# 
# 
# High freq. dielectric constant tensor:
#      x y z
#    x 1.760360 0.000000 -0.013990 
#    y 0.000000 1.748430 0.000000 
#    z -0.013990 0.000000 1.746230 
# 
# From -- ./inp_files/41862.got.cif
#   From: 2010.06.25/outbox.cif.g09.slc.cpg/sg13_21_cif.got.tgz:41862.got - 2010.06.28 04:50:58.
