data_PCOD8118143
_publ_section_title
;
Structure prediction by ZEFSAII (Michael W. Deem and Ramdas Pophale) SiO2 
 PCOD8118143
Probable space group: P 2/C
;
_chemical_formula_sum "Si O2"
_cell_formula_units_Z 32
_cell_length_a 9.854300
_cell_length_b 13.720913
_cell_length_c 15.124555
_cell_angle_alpha 90.000000
_cell_angle_beta 55.074010
_cell_angle_gamma 90.000000
_cell_volume 1676.672272
_symmetry_space_group_name_H-M "P 2/C"
_symmetry_group_IT_number 13
_symmetry_cell_setting 'monoclinic'
loop_
_space_group_symop_operation_xyz
x,y,z
-x,y,1/2-z
-x,-y,-z
x,-y,1/2+z
loop_
_atom_site_type_symbol
_atom_site_label
_atom_site_fract_x
_atom_site_fract_y
_atom_site_fract_z
Si Si1 0.761274 0.121121 0.007133
Si Si2 0.900966 0.401195 0.031432
Si Si3 0.881717 0.214784 0.139327
Si Si4 0.605663 0.829033 0.878722
Si Si5 0.441169 0.495664 0.370385
Si Si6 0.494377 0.635308 0.499008
Si Si7 0.120536 0.061447 0.131235
Si Si8 0.141472 0.302813 0.626505
O O1 0.806187 0.190807 0.908129
O O2 0.837904 0.014681 0.961398
O O3 0.847833 0.158675 0.062128
O O4 0.562972 0.122600 0.094715
O O5 0.930144 0.328121 0.103495
O O6 0.710002 0.426009 0.094882
O O7 0.951470 0.344664 0.924598
O O8 0.000000 0.500000 0.000000
O O9 0.714073 0.213439 0.258379
O O10 0.034632 0.160952 0.129274
O O11 0.703602 0.914055 0.891439
O O12 0.571819 0.743431 0.961491
O O13 0.500000 0.525515 0.250000
O O14 0.408442 0.593517 0.440967
O O15 0.554084 0.430139 0.395758
O O16 0.694100 0.635634 0.409535
O O17 0.000000 0.013607 0.250000
O O18 0.000000 0.311444 0.750000
#
# Coordination Sequence:
#
# PCOD8118143 Si02
#       8
#     4   4   4   4   4   4   4   4
#     4  10  19  36  60  82 109 149 192 232 279 354
#     4  10  22  35  53  82 109 146 192 231 283 337
#     4  10  21  37  57  83 113 150 188 238 282 339
#     4  10  20  36  58  82 115 145 190 233 288 334
#     4  10  20  35  56  77 106 149 191 234 285 334
#     4   9  20  35  54  80 107 147 190 236 281 336
#     4  10  21  35  56  87 116 146 180 234 298 337
#     4   9  19  35  53  76 109 144 183 230 283 341
#
# _framework density 19.085422999999999
#
# number of rings (size 3 to 8) (size 9 to 14) (size 15 to 20)
#    0.000    2.250    0.000    3.000    3.500    0.000 
#    2.250    0.000    0.000    4.500    0.000    0.000 
#    0.000    0.000    0.000    0.000    0.000    0.000 
#
# Total GULP energy -396558.881138 kJ/mol
# GULP energy per Si atom -12392.465036 kJ/mol
# Density = 1.904198 g / cm^3
# Si number density = 19.085423 Si / 1000 Ang^3
#
#
#
# Elastic Constant Matrix: (Units=GPa)
#
#
# Indices 1 2 3 4 5 6 
#
# 1 46.8395 19.9642 20.2952 0.0000 2.1208 0.0000
# 2 19.9642 92.1708 40.8646 0.0000 -3.8415 0.0000
# 3 20.2952 40.8646 109.3550 0.0000 4.2978 0.0000
# 4 0.0000 0.0000 0.0000 28.2677 0.0000 2.9770
# 5 2.1208 -3.8415 4.2978 0.0000 27.3176 0.0000
# 6 0.0000 0.0000 0.0000 2.9770 0.0000 22.6543
#
#
#
# Elastic Compliance Matrix: (Units=1/GPa)
#
#
# Indices 1 2 3 4 5 6 
#
# 1 0.024451 -0.004079 -0.002935 0.000000 -0.002010 0.000000
# 2 -0.004079 0.013872 -0.004544 0.000000 0.002982 0.000000
# 3 -0.002935 -0.004544 0.011474 0.000000 -0.002216 0.000000
# 4 0.000000 0.000000 0.000000 0.035872 0.000000 -0.004714
# 5 -0.002010 0.002982 -0.002216 0.000000 0.037531 0.000000
# 6 0.000000 0.000000 0.000000 -0.004714 0.000000 0.044761
#
#
# Mechanical properties :
#
#
# Convention : Reuss Voigt Hill
#
# Bulk Modulus (GPa) = 37.47834 45.62369 41.55102
# Shear Modulus (GPa) = 25.00384 26.79734 25.90059
#
# Velocity S-wave (km/s) = 3.62346 3.75116 3.68786
# Velocity P-wave (km/s) = 6.09801 6.53594 6.32077
#
# Compressibility (1/GPa) = 0.02668208
#
# Stress axis : x y z
#
# Youngs Moduli (GPa) = 40.89894 72.08907 87.15144
#
# Poissons Ratio (x) = 0.29403 0.25576
# Poissons Ratio (y) = 0.16681 0.39601
# Poissons Ratio (z) = 0.12002 0.32757
#
# Static dielectric constant tensor:
#      x y z
#    x 3.202130 0.000000 0.008430 
#    y 0.000000 3.505390 0.000000 
#    z 0.008430 0.000000 3.502540 
# 
# 
# High freq. dielectric constant tensor:
#      x y z
#    x 1.734340 0.000000 0.002650 
#    y 0.000000 1.741280 0.000000 
#    z 0.002650 0.000000 1.738850 
# 
# From -- ./inp_files/47684.got.cif
#   From: 2010.06.25/outbox.cif.g09.slc.cpg/sg13_24_cif.got.tgz:47684.got - 2010.06.28 04:50:58.
