data_PCOD8118669
_publ_section_title
;
Structure prediction by ZEFSAII (Michael W. Deem and Ramdas Pophale) SiO2 
 PCOD8118669
Probable space group: P 2/C
;
_chemical_formula_sum "Si O2"
_cell_formula_units_Z 26
_cell_length_a 21.576109
_cell_length_b 9.112805
_cell_length_c 9.014733
_cell_angle_alpha 90.000000
_cell_angle_beta 130.916995
_cell_angle_gamma 90.000000
_cell_volume 1339.380781
_symmetry_space_group_name_H-M "P 2/C"
_symmetry_group_IT_number 13
_symmetry_cell_setting 'monoclinic'
loop_
_space_group_symop_operation_xyz
x,y,z
-x,y,1/2-z
-x,-y,-z
x,-y,1/2+z
loop_
_atom_site_type_symbol
_atom_site_label
_atom_site_fract_x
_atom_site_fract_y
_atom_site_fract_z
Si Si1 0.780133 0.376173 0.151725
Si Si2 0.272569 0.927660 0.412132
Si Si3 0.329441 0.824342 0.820187
Si Si4 0.000000 0.980840 0.250000
Si Si5 0.109164 0.120121 0.176601
Si Si6 0.281077 0.620423 0.272547
Si Si7 0.441149 0.568597 0.024737
O O1 0.734602 0.285207 0.207051
O O2 0.864095 0.289052 0.254058
O O3 0.789887 0.536606 0.242628
O O4 0.729679 0.392565 0.920517
O O5 0.295429 0.884877 0.613091
O O6 0.274148 0.788934 0.306172
O O7 0.340571 0.039226 0.450903
O O8 0.183814 0.005539 0.272701
O O9 0.410647 0.728474 0.920063
O O10 0.941873 0.082539 0.257582
O O11 0.054078 0.879347 0.442474
O O12 0.368227 0.545444 0.452059
O O13 0.500000 0.605495 0.250000
O O14 0.500000 0.500000 0.000000
#
# Coordination Sequence:
#
# PCOD8118669 Si02
#       7
#     4   4   4   2   4   4   4
#     4  10  20  36  57  85 112 146 198 235 278 328
#     4  11  20  37  61  86 114 146 199 247 284 321
#     4  10  21  36  57  85 112 148 196 241 278 342
#     4  10  20  34  58  88 118 148 184 220 298 356
#     4  10  20  36  59  85 114 149 184 236 282 346
#     4  11  21  36  61  86 111 151 199 245 283 344
#     4  11  22  39  57  80 117 155 189 235 301 355
#
# _framework density 19.411956
#
# number of rings (size 3 to 8) (size 9 to 14) (size 15 to 20)
#    0.000    1.538    0.000    9.231    0.000    0.000 
#    0.000    3.846    0.000   15.692    0.000    0.000 
#    0.000    0.000    0.000    0.000    0.000    0.000 
#
# Total GULP energy -322237.504958 kJ/mol
# GULP energy per Si atom -12393.750191 kJ/mol
# Density = 1.936777 g / cm^3
# Si number density = 19.411956 Si / 1000 Ang^3
#
#
#
# Elastic Constant Matrix: (Units=GPa)
#
#
# Indices 1 2 3 4 5 6 
#
# 1 91.0915 55.3083 45.0341 0.0000 -6.2829 0.0000
# 2 55.3083 124.8787 31.8478 0.0000 7.2089 0.0000
# 3 45.0341 31.8478 91.5584 0.0000 -7.9281 0.0000
# 4 0.0000 0.0000 0.0000 21.2737 0.0000 -9.2187
# 5 -6.2829 7.2089 -7.9281 0.0000 36.1263 0.0000
# 6 0.0000 0.0000 0.0000 -9.2187 0.0000 33.5263
#
#
#
# Elastic Compliance Matrix: (Units=1/GPa)
#
#
# Indices 1 2 3 4 5 6 
#
# 1 0.018471 -0.006709 -0.006481 0.000000 0.003129 0.000000
# 2 -0.006709 0.011446 -0.000999 0.000000 -0.003670 0.000000
# 3 -0.006481 -0.000999 0.014655 0.000000 0.002289 0.000000
# 4 0.000000 0.000000 0.000000 0.053365 0.000000 0.014674
# 5 0.003129 -0.003670 0.002289 0.000000 0.029459 0.000000
# 6 0.000000 0.000000 0.000000 0.014674 0.000000 0.033862
#
#
# Mechanical properties :
#
#
# Convention : Reuss Voigt Hill
#
# Bulk Modulus (GPa) = 61.74849 63.54545 62.64697
# Shear Modulus (GPa) = 25.63646 29.87447 27.75547
#
# Velocity S-wave (km/s) = 3.63802 3.92723 3.78539
# Velocity P-wave (km/s) = 7.03744 7.30551 7.17273
#
# Compressibility (1/GPa) = 0.01619473
#
# Stress axis : x y z
#
# Youngs Moduli (GPa) = 54.13880 87.36897 68.23412
#
# Poissons Ratio (x) = 0.58612 0.44221
# Poissons Ratio (y) = 0.36320 0.06819
# Poissons Ratio (z) = 0.35086 0.08731
#
# Static dielectric constant tensor:
#      x y z
#    x 3.812600 0.000000 -0.037220 
#    y 0.000000 4.324250 0.000000 
#    z -0.037220 0.000000 3.568320 
# 
# 
# High freq. dielectric constant tensor:
#      x y z
#    x 1.755850 0.000000 -0.024770 
#    y 0.000000 1.762090 0.000000 
#    z -0.024770 0.000000 1.755990 
# 
# From -- ./inp_files/20928.got.cif
#   From: 2010.06.25/outbox.cif.g09.slc.cpg/sg13_11_cif.got.tgz:20928.got - 2010.06.28 04:50:58.
