data_PCOD8118465
_publ_section_title
;
Structure prediction by ZEFSAII (Michael W. Deem and Ramdas Pophale) SiO2 
 PCOD8118465
Probable space group: P 2/C
;
_chemical_formula_sum "Si O2"
_cell_formula_units_Z 20
_cell_length_a 10.175432
_cell_length_b 11.037670
_cell_length_c 12.997137
_cell_angle_alpha 90.000000
_cell_angle_beta 137.718885
_cell_angle_gamma 90.000000
_cell_volume 982.072908
_symmetry_space_group_name_H-M "P 2/C"
_symmetry_group_IT_number 13
_symmetry_cell_setting 'monoclinic'
loop_
_space_group_symop_operation_xyz
x,y,z
-x,y,1/2-z
-x,-y,-z
x,-y,1/2+z
loop_
_atom_site_type_symbol
_atom_site_label
_atom_site_fract_x
_atom_site_fract_y
_atom_site_fract_z
Si Si1 0.710669 0.694470 0.334989
Si Si2 0.212252 0.434033 0.422541
Si Si3 0.546766 0.076819 0.429855
Si Si4 0.220199 0.977296 0.102857
Si Si5 0.591896 0.663156 0.044545
O O1 0.500000 0.655659 0.250000
O O2 0.838373 0.617971 0.491583
O O3 0.735265 0.837607 0.354398
O O4 0.732173 0.656766 0.227591
O O5 0.323076 0.564167 0.486012
O O6 0.363272 0.350103 0.444609
O O7 0.000000 0.441139 0.250000
O O8 0.606578 0.212208 0.492246
O O9 0.500000 0.000000 0.500000
O O10 0.356183 0.067649 0.247528
O O11 0.736322 0.013181 0.489315
O O12 0.000000 0.000000 0.000000
#
# Coordination Sequence:
#
# PCOD8118465 Si02
#       5
#     4   4   4   4   4
#     4  10  19  43  63  84 134 168 208 273 339 379
#     4  10  23  40  63  94 124 174 223 270 325 387
#     4  11  21  44  66  91 131 173 213 265 336 391
#     4  11  24  39  64 102 126 168 219 272 330 391
#     4  10  22  42  64  89 127 174 216 269 327 396
#
# _framework density 20.365088
#
# number of rings (size 3 to 8) (size 9 to 14) (size 15 to 20)
#    0.000    1.600    4.000    1.200    2.800    3.200 
#   18.000    0.000    0.000    0.000    0.000    0.000 
#    0.000    0.000    0.000    0.000    0.000    0.000 
#
# Total GULP energy -247801.479984 kJ/mol
# GULP energy per Si atom -12390.073999 kJ/mol
# Density = 2.031874 g / cm^3
# Si number density = 20.365088 Si / 1000 Ang^3
#
#
#
# Elastic Constant Matrix: (Units=GPa)
#
#
# Indices 1 2 3 4 5 6 
#
# 1 106.4021 23.3311 48.4114 0.0000 1.0934 0.0000
# 2 23.3311 108.1545 34.8641 0.0000 -18.7493 0.0000
# 3 48.4114 34.8641 90.2780 0.0000 1.2072 0.0000
# 4 0.0000 0.0000 0.0000 29.1056 0.0000 -13.8326
# 5 1.0934 -18.7493 1.2072 0.0000 35.2566 0.0000
# 6 0.0000 0.0000 0.0000 -13.8326 0.0000 22.5703
#
#
#
# Elastic Compliance Matrix: (Units=1/GPa)
#
#
# Indices 1 2 3 4 5 6 
#
# 1 0.012476 -0.000723 -0.006404 0.000000 -0.000552 0.000000
# 2 -0.000723 0.011917 -0.004301 0.000000 0.006507 0.000000
# 3 -0.006404 -0.004301 0.016207 0.000000 -0.002644 0.000000
# 4 0.000000 0.000000 0.000000 0.048478 0.000000 0.029710
# 5 -0.000552 0.006507 -0.002644 0.000000 0.031931 0.000000
# 6 0.000000 0.000000 0.000000 0.029710 0.000000 0.062514
#
#
# Mechanical properties :
#
#
# Convention : Reuss Voigt Hill
#
# Bulk Modulus (GPa) = 56.35672 57.56086 56.95879
# Shear Modulus (GPa) = 23.55224 30.60171 27.07697
#
# Velocity S-wave (km/s) = 3.40443 3.88062 3.65029
# Velocity P-wave (km/s) = 6.57166 6.95735 6.76726
#
# Compressibility (1/GPa) = 0.01774411
#
# Stress axis : x y z
#
# Youngs Moduli (GPa) = 80.15335 83.91704 61.70020
#
# Poissons Ratio (x) = 0.06065 0.39511
# Poissons Ratio (y) = 0.05793 0.26540
# Poissons Ratio (z) = 0.51328 0.36096
#
# Static dielectric constant tensor:
#      x y z
#    x 3.753600 0.000000 -0.343520 
#    y 0.000000 3.309390 0.000000 
#    z -0.343520 0.000000 3.981020 
# 
# 
# High freq. dielectric constant tensor:
#      x y z
#    x 1.794430 0.000000 -0.011140 
#    y 0.000000 1.802470 0.000000 
#    z -0.011140 0.000000 1.789970 
# 
# From -- ./inp_files/29634.got.cif
#   From: 2010.06.25/outbox.cif.g09.slc.cpg/sg13_15_cif.got.tgz:29634.got - 2010.06.28 04:50:58.
