data_PCOD8118416
_publ_section_title
;
Structure prediction by ZEFSAII (Michael W. Deem and Ramdas Pophale) SiO2 
 PCOD8118416
Probable space group: P 2/C
;
_chemical_formula_sum "Si O2"
_cell_formula_units_Z 28
_cell_length_a 7.369287
_cell_length_b 11.109529
_cell_length_c 14.700400
_cell_angle_alpha 90.000000
_cell_angle_beta 113.250065
_cell_angle_gamma 90.000000
_cell_volume 1105.775313
_symmetry_space_group_name_H-M "P 2/C"
_symmetry_group_IT_number 13
_symmetry_cell_setting 'monoclinic'
loop_
_space_group_symop_operation_xyz
x,y,z
-x,y,1/2-z
-x,-y,-z
x,-y,1/2+z
loop_
_atom_site_type_symbol
_atom_site_label
_atom_site_fract_x
_atom_site_fract_y
_atom_site_fract_z
Si Si1 0.161080 0.831868 0.654304
Si Si2 0.285696 0.809596 0.879364
Si Si3 0.731841 0.594176 0.500786
Si Si4 0.337386 0.018474 0.049438
Si Si5 0.866954 0.651043 0.998476
Si Si6 0.520160 0.775161 0.357188
Si Si7 0.876498 0.162696 0.639300
O O1 0.265568 0.794704 0.767777
O O2 0.247845 0.956980 0.632484
O O3 0.246211 0.743605 0.590808
O O4 0.925540 0.842670 0.617401
O O5 0.448498 0.917244 0.928258
O O6 0.345604 0.677057 0.930478
O O7 0.706914 0.448674 0.505435
O O8 0.625137 0.645240 0.388994
O O9 0.968332 0.597459 0.535983
O O10 0.357581 0.872925 0.058182
O O11 0.182623 0.052610 0.938384
O O12 0.975423 0.729292 0.099817
O O13 0.500000 0.816293 0.250000
O O14 0.306022 0.765094 0.356530
O O15 0.000000 0.111483 0.750000
#
# Coordination Sequence:
#
# PCOD8118416 Si02
#       7
#     4   4   4   4   4   4   4
#     4   9  20  39  67 103 137 179 230 290 346 427
#     4  10  19  39  66 104 136 178 234 281 358 411
#     4  10  21  42  67  94 137 179 225 284 348 413
#     4  11  23  46  70  98 145 184 231 294 346 421
#     4   9  21  44  66  95 136 176 226 288 346 418
#     4  12  25  44  67 102 143 183 229 284 354 427
#     4  11  24  46  69  99 135 182 237 288 352 415
#
# _framework density 25.321598999999999
#
# number of rings (size 3 to 8) (size 9 to 14) (size 15 to 20)
#    0.000    1.714    1.429    2.571    0.000    0.571 
#   18.000    4.286    0.000    0.000    0.000    0.000 
#    0.000    0.000    0.000    0.000    0.000    0.000 
#
# Total GULP energy -346895.670562 kJ/mol
# GULP energy per Si atom -12389.131092 kJ/mol
# Density = 2.526397 g / cm^3
# Si number density = 25.321599 Si / 1000 Ang^3
#
#
#
# Elastic Constant Matrix: (Units=GPa)
#
#
# Indices 1 2 3 4 5 6 
#
# 1 34.3101 18.8223 19.6381 0.0000 -5.9754 0.0000
# 2 18.8223 105.0820 61.1768 0.0000 3.0438 0.0000
# 3 19.6381 61.1768 172.6163 0.0000 -2.1227 0.0000
# 4 0.0000 0.0000 0.0000 24.7850 0.0000 -0.2596
# 5 -5.9754 3.0438 -2.1227 0.0000 42.9301 0.0000
# 6 0.0000 0.0000 0.0000 -0.2596 0.0000 32.6069
#
#
#
# Elastic Compliance Matrix: (Units=1/GPa)
#
#
# Indices 1 2 3 4 5 6 
#
# 1 0.033936 -0.005054 -0.002008 0.000000 0.004982 0.000000
# 2 -0.005054 0.012791 -0.003981 0.000000 -0.001807 0.000000
# 3 -0.002008 -0.003981 0.007437 0.000000 0.000370 0.000000
# 4 0.000000 0.000000 0.000000 0.040350 0.000000 0.000321
# 5 0.004982 -0.001807 0.000370 0.000000 0.024134 0.000000
# 6 0.000000 0.000000 0.000000 0.000321 0.000000 0.030671
#
#
# Mechanical properties :
#
#
# Convention : Reuss Voigt Hill
#
# Bulk Modulus (GPa) = 31.17343 56.80921 43.99132
# Shear Modulus (GPa) = 27.45784 34.22247 30.84016
#
# Velocity S-wave (km/s) = 3.29654 3.68028 3.49368
# Velocity P-wave (km/s) = 5.17951 6.36734 5.80389
#
# Compressibility (1/GPa) = 0.03207860
#
# Stress axis : x y z
#
# Youngs Moduli (GPa) = 29.46757 78.17748 134.46206
#
# Poissons Ratio (x) = 0.39508 0.27006
# Poissons Ratio (y) = 0.14892 0.53525
# Poissons Ratio (z) = 0.05918 0.31120
#
# Static dielectric constant tensor:
#      x y z
#    x 4.701320 0.000000 -0.293480 
#    y 0.000000 4.943410 0.000000 
#    z -0.293480 0.000000 4.953360 
# 
# 
# High freq. dielectric constant tensor:
#      x y z
#    x 2.025050 0.000000 -0.016650 
#    y 0.000000 2.005560 0.000000 
#    z -0.016650 0.000000 2.007940 
# 
# From -- ./inp_files/47329.got.cif
#   From: 2010.06.25/outbox.cif.g09.slc.cpg/sg13_24_cif.got.tgz:47329.got - 2010.06.28 04:50:58.
