data_PCOD8118318
_publ_section_title
;
Structure prediction by ZEFSAII (Michael W. Deem and Ramdas Pophale) SiO2 
 PCOD8118318
Probable space group: P 2/C
;
_chemical_formula_sum "Si O2"
_cell_formula_units_Z 22
_cell_length_a 15.483339
_cell_length_b 9.496629
_cell_length_c 13.736556
_cell_angle_alpha 90.000000
_cell_angle_beta 31.867695
_cell_angle_gamma 90.000000
_cell_volume 1066.381561
_symmetry_space_group_name_H-M "P 2/C"
_symmetry_group_IT_number 13
_symmetry_cell_setting 'monoclinic'
loop_
_space_group_symop_operation_xyz
x,y,z
-x,y,1/2-z
-x,-y,-z
x,-y,1/2+z
loop_
_atom_site_type_symbol
_atom_site_label
_atom_site_fract_x
_atom_site_fract_y
_atom_site_fract_z
Si Si1 0.733873 0.493949 0.862214
Si Si2 0.494762 0.269168 0.365209
Si Si3 0.000000 0.567205 0.750000
Si Si4 0.677252 0.065748 0.844260
Si Si5 0.213179 0.226898 0.276657
Si Si6 0.138547 0.699162 0.424828
O O1 0.710336 0.662723 0.874342
O O2 0.783222 0.431920 0.708804
O O3 0.871274 0.469109 0.814643
O O4 0.559401 0.430893 0.063167
O O5 0.500000 0.230331 0.250000
O O6 0.341813 0.176490 0.550275
O O7 0.672826 0.233371 0.237147
O O8 0.098315 0.662123 0.575884
O O9 0.747095 0.160177 0.687280
O O10 0.792612 0.933086 0.759236
O O11 0.500000 0.000000 0.000000
O O12 0.027451 0.268605 0.476661
#
# Coordination Sequence:
#
# PCOD8118318 Si02
#       6
#     4   4   2   4   4   4
#     4  10  22  37  60  85 122 155 195 250 299 354
#     4  10  22  37  57  86 117 156 202 240 299 361
#     4  10  20  36  60  94 116 152 208 248 298 360
#     4   9  20  41  59  79 121 157 190 244 302 350
#     4  10  19  38  60  84 114 156 193 245 302 347
#     4  10  21  38  63  86 121 156 198 246 299 357
#
# _framework density 20.630514000000002
#
# number of rings (size 3 to 8) (size 9 to 14) (size 15 to 20)
#    0.000    2.182    0.000    3.273    5.091    0.000 
#   13.091    0.000    0.000    0.000    0.000    0.000 
#    0.000    0.000    0.000    0.000    0.000    0.000 
#
# Total GULP energy -272543.647685 kJ/mol
# GULP energy per Si atom -12388.347622 kJ/mol
# Density = 2.058356 g / cm^3
# Si number density = 20.630514 Si / 1000 Ang^3
#
#
#
# Elastic Constant Matrix: (Units=GPa)
#
#
# Indices 1 2 3 4 5 6 
#
# 1 90.4546 13.2075 32.7494 0.0000 11.7276 0.0000
# 2 13.2075 107.1153 28.4540 0.0000 10.0994 0.0000
# 3 32.7494 28.4540 89.9564 0.0000 12.9544 0.0000
# 4 0.0000 0.0000 0.0000 28.8285 0.0000 -11.5287
# 5 11.7276 10.0994 12.9544 0.0000 33.3534 0.0000
# 6 0.0000 0.0000 0.0000 -11.5287 0.0000 20.5656
#
#
#
# Elastic Compliance Matrix: (Units=1/GPa)
#
#
# Indices 1 2 3 4 5 6 
#
# 1 0.012996 -0.000203 -0.004256 0.000000 -0.002855 0.000000
# 2 -0.000203 0.010316 -0.002912 0.000000 -0.001921 0.000000
# 3 -0.004256 -0.002912 0.014029 0.000000 -0.003071 0.000000
# 4 0.000000 0.000000 0.000000 0.044711 0.000000 0.025064
# 5 -0.002855 -0.001921 -0.003071 0.000000 0.032760 0.000000
# 6 0.000000 0.000000 0.000000 0.025064 0.000000 0.062675
#
#
# Mechanical properties :
#
#
# Convention : Reuss Voigt Hill
#
# Bulk Modulus (GPa) = 44.25063 48.48314 46.36688
# Shear Modulus (GPa) = 25.02967 30.75719 27.89343
#
# Velocity S-wave (km/s) = 3.48693 3.86535 3.68101
# Velocity P-wave (km/s) = 6.14062 6.59341 6.37104
#
# Compressibility (1/GPa) = 0.02259855
#
# Stress axis : x y z
#
# Youngs Moduli (GPa) = 76.94711 96.94131 71.27908
#
# Poissons Ratio (x) = 0.01965 0.30337
# Poissons Ratio (y) = 0.01559 0.20760
# Poissons Ratio (z) = 0.32749 0.28234
#
# Static dielectric constant tensor:
#      x y z
#    x 3.549890 0.000000 -0.198600 
#    y 0.000000 4.582060 0.000000 
#    z -0.198600 0.000000 3.895350 
# 
# 
# High freq. dielectric constant tensor:
#      x y z
#    x 1.778760 0.000000 -0.014860 
#    y 0.000000 1.817410 0.000000 
#    z -0.014860 0.000000 1.807720 
# 
# From -- ./inp_files/45860.got.cif
#   From: 2010.06.25/outbox.cif.g09.slc.cpg/sg13_23_cif.got.tgz:45860.got - 2010.06.28 04:50:58.
