data_PCOD8118733
_publ_section_title
;
Structure prediction by ZEFSAII (Michael W. Deem and Ramdas Pophale) SiO2 
 PCOD8118733
Probable space group: P 2/C
;
_chemical_formula_sum "Si O2"
_cell_formula_units_Z 24
_cell_length_a 9.021787
_cell_length_b 18.787176
_cell_length_c 15.534502
_cell_angle_alpha 90.000000
_cell_angle_beta 150.997513
_cell_angle_gamma 90.000000
_cell_volume 1276.605304
_symmetry_space_group_name_H-M "P 2/C"
_symmetry_group_IT_number 13
_symmetry_cell_setting 'monoclinic'
loop_
_space_group_symop_operation_xyz
x,y,z
-x,y,1/2-z
-x,-y,-z
x,-y,1/2+z
loop_
_atom_site_type_symbol
_atom_site_label
_atom_site_fract_x
_atom_site_fract_y
_atom_site_fract_z
Si Si1 0.843568 0.327712 0.078883
Si Si2 0.137144 0.077831 0.063446
Si Si3 0.870621 0.331047 0.775445
Si Si4 0.280082 0.819063 0.055714
Si Si5 0.135656 0.422187 0.565875
Si Si6 0.881989 0.167067 0.781458
O O1 0.000000 0.335951 0.250000
O O2 0.489001 0.339038 0.914280
O O3 0.901916 0.250899 0.065642
O O4 0.979101 0.385153 0.080623
O O5 0.500000 0.074602 0.250000
O O6 0.980838 0.122331 0.061368
O O7 0.052977 0.115529 0.932724
O O8 0.000000 0.000000 0.000000
O O9 0.991568 0.378932 0.915927
O O10 0.969442 0.249505 0.843836
O O11 0.000000 0.358638 0.750000
O O12 0.500000 0.803228 0.250000
O O13 0.513947 0.844197 0.099658
O O14 0.500000 0.424340 0.750000
O O15 0.000000 0.500000 0.500000
O O16 0.000000 0.141788 0.750000
#
# Coordination Sequence:
#
# PCOD8118733 Si02
#       6
#     4   4   4   4   4   4
#     4  10  20  35  56  82 109 139 178 223 271 322
#     4  11  22  37  56  79 109 146 182 218 265 321
#     4   9  19  37  59  79 106 141 179 223 271 320
#     4   9  18  36  58  78 107 144 178 219 271 324
#     4  10  21  37  54  76 109 147 181 219 269 322
#     4   9  18  36  59  82 106 137 177 224 271 319
#
# _framework density 18.799859999999999
#
# number of rings (size 3 to 8) (size 9 to 14) (size 15 to 20)
#    0.000    2.333    0.000    5.000    0.000    6.000 
#    0.000    9.167    0.000    0.000    0.000    0.000 
#    0.000    0.000    0.000    0.000    0.000    0.000 
#
# Total GULP energy -297524.946977 kJ/mol
# GULP energy per Si atom -12396.872791 kJ/mol
# Density = 1.875707 g / cm^3
# Si number density = 18.799860 Si / 1000 Ang^3
#
#
#
# Elastic Constant Matrix: (Units=GPa)
#
#
# Indices 1 2 3 4 5 6 
#
# 1 161.0053 86.4339 44.1239 0.0000 -6.6652 0.0000
# 2 86.4339 148.3788 64.9934 0.0000 -10.8312 0.0000
# 3 44.1239 64.9934 79.3362 0.0000 -11.1757 0.0000
# 4 0.0000 0.0000 0.0000 25.1138 0.0000 12.3656
# 5 -6.6652 -10.8312 -11.1757 0.0000 33.2078 0.0000
# 6 0.0000 0.0000 0.0000 12.3656 0.0000 16.2602
#
#
#
# Elastic Compliance Matrix: (Units=1/GPa)
#
#
# Indices 1 2 3 4 5 6 
#
# 1 0.009101 -0.004813 -0.001137 0.000000 -0.000126 0.000000
# 2 -0.004813 0.013066 -0.007940 0.000000 0.000624 0.000000
# 3 -0.001137 -0.007940 0.020307 0.000000 0.004016 0.000000
# 4 0.000000 0.000000 0.000000 0.063654 0.000000 -0.048408
# 5 -0.000126 0.000624 0.004016 0.000000 0.031643 0.000000
# 6 0.000000 0.000000 0.000000 -0.048408 0.000000 0.098313
#
#
# Mechanical properties :
#
#
# Convention : Reuss Voigt Hill
#
# Bulk Modulus (GPa) = 68.04549 86.64698 77.34624
# Shear Modulus (GPa) = 18.60390 27.79430 23.19910
#
# Velocity S-wave (km/s) = 3.14917 3.84921 3.51665
# Velocity P-wave (km/s) = 7.03536 8.12062 7.59739
#
# Compressibility (1/GPa) = 0.01469605
#
# Stress axis : x y z
#
# Youngs Moduli (GPa) = 109.87827 76.53251 49.24495
#
# Poissons Ratio (x) = 0.36834 0.05597
# Poissons Ratio (y) = 0.52883 0.39098
# Poissons Ratio (z) = 0.12488 0.60763
#
# Static dielectric constant tensor:
#      x y z
#    x 3.871650 0.000000 0.061230 
#    y 0.000000 3.462750 0.000000 
#    z 0.061230 0.000000 3.179490 
# 
# 
# High freq. dielectric constant tensor:
#      x y z
#    x 1.750840 0.000000 0.002720 
#    y 0.000000 1.728720 0.000000 
#    z 0.002720 0.000000 1.705040 
# 
# From -- ./inp_files/48135.got.cif
#   From: 2010.06.25/outbox.cif.g09.slc.cpg/sg13_25_cif.got.tgz:48135.got - 2010.06.28 04:50:58.
