data_PCOD8118060
_publ_section_title
;
Structure prediction by ZEFSAII (Michael W. Deem and Ramdas Pophale) SiO2 
 PCOD8118060
Probable space group: P 2/C
;
_chemical_formula_sum "Si O2"
_cell_formula_units_Z 28
_cell_length_a 13.454523
_cell_length_b 9.580590
_cell_length_c 17.627987
_cell_angle_alpha 90.000000
_cell_angle_beta 41.623865
_cell_angle_gamma 90.000000
_cell_volume 1509.338873
_symmetry_space_group_name_H-M "P 2/C"
_symmetry_group_IT_number 13
_symmetry_cell_setting 'monoclinic'
loop_
_space_group_symop_operation_xyz
x,y,z
-x,y,1/2-z
-x,-y,-z
x,-y,1/2+z
loop_
_atom_site_type_symbol
_atom_site_label
_atom_site_fract_x
_atom_site_fract_y
_atom_site_fract_z
Si Si1 0.273925 0.609003 0.419374
Si Si2 0.663353 0.679491 0.688317
Si Si3 0.687931 0.409848 0.337574
Si Si4 0.377300 0.860639 0.259982
Si Si5 0.012678 0.715817 0.829118
Si Si6 0.507092 0.662015 0.078856
Si Si7 0.133677 0.085092 0.386334
O O1 0.257400 0.460967 0.387532
O O2 0.291150 0.729583 0.346874
O O3 0.420966 0.590624 0.387301
O O4 0.136847 0.648784 0.551839
O O5 0.500000 0.717942 0.750000
O O6 0.631434 0.669600 0.795718
O O7 0.790240 0.798543 0.601762
O O8 0.867507 0.410499 0.238060
O O9 0.630712 0.568821 0.372691
O O10 0.626574 0.320987 0.443825
O O11 0.500000 0.919377 0.250000
O O12 0.453104 0.813231 0.137534
O O13 0.265568 0.977221 0.294524
O O14 0.070923 0.846535 0.845136
O O15 0.000000 0.770061 0.750000
O O16 0.000000 0.000000 0.500000
#
# Coordination Sequence:
#
# PCOD8118060 Si02
#       7
#     4   4   4   4   4   4   4
#     4  11  19  37  66  87 118 151 201 246 299 357
#     4  11  21  38  59  94 117 150 198 255 299 345
#     4  10  20  34  59  90 121 150 190 251 296 355
#     4  10  20  38  63  92 115 159 203 244 293 361
#     4  11  23  39  60  85 121 164 197 240 305 362
#     4  10  19  35  61  88 121 149 200 244 299 351
#     4  11  24  40  59  85 124 162 205 241 297 360
#
# _framework density 18.551169999999999
#
# number of rings (size 3 to 8) (size 9 to 14) (size 15 to 20)
#    0.000    1.429    5.714    0.857    0.000    3.429 
#    0.000    4.286    0.000    0.000    0.000    0.000 
#    0.000    0.000    0.000    0.000    0.000    0.000 
#
# Total GULP energy -347054.695327 kJ/mol
# GULP energy per Si atom -12394.810547 kJ/mol
# Density = 1.850895 g / cm^3
# Si number density = 18.551170 Si / 1000 Ang^3
#
#
#
# Elastic Constant Matrix: (Units=GPa)
#
#
# Indices 1 2 3 4 5 6 
#
# 1 91.5731 45.4777 25.2689 0.0000 -0.1275 0.0000
# 2 45.4777 101.0853 37.6784 0.0000 -5.7275 0.0000
# 3 25.2689 37.6784 80.2876 0.0000 2.8107 0.0000
# 4 0.0000 0.0000 0.0000 27.4205 0.0000 -8.8836
# 5 -0.1275 -5.7275 2.8107 0.0000 34.5924 0.0000
# 6 0.0000 0.0000 0.0000 -8.8836 0.0000 31.8510
#
#
#
# Elastic Compliance Matrix: (Units=1/GPa)
#
#
# Indices 1 2 3 4 5 6 
#
# 1 0.014292 -0.005826 -0.001737 0.000000 -0.000771 0.000000
# 2 -0.005826 0.014576 -0.005105 0.000000 0.002807 0.000000
# 3 -0.001737 -0.005105 0.015471 0.000000 -0.002109 0.000000
# 4 0.000000 0.000000 0.000000 0.040092 0.000000 0.011182
# 5 -0.000771 0.002807 -0.002109 0.000000 0.029541 0.000000
# 6 0.000000 0.000000 0.000000 0.011182 0.000000 0.034515
#
#
# Mechanical properties :
#
#
# Convention : Reuss Voigt Hill
#
# Bulk Modulus (GPa) = 52.62304 54.42179 53.52242
# Shear Modulus (GPa) = 27.75362 29.74085 28.74723
#
# Velocity S-wave (km/s) = 3.87209 4.00832 3.94079
# Velocity P-wave (km/s) = 6.95836 7.12894 7.04417
#
# Compressibility (1/GPa) = 0.01900308
#
# Stress axis : x y z
#
# Youngs Moduli (GPa) = 69.96993 68.60817 64.63556
#
# Poissons Ratio (x) = 0.39972 0.11227
# Poissons Ratio (y) = 0.40765 0.32995
# Poissons Ratio (z) = 0.12154 0.35023
#
# Static dielectric constant tensor:
#      x y z
#    x 3.609980 0.000000 -0.067820 
#    y 0.000000 3.330080 0.000000 
#    z -0.067820 0.000000 3.557990 
# 
# 
# High freq. dielectric constant tensor:
#      x y z
#    x 1.726190 0.000000 -0.006690 
#    y 0.000000 1.700100 0.000000 
#    z -0.006690 0.000000 1.726770 
# 
# From -- ./inp_files/68155.got.cif
#   From: 2010.06.25/outbox.cif.g09.slc.cpg/sg13_35_cif.got.tgz:68155.got - 2010.06.28 04:50:58.
