data_PCOD8118713
_publ_section_title
;
Structure prediction by ZEFSAII (Michael W. Deem and Ramdas Pophale) SiO2 
 PCOD8118713
Probable space group: P 2/C
;
_chemical_formula_sum "Si O2"
_cell_formula_units_Z 32
_cell_length_a 9.513199
_cell_length_b 11.144852
_cell_length_c 16.244928
_cell_angle_alpha 90.000000
_cell_angle_beta 90.000609
_cell_angle_gamma 90.000000
_cell_volume 1722.339167
_symmetry_space_group_name_H-M "P 2/C"
_symmetry_group_IT_number 13
_symmetry_cell_setting 'monoclinic'
loop_
_space_group_symop_operation_xyz
x,y,z
-x,y,1/2-z
-x,-y,-z
x,-y,1/2+z
loop_
_atom_site_type_symbol
_atom_site_label
_atom_site_fract_x
_atom_site_fract_y
_atom_site_fract_z
Si Si1 0.343372 0.315977 0.058184
Si Si2 0.166961 0.918945 0.922120
Si Si3 0.166573 0.967922 0.250005
Si Si4 0.343244 0.684016 0.941903
Si Si5 0.656832 0.431199 0.619327
Si Si6 0.167002 0.918940 0.577892
Si Si7 0.833731 0.302866 0.749947
Si Si8 0.343292 0.431213 0.619421
O O1 0.500075 0.263295 0.072880
O O2 0.229532 0.213064 0.069611
O O3 0.313553 0.425829 0.120478
O O4 0.332432 0.373295 0.969254
O O5 0.229418 0.786928 0.930437
O O6 0.999979 0.907824 0.922855
O O7 0.221814 0.970965 0.834499
O O8 0.216917 0.000011 0.999999
O O9 0.222973 0.832694 0.250002
O O10 0.000000 0.970865 0.250000
O O11 0.221833 0.029017 0.165511
O O12 0.313370 0.574147 0.879624
O O13 0.332289 0.626852 0.030886
O O14 0.777951 0.369032 0.670283
O O15 0.500093 0.408531 0.655512
O O16 0.777752 0.369240 0.829469
O O17 0.000000 0.307452 0.750000
#
# Coordination Sequence:
#
# PCOD8118713 Si02
#       8
#     4   4   4   4   4   4   4   4
#     4   9  19  36  56  77 103 138 178 216 261 320
#     4  10  20  35  55  77 107 145 178 219 272 315
#     4   9  20  36  51  74 108 141 176 217 266 325
#     4   9  19  36  56  77 103 138 178 216 261 320
#     4   9  19  36  55  76 106 139 169 214 272 317
#     4  10  20  35  55  77 107 145 178 219 272 315
#     4  11  21  34  55  80 104 135 178 219 258 315
#     4   9  19  36  55  76 106 139 169 214 272 317
#
# _framework density 18.579384999999998
#
# number of rings (size 3 to 8) (size 9 to 14) (size 15 to 20)
#    0.000    2.500    0.000    3.375    0.000    5.500 
#    0.000    8.125    0.000    0.000    0.000    0.000 
#    0.000    0.000    0.000    0.000    0.000    0.000 
#
# Total GULP energy -396652.306103 kJ/mol
# GULP energy per Si atom -12395.384566 kJ/mol
# Density = 1.853710 g / cm^3
# Si number density = 18.579385 Si / 1000 Ang^3
#
#
#
# Elastic Constant Matrix: (Units=GPa)
#
#
# Indices 1 2 3 4 5 6 
#
# 1 58.0322 51.8489 27.8638 0.0000 -0.0120 0.0000
# 2 51.8489 136.8339 53.4406 0.0000 -0.0157 0.0000
# 3 27.8638 53.4406 99.0532 0.0000 -0.0589 0.0000
# 4 0.0000 0.0000 0.0000 50.8191 0.0000 -0.1118
# 5 -0.0120 -0.0157 -0.0589 0.0000 25.3244 0.0000
# 6 0.0000 0.0000 0.0000 -0.1118 0.0000 35.2020
#
#
#
# Elastic Compliance Matrix: (Units=1/GPa)
#
#
# Indices 1 2 3 4 5 6 
#
# 1 0.026565 -0.009055 -0.002587 0.000000 0.000001 0.000000
# 2 -0.009055 0.012346 -0.004114 0.000000 -0.000006 0.000000
# 3 -0.002587 -0.004114 0.013043 0.000000 0.000027 0.000000
# 4 0.000000 0.000000 0.000000 0.019678 0.000000 0.000062
# 5 0.000001 -0.000006 0.000027 0.000000 0.039488 0.000000
# 6 0.000000 0.000000 0.000000 0.000062 0.000000 0.028408
#
#
# Mechanical properties :
#
#
# Convention : Reuss Voigt Hill
#
# Bulk Modulus (GPa) = 48.92111 62.24731 55.58421
# Shear Modulus (GPa) = 28.11325 32.98683 30.55004
#
# Velocity S-wave (km/s) = 3.89413 4.21818 4.05939
# Velocity P-wave (km/s) = 6.82694 7.56969 7.20789
#
# Compressibility (1/GPa) = 0.02044107
#
# Stress axis : x y z
#
# Youngs Moduli (GPa) = 37.64415 80.99848 76.67148
#
# Poissons Ratio (x) = 0.73347 0.19836
# Poissons Ratio (y) = 0.34088 0.31539
# Poissons Ratio (z) = 0.09739 0.33319
#
# Static dielectric constant tensor:
#      x y z
#    x 3.259840 0.000000 -0.002170 
#    y 0.000000 3.569250 0.000000 
#    z -0.002170 0.000000 3.390430 
# 
# 
# High freq. dielectric constant tensor:
#      x y z
#    x 1.705600 0.000000 0.000000 
#    y 0.000000 1.728600 0.000000 
#    z 0.000000 0.000000 1.726590 
# 
# From -- ./inp_files/47264.got.cif
#   From: 2010.06.25/outbox.cif.g09.slc.cpg/sg13_24_cif.got.tgz:47264.got - 2010.06.28 04:50:58.
