data_PCOD8118483
_publ_section_title
;
Structure prediction by ZEFSAII (Michael W. Deem and Ramdas Pophale) SiO2 
 PCOD8118483
Probable space group: P 2/C
;
_chemical_formula_sum "Si O2"
_cell_formula_units_Z 26
_cell_length_a 9.457700
_cell_length_b 10.724750
_cell_length_c 14.682735
_cell_angle_alpha 90.000000
_cell_angle_beta 64.571298
_cell_angle_gamma 90.000000
_cell_volume 1345.009276
_symmetry_space_group_name_H-M "P 2/C"
_symmetry_group_IT_number 13
_symmetry_cell_setting 'monoclinic'
loop_
_space_group_symop_operation_xyz
x,y,z
-x,y,1/2-z
-x,-y,-z
x,-y,1/2+z
loop_
_atom_site_type_symbol
_atom_site_label
_atom_site_fract_x
_atom_site_fract_y
_atom_site_fract_z
Si Si1 0.347054 0.623243 0.014401
Si Si2 0.242394 0.004864 0.058570
Si Si3 0.045857 0.223492 0.638149
Si Si4 0.253380 0.829401 0.385962
Si Si5 0.500000 0.994574 0.250000
Si Si6 0.518688 0.852579 0.919711
Si Si7 0.545238 0.406523 0.631519
O O1 0.487554 0.705336 0.931165
O O2 0.336935 0.505634 0.948632
O O3 0.179893 0.691127 0.057180
O O4 0.391511 0.593987 0.108010
O O5 0.298009 0.118266 0.109099
O O6 0.094501 0.923079 0.131230
O O7 0.201061 0.068014 0.974090
O O8 0.392989 0.912788 0.024432
O O9 0.000000 0.273265 0.750000
O O10 0.896178 0.237935 0.614817
O O11 0.348626 0.904252 0.281043
O O12 0.368996 0.726968 0.397776
O O13 0.528431 0.088131 0.161449
O O14 0.500000 0.438110 0.750000
#
# Coordination Sequence:
#
# PCOD8118483 Si02
#       7
#     4   4   4   4   2   4   4
#     4  10  23  40  57  89 114 155 205 249 292 341
#     4   9  18  32  54  80 116 147 183 240 290 346
#     4  11  22  35  58  85 120 154 192 240 299 355
#     4  11  20  35  57  86 116 151 194 238 293 358
#     4  10  20  30  58  90 114 148 196 228 296 362
#     4   9  17  33  55  82 115 147 187 241 288 344
#     4  11  22  39  65  83 114 156 205 250 288 353
#
# _framework density 19.330722999999999
#
# number of rings (size 3 to 8) (size 9 to 14) (size 15 to 20)
#    0.000    1.846    2.308    2.308    3.231    0.615 
#    0.000    0.000    0.000    0.923    0.000    0.000 
#    0.000    0.000    0.000    0.000    0.000    0.000 
#
# Total GULP energy -322139.259553 kJ/mol
# GULP energy per Si atom -12389.971521 kJ/mol
# Density = 1.928673 g / cm^3
# Si number density = 19.330723 Si / 1000 Ang^3
#
#
#
# Elastic Constant Matrix: (Units=GPa)
#
#
# Indices 1 2 3 4 5 6 
#
# 1 76.3563 5.4803 24.7510 0.0000 4.7603 0.0000
# 2 5.4803 68.2809 35.5864 0.0000 2.4690 0.0000
# 3 24.7510 35.5864 74.9793 0.0000 1.2856 0.0000
# 4 0.0000 0.0000 0.0000 28.4366 0.0000 0.2812
# 5 4.7603 2.4690 1.2856 0.0000 20.5872 0.0000
# 6 0.0000 0.0000 0.0000 0.2812 0.0000 19.4893
#
#
#
# Elastic Compliance Matrix: (Units=1/GPa)
#
#
# Indices 1 2 3 4 5 6 
#
# 1 0.015059 0.001958 -0.005843 0.000000 -0.003352 0.000000
# 2 0.001958 0.019777 -0.009995 0.000000 -0.002200 0.000000
# 3 -0.005843 -0.009995 0.019987 0.000000 0.001302 0.000000
# 4 0.000000 0.000000 0.000000 0.035171 0.000000 -0.000507
# 5 -0.003352 -0.002200 0.001302 0.000000 0.049531 0.000000
# 6 0.000000 0.000000 0.000000 -0.000507 0.000000 0.051318
#
#
# Mechanical properties :
#
#
# Convention : Reuss Voigt Hill
#
# Bulk Modulus (GPa) = 36.95080 39.02797 37.98939
# Shear Modulus (GPa) = 21.96605 23.95587 22.96096
#
# Velocity S-wave (km/s) = 3.37460 3.52414 3.45018
# Velocity P-wave (km/s) = 5.86008 6.06571 5.96378
#
# Compressibility (1/GPa) = 0.02706301
#
# Stress axis : x y z
#
# Youngs Moduli (GPa) = 66.40603 50.56389 50.03212
#
# Poissons Ratio (x) = -0.09898 0.29232
# Poissons Ratio (y) = -0.13000 0.50007
# Poissons Ratio (z) = 0.38799 0.50538
#
# Static dielectric constant tensor:
#      x y z
#    x 3.478690 0.000000 -0.143550 
#    y 0.000000 3.654290 0.000000 
#    z -0.143550 0.000000 3.679620 
# 
# 
# High freq. dielectric constant tensor:
#      x y z
#    x 1.744180 0.000000 0.011850 
#    y 0.000000 1.748230 0.000000 
#    z 0.011850 0.000000 1.736110 
# 
# From -- ./inp_files/46696.got.cif
#   From: 2010.06.25/outbox.cif.g09.slc.cpg/sg13_24_cif.got.tgz:46696.got - 2010.06.28 04:50:58.
