data_PCOD8118620
_publ_section_title
;
Structure prediction by ZEFSAII (Michael W. Deem and Ramdas Pophale) SiO2 
 PCOD8118620
Probable space group: P 2/C
;
_chemical_formula_sum "Si O2"
_cell_formula_units_Z 28
_cell_length_a 8.843659
_cell_length_b 34.270447
_cell_length_c 5.033006
_cell_angle_alpha 90.000000
_cell_angle_beta 120.120808
_cell_angle_gamma 90.000000
_cell_volume 1319.410283
_symmetry_space_group_name_H-M "P 2/C"
_symmetry_group_IT_number 13
_symmetry_cell_setting 'monoclinic'
loop_
_space_group_symop_operation_xyz
x,y,z
-x,y,1/2-z
-x,-y,-z
x,-y,1/2+z
loop_
_atom_site_type_symbol
_atom_site_label
_atom_site_fract_x
_atom_site_fract_y
_atom_site_fract_z
Si Si1 0.202714 0.520569 0.382305
Si Si2 0.200480 0.025174 0.926001
Si Si3 0.806243 0.196984 0.056022
Si Si4 0.618079 0.318658 0.605076
Si Si5 0.706851 0.757949 0.964428
Si Si6 0.500000 0.085485 0.250000
Si Si7 0.619065 0.596194 0.109971
Si Si8 0.500000 0.138380 0.750000
O O1 0.288320 0.509078 0.740325
O O2 0.228718 0.565043 0.310605
O O3 0.000000 0.512583 0.250000
O O4 0.000000 0.040004 0.750000
O O5 0.237799 0.010521 0.660914
O O6 0.326800 0.059636 0.132143
O O7 0.791536 0.233291 0.251668
O O8 0.000000 0.178910 0.250000
O O9 0.777217 0.210181 0.729389
O O10 0.663851 0.164150 0.992155
O O11 0.500000 0.303755 0.750000
O O12 0.754276 0.284772 0.632098
O O13 0.705644 0.360834 0.748719
O O14 0.500000 0.327352 0.250000
O O15 0.500000 0.760834 0.750000
O O16 0.545517 0.111656 0.542319
O O17 0.500000 0.582989 0.250000
O O18 0.500000 0.597592 0.750000
#
# Coordination Sequence:
#
# PCOD8118620 Si02
#       8
#     4   4   4   4   4   2   4   2
#     4  10  21  36  52  72 103 147 188 221 276 340
#     4  10  21  39  64  95 129 164 208 262 317 369
#     4  12  25  42  63  90 123 160 211 265 309 368
#     4   9  18  32  56  88 112 145 181 230 300 360
#     4  11  19  39  66  86 115 156 201 245 308 377
#     4  12  24  39  66  90 126 168 218 254 312 379
#     4  10  20  34  54  82 112 136 181 231 281 342
#     4  12  26  43  60  90 126 172 210 262 316 373
#
# _framework density 21.221603999999999
#
# number of rings (size 3 to 8) (size 9 to 14) (size 15 to 20)
#    0.000    1.429    1.429    5.143    0.000    2.857 
#    0.000    1.429    0.000    1.714    0.000    0.000 
#    0.000    0.000    0.000    0.000    0.000    0.000 
#
# Total GULP energy -347003.200203 kJ/mol
# GULP energy per Si atom -12392.971436 kJ/mol
# Density = 2.117330 g / cm^3
# Si number density = 21.221604 Si / 1000 Ang^3
#
#
#
# Elastic Constant Matrix: (Units=GPa)
#
#
# Indices 1 2 3 4 5 6 
#
# 1 86.8538 46.3538 42.8231 0.0000 -6.7923 0.0000
# 2 46.3538 113.6159 25.4129 0.0000 2.1784 0.0000
# 3 42.8231 25.4129 90.2425 0.0000 -18.1992 0.0000
# 4 0.0000 0.0000 0.0000 26.2262 0.0000 -9.0360
# 5 -6.7923 2.1784 -18.1992 0.0000 40.9234 0.0000
# 6 0.0000 0.0000 0.0000 -9.0360 0.0000 17.1452
#
#
#
# Elastic Compliance Matrix: (Units=1/GPa)
#
#
# Indices 1 2 3 4 5 6 
#
# 1 0.018025 -0.005824 -0.006863 0.000000 0.000250 0.000000
# 2 -0.005824 0.011403 -0.000840 0.000000 -0.001947 0.000000
# 3 -0.006863 -0.000840 0.015768 0.000000 0.005918 0.000000
# 4 0.000000 0.000000 0.000000 0.046590 0.000000 0.024554
# 5 0.000250 -0.001947 0.005918 0.000000 0.027213 0.000000
# 6 0.000000 0.000000 0.000000 0.024554 0.000000 0.071266
#
#
# Mechanical properties :
#
#
# Convention : Reuss Voigt Hill
#
# Bulk Modulus (GPa) = 55.12133 57.76574 56.44354
# Shear Modulus (GPa) = 22.38478 28.60048 25.49263
#
# Velocity S-wave (km/s) = 3.25131 3.67509 3.46968
# Velocity P-wave (km/s) = 6.33445 6.72962 6.53502
#
# Compressibility (1/GPa) = 0.01814180
#
# Stress axis : x y z
#
# Youngs Moduli (GPa) = 55.47821 87.69737 63.41889
#
# Poissons Ratio (x) = 0.51072 0.43526
# Poissons Ratio (y) = 0.32309 0.05329
# Poissons Ratio (z) = 0.38076 0.07369
#
# Static dielectric constant tensor:
#      x y z
#    x 3.719220 0.000000 -0.317630 
#    y 0.000000 4.171020 0.000000 
#    z -0.317630 0.000000 4.058330 
# 
# 
# High freq. dielectric constant tensor:
#      x y z
#    x 1.815820 0.000000 -0.029870 
#    y 0.000000 1.831880 0.000000 
#    z -0.029870 0.000000 1.840940 
# 
# From -- ./inp_files/2761.got.cif
#   From: 2010.06.25/outbox.cif.g09.slc.cpg/sg13_2_cif.got.tgz:2761.got - 2010.06.28 04:50:58.
