data_PCOD8118259
_publ_section_title
;
Structure prediction by ZEFSAII (Michael W. Deem and Ramdas Pophale) SiO2 
 PCOD8118259
Probable space group: P 2/C
;
_chemical_formula_sum "Si O2"
_cell_formula_units_Z 24
_cell_length_a 21.555973
_cell_length_b 12.204531
_cell_length_c 12.840560
_cell_angle_alpha 90.000000
_cell_angle_beta 19.689229
_cell_angle_gamma 90.000000
_cell_volume 1138.144089
_symmetry_space_group_name_H-M "P 2/C"
_symmetry_group_IT_number 13
_symmetry_cell_setting 'monoclinic'
loop_
_space_group_symop_operation_xyz
x,y,z
-x,y,1/2-z
-x,-y,-z
x,-y,1/2+z
loop_
_atom_site_type_symbol
_atom_site_label
_atom_site_fract_x
_atom_site_fract_y
_atom_site_fract_z
Si Si1 0.310559 0.290239 0.631767
Si Si2 0.620900 0.083128 0.661257
Si Si3 0.799188 0.562250 0.021933
Si Si4 0.204172 0.337340 0.581236
Si Si5 0.918651 0.734298 0.681739
Si Si6 0.413065 0.854710 0.691743
O O1 0.347803 0.332388 0.453765
O O2 0.430062 0.186152 0.476238
O O3 0.333870 0.391786 0.676433
O O4 0.098723 0.244128 0.969194
O O5 0.500000 0.071457 0.750000
O O6 0.804459 0.153809 0.345789
O O7 0.676825 0.964566 0.618445
O O8 0.495155 0.137878 0.947466
O O9 0.744269 0.443648 0.066181
O O10 0.786803 0.646476 0.945434
O O11 0.000000 0.548673 0.750000
O O12 0.247647 0.232128 0.441920
O O13 0.993150 0.323836 0.956244
#
# Coordination Sequence:
#
# PCOD8118259 Si02
#       6
#     4   4   4   4   4   4
#     4   9  20  39  65  90 125 165 211 244 319 373
#     4  11  24  43  64  88 129 163 205 260 315 361
#     4  10  19  37  62  90 124 164 204 256 304 372
#     4  10  22  36  64  94 123 162 208 254 309 370
#     4   9  21  39  64  89 121 166 207 245 313 374
#     4  11  23  44  62  92 126 163 207 263 305 370
#
# _framework density 21.086960000000001
#
# number of rings (size 3 to 8) (size 9 to 14) (size 15 to 20)
#    1.000    1.000    1.667    2.000    0.000    2.667 
#    0.000    0.000    0.000    0.000    0.000    0.000 
#    0.000    0.000    0.000    0.000    0.000    0.000 
#
# Total GULP energy -297362.105989 kJ/mol
# GULP energy per Si atom -12390.087750 kJ/mol
# Density = 2.103897 g / cm^3
# Si number density = 21.086960 Si / 1000 Ang^3
#
#
#
# Elastic Constant Matrix: (Units=GPa)
#
#
# Indices 1 2 3 4 5 6 
#
# 1 61.9500 21.6313 18.4975 0.0000 20.4366 0.0000
# 2 21.6313 122.3172 34.2544 0.0000 21.2298 0.0000
# 3 18.4975 34.2544 32.6921 0.0000 13.5845 0.0000
# 4 0.0000 0.0000 0.0000 33.0904 0.0000 -3.9574
# 5 20.4366 21.2298 13.5845 0.0000 27.1227 0.0000
# 6 0.0000 0.0000 0.0000 -3.9574 0.0000 31.6952
#
#
#
# Elastic Compliance Matrix: (Units=1/GPa)
#
#
# Indices 1 2 3 4 5 6 
#
# 1 0.022794 0.000516 -0.007745 0.000000 -0.013699 0.000000
# 2 0.000516 0.011896 -0.011019 0.000000 -0.004181 0.000000
# 3 -0.007745 -0.011019 0.051153 0.000000 -0.011160 0.000000
# 4 0.000000 0.000000 0.000000 0.030678 0.000000 0.003830
# 5 -0.013699 -0.004181 -0.011160 0.000000 0.056054 0.000000
# 6 0.000000 0.000000 0.000000 0.003830 0.000000 0.032029
#
#
# Mechanical properties :
#
#
# Convention : Reuss Voigt Hill
#
# Bulk Modulus (GPa) = 20.26463 40.63617 30.45040
# Shear Modulus (GPa) = 19.41391 27.88673 23.65032
#
# Velocity S-wave (km/s) = 3.03753 3.64051 3.35261
# Velocity P-wave (km/s) = 4.68327 6.08142 5.42756
#
# Compressibility (1/GPa) = 0.04934707
#
# Stress axis : x y z
#
# Youngs Moduli (GPa) = 43.87172 84.06454 19.54929
#
# Poissons Ratio (x) = -0.04334 0.15140
# Poissons Ratio (y) = -0.02262 0.21540
# Poissons Ratio (z) = 0.33977 0.92627
#
# Static dielectric constant tensor:
#      x y z
#    x 3.756770 0.000000 0.285430 
#    y 0.000000 3.804040 0.000000 
#    z 0.285430 0.000000 3.822870 
# 
# 
# High freq. dielectric constant tensor:
#      x y z
#    x 1.816070 0.000000 0.021960 
#    y 0.000000 1.822090 0.000000 
#    z 0.021960 0.000000 1.825010 
# 
# From -- ./inp_files/58876.got.cif
#   From: 2010.06.25/outbox.cif.g09.slc.cpg/sg13_30_cif.got.tgz:58876.got - 2010.06.28 04:50:58.
