data_PCOD8118164
_publ_section_title
;
Structure prediction by ZEFSAII (Michael W. Deem and Ramdas Pophale) SiO2 
 PCOD8118164
Probable space group: P 2/C
;
_chemical_formula_sum "Si O2"
_cell_formula_units_Z 30
_cell_length_a 9.195048
_cell_length_b 8.506761
_cell_length_c 19.812657
_cell_angle_alpha 90.000000
_cell_angle_beta 99.505826
_cell_angle_gamma 90.000000
_cell_volume 1528.467659
_symmetry_space_group_name_H-M "P 2/C"
_symmetry_group_IT_number 13
_symmetry_cell_setting 'monoclinic'
loop_
_space_group_symop_operation_xyz
x,y,z
-x,y,1/2-z
-x,-y,-z
x,-y,1/2+z
loop_
_atom_site_type_symbol
_atom_site_label
_atom_site_fract_x
_atom_site_fract_y
_atom_site_fract_z
Si Si1 0.776215 0.355454 0.540358
Si Si2 0.046158 0.854110 0.544840
Si Si3 0.169367 0.427996 0.262673
Si Si4 0.625446 0.323840 0.660731
Si Si5 0.292074 0.817595 0.668393
Si Si6 0.500000 0.933562 0.250000
Si Si7 0.524251 0.382532 0.415455
Si Si8 0.206141 0.320017 0.407038
O O1 0.896866 0.268744 0.505667
O O2 0.716681 0.260193 0.601986
O O3 0.640116 0.409037 0.483527
O O4 0.856421 0.510338 0.574778
O O5 0.168553 0.893143 0.610310
O O6 0.891762 0.810360 0.566489
O O7 0.000000 0.000000 0.500000
O O8 0.268523 0.585636 0.277637
O O9 0.214190 0.327124 0.200915
O O10 0.195086 0.307176 0.325666
O O11 0.000000 0.482626 0.250000
O O12 0.547326 0.176842 0.690837
O O13 0.507426 0.451639 0.624223
O O14 0.423307 0.744064 0.635177
O O15 0.360979 0.956514 0.719235
O O16 0.378728 0.307437 0.438985
#
# Coordination Sequence:
#
# PCOD8118164 Si02
#       8
#     4   4   4   4   4   2   4   4
#     4   9  20  38  61  86 114 150 199 249 292 341
#     4  11  24  39  55  85 122 159 197 234 298 358
#     4  10  19  39  63  84 113 154 206 238 291 354
#     4  10  21  37  61  92 115 146 193 259 296 332
#     4  11  23  40  60  87 119 166 196 233 293 371
#     4  12  24  40  56  94 128 154 196 244 308 350
#     4   9  19  38  66  85 112 154 208 239 287 352
#     4  10  19  36  61  87 110 149 195 252 289 338
#
# _framework density 19.627500999999999
#
# number of rings (size 3 to 8) (size 9 to 14) (size 15 to 20)
#    0.000    2.133    1.333    4.400    0.000    4.267 
#    4.800    2.667    0.000    0.000    0.000    0.000 
#    0.000    0.000    0.000    0.000    0.000    0.000 
#
# Total GULP energy -371819.780203 kJ/mol
# GULP energy per Si atom -12393.992673 kJ/mol
# Density = 1.958283 g / cm^3
# Si number density = 19.627501 Si / 1000 Ang^3
#
#
#
# Elastic Constant Matrix: (Units=GPa)
#
#
# Indices 1 2 3 4 5 6 
#
# 1 90.5191 39.9909 23.3100 0.0000 -4.1469 0.0000
# 2 39.9909 58.6865 30.0994 0.0000 5.6685 0.0000
# 3 23.3100 30.0994 81.7518 0.0000 1.1554 0.0000
# 4 0.0000 0.0000 0.0000 32.7557 0.0000 -4.5315
# 5 -4.1469 5.6685 1.1554 0.0000 25.2254 0.0000
# 6 0.0000 0.0000 0.0000 -4.5315 0.0000 17.6475
#
#
#
# Elastic Compliance Matrix: (Units=1/GPa)
#
#
# Indices 1 2 3 4 5 6 
#
# 1 0.016504 -0.011474 -0.000556 0.000000 0.005317 0.000000
# 2 -0.011474 0.029477 -0.007466 0.000000 -0.008168 0.000000
# 3 -0.000556 -0.007466 0.015127 0.000000 0.000893 0.000000
# 4 0.000000 0.000000 0.000000 0.031653 0.000000 0.008128
# 5 0.005317 -0.008168 0.000893 0.000000 0.042311 0.000000
# 6 0.000000 0.000000 0.000000 0.008128 0.000000 0.058752
#
#
# Mechanical properties :
#
#
# Convention : Reuss Voigt Hill
#
# Bulk Modulus (GPa) = 45.21876 46.41756 45.81816
# Shear Modulus (GPa) = 20.81704 24.29620 22.55662
#
# Velocity S-wave (km/s) = 3.26023 3.52215 3.39372
# Velocity P-wave (km/s) = 6.10415 6.34360 6.22503
#
# Compressibility (1/GPa) = 0.02211472
#
# Stress axis : x y z
#
# Youngs Moduli (GPa) = 60.59304 33.92512 66.10797
#
# Poissons Ratio (x) = 0.38927 0.03677
# Poissons Ratio (y) = 0.69527 0.49353
# Poissons Ratio (z) = 0.03370 0.25327
#
# Static dielectric constant tensor:
#      x y z
#    x 3.805410 0.000000 -0.024530 
#    y 0.000000 3.097860 0.000000 
#    z -0.024530 0.000000 3.749150 
# 
# 
# High freq. dielectric constant tensor:
#      x y z
#    x 1.773030 0.000000 -0.005630 
#    y 0.000000 1.738140 0.000000 
#    z -0.005630 0.000000 1.780460 
# 
# From -- ./inp_files/75727.got.cif
#   From: 2010.06.25/outbox.cif.g09.slc.cpg/sg13_38_cif.got.tgz:75727.got - 2010.06.28 04:50:58.
