data_PCOD8118670
_publ_section_title
;
Structure prediction by ZEFSAII (Michael W. Deem and Ramdas Pophale) SiO2 
 PCOD8118670
Probable space group: P 2/C
;
_chemical_formula_sum "Si O2"
_cell_formula_units_Z 26
_cell_length_a 19.261760
_cell_length_b 8.857468
_cell_length_c 8.973844
_cell_angle_alpha 90.000000
_cell_angle_beta 58.310151
_cell_angle_gamma 90.000000
_cell_volume 1302.760969
_symmetry_space_group_name_H-M "P 2/C"
_symmetry_group_IT_number 13
_symmetry_cell_setting 'monoclinic'
loop_
_space_group_symop_operation_xyz
x,y,z
-x,y,1/2-z
-x,-y,-z
x,-y,1/2+z
loop_
_atom_site_type_symbol
_atom_site_label
_atom_site_fract_x
_atom_site_fract_y
_atom_site_fract_z
Si Si1 0.784973 0.613491 0.703590
Si Si2 0.891100 0.126019 0.122448
Si Si3 0.439315 0.520828 0.698194
Si Si4 0.000000 0.010132 0.250000
Si Si5 0.334045 0.197213 0.348918
Si Si6 0.724077 0.941815 0.275999
Si Si7 0.727268 0.645076 0.099933
O O1 0.870710 0.696086 0.633655
O O2 0.740960 0.699773 0.617664
O O3 0.793517 0.443980 0.629425
O O4 0.735547 0.618473 0.914292
O O5 0.938314 0.111931 0.224796
O O6 0.810093 0.021856 0.217091
O O7 0.948430 0.093420 0.918534
O O8 0.500000 0.454191 0.750000
O O9 0.500000 0.500000 0.500000
O O10 0.414107 0.696465 0.757340
O O11 0.361952 0.414388 0.756021
O O12 0.315952 0.133672 0.534085
O O13 0.340365 0.061040 0.221609
O O14 0.738950 0.819282 0.128812
#
# Coordination Sequence:
#
# PCOD8118670 Si02
#       7
#     4   4   4   2   4   4   4
#     4  10  20  36  57  84 112 147 199 238 286 333
#     4  10  20  36  59  85 114 151 186 241 288 349
#     4  11  22  39  57  80 118 156 190 235 301 356
#     4  10  20  34  58  88 118 148 190 226 300 360
#     4  10  21  36  57  86 112 148 196 243 283 346
#     4  11  20  37  62  88 117 147 201 250 287 327
#     4  11  21  36  61  86 111 152 200 247 285 351
#
# _framework density 19.957612999999998
#
# number of rings (size 3 to 8) (size 9 to 14) (size 15 to 20)
#    0.000    1.538    0.000    9.231    0.000    0.000 
#    0.000    3.846    0.000   15.692    0.000    0.000 
#    0.000    0.000    0.000    0.000    0.000    0.000 
#
# Total GULP energy -322167.505983 kJ/mol
# GULP energy per Si atom -12391.057922 kJ/mol
# Density = 1.991219 g / cm^3
# Si number density = 19.957613 Si / 1000 Ang^3
#
#
#
# Elastic Constant Matrix: (Units=GPa)
#
#
# Indices 1 2 3 4 5 6 
#
# 1 90.8951 26.6116 17.5521 0.0000 1.5100 0.0000
# 2 26.6116 76.4564 -0.5166 0.0000 -8.5460 0.0000
# 3 17.5521 -0.5166 64.6891 0.0000 12.5701 0.0000
# 4 0.0000 0.0000 0.0000 29.7839 0.0000 11.2126
# 5 1.5100 -8.5460 12.5701 0.0000 31.8464 0.0000
# 6 0.0000 0.0000 0.0000 11.2126 0.0000 -1.3317
#
#
#
# Elastic Compliance Matrix: (Units=1/GPa)
#
#
# Indices 1 2 3 4 5 6 
#
# 1 0.013032 -0.004613 -0.003479 0.000000 -0.000483 0.000000
# 2 -0.004613 0.015142 0.000586 0.000000 0.004051 0.000000
# 3 -0.003479 0.000586 0.017702 0.000000 -0.006665 0.000000
# 4 0.000000 0.000000 0.000000 0.008052 0.000000 0.067796
# 5 -0.000483 0.004051 -0.006665 0.000000 0.035142 0.000000
# 6 0.000000 0.000000 0.000000 0.067796 0.000000 -0.180086
#
#
# Mechanical properties :
#
#
# Convention : Reuss Voigt Hill
#
# Bulk Modulus (GPa) = 32.40188 35.48165 33.94176
# Shear Modulus (GPa) = -76.08657 24.61929 -25.73364
#
# Velocity S-wave (km/s) = -6.18117 3.51604 -3.59474
# Velocity P-wave (km/s) = 5.88828 5.85666 0.43090
#
# Compressibility (1/GPa) = 0.03086241
#
# Stress axis : x y z
#
# Youngs Moduli (GPa) = 76.73279 66.04195 56.48964
#
# Poissons Ratio (x) = 0.30468 0.19653
# Poissons Ratio (y) = 0.35401 -0.03308
# Poissons Ratio (z) = 0.26696 -0.03867
#
# Static dielectric constant tensor:
#      x y z
#    x 3.804810 0.000000 0.163950 
#    y 0.000000 4.288930 0.000000 
#    z 0.163950 0.000000 3.592730 
# 
# 
# High freq. dielectric constant tensor:
#      x y z
#    x 1.776050 0.000000 0.026880 
#    y 0.000000 1.777760 0.000000 
#    z 0.026880 0.000000 1.784460 
# 
# From -- ./inp_files/21098.got.cif
#   From: 2010.06.25/outbox.cif.g09.slc.cpg/sg13_11_cif.got.tgz:21098.got - 2010.06.28 04:50:58.
