data_PCOD8118247
_publ_section_title
;
Structure prediction by ZEFSAII (Michael W. Deem and Ramdas Pophale) SiO2 
 PCOD8118247
Probable space group: P 2/C
;
_chemical_formula_sum "Si O2"
_cell_formula_units_Z 24
_cell_length_a 12.427427
_cell_length_b 8.151388
_cell_length_c 18.369807
_cell_angle_alpha 90.000000
_cell_angle_beta 41.908316
_cell_angle_gamma 90.000000
_cell_volume 1242.954436
_symmetry_space_group_name_H-M "P 2/C"
_symmetry_group_IT_number 13
_symmetry_cell_setting 'monoclinic'
loop_
_space_group_symop_operation_xyz
x,y,z
-x,y,1/2-z
-x,-y,-z
x,-y,1/2+z
loop_
_atom_site_type_symbol
_atom_site_label
_atom_site_fract_x
_atom_site_fract_y
_atom_site_fract_z
Si Si1 0.764392 0.350252 0.263031
Si Si2 0.504828 0.187094 0.478681
Si Si3 0.500000 0.114108 0.750000
Si Si4 0.316487 0.799010 0.840630
Si Si5 0.000000 0.478781 0.750000
Si Si6 0.259096 0.642954 0.011656
Si Si7 0.486076 0.375140 0.630343
O O1 0.682936 0.241965 0.366894
O O2 0.787133 0.236062 0.180485
O O3 0.658702 0.499199 0.283521
O O4 0.925000 0.413152 0.222040
O O5 0.390275 0.221195 0.468294
O O6 0.443312 0.298893 0.574574
O O7 0.500000 0.000000 0.500000
O O8 0.489373 0.229048 0.685695
O O9 0.340735 0.997029 0.835339
O O10 0.500000 0.719549 0.750000
O O11 0.206119 0.717766 0.960201
O O12 0.875867 0.364610 0.857345
O O13 0.340465 0.464623 0.959846
#
# Coordination Sequence:
#
# PCOD8118247 Si02
#       7
#     4   4   2   4   2   4   4
#     4  11  21  38  61  92 120 164 207 255 298 373
#     4  11  19  34  62  89 114 152 211 264 305 342
#     4  10  20  34  66  98 118 144 206 294 308 338
#     4  10  19  37  61  92 120 148 208 269 313 341
#     4  12  24  40  58  88 140 168 206 232 308 384
#     4  11  21  38  61  92 120 164 207 255 298 373
#     4  11  17  34  60  89 111 154 217 255 298 349
#
# _framework density 19.308833
#
# number of rings (size 3 to 8) (size 9 to 14) (size 15 to 20)
#    0.500    0.667    6.667    4.000    0.000    0.667 
#    0.000    0.833    0.000    2.000    0.000    0.000 
#    0.000    0.000    0.000    0.000    0.000    0.000 
#
# Total GULP energy -297388.391511 kJ/mol
# GULP energy per Si atom -12391.182980 kJ/mol
# Density = 1.926489 g / cm^3
# Si number density = 19.308833 Si / 1000 Ang^3
#
#
#
# Elastic Constant Matrix: (Units=GPa)
#
#
# Indices 1 2 3 4 5 6 
#
# 1 83.9493 32.1627 26.8172 0.0000 19.9905 0.0000
# 2 32.1627 120.6149 30.6193 0.0000 11.6136 0.0000
# 3 26.8172 30.6193 74.6280 0.0000 13.8640 0.0000
# 4 0.0000 0.0000 0.0000 19.3498 0.0000 21.3757
# 5 19.9905 11.6136 13.8640 0.0000 32.5057 0.0000
# 6 0.0000 0.0000 0.0000 21.3757 0.0000 26.8463
#
#
#
# Elastic Compliance Matrix: (Units=1/GPa)
#
#
# Indices 1 2 3 4 5 6 
#
# 1 0.015701 -0.002672 -0.003181 0.000000 -0.007344 0.000000
# 2 -0.002672 0.009811 -0.002953 0.000000 -0.000602 0.000000
# 3 -0.003181 -0.002953 0.016503 0.000000 -0.004027 0.000000
# 4 0.000000 0.000000 0.000000 0.429201 0.000000 -0.341741
# 5 -0.007344 -0.000602 -0.004027 0.000000 0.037213 0.000000
# 6 0.000000 0.000000 0.000000 -0.341741 0.000000 0.309352
#
#
# Mechanical properties :
#
#
# Convention : Reuss Voigt Hill
#
# Bulk Modulus (GPa) = 40.98122 50.93229 45.95675
# Shear Modulus (GPa) = 5.92749 28.37990 17.15369
#
# Velocity S-wave (km/s) = 1.75399 3.83794 2.98381
# Velocity P-wave (km/s) = 5.03708 6.78783 5.97691
#
# Compressibility (1/GPa) = 0.02440142
#
# Stress axis : x y z
#
# Youngs Moduli (GPa) = 63.69135 101.92554 60.59563
#
# Poissons Ratio (x) = 0.27234 0.19278
# Poissons Ratio (y) = 0.17018 0.17896
# Poissons Ratio (z) = 0.20262 0.30102
#
# Static dielectric constant tensor:
#      x y z
#    x 3.490350 0.000000 0.407980 
#    y 0.000000 3.220700 0.000000 
#    z 0.407980 0.000000 3.557090 
# 
# 
# High freq. dielectric constant tensor:
#      x y z
#    x 1.739290 0.000000 0.040070 
#    y 0.000000 1.748920 0.000000 
#    z 0.040070 0.000000 1.736720 
# 
# From -- ./inp_files/65951.got.cif
#   From: 2010.06.25/outbox.cif.g09.slc.cpg/sg13_33_cif.got.tgz:65951.got - 2010.06.28 04:50:58.
