data_PCOD8118961
_publ_section_title
;
Structure prediction by ZEFSAII (Michael W. Deem and Ramdas Pophale) SiO2 
 PCOD8118961
Probable space group: P 2/C
;
_chemical_formula_sum "Si O2"
_cell_formula_units_Z 26
_cell_length_a 8.718335
_cell_length_b 11.739507
_cell_length_c 19.135920
_cell_angle_alpha 90.000000
_cell_angle_beta 40.859965
_cell_angle_gamma 90.000000
_cell_volume 1281.302286
_symmetry_space_group_name_H-M "P 2/C"
_symmetry_group_IT_number 13
_symmetry_cell_setting 'monoclinic'
loop_
_space_group_symop_operation_xyz
x,y,z
-x,y,1/2-z
-x,-y,-z
x,-y,1/2+z
loop_
_atom_site_type_symbol
_atom_site_label
_atom_site_fract_x
_atom_site_fract_y
_atom_site_fract_z
Si Si1 0.500000 0.691981 0.750000
Si Si2 0.748138 0.113550 0.862480
Si Si3 0.911646 0.162870 0.062163
Si Si4 0.710093 0.000587 0.021941
Si Si5 0.634474 0.519236 0.594166
Si Si6 0.237276 0.361614 0.696213
Si Si7 0.919988 0.356812 0.595383
O O1 0.261076 0.764551 0.829570
O O2 0.489517 0.617343 0.683502
O O3 0.716181 0.248627 0.864932
O O4 0.000000 0.070730 0.750000
O O5 0.730431 0.086122 0.950204
O O6 0.551044 0.049762 0.885323
O O7 0.101983 0.102642 0.046748
O O8 0.046100 0.240777 0.959380
O O9 0.752426 0.069421 0.078251
O O10 0.454165 0.446908 0.609396
O O11 0.748994 0.439141 0.612606
O O12 0.832657 0.577412 0.477380
O O13 0.202831 0.327223 0.789229
O O14 0.000000 0.421425 0.750000
#
# Coordination Sequence:
#
# PCOD8118961 Si02
#       7
#     2   4   4   4   4   4   4
#     4  10  20  36  60  86 122 152 196 252 298 350
#     4  10  22  39  61  83 121 158 195 239 300 359
#     4  10  21  36  61  89 117 151 202 252 298 345
#     4  10  22  40  58  90 117 155 200 251 297 350
#     4  10  20  37  60  87 120 155 196 247 294 343
#     4  11  21  36  60  88 117 159 195 239 292 362
#     4  10  20  37  62  87 118 154 199 247 292 352
#
# _framework density 20.291855000000002
#
# number of rings (size 3 to 8) (size 9 to 14) (size 15 to 20)
#    0.000    1.846    1.538    2.769    2.154    0.615 
#    0.000    0.000    6.769    0.000    0.000    0.000 
#    0.000    0.000    0.000    0.000    0.000    0.000 
#
# Total GULP energy -322458.765393 kJ/mol
# GULP energy per Si atom -12402.260207 kJ/mol
# Density = 2.024567 g / cm^3
# Si number density = 20.291855 Si / 1000 Ang^3
#
#
#
# Elastic Constant Matrix: (Units=GPa)
#
#
# Indices 1 2 3 4 5 6 
#
# 1 97.5894 49.0967 32.8272 0.0000 -27.6569 0.0000
# 2 49.0967 109.8185 40.8439 0.0000 -21.5446 0.0000
# 3 32.8272 40.8439 62.1613 0.0000 -29.4333 0.0000
# 4 0.0000 0.0000 0.0000 25.6696 0.0000 -7.0246
# 5 -27.6569 -21.5446 -29.4333 0.0000 29.1703 0.0000
# 6 0.0000 0.0000 0.0000 -7.0246 0.0000 31.6401
#
#
#
# Elastic Compliance Matrix: (Units=1/GPa)
#
#
# Indices 1 2 3 4 5 6 
#
# 1 0.015978 -0.004982 0.000510 0.000000 0.011984 0.000000
# 2 -0.004982 0.013651 -0.007279 0.000000 -0.001986 0.000000
# 3 0.000510 -0.007279 0.035011 0.000000 0.030434 0.000000
# 4 0.000000 0.000000 0.000000 0.041477 0.000000 0.009208
# 5 0.011984 -0.001986 0.030434 0.000000 0.074886 0.000000
# 6 0.000000 0.000000 0.000000 0.009208 0.000000 0.033650
#
#
# Mechanical properties :
#
#
# Convention : Reuss Voigt Hill
#
# Bulk Modulus (GPa) = 24.30804 57.23389 40.77096
# Shear Modulus (GPa) = 19.85176 27.08275 23.46726
#
# Velocity S-wave (km/s) = 3.13119 3.65726 3.40440
# Velocity P-wave (km/s) = 5.00776 6.78975 5.96567
#
# Compressibility (1/GPa) = 0.04113865
#
# Stress axis : x y z
#
# Youngs Moduli (GPa) = 62.58530 73.25592 28.56235
#
# Poissons Ratio (x) = 0.36496 -0.01456
# Poissons Ratio (y) = 0.31180 0.20790
# Poissons Ratio (z) = -0.03191 0.53321
#
# Static dielectric constant tensor:
#      x y z
#    x 3.662180 0.000000 -0.285450 
#    y 0.000000 3.852730 0.000000 
#    z -0.285450 0.000000 3.685110 
# 
# 
# High freq. dielectric constant tensor:
#      x y z
#    x 1.784450 0.000000 -0.017620 
#    y 0.000000 1.798340 0.000000 
#    z -0.017620 0.000000 1.791220 
# 
# From -- ./inp_files/76388.got.cif
#   From: 2010.06.25/outbox.cif.g09.slc.cpg/sg13_39_cif.got.tgz:76388.got - 2010.06.28 04:50:58.
