data_PCOD8118364
_publ_section_title
;
Structure prediction by ZEFSAII (Michael W. Deem and Ramdas Pophale) SiO2 
 PCOD8118364
Probable space group: P 2/C
;
_chemical_formula_sum "Si O2"
_cell_formula_units_Z 28
_cell_length_a 15.066176
_cell_length_b 13.773274
_cell_length_c 8.843834
_cell_angle_alpha 90.000000
_cell_angle_beta 130.791855
_cell_angle_gamma 90.000000
_cell_volume 1389.399480
_symmetry_space_group_name_H-M "P 2/C"
_symmetry_group_IT_number 13
_symmetry_cell_setting 'monoclinic'
loop_
_space_group_symop_operation_xyz
x,y,z
-x,y,1/2-z
-x,-y,-z
x,-y,1/2+z
loop_
_atom_site_type_symbol
_atom_site_label
_atom_site_fract_x
_atom_site_fract_y
_atom_site_fract_z
Si Si1 0.000000 0.965457 0.250000
Si Si2 0.500000 0.624867 0.750000
Si Si3 0.362938 0.272854 0.618282
Si Si4 0.838215 0.858148 0.576798
Si Si5 0.993132 0.192520 0.988766
Si Si6 0.688423 0.568029 0.185779
Si Si7 0.107444 0.368496 0.796872
Si Si8 0.304082 0.352107 0.232994
O O1 0.976910 0.901433 0.077665
O O2 0.117515 0.030891 0.352422
O O3 0.417622 0.558616 0.551836
O O4 0.583595 0.690579 0.735145
O O5 0.500000 0.254799 0.750000
O O6 0.300802 0.166682 0.567253
O O7 0.333867 0.341055 0.728489
O O8 0.307456 0.323211 0.409751
O O9 0.874286 0.825235 0.449768
O O10 0.900335 0.792301 0.775063
O O11 0.971731 0.285697 0.865271
O O12 0.812892 0.576772 0.236854
O O13 0.691478 0.469232 0.283303
O O14 0.000000 0.434439 0.750000
O O15 0.186853 0.318232 0.016798
#
# Coordination Sequence:
#
# PCOD8118364 Si02
#       8
#     2   2   4   4   4   4   4   4
#     4  10  20  38  72  92 108 150 196 246 294 348
#     4  10  20  38  62  80 110 152 228 258 272 326
#     4  12  23  37  59  89 125 160 193 252 300 341
#     4  10  21  37  58  94 120 143 190 242 304 357
#     4  10  19  38  65  91 115 147 197 249 289 346
#     4  11  23  39  58  85 120 164 210 253 286 337
#     4  11  22  39  58  87 122 159 198 246 302 354
#     4  11  24  37  59  86 118 165 212 246 289 336
#
# _framework density 20.152591000000001
#
# number of rings (size 3 to 8) (size 9 to 14) (size 15 to 20)
#    0.000    1.429    3.571    4.714    2.000    0.571 
#    0.000    1.429    0.000    3.429    7.429    0.000 
#    0.000    0.000    0.000    0.000    0.000    0.000 
#
# Total GULP energy -346900.569731 kJ/mol
# GULP energy per Si atom -12389.306062 kJ/mol
# Density = 2.010672 g / cm^3
# Si number density = 20.152591 Si / 1000 Ang^3
#
#
#
# Elastic Constant Matrix: (Units=GPa)
#
#
# Indices 1 2 3 4 5 6 
#
# 1 151.9541 21.8501 53.4957 0.0000 16.4239 0.0000
# 2 21.8501 58.1007 19.9689 0.0000 3.9877 0.0000
# 3 53.4957 19.9689 81.5885 0.0000 -9.7994 0.0000
# 4 0.0000 0.0000 0.0000 16.9464 0.0000 -4.1958
# 5 16.4239 3.9877 -9.7994 0.0000 37.1688 0.0000
# 6 0.0000 0.0000 0.0000 -4.1958 0.0000 17.6702
#
#
#
# Elastic Compliance Matrix: (Units=1/GPa)
#
#
# Indices 1 2 3 4 5 6 
#
# 1 0.009809 -0.000886 -0.006944 0.000000 -0.006070 0.000000
# 2 -0.000886 0.019281 -0.004482 0.000000 -0.002859 0.000000
# 3 -0.006944 -0.004482 0.018932 0.000000 0.008540 0.000000
# 4 0.000000 0.000000 0.000000 0.062696 0.000000 0.014887
# 5 -0.006070 -0.002859 0.008540 0.000000 0.032145 0.000000
# 6 0.000000 0.000000 0.000000 0.014887 0.000000 0.060127
#
#
# Mechanical properties :
#
#
# Convention : Reuss Voigt Hill
#
# Bulk Modulus (GPa) = 42.73529 53.58588 48.16058
# Shear Modulus (GPa) = 21.23933 27.44566 24.34250
#
# Velocity S-wave (km/s) = 3.24994 3.69439 3.47927
# Velocity P-wave (km/s) = 5.94430 6.69670 6.33169
#
# Compressibility (1/GPa) = 0.02339986
#
# Stress axis : x y z
#
# Youngs Moduli (GPa) = 101.94797 51.86415 52.82016
#
# Poissons Ratio (x) = 0.04594 0.36677
# Poissons Ratio (y) = 0.09030 0.23672
# Poissons Ratio (z) = 0.70790 0.23244
#
# Static dielectric constant tensor:
#      x y z
#    x 4.090050 0.000000 -0.079580 
#    y 0.000000 3.211180 0.000000 
#    z -0.079580 0.000000 3.823880 
# 
# 
# High freq. dielectric constant tensor:
#      x y z
#    x 1.812710 0.000000 -0.016520 
#    y 0.000000 1.731490 0.000000 
#    z -0.016520 0.000000 1.801460 
# 
# From -- ./inp_files/19725.got.cif
#   From: 2010.06.25/outbox.cif.g09.slc.cpg/sg13_10_cif.got.tgz:19725.got - 2010.06.28 04:50:58.
