data_PCOD8118540
_publ_section_title
;
Structure prediction by ZEFSAII (Michael W. Deem and Ramdas Pophale) SiO2 
 PCOD8118540
Probable space group: P 2/C
;
_chemical_formula_sum "Si O2"
_cell_formula_units_Z 30
_cell_length_a 16.513264
_cell_length_b 13.281003
_cell_length_c 8.781322
_cell_angle_alpha 90.000000
_cell_angle_beta 60.530630
_cell_angle_gamma 90.000000
_cell_volume 1676.686052
_symmetry_space_group_name_H-M "P 2/C"
_symmetry_group_IT_number 13
_symmetry_cell_setting 'monoclinic'
loop_
_space_group_symop_operation_xyz
x,y,z
-x,y,1/2-z
-x,-y,-z
x,-y,1/2+z
loop_
_atom_site_type_symbol
_atom_site_label
_atom_site_fract_x
_atom_site_fract_y
_atom_site_fract_z
Si Si1 0.900089 0.421694 0.279834
Si Si2 0.212510 0.380937 0.596645
Si Si3 0.412180 0.568954 0.926522
Si Si4 0.789422 0.711408 0.089938
Si Si5 0.927679 0.138482 0.574826
Si Si6 0.000000 0.003473 0.750000
Si Si7 0.060565 0.684546 0.053345
Si Si8 0.407454 0.638309 0.275167
O O1 0.828249 0.508086 0.394740
O O2 0.856879 0.318350 0.388611
O O3 0.000000 0.447831 0.250000
O O4 0.915945 0.404266 0.085872
O O5 0.320745 0.371927 0.452903
O O6 0.198386 0.370774 0.789992
O O7 0.159529 0.293790 0.547127
O O8 0.500000 0.610593 0.750000
O O9 0.393501 0.451201 0.910701
O O10 0.426360 0.587129 0.093291
O O11 0.826583 0.815728 0.128905
O O12 0.680379 0.714872 0.142330
O O13 0.947490 0.064754 0.418156
O O14 0.010431 0.221737 0.517081
O O15 0.924690 0.075051 0.734156
O O16 0.000000 0.640551 0.250000
O O17 0.500000 0.697455 0.250000
#
# Coordination Sequence:
#
# PCOD8118540 Si02
#       8
#     4   4   4   4   4   2   4   4
#     4  12  22  31  48  71 108 148 189 211 247 298
#     4  11  22  33  48  73 104 154 185 219 254 285
#     4  10  20  33  50  68 101 141 198 226 251 291
#     4  11  21  36  51  77 107 136 181 223 254 304
#     4  11  20  39  53  81 100 136 166 214 265 322
#     4  10  22  36  62  72 104 132 166 202 272 342
#     4  12  22  35  51  72 110 139 179 220 254 299
#     4  10  20  34  52  72 102 141 183 227 261 289
#
# _framework density 17.892437999999999
#
# number of rings (size 3 to 8) (size 9 to 14) (size 15 to 20)
#    0.000    1.067    4.667    3.600    1.867    2.667 
#    0.000    0.000    0.000    0.000    0.000    0.933 
#    0.000    4.267    0.000    0.267    0.000    0.000 
#
# Total GULP energy -371683.908419 kJ/mol
# GULP energy per Si atom -12389.463614 kJ/mol
# Density = 1.785171 g / cm^3
# Si number density = 17.892438 Si / 1000 Ang^3
#
#
#
# Elastic Constant Matrix: (Units=GPa)
#
#
# Indices 1 2 3 4 5 6 
#
# 1 167.9425 49.6260 50.1835 0.0000 -6.2568 0.0000
# 2 49.6260 57.8645 31.5985 0.0000 -5.8937 0.0000
# 3 50.1835 31.5985 92.2070 0.0000 -0.4707 0.0000
# 4 0.0000 0.0000 0.0000 11.0076 0.0000 6.7280
# 5 -6.2568 -5.8937 -0.4707 0.0000 25.0820 0.0000
# 6 0.0000 0.0000 0.0000 6.7280 0.0000 24.7367
#
#
#
# Elastic Compliance Matrix: (Units=1/GPa)
#
#
# Indices 1 2 3 4 5 6 
#
# 1 0.008467 -0.005751 -0.002634 0.000000 0.000711 0.000000
# 2 -0.005751 0.025776 -0.005680 0.000000 0.004515 0.000000
# 3 -0.002634 -0.005680 0.014216 0.000000 -0.001725 0.000000
# 4 0.000000 0.000000 0.000000 0.108959 0.000000 -0.029635
# 5 0.000711 0.004515 -0.001725 0.000000 0.041075 0.000000
# 6 0.000000 0.000000 0.000000 -0.029635 0.000000 0.048486
#
#
# Mechanical properties :
#
#
# Convention : Reuss Voigt Hill
#
# Bulk Modulus (GPa) = 49.18981 64.53668 56.86324
# Shear Modulus (GPa) = 17.73765 24.60568 21.17166
#
# Velocity S-wave (km/s) = 3.15199 3.71239 3.44361
# Velocity P-wave (km/s) = 6.38736 7.38399 6.90368
#
# Compressibility (1/GPa) = 0.02032942
#
# Stress axis : x y z
#
# Youngs Moduli (GPa) = 118.10048 38.79636 70.34166
#
# Poissons Ratio (x) = 0.22312 0.18527
# Poissons Ratio (y) = 0.67920 0.39954
# Poissons Ratio (z) = 0.31106 0.22036
#
# Static dielectric constant tensor:
#      x y z
#    x 3.809620 0.000000 0.122100 
#    y 0.000000 2.996990 0.000000 
#    z 0.122100 0.000000 3.545320 
# 
# 
# High freq. dielectric constant tensor:
#      x y z
#    x 1.708060 0.000000 0.018680 
#    y 0.000000 1.635880 0.000000 
#    z 0.018680 0.000000 1.700530 
# 
# From -- ./inp_files/21720.got.cif
#   From: 2010.06.25/outbox.cif.g09.slc.cpg/sg13_11_cif.got.tgz:21720.got - 2010.06.28 04:50:58.
