data_PCOD8118345
_publ_section_title
;
Structure prediction by ZEFSAII (Michael W. Deem and Ramdas Pophale) SiO2 
 PCOD8118345
Probable space group: P 2/C
;
_chemical_formula_sum "Si O2"
_cell_formula_units_Z 26
_cell_length_a 14.313052
_cell_length_b 9.107967
_cell_length_c 14.001231
_cell_angle_alpha 90.000000
_cell_angle_beta 139.450547
_cell_angle_gamma 90.000000
_cell_volume 1186.595893
_symmetry_space_group_name_H-M "P 2/C"
_symmetry_group_IT_number 13
_symmetry_cell_setting 'monoclinic'
loop_
_space_group_symop_operation_xyz
x,y,z
-x,y,1/2-z
-x,-y,-z
x,-y,1/2+z
loop_
_atom_site_type_symbol
_atom_site_label
_atom_site_fract_x
_atom_site_fract_y
_atom_site_fract_z
Si Si1 0.372289 0.700864 0.037827
Si Si2 0.807867 0.658102 0.258283
Si Si3 0.737410 0.656167 0.751535
Si Si4 0.318570 0.835308 0.183389
Si Si5 0.000000 0.209281 0.750000
Si Si6 0.247577 0.847383 0.571692
Si Si7 0.417852 0.633800 0.569167
O O1 0.277167 0.771807 0.047542
O O2 0.527504 0.779254 0.159424
O O3 0.379396 0.530419 0.071124
O O4 0.289854 0.727058 0.873804
O O5 0.826887 0.494842 0.315821
O O6 0.805047 0.781489 0.339032
O O7 0.929785 0.685020 0.274534
O O8 0.651654 0.665893 0.087307
O O9 0.822218 0.762804 0.890597
O O10 0.586717 0.637115 0.687798
O O11 0.322617 0.010444 0.175182
O O12 0.880233 0.111576 0.602518
O O13 0.365302 0.749099 0.607787
#
# Coordination Sequence:
#
# PCOD8118345 Si02
#       7
#     4   4   4   4   2   4   4
#     4  10  21  36  60  97 137 157 201 248 337 390
#     4  10  20  42  68  88 129 167 220 255 323 358
#     4  11  20  37  64  98 123 165 199 270 324 390
#     4  11  22  37  58  97 131 174 197 260 309 401
#     4  10  26  48  62  86 122 180 226 276 288 370
#     4  11  26  38  63  92 131 170 220 252 321 364
#     4  10  19  38  62  97 129 167 193 267 321 394
#
# _framework density 21.911418000000001
#
# number of rings (size 3 to 8) (size 9 to 14) (size 15 to 20)
#    0.000    1.538    3.077    2.308    6.462    4.308 
#    0.000    0.000    0.000    5.538    0.000    0.000 
#    0.000    0.000    0.000    0.000    0.000    0.000 
#
# Total GULP energy -322249.456121 kJ/mol
# GULP energy per Si atom -12394.209851 kJ/mol
# Density = 2.186155 g / cm^3
# Si number density = 21.911418 Si / 1000 Ang^3
#
#
#
# Elastic Constant Matrix: (Units=GPa)
#
#
# Indices 1 2 3 4 5 6 
#
# 1 127.2535 60.0386 25.5423 0.0000 -22.9184 0.0000
# 2 60.0386 140.9246 23.5765 0.0000 -21.5516 0.0000
# 3 25.5423 23.5765 69.8446 0.0000 -17.8058 0.0000
# 4 0.0000 0.0000 0.0000 22.6048 0.0000 -10.3566
# 5 -22.9184 -21.5516 -17.8058 0.0000 38.7903 0.0000
# 6 0.0000 0.0000 0.0000 -10.3566 0.0000 14.2148
#
#
#
# Elastic Compliance Matrix: (Units=1/GPa)
#
#
# Indices 1 2 3 4 5 6 
#
# 1 0.010560 -0.003688 -0.001754 0.000000 0.003385 0.000000
# 2 -0.003688 0.009230 -0.001150 0.000000 0.002421 0.000000
# 3 -0.001754 -0.001150 0.016897 0.000000 0.006081 0.000000
# 4 0.000000 0.000000 0.000000 0.066404 0.000000 0.048381
# 5 0.003385 0.002421 0.006081 0.000000 0.031916 0.000000
# 6 0.000000 0.000000 0.000000 0.048381 0.000000 0.105598
#
#
# Mechanical properties :
#
#
# Convention : Reuss Voigt Hill
#
# Bulk Modulus (GPa) = 42.54548 61.81528 52.18038
# Shear Modulus (GPa) = 19.11144 30.37966 24.74555
#
# Velocity S-wave (km/s) = 2.95653 3.72758 3.36422
# Velocity P-wave (km/s) = 5.57799 6.84099 6.24152
#
# Compressibility (1/GPa) = 0.02350426
#
# Stress axis : x y z
#
# Youngs Moduli (GPa) = 94.69747 108.34533 59.18090
#
# Poissons Ratio (x) = 0.39955 0.10380
# Poissons Ratio (y) = 0.34922 0.06804
# Poissons Ratio (z) = 0.16610 0.12456
#
# Static dielectric constant tensor:
#      x y z
#    x 4.058460 0.000000 -0.466100 
#    y 0.000000 3.816280 0.000000 
#    z -0.466100 0.000000 4.165220 
# 
# 
# High freq. dielectric constant tensor:
#      x y z
#    x 1.865300 0.000000 -0.032610 
#    y 0.000000 1.845150 0.000000 
#    z -0.032610 0.000000 1.855760 
# 
# From -- ./inp_files/53256.got.cif
#   From: 2010.06.25/outbox.cif.g09.slc.cpg/sg13_27_cif.got.tgz:53256.got - 2010.06.28 04:50:58.
