data_PCOD8118441
_publ_section_title
;
Structure prediction by ZEFSAII (Michael W. Deem and Ramdas Pophale) SiO2 
 PCOD8118441
Probable space group: P 2/C
;
_chemical_formula_sum "Si O2"
_cell_formula_units_Z 24
_cell_length_a 26.576936
_cell_length_b 4.755745
_cell_length_c 13.058002
_cell_angle_alpha 90.000000
_cell_angle_beta 34.101804
_cell_angle_gamma 90.000000
_cell_volume 925.345034
_symmetry_space_group_name_H-M "P 2/C"
_symmetry_group_IT_number 13
_symmetry_cell_setting 'monoclinic'
loop_
_space_group_symop_operation_xyz
x,y,z
-x,y,1/2-z
-x,-y,-z
x,-y,1/2+z
loop_
_atom_site_type_symbol
_atom_site_label
_atom_site_fract_x
_atom_site_fract_y
_atom_site_fract_z
Si Si1 0.028427 0.662394 0.550761
Si Si2 0.285836 0.383813 0.013925
Si Si3 0.321541 0.593761 0.685224
Si Si4 0.402139 0.877353 0.149699
Si Si5 0.165020 0.895387 0.182089
Si Si6 0.129111 0.493757 0.071058
O O1 0.092962 0.907975 0.398062
O O2 0.085459 0.464837 0.532395
O O3 0.000000 0.500000 0.500000
O O4 0.933250 0.749850 0.766817
O O5 0.310420 0.304158 0.088467
O O6 0.253563 0.706616 0.061828
O O7 0.199660 0.213797 0.115596
O O8 0.371999 0.296201 0.801645
O O9 0.400913 0.360919 0.561771
O O10 0.336783 0.866325 0.730264
O O11 0.234559 0.427333 0.878065
O O12 0.500000 0.000000 0.000000
O O13 0.121049 0.781882 0.150419
#
# Coordination Sequence:
#
# PCOD8118441 Si02
#       6
#     4   4   4   4   4   4
#     4   9  20  38  67 101 148 189 248 299 351 425
#     4  12  24  44  74 106 142 187 247 300 362 445
#     4  12  25  45  79 105 146 196 243 298 375 444
#     4  12  27  50  75 111 146 187 238 314 377 448
#     4  11  22  41  68 102 142 191 241 299 356 423
#     4  10  19  40  69 101 146 194 247 293 366 424
#
# _framework density 25.936267999999998
#
# number of rings (size 3 to 8) (size 9 to 14) (size 15 to 20)
#    0.000    1.000    5.000    1.500    0.000    0.667 
#    0.000   10.833    0.000    0.000    0.000    0.000 
#    0.000    0.000    0.000    0.000    0.000    0.000 
#
# Total GULP energy -297327.144436 kJ/mol
# GULP energy per Si atom -12388.631018 kJ/mol
# Density = 2.587724 g / cm^3
# Si number density = 25.936268 Si / 1000 Ang^3
#
#
#
# Elastic Constant Matrix: (Units=GPa)
#
#
# Indices 1 2 3 4 5 6 
#
# 1 96.4544 -0.2058 36.8353 0.0000 13.4255 0.0000
# 2 -0.2058 66.5541 13.0853 0.0000 -4.4081 0.0000
# 3 36.8353 13.0853 125.7649 0.0000 -2.3376 0.0000
# 4 0.0000 0.0000 0.0000 33.7092 0.0000 -6.1669
# 5 13.4255 -4.4081 -2.3376 0.0000 34.9787 0.0000
# 6 0.0000 0.0000 0.0000 -6.1669 0.0000 26.6238
#
#
#
# Elastic Compliance Matrix: (Units=1/GPa)
#
#
# Indices 1 2 3 4 5 6 
#
# 1 0.012519 0.000456 -0.003807 0.000000 -0.005002 0.000000
# 2 0.000456 0.015473 -0.001713 0.000000 0.001661 0.000000
# 3 -0.003807 -0.001713 0.009279 0.000000 0.001865 0.000000
# 4 0.000000 0.000000 0.000000 0.030978 0.000000 0.007176
# 5 -0.005002 0.001661 0.001865 0.000000 0.030843 0.000000
# 6 0.000000 0.000000 0.000000 0.007176 0.000000 0.039223
#
#
# Mechanical properties :
#
#
# Convention : Reuss Voigt Hill
#
# Bulk Modulus (GPa) = 36.84058 43.13366 39.98712
# Shear Modulus (GPa) = 31.74803 34.99956 33.37380
#
# Velocity S-wave (km/s) = 3.50248 3.67746 3.59104
# Velocity P-wave (km/s) = 5.53097 5.89053 5.71358
#
# Compressibility (1/GPa) = 0.02714398
#
# Stress axis : x y z
#
# Youngs Moduli (GPa) = 79.88094 64.62666 107.76750
#
# Poissons Ratio (x) = -0.02946 0.41027
# Poissons Ratio (y) = -0.03642 0.18456
# Poissons Ratio (z) = 0.30411 0.11068
#
# Static dielectric constant tensor:
#      x y z
#    x 4.968720 0.000000 0.272550 
#    y 0.000000 4.464890 0.000000 
#    z 0.272550 0.000000 5.251480 
# 
# 
# High freq. dielectric constant tensor:
#      x y z
#    x 2.057750 0.000000 0.006420 
#    y 0.000000 2.021080 0.000000 
#    z 0.006420 0.000000 2.035090 
# 
# From -- ./inp_files/59728.got.cif
#   From: 2010.06.25/outbox.cif.g09.slc.cpg/sg13_30_cif.got.tgz:59728.got - 2010.06.28 04:50:58.
