data_PCOD8118875
_publ_section_title
;
Structure prediction by ZEFSAII (Michael W. Deem and Ramdas Pophale) SiO2 
 PCOD8118875
Probable space group: P 2/C
;
_chemical_formula_sum "Si O2"
_cell_formula_units_Z 18
_cell_length_a 12.373924
_cell_length_b 8.791836
_cell_length_c 9.909929
_cell_angle_alpha 90.000000
_cell_angle_beta 119.683659
_cell_angle_gamma 90.000000
_cell_volume 936.620748
_symmetry_space_group_name_H-M "P 2/C"
_symmetry_group_IT_number 13
_symmetry_cell_setting 'monoclinic'
loop_
_space_group_symop_operation_xyz
x,y,z
-x,y,1/2-z
-x,-y,-z
x,-y,1/2+z
loop_
_atom_site_type_symbol
_atom_site_label
_atom_site_fract_x
_atom_site_fract_y
_atom_site_fract_z
Si Si1 0.640333 0.145131 0.799835
Si Si2 0.271876 0.524086 0.190513
Si Si3 0.679885 0.884965 0.024540
Si Si4 0.144056 0.380081 0.870713
Si Si5 0.500000 0.673025 0.750000
O O1 0.500000 0.180110 0.750000
O O2 0.714382 0.302236 0.848096
O O3 0.646230 0.065887 0.656155
O O4 0.700879 0.032791 0.946429
O O5 0.222647 0.519222 0.312951
O O6 0.401518 0.432926 0.267006
O O7 0.167406 0.448931 0.032339
O O8 0.809520 0.793881 0.103496
O O9 0.568100 0.778430 0.901416
O O10 0.000000 0.383830 0.750000
#
# Coordination Sequence:
#
# PCOD8118875 Si02
#       5
#     4   4   4   4   2
#     4  11  21  35  54  86 117 145 179 225 285 342
#     4  10  22  35  62  84 114 143 188 233 284 329
#     4  10  23  35  57  81 117 148 184 226 281 332
#     4  10  22  41  58  81 112 152 193 230 269 327
#     4  10  20  36  56  90 112 146 178 238 288 332
#
# _framework density 19.218024
#
# number of rings (size 3 to 8) (size 9 to 14) (size 15 to 20)
#    0.000    1.778    2.222    1.333    3.111    4.444 
#    0.000    5.556    0.000    0.000    0.000    0.000 
#    0.000    0.000    0.000    0.000    0.000    0.000 
#
# Total GULP energy -223260.483546 kJ/mol
# GULP energy per Si atom -12403.360197 kJ/mol
# Density = 1.917428 g / cm^3
# Si number density = 19.218024 Si / 1000 Ang^3
#
#
#
# Elastic Constant Matrix: (Units=GPa)
#
#
# Indices 1 2 3 4 5 6 
#
# 1 63.3823 8.3522 7.0921 0.0000 7.1267 0.0000
# 2 8.3522 60.1836 5.0420 0.0000 -4.4943 0.0000
# 3 7.0921 5.0420 43.8142 0.0000 -6.6921 0.0000
# 4 0.0000 0.0000 0.0000 15.9813 0.0000 -26.0376
# 5 7.1267 -4.4943 -6.6921 0.0000 38.7504 0.0000
# 6 0.0000 0.0000 0.0000 -26.0376 0.0000 -2.4782
#
#
#
# Elastic Compliance Matrix: (Units=1/GPa)
#
#
# Indices 1 2 3 4 5 6 
#
# 1 0.016871 -0.002377 -0.003054 0.000000 -0.003906 0.000000
# 2 -0.002377 0.017217 -0.001258 0.000000 0.002217 0.000000
# 3 -0.003054 -0.001258 0.024164 0.000000 0.004589 0.000000
# 4 0.000000 0.000000 0.000000 0.003454 0.000000 -0.036286
# 5 -0.003906 0.002217 0.004589 0.000000 0.027574 0.000000
# 6 0.000000 0.000000 0.000000 -0.036286 0.000000 -0.022272
#
#
# Mechanical properties :
#
#
# Convention : Reuss Voigt Hill
#
# Bulk Modulus (GPa) = 22.28483 23.15032 22.71758
# Shear Modulus (GPa) = 52.44184 20.24363 36.34273
#
# Velocity S-wave (km/s) = 5.22944 3.24908 4.35337
# Velocity P-wave (km/s) = 6.93424 5.11348 6.09227
#
# Compressibility (1/GPa) = 0.04487357
#
# Stress axis : x y z
#
# Youngs Moduli (GPa) = 59.27176 58.08331 41.38456
#
# Poissons Ratio (x) = 0.13808 0.12639
# Poissons Ratio (y) = 0.14090 0.05205
# Poissons Ratio (z) = 0.18102 0.07306
#
# Static dielectric constant tensor:
#      x y z
#    x 3.427910 0.000000 -0.159970 
#    y 0.000000 3.533660 0.000000 
#    z -0.159970 0.000000 3.594700 
# 
# 
# High freq. dielectric constant tensor:
#      x y z
#    x 1.737390 0.000000 -0.013260 
#    y 0.000000 1.748330 0.000000 
#    z -0.013260 0.000000 1.755130 
# 
# From -- ./inp_files/14501.got.cif
#   From: 2010.06.25/outbox.cif.g09.slc.cpg/sg13_8_cif.got.tgz:14501.got - 2010.06.28 04:50:58.
