data_PCOD8118104
_publ_section_title
;
Structure prediction by ZEFSAII (Michael W. Deem and Ramdas Pophale) SiO2 
 PCOD8118104
Probable space group: P 2/C
;
_chemical_formula_sum "Si O2"
_cell_formula_units_Z 26
_cell_length_a 22.138276
_cell_length_b 14.378828
_cell_length_c 9.348378
_cell_angle_alpha 90.000000
_cell_angle_beta 153.056825
_cell_angle_gamma 90.000000
_cell_volume 1348.354009
_symmetry_space_group_name_H-M "P 2/C"
_symmetry_group_IT_number 13
_symmetry_cell_setting 'monoclinic'
loop_
_space_group_symop_operation_xyz
x,y,z
-x,y,1/2-z
-x,-y,-z
x,-y,1/2+z
loop_
_atom_site_type_symbol
_atom_site_label
_atom_site_fract_x
_atom_site_fract_y
_atom_site_fract_z
Si Si1 0.000000 0.998252 0.250000
Si Si2 0.717854 0.232092 0.516601
Si Si3 0.067414 0.881989 0.140761
Si Si4 0.165003 0.579898 0.236657
Si Si5 0.864450 0.597614 0.655085
Si Si6 0.480176 0.902984 0.541691
Si Si7 0.215860 0.201915 0.518389
O O1 0.906710 0.937930 0.158110
O O2 0.096328 0.057108 0.558510
O O3 0.716623 0.343699 0.487927
O O4 0.579024 0.179507 0.198666
O O5 0.777903 0.207163 0.797749
O O6 0.824781 0.198658 0.625462
O O7 0.916227 0.848299 0.813836
O O8 0.199478 0.481217 0.379209
O O9 0.158568 0.564652 0.054467
O O10 0.023989 0.613929 0.007648
O O11 0.787003 0.691038 0.539552
O O12 0.500000 0.925067 0.750000
O O13 0.336046 0.858404 0.206586
O O14 0.500000 0.000000 0.500000
#
# Coordination Sequence:
#
# PCOD8118104 Si02
#       7
#     2   4   4   4   4   4   4
#     4  10  24  30  52  80 106 136 180 236 262 318
#     4  10  19  36  57  78 107 146 180 219 270 328
#     4  11  20  36  53  78 105 138 184 221 275 315
#     4   9  17  32  54  80 106 137 173 220 271 321
#     4   9  17  32  54  80 106 137 173 220 271 321
#     4  10  24  38  55  78 110 146 185 222 267 320
#     4  10  19  36  57  78 107 146 180 219 270 328
#
# _framework density 19.282772000000001
#
# number of rings (size 3 to 8) (size 9 to 14) (size 15 to 20)
#    0.000    2.154    3.077    0.000    4.308    0.000 
#    2.769    0.769    0.000    0.000    0.000    0.000 
#    0.000    0.000    0.000    0.000    0.000    0.000 
#
# Total GULP energy -322149.065050 kJ/mol
# GULP energy per Si atom -12390.348656 kJ/mol
# Density = 1.923888 g / cm^3
# Si number density = 19.282772 Si / 1000 Ang^3
#
#
#
# Elastic Constant Matrix: (Units=GPa)
#
#
# Indices 1 2 3 4 5 6 
#
# 1 75.0503 66.2541 38.8314 0.0000 6.3366 0.0000
# 2 66.2541 164.0431 48.9681 0.0000 11.6512 0.0000
# 3 38.8314 48.9681 65.1503 0.0000 18.6552 0.0000
# 4 0.0000 0.0000 0.0000 5.9182 0.0000 34.3942
# 5 6.3366 11.6512 18.6552 0.0000 26.6359 0.0000
# 6 0.0000 0.0000 0.0000 34.3942 0.0000 -0.9543
#
#
#
# Elastic Compliance Matrix: (Units=1/GPa)
#
#
# Indices 1 2 3 4 5 6 
#
# 1 0.024802 -0.007137 -0.010786 0.000000 0.004776 0.000000
# 2 -0.007137 0.009929 -0.003067 0.000000 -0.000497 0.000000
# 3 -0.010786 -0.003067 0.028725 0.000000 -0.016211 0.000000
# 4 0.000000 0.000000 0.000000 0.000803 0.000000 0.028937
# 5 0.004776 -0.000497 -0.016211 0.000000 0.047978 0.000000
# 6 0.000000 0.000000 0.000000 0.028937 0.000000 -0.004979
#
#
# Mechanical properties :
#
#
# Convention : Reuss Voigt Hill
#
# Bulk Modulus (GPa) = 46.56187 68.03897 57.30042
# Shear Modulus (GPa) = 31.96995 16.33263 24.15129
#
# Velocity S-wave (km/s) = 4.07622 2.91350 3.54288
# Velocity P-wave (km/s) = 6.80833 6.83223 6.82029
#
# Compressibility (1/GPa) = 0.02147680
#
# Stress axis : x y z
#
# Youngs Moduli (GPa) = 40.31903 100.71406 34.81288
#
# Poissons Ratio (x) = 0.71875 0.37550
# Poissons Ratio (y) = 0.28774 0.10677
# Poissons Ratio (z) = 0.43489 0.30888
#
# Static dielectric constant tensor:
#      x y z
#    x 3.432570 0.000000 0.026610 
#    y 0.000000 3.740950 0.000000 
#    z 0.026610 0.000000 3.237040 
# 
# 
# High freq. dielectric constant tensor:
#      x y z
#    x 1.737020 0.000000 0.000670 
#    y 0.000000 1.765630 0.000000 
#    z 0.000670 0.000000 1.711740 
# 
# From -- ./inp_files/23597.got.cif
#   From: 2010.06.25/outbox.cif.g09.slc.cpg/sg13_12_cif.got.tgz:23597.got - 2010.06.28 04:50:58.
