data_PCOD8118158
_publ_section_title
;
Structure prediction by ZEFSAII (Michael W. Deem and Ramdas Pophale) SiO2 
 PCOD8118158
Probable space group: P 2/C
;
_chemical_formula_sum "Si O2"
_cell_formula_units_Z 30
_cell_length_a 11.749909
_cell_length_b 15.301527
_cell_length_c 17.463661
_cell_angle_alpha 90.000000
_cell_angle_beta 150.936833
_cell_angle_gamma 90.000000
_cell_volume 1525.240925
_symmetry_space_group_name_H-M "P 2/C"
_symmetry_group_IT_number 13
_symmetry_cell_setting 'monoclinic'
loop_
_space_group_symop_operation_xyz
x,y,z
-x,y,1/2-z
-x,-y,-z
x,-y,1/2+z
loop_
_atom_site_type_symbol
_atom_site_label
_atom_site_fract_x
_atom_site_fract_y
_atom_site_fract_z
Si Si1 0.958825 0.167558 0.311331
Si Si2 0.334853 0.181866 0.791940
Si Si3 0.341722 0.583969 0.893081
Si Si4 0.530161 0.241249 0.466424
Si Si5 0.137960 0.636982 0.929817
Si Si6 0.115851 0.874172 0.398642
Si Si7 0.658354 0.951653 0.417895
Si Si8 0.500000 0.697877 0.250000
O O1 0.062812 0.263514 0.377960
O O2 0.096561 0.101971 0.449934
O O3 0.000000 0.130658 0.250000
O O4 0.686933 0.174693 0.173952
O O5 0.508871 0.098669 0.894970
O O6 0.379910 0.241027 0.743612
O O7 0.068186 0.146420 0.641703
O O8 0.380345 0.237783 0.894131
O O9 0.473383 0.656530 0.918698
O O10 0.298493 0.620821 0.951456
O O11 0.086212 0.570379 0.701154
O O12 0.500000 0.500000 0.000000
O O13 0.730738 0.213104 0.525066
O O14 0.300906 0.631740 0.100711
O O15 0.000000 0.903302 0.250000
O O16 0.289087 0.950227 0.526959
O O17 0.500000 0.951006 0.250000
#
# Coordination Sequence:
#
# PCOD8118158 Si02
#       8
#     4   4   4   4   4   4   4   2
#     4  11  16  34  64  83 115 154 215 254 287 351
#     4  11  21  39  61  89 116 161 212 250 311 357
#     4  10  19  38  64  93 123 148 207 254 302 372
#     4  10  20  40  63  88 118 158 203 255 317 360
#     4  10  19  36  60  98 116 158 199 250 300 365
#     4  10  26  40  55  83 125 162 209 254 310 368
#     4  12  23  37  55  88 118 164 208 262 301 350
#     4  12  18  40  68  86 124 162 204 252 296 380
#
# _framework density 19.669024
#
# number of rings (size 3 to 8) (size 9 to 14) (size 15 to 20)
#    0.000    1.333    7.333    0.400    1.867    1.600 
#   12.000    0.667    0.000    0.000    0.000    0.000 
#    0.000    0.000    0.000    0.000    0.000    0.000 
#
# Total GULP energy -371775.522704 kJ/mol
# GULP energy per Si atom -12392.517423 kJ/mol
# Density = 1.962426 g / cm^3
# Si number density = 19.669024 Si / 1000 Ang^3
#
#
#
# Elastic Constant Matrix: (Units=GPa)
#
#
# Indices 1 2 3 4 5 6 
#
# 1 53.5593 14.8938 30.7452 0.0000 14.8954 0.0000
# 2 14.8938 77.5673 49.4507 0.0000 14.5046 0.0000
# 3 30.7452 49.4507 141.9706 0.0000 1.8800 0.0000
# 4 0.0000 0.0000 0.0000 40.8381 0.0000 5.0763
# 5 14.8954 14.5046 1.8800 0.0000 30.3889 0.0000
# 6 0.0000 0.0000 0.0000 5.0763 0.0000 -6.4990
#
#
#
# Elastic Compliance Matrix: (Units=1/GPa)
#
#
# Indices 1 2 3 4 5 6 
#
# 1 0.025076 0.001125 -0.005657 0.000000 -0.012478 0.000000
# 2 0.001125 0.018560 -0.006589 0.000000 -0.009003 0.000000
# 3 -0.005657 -0.006589 0.010494 0.000000 0.005269 0.000000
# 4 0.000000 0.000000 0.000000 0.022320 0.000000 0.017434
# 5 -0.012478 -0.009003 0.005269 0.000000 0.042994 0.000000
# 6 0.000000 0.000000 0.000000 0.017434 0.000000 -0.140253
#
#
# Mechanical properties :
#
#
# Convention : Reuss Voigt Hill
#
# Bulk Modulus (GPa) = 31.36026 51.47518 41.41772
# Shear Modulus (GPa) = 414.49458 24.81277 219.65367
#
# Velocity S-wave (km/s) = 14.53245 3.55563 10.57910
# Velocity P-wave (km/s) = 17.25016 6.56386 13.05091
#
# Compressibility (1/GPa) = 0.03188749
#
# Stress axis : x y z
#
# Youngs Moduli (GPa) = 39.87929 53.87867 95.29111
#
# Poissons Ratio (x) = -0.06061 0.53906
# Poissons Ratio (y) = -0.04486 0.62790
# Poissons Ratio (z) = 0.22560 0.35502
#
# Static dielectric constant tensor:
#      x y z
#    x 3.548830 0.000000 0.206520 
#    y 0.000000 2.741300 0.000000 
#    z 0.206520 0.000000 4.263460 
# 
# 
# High freq. dielectric constant tensor:
#      x y z
#    x 1.739910 0.000000 0.013660 
#    y 0.000000 1.738790 0.000000 
#    z 0.013660 0.000000 1.784330 
# 
# From -- ./inp_files/66872.got.cif
#   From: 2010.06.25/outbox.cif.g09.slc.cpg/sg13_34_cif.got.tgz:66872.got - 2010.06.28 04:50:58.
