data_PCOD8118960
_publ_section_title
;
Structure prediction by ZEFSAII (Michael W. Deem and Ramdas Pophale) SiO2 
 PCOD8118960
Probable space group: P 2/C
;
_chemical_formula_sum "Si O2"
_cell_formula_units_Z 24
_cell_length_a 9.725016
_cell_length_b 8.566677
_cell_length_c 17.800907
_cell_angle_alpha 90.000000
_cell_angle_beta 44.831907
_cell_angle_gamma 90.000000
_cell_volume 1045.567276
_symmetry_space_group_name_H-M "P 2/C"
_symmetry_group_IT_number 13
_symmetry_cell_setting 'monoclinic'
loop_
_space_group_symop_operation_xyz
x,y,z
-x,y,1/2-z
-x,-y,-z
x,-y,1/2+z
loop_
_atom_site_type_symbol
_atom_site_label
_atom_site_fract_x
_atom_site_fract_y
_atom_site_fract_z
Si Si1 0.576719 0.753070 0.502291
Si Si2 0.697257 0.567747 0.990302
Si Si3 0.823193 0.815786 0.048762
Si Si4 0.500000 0.997683 0.750000
Si Si5 0.255103 0.116576 0.221261
Si Si6 0.000000 0.369130 0.250000
Si Si7 0.036659 0.910247 0.108039
O O1 0.479731 0.686360 0.463730
O O2 0.607706 0.601598 0.544931
O O3 0.428355 0.881721 0.593170
O O4 0.785091 0.837644 0.414402
O O5 0.848624 0.535761 0.861407
O O6 0.798091 0.642100 0.024422
O O7 0.955450 0.797971 0.073051
O O8 0.614340 0.891359 0.148232
O O9 0.918722 0.923045 0.947861
O O10 0.648739 0.881074 0.733595
O O11 0.120064 0.265852 0.262491
O O12 0.129154 0.955101 0.265855
#
# Coordination Sequence:
#
# PCOD8118960 Si02
#       7
#     4   4   4   2   4   2   4
#     4  10  22  40  62  90 125 162 204 252 308 365
#     4  10  22  40  61  88 129 164 200 253 305 372
#     4  10  20  37  61  89 124 158 202 258 301 357
#     4  10  20  36  60  88 126 156 202 264 298 356
#     4  10  20  36  60  92 117 159 205 252 309 358
#     4  10  20  36  60  86 120 166 204 246 308 372
#     4  10  20  37  63  91 121 157 206 255 302 362
#
# _framework density 22.954048
#
# number of rings (size 3 to 8) (size 9 to 14) (size 15 to 20)
#    0.000    2.000    3.333    0.000    0.000    2.667 
#    0.000   11.667    0.000    0.000    0.000    0.000 
#    0.000    0.000    0.000    0.000    0.000    0.000 
#
# Total GULP energy -297349.936036 kJ/mol
# GULP energy per Si atom -12389.580668 kJ/mol
# Density = 2.290180 g / cm^3
# Si number density = 22.954048 Si / 1000 Ang^3
#
#
#
# Elastic Constant Matrix: (Units=GPa)
#
#
# Indices 1 2 3 4 5 6 
#
# 1 81.8356 24.9382 49.1401 0.0000 -31.0493 0.0000
# 2 24.9382 42.6082 39.1244 0.0000 -5.2087 0.0000
# 3 49.1401 39.1244 88.0978 0.0000 -16.1757 0.0000
# 4 0.0000 0.0000 0.0000 23.0581 0.0000 -1.7527
# 5 -31.0493 -5.2087 -16.1757 0.0000 32.1454 0.0000
# 6 0.0000 0.0000 0.0000 -1.7527 0.0000 36.2862
#
#
#
# Elastic Compliance Matrix: (Units=1/GPa)
#
#
# Indices 1 2 3 4 5 6 
#
# 1 0.027063 -0.004966 -0.009077 0.000000 0.020768 0.000000
# 2 -0.004966 0.040753 -0.016523 0.000000 -0.006508 0.000000
# 3 -0.009077 -0.016523 0.023855 0.000000 0.000559 0.000000
# 4 0.000000 0.000000 0.000000 0.043529 0.000000 0.002103
# 5 0.020768 -0.006508 0.000559 0.000000 0.050395 0.000000
# 6 0.000000 0.000000 0.000000 0.002103 0.000000 0.027660
#
#
# Mechanical properties :
#
#
# Convention : Reuss Voigt Hill
#
# Bulk Modulus (GPa) = 32.74610 48.77190 40.75900
# Shear Modulus (GPa) = 17.57057 24.92053 21.24555
#
# Velocity S-wave (km/s) = 2.76971 3.29853 3.04562
# Velocity P-wave (km/s) = 4.95230 5.98338 5.49209
#
# Compressibility (1/GPa) = 0.03053799
#
# Stress axis : x y z
#
# Youngs Moduli (GPa) = 36.95096 24.53799 41.92065
#
# Poissons Ratio (x) = 0.12186 0.38050
# Poissons Ratio (y) = 0.18351 0.69267
# Poissons Ratio (z) = 0.33539 0.40545
#
# Static dielectric constant tensor:
#      x y z
#    x 4.294440 0.000000 -0.354190 
#    y 0.000000 3.787160 0.000000 
#    z -0.354190 0.000000 4.227900 
# 
# 
# High freq. dielectric constant tensor:
#      x y z
#    x 1.918950 0.000000 -0.025240 
#    y 0.000000 1.870350 0.000000 
#    z -0.025240 0.000000 1.899820 
# 
# From -- ./inp_files/77959.got.cif
#   From: 2010.06.25/outbox.cif.g09.slc.cpg/sg13_39_cif.got.tgz:77959.got - 2010.06.28 04:50:58.
