data_PCOD8118200
_publ_section_title
;
Structure prediction by ZEFSAII (Michael W. Deem and Ramdas Pophale) SiO2 
 PCOD8118200
Probable space group: P 2/C
;
_chemical_formula_sum "Si O2"
_cell_formula_units_Z 28
_cell_length_a 14.526028
_cell_length_b 10.725613
_cell_length_c 13.914559
_cell_angle_alpha 90.000000
_cell_angle_beta 39.975166
_cell_angle_gamma 90.000000
_cell_volume 1392.776757
_symmetry_space_group_name_H-M "P 2/C"
_symmetry_group_IT_number 13
_symmetry_cell_setting 'monoclinic'
loop_
_space_group_symop_operation_xyz
x,y,z
-x,y,1/2-z
-x,-y,-z
x,-y,1/2+z
loop_
_atom_site_type_symbol
_atom_site_label
_atom_site_fract_x
_atom_site_fract_y
_atom_site_fract_z
Si Si1 0.905732 0.340654 0.418499
Si Si2 0.220483 0.857548 0.939675
Si Si3 0.272442 0.569225 0.922973
Si Si4 0.350093 0.778839 0.482489
Si Si5 0.000000 0.018889 0.750000
Si Si6 0.500000 0.010397 0.750000
Si Si7 0.524865 0.478502 0.590727
Si Si8 0.876932 0.838304 0.688326
O O1 0.859382 0.476302 0.493782
O O2 0.769392 0.252249 0.503003
O O3 0.000000 0.361949 0.250000
O O4 0.006253 0.272818 0.416426
O O5 0.226955 0.709662 0.943692
O O6 0.145066 0.894926 0.899678
O O7 0.376033 0.920062 0.810987
O O8 0.129472 0.900092 0.104366
O O9 0.393672 0.537822 0.750275
O O10 0.329553 0.544684 0.986415
O O11 0.435994 0.903819 0.386262
O O12 0.466541 0.668854 0.395035
O O13 0.274920 0.791335 0.647010
O O14 0.061439 0.938532 0.787392
O O15 0.500000 0.500000 0.500000
#
# Coordination Sequence:
#
# PCOD8118200 Si02
#       8
#     4   4   4   4   2   2   4   4
#     4   9  18  37  67  90 121 162 209 266 314 376
#     4  12  27  41  66  91 136 173 211 267 331 377
#     4  10  22  40  58  94 133 162 207 271 320 384
#     4  10  19  36  66  92 121 164 221 261 312 380
#     4  12  24  48  60  92 130 172 214 270 310 392
#     4  12  22  42  62  92 128 176 214 260 306 392
#     4  10  20  39  63  91 129 165 207 269 331 372
#     4  11  21  44  67  92 123 169 219 269 319 380
#
# _framework density 20.103724
#
# number of rings (size 3 to 8) (size 9 to 14) (size 15 to 20)
#    0.000    1.429    3.571    3.857    1.000    1.143 
#    5.143    0.000    0.000    0.000    0.000    0.000 
#    0.000    0.000    0.000    0.000    0.000    0.000 
#
# Total GULP energy -347181.006041 kJ/mol
# GULP energy per Si atom -12399.321644 kJ/mol
# Density = 2.005797 g / cm^3
# Si number density = 20.103724 Si / 1000 Ang^3
#
#
#
# Elastic Constant Matrix: (Units=GPa)
#
#
# Indices 1 2 3 4 5 6 
#
# 1 122.7356 49.8430 47.1546 0.0000 8.3604 0.0000
# 2 49.8430 130.5081 56.9047 0.0000 -12.0363 0.0000
# 3 47.1546 56.9047 89.2217 0.0000 -13.0141 0.0000
# 4 0.0000 0.0000 0.0000 32.7394 0.0000 -1.0779
# 5 8.3604 -12.0363 -13.0141 0.0000 27.4593 0.0000
# 6 0.0000 0.0000 0.0000 -1.0779 0.0000 3.2491
#
#
#
# Elastic Compliance Matrix: (Units=1/GPa)
#
#
# Indices 1 2 3 4 5 6 
#
# 1 0.011967 -0.002810 -0.005633 0.000000 -0.007545 0.000000
# 2 -0.002810 0.011336 -0.005259 0.000000 0.003332 0.000000
# 3 -0.005633 -0.005259 0.018749 0.000000 0.008296 0.000000
# 4 0.000000 0.000000 0.000000 0.030881 0.000000 0.010245
# 5 -0.007545 0.003332 0.008296 0.000000 0.044107 0.000000
# 6 0.000000 0.000000 0.000000 0.010245 0.000000 0.311174
#
#
# Mechanical properties :
#
#
# Convention : Reuss Voigt Hill
#
# Bulk Modulus (GPa) = 68.26661 72.25221 70.25941
# Shear Modulus (GPa) = 10.85776 25.26046 18.05911
#
# Velocity S-wave (km/s) = 2.32650 3.54857 3.00041
# Velocity P-wave (km/s) = 6.42244 7.26688 6.85767
#
# Compressibility (1/GPa) = 0.01464845
#
# Stress axis : x y z
#
# Youngs Moduli (GPa) = 83.56433 88.21625 53.33609
#
# Poissons Ratio (x) = 0.24790 0.30043
# Poissons Ratio (y) = 0.23482 0.28048
# Poissons Ratio (z) = 0.47071 0.46390
#
# Static dielectric constant tensor:
#      x y z
#    x 3.775530 0.000000 -0.186260 
#    y 0.000000 3.765300 0.000000 
#    z -0.186260 0.000000 4.055440 
# 
# 
# High freq. dielectric constant tensor:
#      x y z
#    x 1.771160 0.000000 -0.010780 
#    y 0.000000 1.790410 0.000000 
#    z -0.010780 0.000000 1.790000 
# 
# From -- ./inp_files/53342.got.cif
#   From: 2010.06.25/outbox.cif.g09.slc.cpg/sg13_27_cif.got.tgz:53342.got - 2010.06.28 04:50:58.
