data_PCOD8118820
_publ_section_title
;
Structure prediction by ZEFSAII (Michael W. Deem and Ramdas Pophale) SiO2 
 PCOD8118820
Probable space group: P 2/C
;
_chemical_formula_sum "Si O2"
_cell_formula_units_Z 30
_cell_length_a 8.066248
_cell_length_b 9.096067
_cell_length_c 20.960276
_cell_angle_alpha 90.000000
_cell_angle_beta 94.579748
_cell_angle_gamma 90.000000
_cell_volume 1532.968986
_symmetry_space_group_name_H-M "P 2/C"
_symmetry_group_IT_number 13
_symmetry_cell_setting 'monoclinic'
loop_
_space_group_symop_operation_xyz
x,y,z
-x,y,1/2-z
-x,-y,-z
x,-y,1/2+z
loop_
_atom_site_type_symbol
_atom_site_label
_atom_site_fract_x
_atom_site_fract_y
_atom_site_fract_z
Si Si1 0.566296 0.234160 0.522632
Si Si2 0.099995 0.099179 0.663914
Si Si3 0.160664 0.412061 0.029142
Si Si4 0.347591 0.926432 0.917773
Si Si5 0.742182 0.084778 0.701962
Si Si6 0.321992 0.639951 0.122510
Si Si7 0.989843 0.108246 0.441342
Si Si8 0.500000 0.318357 0.750000
O O1 0.692181 0.373285 0.517367
O O2 0.482729 0.185449 0.451917
O O3 0.434099 0.283955 0.571626
O O4 0.657049 0.087433 0.549660
O O5 0.192323 0.029257 0.727911
O O6 0.182165 0.245741 0.639603
O O7 0.905098 0.137552 0.667736
O O8 0.121831 0.969861 0.614767
O O9 0.236478 0.496885 0.091325
O O10 0.107043 0.253760 0.048381
O O11 0.000000 0.500000 0.000000
O O12 0.172691 0.847080 0.923980
O O13 0.359740 0.959329 0.841372
O O14 0.623513 0.221669 0.710807
O O15 0.412322 0.587331 0.191247
O O16 0.000000 0.000000 0.500000
#
# Coordination Sequence:
#
# PCOD8118820 Si02
#       8
#     4   4   4   4   4   4   4   2
#     4  11  22  37  60  89 122 153 197 254 308 353
#     4   9  20  36  62  88 121 157 207 249 297 357
#     4  12  26  39  59  87 124 161 200 248 309 365
#     4  10  20  35  62  90 116 149 198 254 304 340
#     4   9  18  35  59  93 118 155 203 258 293 356
#     4  11  23  39  60  90 125 160 204 245 306 368
#     4  11  20  37  59  86 115 155 198 246 297 356
#     4  10  20  36  60  86 122 162 204 242 296 364
#
# _framework density 19.569868
#
# number of rings (size 3 to 8) (size 9 to 14) (size 15 to 20)
#    0.000    1.600    2.667    2.800    3.733    0.000 
#    0.000    1.333    0.000   14.400    0.000    0.000 
#    0.000    0.000    0.000    0.000    0.000    0.000 
#
# Total GULP energy -371667.704332 kJ/mol
# GULP energy per Si atom -12388.923478 kJ/mol
# Density = 1.952533 g / cm^3
# Si number density = 19.569868 Si / 1000 Ang^3
#
#
#
# Elastic Constant Matrix: (Units=GPa)
#
#
# Indices 1 2 3 4 5 6 
#
# 1 76.5197 37.2618 56.3475 0.0000 11.5771 0.0000
# 2 37.2618 84.2198 57.9672 0.0000 4.7731 0.0000
# 3 56.3475 57.9672 134.1242 0.0000 11.2703 0.0000
# 4 0.0000 0.0000 0.0000 31.7534 0.0000 6.6001
# 5 11.5771 4.7731 11.2703 0.0000 30.5530 0.0000
# 6 0.0000 0.0000 0.0000 6.6001 0.0000 35.8697
#
#
#
# Elastic Compliance Matrix: (Units=1/GPa)
#
#
# Indices 1 2 3 4 5 6 
#
# 1 0.020644 -0.004512 -0.006321 0.000000 -0.004786 0.000000
# 2 -0.004512 0.017888 -0.005928 0.000000 0.001102 0.000000
# 3 -0.006321 -0.005928 0.012791 0.000000 -0.001397 0.000000
# 4 0.000000 0.000000 0.000000 0.032745 0.000000 -0.006025
# 5 -0.004786 0.001102 -0.001397 0.000000 0.034887 0.000000
# 6 0.000000 0.000000 0.000000 -0.006025 0.000000 0.028987
#
#
# Mechanical properties :
#
#
# Convention : Reuss Voigt Hill
#
# Bulk Modulus (GPa) = 56.17618 66.44631 61.31124
# Shear Modulus (GPa) = 26.68143 29.18772 27.93457
#
# Velocity S-wave (km/s) = 3.69642 3.86614 3.78223
# Velocity P-wave (km/s) = 6.85462 7.34550 7.10430
#
# Compressibility (1/GPa) = 0.01780114
#
# Stress axis : x y z
#
# Youngs Moduli (GPa) = 48.43963 55.90474 78.18279
#
# Poissons Ratio (x) = 0.25225 0.49417
# Poissons Ratio (y) = 0.21856 0.46346
# Poissons Ratio (z) = 0.30617 0.33139
#
# Static dielectric constant tensor:
#      x y z
#    x 2.081040 0.000000 -0.183160 
#    y 0.000000 0.799030 0.000000 
#    z -0.183160 0.000000 3.904020 
# 
# 
# High freq. dielectric constant tensor:
#      x y z
#    x 1.783660 0.000000 0.008810 
#    y 0.000000 1.724580 0.000000 
#    z 0.008810 0.000000 1.774770 
# 
# From -- ./inp_files/75698.got.cif
#   From: 2010.06.25/outbox.cif.g09.slc.cpg/sg13_38_cif.got.tgz:75698.got - 2010.06.28 04:50:58.
