data_PCOD8118944
_publ_section_title
;
Structure prediction by ZEFSAII (Michael W. Deem and Ramdas Pophale) SiO2 
 PCOD8118944
Probable space group: P 2/C
;
_chemical_formula_sum "Si O2"
_cell_formula_units_Z 26
_cell_length_a 8.875400
_cell_length_b 16.698281
_cell_length_c 12.704980
_cell_angle_alpha 90.000000
_cell_angle_beta 140.349703
_cell_angle_gamma 90.000000
_cell_volume 1201.496540
_symmetry_space_group_name_H-M "P 2/C"
_symmetry_group_IT_number 13
_symmetry_cell_setting 'monoclinic'
loop_
_space_group_symop_operation_xyz
x,y,z
-x,y,1/2-z
-x,-y,-z
x,-y,1/2+z
loop_
_atom_site_type_symbol
_atom_site_label
_atom_site_fract_x
_atom_site_fract_y
_atom_site_fract_z
Si Si1 0.166321 0.107641 0.989550
Si Si2 0.000000 0.976441 0.750000
Si Si3 0.330557 0.632776 0.256119
Si Si4 0.920004 0.719823 0.095930
Si Si5 0.242709 0.522592 0.812108
Si Si6 0.569881 0.312019 0.100276
Si Si7 0.309290 0.134746 0.295892
O O1 0.154921 0.113395 0.109794
O O2 0.427287 0.108131 0.084078
O O3 0.033909 0.185607 0.875160
O O4 0.038926 0.029270 0.875794
O O5 0.221019 0.918419 0.846147
O O6 0.500000 0.636297 0.250000
O O7 0.228062 0.542717 0.212448
O O8 0.469524 0.671993 0.429364
O O9 0.094546 0.683597 0.102147
O O10 0.000000 0.681174 0.250000
O O11 0.645863 0.696047 0.930952
O O12 0.259807 0.613681 0.777665
O O13 0.000000 0.515172 0.750000
O O14 0.500000 0.500000 0.000000
O O15 0.713952 0.228758 0.185549
#
# Coordination Sequence:
#
# PCOD8118944 Si02
#       7
#     4   2   4   4   4   4   4
#     4  10  21  41  61  88 121 166 206 250 313 391
#     4  12  22  38  66  90 124 156 204 262 318 362
#     4  10  20  36  59  93 121 154 218 265 302 367
#     4   9  17  37  63  80 116 164 209 248 313 374
#     4  10  20  39  62  85 126 172 211 254 322 377
#     4   9  20  39  61  83 123 171 201 257 317 374
#     4  10  23  39  62  92 124 156 208 257 315 376
#
# _framework density 21.639679999999998
#
# number of rings (size 3 to 8) (size 9 to 14) (size 15 to 20)
#    0.000    2.154    0.769    3.231    1.077    1.231 
#    8.308    3.846    0.000    0.000    0.000    0.000 
#    0.000    0.000    0.000    0.000    0.000    0.000 
#
# Total GULP energy -322098.112879 kJ/mol
# GULP energy per Si atom -12388.388957 kJ/mol
# Density = 2.159043 g / cm^3
# Si number density = 21.639680 Si / 1000 Ang^3
#
#
#
# Elastic Constant Matrix: (Units=GPa)
#
#
# Indices 1 2 3 4 5 6 
#
# 1 135.8044 81.6003 28.2701 0.0000 27.5170 0.0000
# 2 81.6003 181.3216 48.7757 0.0000 10.3033 0.0000
# 3 28.2701 48.7757 58.4530 0.0000 7.5252 0.0000
# 4 0.0000 0.0000 0.0000 23.1109 0.0000 13.2724
# 5 27.5170 10.3033 7.5252 0.0000 28.2312 0.0000
# 6 0.0000 0.0000 0.0000 13.2724 0.0000 26.5234
#
#
#
# Elastic Compliance Matrix: (Units=1/GPa)
#
#
# Indices 1 2 3 4 5 6 
#
# 1 0.012497 -0.004863 -0.000670 0.000000 -0.010228 0.000000
# 2 -0.004863 0.009034 -0.005563 0.000000 0.002926 0.000000
# 3 -0.000670 -0.005563 0.022500 0.000000 -0.003315 0.000000
# 4 0.000000 0.000000 0.000000 0.060719 0.000000 -0.030384
# 5 -0.010228 0.002926 -0.003315 0.000000 0.045207 0.000000
# 6 0.000000 0.000000 0.000000 -0.030384 0.000000 0.052907
#
#
# Mechanical properties :
#
#
# Convention : Reuss Voigt Hill
#
# Bulk Modulus (GPa) = 45.78667 76.98569 61.38618
# Shear Modulus (GPa) = 21.52071 30.03528 25.77799
#
# Velocity S-wave (km/s) = 3.15699 3.72959 3.45517
# Velocity P-wave (km/s) = 5.87311 7.36206 6.65933
#
# Compressibility (1/GPa) = 0.02184042
#
# Stress axis : x y z
#
# Youngs Moduli (GPa) = 80.01773 110.69714 44.44391
#
# Poissons Ratio (x) = 0.53830 0.02976
# Poissons Ratio (y) = 0.38911 0.24724
# Poissons Ratio (z) = 0.05359 0.61579
#
# Static dielectric constant tensor:
#      x y z
#    x 3.854830 0.000000 0.221660 
#    y 0.000000 4.255100 0.000000 
#    z 0.221660 0.000000 3.770730 
# 
# 
# High freq. dielectric constant tensor:
#      x y z
#    x 1.838560 0.000000 0.016530 
#    y 0.000000 1.866940 0.000000 
#    z 0.016530 0.000000 1.829270 
# 
# From -- ./inp_files/47936.got.cif
#   From: 2010.06.25/outbox.cif.g09.slc.cpg/sg13_24_cif.got.tgz:47936.got - 2010.06.28 04:50:58.
