data_PCOD8118631
_publ_section_title
;
Structure prediction by ZEFSAII (Michael W. Deem and Ramdas Pophale) SiO2 
 PCOD8118631
Probable space group: P 2/C
;
_chemical_formula_sum "Si O2"
_cell_formula_units_Z 32
_cell_length_a 14.755251
_cell_length_b 6.414383
_cell_length_c 18.609400
_cell_angle_alpha 90.000000
_cell_angle_beta 65.224081
_cell_angle_gamma 90.000000
_cell_volume 1599.180771
_symmetry_space_group_name_H-M "P 2/C"
_symmetry_group_IT_number 13
_symmetry_cell_setting 'monoclinic'
loop_
_space_group_symop_operation_xyz
x,y,z
-x,y,1/2-z
-x,-y,-z
x,-y,1/2+z
loop_
_atom_site_type_symbol
_atom_site_label
_atom_site_fract_x
_atom_site_fract_y
_atom_site_fract_z
Si Si1 0.769462 0.594756 0.625404
Si Si2 0.385441 0.301946 0.773001
Si Si3 0.590880 0.423791 0.888787
Si Si4 0.867902 0.125507 0.982395
Si Si5 0.766420 0.972161 0.723193
Si Si6 0.908100 0.784901 0.080094
Si Si7 0.571536 0.190421 0.489843
Si Si8 0.262776 0.915918 0.103437
O O1 0.669563 0.451261 0.650455
O O2 0.781994 0.743980 0.552542
O O3 0.765246 0.731405 0.699798
O O4 0.865286 0.446476 0.598465
O O5 0.500000 0.253985 0.750000
O O6 0.373075 0.432058 0.704113
O O7 0.329140 0.082431 0.782735
O O8 0.580624 0.659750 0.917884
O O9 0.670279 0.292815 0.910446
O O10 0.479058 0.318985 0.928230
O O11 0.837441 0.123315 0.908583
O O12 0.973561 0.240755 0.952463
O O13 0.877867 0.896617 0.014877
O O14 0.867446 0.079842 0.660745
O O15 0.763615 0.988601 0.810188
O O16 0.500000 0.000000 0.500000
O O17 0.680263 0.089580 0.465087
#
# Coordination Sequence:
#
# PCOD8118631 Si02
#       8
#     4   4   4   4   4   4   4   4
#     4  10  20  37  59  81 111 150 188 230 282 340
#     4  10  21  34  53  79 109 146 188 232 278 336
#     4   9  19  34  49  73 109 146 184 229 279 333
#     4  10  21  36  59  85 111 144 188 237 286 344
#     4   9  20  38  57  80 113 147 184 231 284 341
#     4   9  20  39  58  81 112 147 186 232 284 341
#     4   9  18  32  51  72 104 144 180 224 278 329
#     4  10  20  34  55  82 110 144 185 234 285 336
#
# _framework density 20.010247
#
# number of rings (size 3 to 8) (size 9 to 14) (size 15 to 20)
#    0.000    2.500    0.000    1.125    0.000    8.000 
#    0.000    0.000    0.000   13.500    0.000    0.000 
#    0.000    0.000    0.000    0.000    0.000    0.000 
#
# Total GULP energy -396576.967840 kJ/mol
# GULP energy per Si atom -12393.030245 kJ/mol
# Density = 1.996470 g / cm^3
# Si number density = 20.010247 Si / 1000 Ang^3
#
#
#
# Elastic Constant Matrix: (Units=GPa)
#
#
# Indices 1 2 3 4 5 6 
#
# 1 103.2718 36.3732 50.1683 0.0000 1.8452 0.0000
# 2 36.3732 109.0586 34.0628 0.0000 0.7626 0.0000
# 3 50.1683 34.0628 73.3718 0.0000 -4.8258 0.0000
# 4 0.0000 0.0000 0.0000 34.8192 0.0000 -12.2849
# 5 1.8452 0.7626 -4.8258 0.0000 25.7171 0.0000
# 6 0.0000 0.0000 0.0000 -12.2849 0.0000 14.9084
#
#
#
# Elastic Compliance Matrix: (Units=1/GPa)
#
#
# Indices 1 2 3 4 5 6 
#
# 1 0.015094 -0.002027 -0.009565 0.000000 -0.002818 0.000000
# 2 -0.002027 0.011038 -0.003797 0.000000 -0.000894 0.000000
# 3 -0.009565 -0.003797 0.022259 0.000000 0.004976 0.000000
# 4 0.000000 0.000000 0.000000 0.040492 0.000000 0.033367
# 5 -0.002818 -0.000894 0.004976 0.000000 0.040047 0.000000
# 6 0.000000 0.000000 0.000000 0.033367 0.000000 0.094571
#
#
# Mechanical properties :
#
#
# Convention : Reuss Voigt Hill
#
# Bulk Modulus (GPa) = 56.77614 58.54564 57.66089
# Shear Modulus (GPa) = 19.21965 26.09546 22.65756
#
# Velocity S-wave (km/s) = 3.10254 3.61516 3.36861
# Velocity P-wave (km/s) = 6.42413 6.83719 6.63388
#
# Compressibility (1/GPa) = 0.01761303
#
# Stress axis : x y z
#
# Youngs Moduli (GPa) = 66.25172 90.59914 44.92508
#
# Poissons Ratio (x) = 0.18364 0.42970
# Poissons Ratio (y) = 0.13429 0.17058
# Poissons Ratio (z) = 0.63369 0.34401
#
# Static dielectric constant tensor:
#      x y z
#    x 3.413850 0.000000 -0.406480 
#    y 0.000000 3.747840 0.000000 
#    z -0.406480 0.000000 3.773650 
# 
# 
# High freq. dielectric constant tensor:
#      x y z
#    x 1.753520 0.000000 -0.028350 
#    y 0.000000 1.787930 0.000000 
#    z -0.028350 0.000000 1.784730 
# 
# From -- ./inp_files/67557.got.cif
#   From: 2010.06.25/outbox.cif.g09.slc.cpg/sg13_34_cif.got.tgz:67557.got - 2010.06.28 04:50:58.
