data_PCOD8118893
_publ_section_title
;
Structure prediction by ZEFSAII (Michael W. Deem and Ramdas Pophale) SiO2 
 PCOD8118893
Probable space group: P 2/C
;
_chemical_formula_sum "Si O2"
_cell_formula_units_Z 28
_cell_length_a 8.302120
_cell_length_b 11.567141
_cell_length_c 14.381736
_cell_angle_alpha 90.000000
_cell_angle_beta 107.991384
_cell_angle_gamma 90.000000
_cell_volume 1313.572018
_symmetry_space_group_name_H-M "P 2/C"
_symmetry_group_IT_number 13
_symmetry_cell_setting 'monoclinic'
loop_
_space_group_symop_operation_xyz
x,y,z
-x,y,1/2-z
-x,-y,-z
x,-y,1/2+z
loop_
_atom_site_type_symbol
_atom_site_label
_atom_site_fract_x
_atom_site_fract_y
_atom_site_fract_z
Si Si1 0.224857 0.955673 0.952751
Si Si2 0.591380 0.344991 0.672721
Si Si3 0.200290 0.568056 0.790605
Si Si4 0.155965 0.945393 0.635788
Si Si5 0.801014 0.118131 0.704662
Si Si6 0.590402 0.720202 0.541907
Si Si7 0.650768 0.719177 0.837691
O O1 0.362258 0.856463 0.955159
O O2 0.041295 0.927269 0.877848
O O3 0.268112 0.077699 0.909381
O O4 0.204363 0.972806 0.058430
O O5 0.500000 0.384337 0.750000
O O6 0.722265 0.444786 0.667792
O O7 0.695221 0.229517 0.713298
O O8 0.450059 0.328098 0.567535
O O9 0.249846 0.656426 0.882173
O O10 0.272347 0.608311 0.702457
O O11 0.000000 0.557648 0.750000
O O12 0.209362 0.815605 0.627361
O O13 0.244584 0.009290 0.737650
O O14 0.000000 0.149486 0.750000
O O15 0.423266 0.690956 0.573628
O O16 0.500000 0.773484 0.750000
#
# Coordination Sequence:
#
# PCOD8118893 Si02
#       7
#     4   4   4   4   4   4   4
#     4  10  21  36  58  87 122 159 200 244 297 361
#     4  12  25  41  61  88 125 162 203 253 306 361
#     4  11  24  45  67  87 116 157 207 255 307 368
#     4  10  20  36  57  87 122 159 201 245 293 357
#     4  10  21  37  57  84 122 164 202 243 296 358
#     4  11  23  40  64  93 124 158 201 257 310 359
#     4  10  21  37  62  90 117 150 198 252 302 356
#
# _framework density 21.315923000000002
#
# number of rings (size 3 to 8) (size 9 to 14) (size 15 to 20)
#    0.000    1.429    0.000    6.429    0.000    6.286 
#    0.000    5.714    0.000    0.000    0.000    0.000 
#    0.000    0.000    0.000    0.000    0.000    0.000 
#
# Total GULP energy -347144.803231 kJ/mol
# GULP energy per Si atom -12398.028687 kJ/mol
# Density = 2.126741 g / cm^3
# Si number density = 21.315923 Si / 1000 Ang^3
#
#
#
# Elastic Constant Matrix: (Units=GPa)
#
#
# Indices 1 2 3 4 5 6 
#
# 1 81.4247 30.8018 25.0273 0.0000 -0.3074 0.0000
# 2 30.8018 91.3515 15.4327 0.0000 10.0797 0.0000
# 3 25.0273 15.4327 87.4107 0.0000 -8.0003 0.0000
# 4 0.0000 0.0000 0.0000 25.2581 0.0000 0.5549
# 5 -0.3074 10.0797 -8.0003 0.0000 27.2511 0.0000
# 6 0.0000 0.0000 0.0000 0.5549 0.0000 36.7373
#
#
#
# Elastic Compliance Matrix: (Units=1/GPa)
#
#
# Indices 1 2 3 4 5 6 
#
# 1 0.015078 -0.004601 -0.003426 0.000000 0.000866 0.000000
# 2 -0.004601 0.013359 -0.001540 0.000000 -0.005445 0.000000
# 3 -0.003426 -0.001540 0.013093 0.000000 0.004375 0.000000
# 4 0.000000 0.000000 0.000000 0.039604 0.000000 -0.000598
# 5 0.000866 -0.005445 0.004375 0.000000 0.040004 0.000000
# 6 0.000000 0.000000 0.000000 -0.000598 0.000000 0.027229
#
#
# Mechanical properties :
#
#
# Convention : Reuss Voigt Hill
#
# Bulk Modulus (GPa) = 44.64656 44.74562 44.69609
# Shear Modulus (GPa) = 28.57702 30.44430 29.51066
#
# Velocity S-wave (km/s) = 3.66545 3.78331 3.72485
# Velocity P-wave (km/s) = 6.23736 6.33418 6.28595
#
# Compressibility (1/GPa) = 0.02239814
#
# Stress axis : x y z
#
# Youngs Moduli (GPa) = 66.32236 74.85616 76.37510
#
# Poissons Ratio (x) = 0.34440 0.26162
# Poissons Ratio (y) = 0.30514 0.11759
# Poissons Ratio (z) = 0.22719 0.11525
#
# Static dielectric constant tensor:
#      x y z
#    x 3.833370 0.000000 -0.090190 
#    y 0.000000 3.706700 0.000000 
#    z -0.090190 0.000000 3.947050 
# 
# 
# High freq. dielectric constant tensor:
#      x y z
#    x 1.835570 0.000000 -0.003260 
#    y 0.000000 1.832970 0.000000 
#    z -0.003260 0.000000 1.842150 
# 
# From -- ./inp_files/46986.got.cif
#   From: 2010.06.25/outbox.cif.g09.slc.cpg/sg13_24_cif.got.tgz:46986.got - 2010.06.28 04:50:58.
