data_PCOD8118768
_publ_section_title
;
Structure prediction by ZEFSAII (Michael W. Deem and Ramdas Pophale) SiO2 
 PCOD8118768
Probable space group: P 2/C
;
_chemical_formula_sum "Si O2"
_cell_formula_units_Z 32
_cell_length_a 14.048069
_cell_length_b 21.485441
_cell_length_c 14.333858
_cell_angle_alpha 90.000000
_cell_angle_beta 159.848653
_cell_angle_gamma 90.000000
_cell_volume 1490.440612
_symmetry_space_group_name_H-M "P 2/C"
_symmetry_group_IT_number 13
_symmetry_cell_setting 'monoclinic'
loop_
_space_group_symop_operation_xyz
x,y,z
-x,y,1/2-z
-x,-y,-z
x,-y,1/2+z
loop_
_atom_site_type_symbol
_atom_site_label
_atom_site_fract_x
_atom_site_fract_y
_atom_site_fract_z
Si Si1 0.300669 0.233759 0.487435
Si Si2 0.192024 0.137811 0.006023
Si Si3 0.883968 0.406097 0.547640
Si Si4 0.433586 0.695370 0.939219
Si Si5 0.457362 0.436797 0.014793
Si Si6 0.036517 0.270638 0.925762
Si Si7 0.517661 0.898422 0.156015
Si Si8 0.903276 0.068350 0.385486
O O1 0.333543 0.291560 0.450219
O O2 0.402924 0.170323 0.534747
O O3 0.000000 0.222941 0.250000
O O4 0.500000 0.255757 0.750000
O O5 0.500000 0.139139 0.250000
O O6 0.188897 0.102998 0.103544
O O7 0.000000 0.104093 0.750000
O O8 0.065361 0.207490 0.894484
O O9 0.595459 0.437689 0.246823
O O10 0.000000 0.435700 0.750000
O O11 0.852543 0.331053 0.530405
O O12 0.133283 0.422386 0.706935
O O13 0.381778 0.621527 0.882297
O O14 0.232093 0.737691 0.693414
O O15 0.733141 0.718125 0.185301
O O16 0.500000 0.500000 0.000000
O O17 0.500000 0.919893 0.250000
O O18 0.838415 0.896432 0.423321
O O19 0.340049 0.938414 0.917062
O O20 0.000000 0.000000 0.500000
#
# Coordination Sequence:
#
# PCOD8118768 Si02
#       8
#     4   4   4   4   4   4   4   4
#     4  11  21  36  59  89 117 147 193 250 302 353
#     4  12  25  41  62  93 129 163 196 247 308 366
#     4  10  20  35  58  84 109 142 190 240 284 334
#     4  10  20  36  58  83 116 156 192 242 298 350
#     4  10  21  37  56  79 113 155 194 228 278 345
#     4  10  20  36  60  86 115 151 191 240 298 360
#     4  11  23  43  69  93 119 159 208 259 305 352
#     4  12  26  44  65  93 126 165 209 248 294 362
#
# _framework density 21.470161999999998
#
# number of rings (size 3 to 8) (size 9 to 14) (size 15 to 20)
#    0.000    1.250    0.000    7.125    0.000    3.500 
#    0.000    1.875    0.000    0.000    0.000    0.000 
#    0.000    0.000    0.000    0.000    0.000    0.000 
#
# Total GULP energy -396502.762619 kJ/mol
# GULP energy per Si atom -12390.711332 kJ/mol
# Density = 2.142130 g / cm^3
# Si number density = 21.470162 Si / 1000 Ang^3
#
#
#
# Elastic Constant Matrix: (Units=GPa)
#
#
# Indices 1 2 3 4 5 6 
#
# 1 112.5219 46.6938 38.4686 0.0000 -6.9068 0.0000
# 2 46.6938 88.8450 19.3511 0.0000 -8.0781 0.0000
# 3 38.4686 19.3511 140.1043 0.0000 -11.4726 0.0000
# 4 0.0000 0.0000 0.0000 27.7767 0.0000 -2.1190
# 5 -6.9068 -8.0781 -11.4726 0.0000 52.6837 0.0000
# 6 0.0000 0.0000 0.0000 -2.1190 0.0000 15.9385
#
#
#
# Elastic Compliance Matrix: (Units=1/GPa)
#
#
# Indices 1 2 3 4 5 6 
#
# 1 0.012183 -0.005839 -0.002526 0.000000 0.000152 0.000000
# 2 -0.005839 0.014514 -0.000287 0.000000 0.001397 0.000000
# 3 -0.002526 -0.000287 0.007982 0.000000 0.001363 0.000000
# 4 0.000000 0.000000 0.000000 0.036370 0.000000 0.004835
# 5 0.000152 0.001397 0.001363 0.000000 0.019512 0.000000
# 6 0.000000 0.000000 0.000000 0.004835 0.000000 0.063384
#
#
# Mechanical properties :
#
#
# Convention : Reuss Voigt Hill
#
# Bulk Modulus (GPa) = 57.55389 61.16648 59.36019
# Shear Modulus (GPa) = 28.24187 35.07697 31.65942
#
# Velocity S-wave (km/s) = 3.63078 4.04636 3.84419
# Velocity P-wave (km/s) = 6.66644 7.09800 6.88560
#
# Compressibility (1/GPa) = 0.01737502
#
# Stress axis : x y z
#
# Youngs Moduli (GPa) = 82.08034 68.89939 125.27514
#
# Poissons Ratio (x) = 0.40230 0.31648
# Poissons Ratio (y) = 0.47927 0.03595
# Poissons Ratio (z) = 0.20735 0.01977
#
# Static dielectric constant tensor:
#      x y z
#    x 3.932040 0.000000 -0.121100 
#    y 0.000000 3.687340 0.000000 
#    z -0.121100 0.000000 4.402050 
# 
# 
# High freq. dielectric constant tensor:
#      x y z
#    x 1.842770 0.000000 -0.005960 
#    y 0.000000 1.820130 0.000000 
#    z -0.005960 0.000000 1.872790 
# 
# From -- ./inp_files/54027.got.cif
#   From: 2010.06.25/outbox.cif.g09.slc.cpg/sg13_28_cif.got.tgz:54027.got - 2010.06.28 04:50:58.
