data_PCOD8118169
_publ_section_title
;
Structure prediction by ZEFSAII (Michael W. Deem and Ramdas Pophale) SiO2 
 PCOD8118169
Probable space group: P 2/C
;
_chemical_formula_sum "Si O2"
_cell_formula_units_Z 32
_cell_length_a 8.594059
_cell_length_b 22.422071
_cell_length_c 14.503064
_cell_angle_alpha 90.000000
_cell_angle_beta 30.801358
_cell_angle_gamma 90.000000
_cell_volume 1431.058553
_symmetry_space_group_name_H-M "P 2/C"
_symmetry_group_IT_number 13
_symmetry_cell_setting 'monoclinic'
loop_
_space_group_symop_operation_xyz
x,y,z
-x,y,1/2-z
-x,-y,-z
x,-y,1/2+z
loop_
_atom_site_type_symbol
_atom_site_label
_atom_site_fract_x
_atom_site_fract_y
_atom_site_fract_z
Si Si1 0.113391 0.753972 0.294309
Si Si2 0.152606 0.645840 0.404135
Si Si3 0.098398 0.578030 0.604878
Si Si4 0.187748 0.546698 0.246149
Si Si5 0.618680 0.079544 0.594714
Si Si6 0.675842 0.188364 0.435896
Si Si7 0.327227 0.144877 0.435153
Si Si8 0.004017 0.023786 0.854077
O O1 0.032797 0.703854 0.411155
O O2 0.000000 0.735647 0.250000
O O3 0.974984 0.814575 0.406266
O O4 0.473475 0.764759 0.096797
O O5 0.500000 0.655121 0.250000
O O6 0.015397 0.629809 0.573834
O O7 0.065701 0.588891 0.388054
O O8 0.447482 0.556210 0.441331
O O9 0.000000 0.608175 0.750000
O O10 0.886944 0.521187 0.689665
O O11 0.000000 0.564557 0.250000
O O12 0.500000 0.108883 0.750000
O O13 0.727807 0.129972 0.470393
O O14 0.351969 0.038390 0.692929
O O15 0.903993 0.034494 0.464565
O O16 0.536536 0.169007 0.409851
O O17 0.000000 0.218702 0.250000
O O18 0.500000 0.150888 0.250000
O O19 0.222225 0.077933 0.507094
O O20 0.000000 0.005614 0.750000
#
# Coordination Sequence:
#
# PCOD8118169 Si02
#       8
#     4   4   4   4   4   4   4   4
#     4  10  22  48  68  89 125 169 219 274 331 383
#     4  10  22  38  64  93 127 170 219 271 320 377
#     4  10  20  37  61  96 137 174 215 262 322 379
#     4  10  19  36  61  94 131 178 215 260 319 379
#     4  12  26  40  65  98 132 171 206 262 326 395
#     4  11  25  43  69  97 124 164 217 267 329 396
#     4  11  24  44  67  92 128 169 209 266 327 392
#     4  12  23  44  63  93 136 168 210 264 321 390
#
# _framework density 22.361070999999999
#
# number of rings (size 3 to 8) (size 9 to 14) (size 15 to 20)
#    0.000    1.250    2.500    4.125    3.500    1.500 
#    0.000   11.875    0.000    3.000    0.000    0.000 
#    0.000    0.000    0.000    0.000    0.000    0.000 
#
# Total GULP energy -396568.813280 kJ/mol
# GULP energy per Si atom -12392.775415 kJ/mol
# Density = 2.231018 g / cm^3
# Si number density = 22.361071 Si / 1000 Ang^3
#
#
#
# Elastic Constant Matrix: (Units=GPa)
#
#
# Indices 1 2 3 4 5 6 
#
# 1 66.5081 32.5816 34.1747 0.0000 13.6293 0.0000
# 2 32.5816 83.8883 43.6158 0.0000 21.5448 0.0000
# 3 34.1747 43.6158 129.9417 0.0000 13.8426 0.0000
# 4 0.0000 0.0000 0.0000 23.5668 0.0000 13.7989
# 5 13.6293 21.5448 13.8426 0.0000 44.8411 0.0000
# 6 0.0000 0.0000 0.0000 13.7989 0.0000 34.8195
#
#
#
# Elastic Compliance Matrix: (Units=1/GPa)
#
#
# Indices 1 2 3 4 5 6 
#
# 1 0.019807 -0.005442 -0.003122 0.000000 -0.002441 0.000000
# 2 -0.005442 0.017454 -0.003836 0.000000 -0.005548 0.000000
# 3 -0.003122 -0.003836 0.009830 0.000000 -0.000243 0.000000
# 4 0.000000 0.000000 0.000000 0.055254 0.000000 -0.021897
# 5 -0.002441 -0.005548 -0.000243 0.000000 0.025783 0.000000
# 6 0.000000 0.000000 0.000000 -0.021897 0.000000 0.037397
#
#
# Mechanical properties :
#
#
# Convention : Reuss Voigt Hill
#
# Bulk Modulus (GPa) = 44.86504 55.67583 50.27043
# Shear Modulus (GPa) = 25.28363 31.97655 28.63009
#
# Velocity S-wave (km/s) = 3.36623 3.78565 3.58209
# Velocity P-wave (km/s) = 5.93432 6.63783 6.29591
#
# Compressibility (1/GPa) = 0.02228907
#
# Stress axis : x y z
#
# Youngs Moduli (GPa) = 50.48827 57.29463 101.72546
#
# Poissons Ratio (x) = 0.31182 0.31762
# Poissons Ratio (y) = 0.27477 0.39023
# Poissons Ratio (z) = 0.15764 0.21979
#
# Static dielectric constant tensor:
#      x y z
#    x 4.481290 0.000000 0.202660 
#    y 0.000000 3.827890 0.000000 
#    z 0.202660 0.000000 4.284140 
# 
# 
# High freq. dielectric constant tensor:
#      x y z
#    x 1.893240 0.000000 0.009270 
#    y 0.000000 1.864410 0.000000 
#    z 0.009270 0.000000 1.887130 
# 
# From -- ./inp_files/48300.got.cif
#   From: 2010.06.25/outbox.cif.g09.slc.cpg/sg13_25_cif.got.tgz:48300.got - 2010.06.28 04:50:58.
