data_PCOD8118946
_publ_section_title
;
Structure prediction by ZEFSAII (Michael W. Deem and Ramdas Pophale) SiO2 
 PCOD8118946
Probable space group: P 2/C
;
_chemical_formula_sum "Si O2"
_cell_formula_units_Z 28
_cell_length_a 20.772899
_cell_length_b 8.614336
_cell_length_c 20.626430
_cell_angle_alpha 90.000000
_cell_angle_beta 159.285092
_cell_angle_gamma 90.000000
_cell_volume 1305.570791
_symmetry_space_group_name_H-M "P 2/C"
_symmetry_group_IT_number 13
_symmetry_cell_setting 'monoclinic'
loop_
_space_group_symop_operation_xyz
x,y,z
-x,y,1/2-z
-x,-y,-z
x,-y,1/2+z
loop_
_atom_site_type_symbol
_atom_site_label
_atom_site_fract_x
_atom_site_fract_y
_atom_site_fract_z
Si Si1 0.838637 0.130569 0.463626
Si Si2 0.228833 0.145255 0.858394
Si Si3 0.301912 0.687016 0.553033
Si Si4 0.211656 0.429224 0.135197
Si Si5 0.555891 0.573229 0.395304
Si Si6 0.791643 0.544648 0.227496
Si Si7 0.514919 0.930437 0.189794
O O1 0.818064 0.272418 0.497287
O O2 0.793491 0.239382 0.358640
O O3 0.714628 0.980184 0.353765
O O4 0.042579 0.064133 0.658954
O O5 0.279548 0.279092 0.853984
O O6 0.195437 0.231654 0.894463
O O7 0.377792 0.012517 0.010071
O O8 0.500000 0.767014 0.750000
O O9 0.337983 0.505801 0.566282
O O10 0.367742 0.477776 0.229960
O O11 0.267097 0.509155 0.254558
O O12 0.008248 0.480459 0.921601
O O13 0.686694 0.571835 0.580920
O O14 0.508000 0.748178 0.334357
O O15 0.500000 0.985118 0.250000
#
# Coordination Sequence:
#
# PCOD8118946 Si02
#       7
#     4   4   4   4   4   4   4
#     4  11  20  36  61  82 111 155 191 230 284 344
#     4  10  20  36  60  80 112 152 192 235 279 336
#     4  11  17  35  57  81 108 142 196 235 273 333
#     4  10  20  39  65  86 110 148 199 245 284 326
#     4  11  23  36  58  85 119 150 182 241 292 333
#     4   9  21  40  62  88 109 145 203 248 276 332
#     4  12  24  37  53  86 127 154 184 226 288 356
#
# _framework density 21.446558
#
# number of rings (size 3 to 8) (size 9 to 14) (size 15 to 20)
#    0.000    1.429    4.286    2.143    0.000    1.143 
#    0.000    2.857    3.143    5.143    0.000    0.000 
#    0.000    0.000    0.000    0.000    0.000    0.000 
#
# Total GULP energy -346890.930957 kJ/mol
# GULP energy per Si atom -12388.961820 kJ/mol
# Density = 2.139775 g / cm^3
# Si number density = 21.446558 Si / 1000 Ang^3
#
#
#
# Elastic Constant Matrix: (Units=GPa)
#
#
# Indices 1 2 3 4 5 6 
#
# 1 37.0125 -0.3173 5.7273 0.0000 0.3638 0.0000
# 2 -0.3173 102.5943 28.4373 0.0000 -5.2572 0.0000
# 3 5.7273 28.4373 96.4360 0.0000 -6.1618 0.0000
# 4 0.0000 0.0000 0.0000 22.8858 0.0000 -4.3585
# 5 0.3638 -5.2572 -6.1618 0.0000 22.0605 0.0000
# 6 0.0000 0.0000 0.0000 -4.3585 0.0000 13.6985
#
#
#
# Elastic Compliance Matrix: (Units=1/GPa)
#
#
# Indices 1 2 3 4 5 6 
#
# 1 0.027315 0.000551 -0.001838 0.000000 -0.000833 0.000000
# 2 0.000551 0.010688 -0.003077 0.000000 0.001678 0.000000
# 3 -0.001838 -0.003077 0.011547 0.000000 0.002522 0.000000
# 4 0.000000 0.000000 0.000000 0.046514 0.000000 0.014799
# 5 -0.000833 0.001678 0.002522 0.000000 0.046448 0.000000
# 6 0.000000 0.000000 0.000000 0.014799 0.000000 0.077709
#
#
# Mechanical properties :
#
#
# Convention : Reuss Voigt Hill
#
# Bulk Modulus (GPa) = 24.49624 33.74860 29.12242
# Shear Modulus (GPa) = 20.61373 25.20865 22.91119
#
# Velocity S-wave (km/s) = 3.10363 3.43216 3.27202
# Velocity P-wave (km/s) = 4.92851 5.61040 5.28047
#
# Compressibility (1/GPa) = 0.04082258
#
# Stress axis : x y z
#
# Youngs Moduli (GPa) = 36.60959 93.56491 86.60038
#
# Poissons Ratio (x) = -0.05158 0.15917
# Poissons Ratio (y) = -0.02018 0.26648
# Poissons Ratio (z) = 0.06729 0.28791
#
# Static dielectric constant tensor:
#      x y z
#    x 3.832350 0.000000 -0.242390 
#    y 0.000000 3.560430 0.000000 
#    z -0.242390 0.000000 4.085480 
# 
# 
# High freq. dielectric constant tensor:
#      x y z
#    x 1.819670 0.000000 -0.011710 
#    y 0.000000 1.823400 0.000000 
#    z -0.011710 0.000000 1.860680 
# 
# From -- ./inp_files/88905.got.cif
#   From: 2010.06.25/outbox.cif.g09.slc.cpg/sg13_45_cif.got.tgz:88905.got - 2010.06.28 04:50:58.
