data_PCOD8118981
_publ_section_title
;
Structure prediction by ZEFSAII (Michael W. Deem and Ramdas Pophale) SiO2 
 PCOD8118981
Probable space group: P 2/C
;
_chemical_formula_sum "Si O2"
_cell_formula_units_Z 28
_cell_length_a 15.549294
_cell_length_b 6.207731
_cell_length_c 17.858944
_cell_angle_alpha 90.000000
_cell_angle_beta 42.627196
_cell_angle_gamma 90.000000
_cell_volume 1167.434456
_symmetry_space_group_name_H-M "P 2/C"
_symmetry_group_IT_number 13
_symmetry_cell_setting 'monoclinic'
loop_
_space_group_symop_operation_xyz
x,y,z
-x,y,1/2-z
-x,-y,-z
x,-y,1/2+z
loop_
_atom_site_type_symbol
_atom_site_label
_atom_site_fract_x
_atom_site_fract_y
_atom_site_fract_z
Si Si1 0.634546 0.202993 0.929949
Si Si2 0.774398 0.558789 0.225702
Si Si3 0.284122 0.627180 0.392421
Si Si4 0.000000 0.673325 0.750000
Si Si5 0.195426 0.979800 0.558731
Si Si6 0.606951 0.174772 0.333253
Si Si7 0.043077 0.629925 0.089501
Si Si8 0.500000 0.311597 0.250000
O O1 0.725757 0.387509 0.840519
O O2 0.699107 0.099612 0.961268
O O3 0.623843 0.052568 0.863020
O O4 0.499307 0.293278 0.045745
O O5 0.693110 0.673419 0.210594
O O6 0.741386 0.302598 0.242845
O O7 0.918029 0.643722 0.117608
O O8 0.271261 0.848634 0.446167
O O9 0.154568 0.489984 0.475857
O O10 0.393928 0.471698 0.354062
O O11 0.875424 0.818533 0.839918
O O12 0.019204 0.520212 0.807611
O O13 0.091465 0.139652 0.588600
O O14 0.554504 0.159203 0.281156
#
# Coordination Sequence:
#
# PCOD8118981 Si02
#       8
#     4   4   4   2   4   4   4   2
#     4  11  23  39  64  95 128 167 211 266 319 373
#     4  11  23  41  63  90 127 168 214 264 321 380
#     4  10  25  42  63  92 125 166 214 267 318 381
#     4  10  20  36  60  92 124 164 210 258 314 374
#     4  11  23  40  63  95 128 164 213 262 316 383
#     4  10  24  42  64  95 128 167 215 265 317 378
#     4  11  22  39  63  91 128 170 211 263 322 379
#     4  10  22  46  70  88 126 174 212 260 324 380
#
# _framework density 23.984217000000001
#
# number of rings (size 3 to 8) (size 9 to 14) (size 15 to 20)
#    0.000    1.429    0.000    4.714    0.000   13.143 
#    0.000    1.429    0.000    0.000    0.000    0.000 
#    0.000    0.000    0.000    0.000    0.000    0.000 
#
# Total GULP energy -346941.203563 kJ/mol
# GULP energy per Si atom -12390.757270 kJ/mol
# Density = 2.392963 g / cm^3
# Si number density = 23.984217 Si / 1000 Ang^3
#
#
#
# Elastic Constant Matrix: (Units=GPa)
#
#
# Indices 1 2 3 4 5 6 
#
# 1 108.9029 36.5900 15.2861 0.0000 -2.9686 0.0000
# 2 36.5900 58.3101 10.2430 0.0000 10.4782 0.0000
# 3 15.2861 10.2430 78.6993 0.0000 -1.2682 0.0000
# 4 0.0000 0.0000 0.0000 333.6475 0.0000 93.1012
# 5 -2.9686 10.4782 -1.2682 0.0000 39.9019 0.0000
# 6 0.0000 0.0000 0.0000 93.1012 0.0000 62.1810
#
#
#
# Elastic Compliance Matrix: (Units=1/GPa)
#
#
# Indices 1 2 3 4 5 6 
#
# 1 0.012093 -0.007891 -0.001275 0.000000 0.002931 0.000000
# 2 -0.007891 0.023621 -0.001652 0.000000 -0.006842 0.000000
# 3 -0.001275 -0.001652 0.013181 0.000000 0.000758 0.000000
# 4 0.000000 0.000000 0.000000 0.005148 0.000000 -0.007708
# 5 0.002931 -0.006842 0.000758 0.000000 0.027100 0.000000
# 6 0.000000 0.000000 0.000000 -0.007708 0.000000 0.027623
#
#
# Mechanical properties :
#
#
# Convention : Reuss Voigt Hill
#
# Bulk Modulus (GPa) = 36.68363 41.12783 38.90573
# Shear Modulus (GPa) = 35.84542 99.39898 67.62220
#
# Velocity S-wave (km/s) = 3.87012 6.44465 5.31561
# Velocity P-wave (km/s) = 5.94126 8.51839 7.34376
#
# Compressibility (1/GPa) = 0.02726011
#
# Stress axis : x y z
#
# Youngs Moduli (GPa) = 82.69536 42.33502 75.86468
#
# Poissons Ratio (x) = 0.33407 0.09669
# Poissons Ratio (y) = 0.65255 0.12532
# Poissons Ratio (z) = 0.10540 0.06993
#
# Static dielectric constant tensor:
#      x y z
#    x 3.991270 0.000000 -0.473790 
#    y 0.000000 4.037400 0.000000 
#    z -0.473790 0.000000 3.892370 
# 
# 
# High freq. dielectric constant tensor:
#      x y z
#    x 1.956020 0.000000 0.003370 
#    y 0.000000 1.931010 0.000000 
#    z 0.003370 0.000000 1.968630 
# 
# From -- ./inp_files/80654.got.cif
#   From: 2010.06.25/outbox.cif.g09.slc.cpg/sg13_41_cif.got.tgz:80654.got - 2010.06.28 04:50:58.
