data_PCOD8118790
_publ_section_title
;
Structure prediction by ZEFSAII (Michael W. Deem and Ramdas Pophale) SiO2 
 PCOD8118790
Probable space group: P 2/C
;
_chemical_formula_sum "Si O2"
_cell_formula_units_Z 24
_cell_length_a 23.691661
_cell_length_b 8.702549
_cell_length_c 11.696169
_cell_angle_alpha 90.000000
_cell_angle_beta 154.908472
_cell_angle_gamma 90.000000
_cell_volume 1022.630122
_symmetry_space_group_name_H-M "P 2/C"
_symmetry_group_IT_number 13
_symmetry_cell_setting 'monoclinic'
loop_
_space_group_symop_operation_xyz
x,y,z
-x,y,1/2-z
-x,-y,-z
x,-y,1/2+z
loop_
_atom_site_type_symbol
_atom_site_label
_atom_site_fract_x
_atom_site_fract_y
_atom_site_fract_z
Si Si1 0.155351 0.005200 0.100831
Si Si2 0.166468 0.248989 0.942872
Si Si3 0.398932 0.831631 0.436418
Si Si4 0.346932 0.973278 0.638889
Si Si5 0.791247 0.418304 0.896800
Si Si6 0.973088 0.280503 0.044487
O O1 0.267858 0.913467 0.240435
O O2 0.229104 0.057161 0.352590
O O3 0.033680 0.893233 0.915621
O O4 0.102726 0.145204 0.927049
O O5 0.220135 0.401631 0.101923
O O6 0.052559 0.282542 0.638845
O O7 0.290288 0.164201 0.112678
O O8 0.547231 0.883282 0.753694
O O9 0.415921 0.888848 0.335387
O O10 0.360292 0.650981 0.375726
O O11 0.880193 0.343188 0.161534
O O12 0.861654 0.385832 0.903606
#
# Coordination Sequence:
#
# PCOD8118790 Si02
#       6
#     4   4   4   4   4   4
#     4   9  18  35  57  80 106 145 190 232 272 327
#     4  10  20  35  59  86 110 145 192 234 281 336
#     4   9  18  33  54  77 110 148 179 228 283 329
#     4   9  18  34  55  80 108 142 190 231 273 330
#     4  10  20  36  55  80 116 150 182 229 289 339
#     4   9  20  39  55  79 116 149 183 229 284 337
#
# _framework density 23.468895
#
# number of rings (size 3 to 8) (size 9 to 14) (size 15 to 20)
#    0.000    2.667    0.000    1.000    0.000    2.000 
#    0.000   32.500    0.000   18.000    0.000    0.000 
#    0.000    0.000    0.000    0.000    0.000    0.000 
#
# Total GULP energy -297362.073593 kJ/mol
# GULP energy per Si atom -12390.086400 kJ/mol
# Density = 2.341548 g / cm^3
# Si number density = 23.468895 Si / 1000 Ang^3
#
#
#
# Elastic Constant Matrix: (Units=GPa)
#
#
# Indices 1 2 3 4 5 6 
#
# 1 43.1702 37.7643 13.6278 0.0000 5.1691 0.0000
# 2 37.7643 110.5848 17.1498 0.0000 -13.9113 0.0000
# 3 13.6278 17.1498 77.4202 0.0000 4.5499 0.0000
# 4 0.0000 0.0000 0.0000 26.5435 0.0000 -9.5179
# 5 5.1691 -13.9113 4.5499 0.0000 30.5946 0.0000
# 6 0.0000 0.0000 0.0000 -9.5179 0.0000 22.6732
#
#
#
# Elastic Compliance Matrix: (Units=1/GPa)
#
#
# Indices 1 2 3 4 5 6 
#
# 1 0.037801 -0.014024 -0.002822 0.000000 -0.012344 0.000000
# 2 -0.014024 0.015259 -0.001471 0.000000 0.009526 0.000000
# 3 -0.002822 -0.001471 0.013872 0.000000 -0.002255 0.000000
# 4 0.000000 0.000000 0.000000 0.044350 0.000000 0.018617
# 5 -0.012344 0.009526 -0.002255 0.000000 0.039438 0.000000
# 6 0.000000 0.000000 0.000000 0.018617 0.000000 0.051920
#
#
# Mechanical properties :
#
#
# Convention : Reuss Voigt Hill
#
# Bulk Modulus (GPa) = 33.00692 40.91767 36.96229
# Shear Modulus (GPa) = 20.05032 26.80448 23.42740
#
# Velocity S-wave (km/s) = 2.92607 3.38320 3.16291
# Velocity P-wave (km/s) = 5.05079 5.72137 5.39651
#
# Compressibility (1/GPa) = 0.03029668
#
# Stress axis : x y z
#
# Youngs Moduli (GPa) = 26.45442 65.53705 72.08928
#
# Poissons Ratio (x) = 0.91909 0.20343
# Poissons Ratio (y) = 0.37100 0.10606
# Poissons Ratio (z) = 0.07465 0.09642
#
# Static dielectric constant tensor:
#      x y z
#    x 4.490450 0.000000 -0.222610 
#    y 0.000000 4.201600 0.000000 
#    z -0.222610 0.000000 4.319150 
# 
# 
# High freq. dielectric constant tensor:
#      x y z
#    x 1.937450 0.000000 -0.008340 
#    y 0.000000 1.898860 0.000000 
#    z -0.008340 0.000000 1.933680 
# 
# From -- ./inp_files/41633.got.cif
#   From: 2010.06.25/outbox.cif.g09.slc.cpg/sg13_21_cif.got.tgz:41633.got - 2010.06.28 04:50:58.
