data_PCOD8118953
_publ_section_title
;
Structure prediction by ZEFSAII (Michael W. Deem and Ramdas Pophale) SiO2 
 PCOD8118953
Probable space group: P 2/C
;
_chemical_formula_sum "Si O2"
_cell_formula_units_Z 32
_cell_length_a 8.879627
_cell_length_b 23.077785
_cell_length_c 15.895426
_cell_angle_alpha 90.000000
_cell_angle_beta 151.459571
_cell_angle_gamma 90.000000
_cell_volume 1556.280404
_symmetry_space_group_name_H-M "P 2/C"
_symmetry_group_IT_number 13
_symmetry_cell_setting 'monoclinic'
loop_
_space_group_symop_operation_xyz
x,y,z
-x,y,1/2-z
-x,-y,-z
x,-y,1/2+z
loop_
_atom_site_type_symbol
_atom_site_label
_atom_site_fract_x
_atom_site_fract_y
_atom_site_fract_z
Si Si1 0.444875 0.175811 0.627855
Si Si2 0.221091 0.548421 0.933895
Si Si3 0.588899 0.447252 0.198720
Si Si4 0.171740 0.930570 0.245410
Si Si5 0.436980 0.972531 0.623835
Si Si6 0.168577 0.133576 0.247845
Si Si7 0.352456 0.365222 0.951929
Si Si8 0.642405 0.753453 0.573033
O O1 0.500000 0.197270 0.750000
O O2 0.715868 0.130844 0.734173
O O3 0.461086 0.230157 0.572702
O O4 0.096974 0.147752 0.451455
O O5 0.000000 0.524541 0.750000
O O6 0.968922 0.561341 0.884251
O O7 0.478678 0.501460 0.087569
O O8 0.403866 0.606547 0.995389
O O9 0.500000 0.458042 0.250000
O O10 0.411742 0.391386 0.073834
O O11 0.000000 0.922075 0.250000
O O12 0.467256 0.975043 0.392211
O O13 0.934031 0.961647 0.064570
O O14 0.500000 0.991087 0.750000
O O15 0.603888 0.913217 0.679455
O O16 0.376361 0.190227 0.375160
O O17 0.000000 0.110309 0.250000
O O18 0.000000 0.377766 0.750000
O O19 0.409595 0.296670 0.989111
O O20 0.000000 0.729873 0.750000
#
# Coordination Sequence:
#
# PCOD8118953 Si02
#       8
#     4   4   4   4   4   4   4   4
#     4  10  20  38  60  84 109 139 182 236 286 333
#     4  10  20  36  60  84 120 160 196 233 287 347
#     4  11  21  36  59  91 123 154 194 244 289 335
#     4  12  23  36  56  80 112 146 183 224 279 349
#     4  12  23  36  54  81 111 143 182 230 280 333
#     4   9  19  38  59  77 106 144 182 223 279 341
#     4  11  22  39  60  83 115 158 201 235 280 346
#     4   9  20  39  61  80 107 148 188 229 283 344
#
# _framework density 20.561847
#
# number of rings (size 3 to 8) (size 9 to 14) (size 15 to 20)
#    0.000    1.750    0.000    8.625    0.000    1.500 
#    0.000    5.000    0.000    0.000    0.000    0.000 
#    0.000    0.000    0.000    0.000    0.000    0.000 
#
# Total GULP energy -396741.355104 kJ/mol
# GULP energy per Si atom -12398.167347 kJ/mol
# Density = 2.051505 g / cm^3
# Si number density = 20.561847 Si / 1000 Ang^3
#
#
#
# Elastic Constant Matrix: (Units=GPa)
#
#
# Indices 1 2 3 4 5 6 
#
# 1 86.5085 33.8848 30.6730 0.0000 -5.0108 0.0000
# 2 33.8848 78.0964 16.8286 0.0000 0.6735 0.0000
# 3 30.6730 16.8286 95.5119 0.0000 -3.2011 0.0000
# 4 0.0000 0.0000 0.0000 -45.1714 0.0000 -7.9172
# 5 -5.0108 0.6735 -3.2011 0.0000 37.2658 0.0000
# 6 0.0000 0.0000 0.0000 -7.9172 0.0000 -20.7866
#
#
#
# Elastic Compliance Matrix: (Units=1/GPa)
#
#
# Indices 1 2 3 4 5 6 
#
# 1 0.015307 -0.005833 -0.003827 0.000000 0.001835 0.000000
# 2 -0.005833 0.015540 -0.000903 0.000000 -0.001143 0.000000
# 3 -0.003827 -0.000903 0.011875 0.000000 0.000522 0.000000
# 4 0.000000 0.000000 0.000000 -0.023721 0.000000 0.009035
# 5 0.001835 -0.001143 0.000522 0.000000 0.027146 0.000000
# 6 0.000000 0.000000 0.000000 0.009035 0.000000 -0.051549
#
#
# Mechanical properties :
#
#
# Convention : Reuss Voigt Hill
#
# Bulk Modulus (GPa) = 46.30186 46.98772 46.64479
# Shear Modulus (GPa) = 218.12158 6.17691 112.14925
#
# Velocity S-wave (km/s) = 10.31072 1.73510 7.39329
# Velocity P-wave (km/s) = 12.81855 5.18803 9.77831
#
# Compressibility (1/GPa) = 0.02159740
#
# Stress axis : x y z
#
# Youngs Moduli (GPa) = 65.32819 64.35033 84.20760
#
# Poissons Ratio (x) = 0.37535 0.32223
# Poissons Ratio (y) = 0.38105 0.07605
# Poissons Ratio (z) = 0.24999 0.05812
#
# Static dielectric constant tensor:
#      x y z
#    x 3.670940 0.000000 0.156350 
#    y 0.000000 3.510960 0.000000 
#    z 0.156350 0.000000 4.047900 
# 
# 
# High freq. dielectric constant tensor:
#      x y z
#    x 1.794030 0.000000 0.009770 
#    y 0.000000 1.790970 0.000000 
#    z 0.009770 0.000000 1.816720 
# 
# From -- ./inp_files/48316.got.cif
#   From: 2010.06.25/outbox.cif.g09.slc.cpg/sg13_25_cif.got.tgz:48316.got - 2010.06.28 04:50:58.
