data_PCOD8118238
_publ_section_title
;
Structure prediction by ZEFSAII (Michael W. Deem and Ramdas Pophale) SiO2 
 PCOD8118238
Probable space group: P 2/C
;
_chemical_formula_sum "Si O2"
_cell_formula_units_Z 26
_cell_length_a 15.069950
_cell_length_b 8.480204
_cell_length_c 15.255600
_cell_angle_alpha 90.000000
_cell_angle_beta 41.286707
_cell_angle_gamma 90.000000
_cell_volume 1286.404998
_symmetry_space_group_name_H-M "P 2/C"
_symmetry_group_IT_number 13
_symmetry_cell_setting 'monoclinic'
loop_
_space_group_symop_operation_xyz
x,y,z
-x,y,1/2-z
-x,-y,-z
x,-y,1/2+z
loop_
_atom_site_type_symbol
_atom_site_label
_atom_site_fract_x
_atom_site_fract_y
_atom_site_fract_z
Si Si1 0.829415 0.156860 0.750154
Si Si2 0.500000 0.843046 0.750000
Si Si3 0.898427 0.804552 0.522711
Si Si4 0.283867 0.922248 0.338326
Si Si5 0.095715 0.193620 0.286773
Si Si6 0.272580 0.665595 0.002448
Si Si7 0.800053 0.693051 0.957706
O O1 0.708080 0.137753 0.769050
O O2 0.784084 0.260353 0.865970
O O3 0.948225 0.244854 0.609431
O O4 0.902347 0.995842 0.726589
O O5 0.576845 0.731169 0.623356
O O6 0.598616 0.952103 0.733881
O O7 0.859299 0.752092 0.650064
O O8 0.810114 0.712929 0.520299
O O9 0.863288 0.992898 0.541191
O O10 0.294962 0.784169 0.402264
O O11 0.211879 0.243272 0.132374
O O12 0.955332 0.282606 0.370517
O O13 0.260704 0.479437 0.008592
#
# Coordination Sequence:
#
# PCOD8118238 Si02
#       7
#     4   2   4   4   4   4   4
#     4  11  20  38  64  94 122 159 199 255 296 369
#     4  10  24  46  62  82 110 172 216 256 286 354
#     4  10  19  37  60  93 125 160 193 251 296 370
#     4  10  20  41  67  88 117 160 215 246 295 348
#     4  10  20  34  59  91 129 150 199 236 306 369
#     4  11  26  37  59  88 131 161 198 247 317 351
#     4  11  22  36  56  97 125 160 188 251 305 372
#
# _framework density 20.211362999999999
#
# number of rings (size 3 to 8) (size 9 to 14) (size 15 to 20)
#    0.000    1.538    3.077    3.231    6.462    3.077 
#    0.000    1.538    0.000   10.154    0.000    0.000 
#    0.000    0.000    0.000    0.000    0.000    0.000 
#
# Total GULP energy -322122.472504 kJ/mol
# GULP energy per Si atom -12389.325866 kJ/mol
# Density = 2.016536 g / cm^3
# Si number density = 20.211363 Si / 1000 Ang^3
#
#
#
# Elastic Constant Matrix: (Units=GPa)
#
#
# Indices 1 2 3 4 5 6 
#
# 1 102.4792 51.9859 69.3109 0.0000 28.3595 0.0000
# 2 51.9859 112.6009 65.6966 0.0000 7.8908 0.0000
# 3 69.3109 65.6966 107.0872 0.0000 22.5961 0.0000
# 4 0.0000 0.0000 0.0000 13.3765 0.0000 -8.6243
# 5 28.3595 7.8908 22.5961 0.0000 34.0421 0.0000
# 6 0.0000 0.0000 0.0000 -8.6243 0.0000 0.2331
#
#
#
# Elastic Compliance Matrix: (Units=1/GPa)
#
#
# Indices 1 2 3 4 5 6 
#
# 1 0.020384 -0.003518 -0.008866 0.000000 -0.010281 0.000000
# 2 -0.003518 0.014676 -0.007707 0.000000 0.004644 0.000000
# 3 -0.008866 -0.007707 0.020779 0.000000 -0.004620 0.000000
# 4 0.000000 0.000000 0.000000 -0.003271 0.000000 -0.121024
# 5 -0.010281 0.004644 -0.004620 0.000000 0.039931 0.000000
# 6 0.000000 0.000000 0.000000 -0.121024 0.000000 -0.187712
#
#
# Mechanical properties :
#
#
# Convention : Reuss Voigt Hill
#
# Bulk Modulus (GPa) = 63.86145 77.35045 70.60595
# Shear Modulus (GPa) = -100.37708 18.54192 -40.91758
#
# Velocity S-wave (km/s) = -7.05489 3.03215 -4.50431
# Velocity P-wave (km/s) = 5.89038 7.11424 2.82098
#
# Compressibility (1/GPa) = 0.01565890
#
# Stress axis : x y z
#
# Youngs Moduli (GPa) = 49.05811 68.13865 48.12470
#
# Poissons Ratio (x) = 0.23969 0.42667
# Poissons Ratio (y) = 0.17257 0.37088
# Poissons Ratio (z) = 0.43494 0.52512
#
# Static dielectric constant tensor:
#      x y z
#    x 3.774020 0.000000 0.282710 
#    y 0.000000 3.604500 0.000000 
#    z 0.282710 0.000000 4.013760 
# 
# 
# High freq. dielectric constant tensor:
#      x y z
#    x 1.785940 0.000000 0.027360 
#    y 0.000000 1.773780 0.000000 
#    z 0.027360 0.000000 1.785380 
# 
# From -- ./inp_files/52955.got.cif
#   From: 2010.06.25/outbox.cif.g09.slc.cpg/sg13_27_cif.got.tgz:52955.got - 2010.06.28 04:50:58.
