data_PCOD8118730
_publ_section_title
;
Structure prediction by ZEFSAII (Michael W. Deem and Ramdas Pophale) SiO2 
 PCOD8118730
Probable space group: P 2/C
;
_chemical_formula_sum "Si O2"
_cell_formula_units_Z 22
_cell_length_a 6.237810
_cell_length_b 9.154828
_cell_length_c 22.773229
_cell_angle_alpha 90.000000
_cell_angle_beta 119.944458
_cell_angle_gamma 90.000000
_cell_volume 1126.887002
_symmetry_space_group_name_H-M "P 2/C"
_symmetry_group_IT_number 13
_symmetry_cell_setting 'monoclinic'
loop_
_space_group_symop_operation_xyz
x,y,z
-x,y,1/2-z
-x,-y,-z
x,-y,1/2+z
loop_
_atom_site_type_symbol
_atom_site_label
_atom_site_fract_x
_atom_site_fract_y
_atom_site_fract_z
Si Si1 0.754596 0.835561 0.564713
Si Si2 0.500000 0.465753 0.250000
Si Si3 0.632814 0.642771 0.646732
Si Si4 0.215202 0.167737 0.941068
Si Si5 0.001818 0.616699 0.317657
Si Si6 0.095071 0.346457 0.032549
O O1 0.712256 0.797552 0.628236
O O2 0.510082 0.816347 0.490901
O O3 0.956735 0.720913 0.569401
O O4 0.858182 0.998837 0.576208
O O5 0.389986 0.358995 0.285587
O O6 0.725306 0.571275 0.301679
O O7 0.822834 0.521943 0.650491
O O8 0.369848 0.607152 0.584729
O O9 0.117307 0.251923 0.870696
O O10 0.070691 0.228129 0.977573
O O11 0.000000 0.669677 0.250000
O O12 0.000000 0.500000 0.000000
#
# Coordination Sequence:
#
# PCOD8118730 Si02
#       6
#     4   2   4   4   4   4
#     4  10  21  36  57  85 115 148 181 227 284 333
#     4  10  20  36  58  80 106 144 190 238 274 320
#     4  10  20  35  56  81 108 141 185 230 275 325
#     4  10  21  37  56  82 118 149 182 228 278 334
#     4  10  21  38  58  80 108 145 189 231 274 328
#     4  11  20  33  57  85 110 142 184 229 275 325
#
# _framework density 19.52281
#
# number of rings (size 3 to 8) (size 9 to 14) (size 15 to 20)
#    0.000    1.818    0.000    4.909    0.000    4.364 
#    0.000    4.545    0.000    2.182    0.000    0.000 
#    0.000    0.000    0.000    0.000    0.000    0.000 
#
# Total GULP energy -272691.877202 kJ/mol
# GULP energy per Si atom -12395.085327 kJ/mol
# Density = 1.947838 g / cm^3
# Si number density = 19.522810 Si / 1000 Ang^3
#
#
#
# Elastic Constant Matrix: (Units=GPa)
#
#
# Indices 1 2 3 4 5 6 
#
# 1 106.3387 57.7742 35.3940 0.0000 -0.2995 0.0000
# 2 57.7742 137.7267 62.1170 0.0000 -4.5115 0.0000
# 3 35.3940 62.1170 105.4089 0.0000 -6.5824 0.0000
# 4 0.0000 0.0000 0.0000 33.1087 0.0000 -0.2652
# 5 -0.2995 -4.5115 -6.5824 0.0000 29.5449 0.0000
# 6 0.0000 0.0000 0.0000 -0.2652 0.0000 25.0168
#
#
#
# Elastic Compliance Matrix: (Units=1/GPa)
#
#
# Indices 1 2 3 4 5 6 
#
# 1 0.012373 -0.004523 -0.001546 0.000000 -0.000910 0.000000
# 2 -0.004523 0.011544 -0.005250 0.000000 0.000547 0.000000
# 3 -0.001546 -0.005250 0.013233 0.000000 0.002131 0.000000
# 4 0.000000 0.000000 0.000000 0.030206 0.000000 0.000320
# 5 -0.000910 0.000547 0.002131 0.000000 0.034396 0.000000
# 6 0.000000 0.000000 0.000000 0.000320 0.000000 0.039977
#
#
# Mechanical properties :
#
#
# Convention : Reuss Voigt Hill
#
# Bulk Modulus (GPa) = 68.90809 73.33831 71.12320
# Shear Modulus (GPa) = 29.55025 30.48001 30.01513
#
# Velocity S-wave (km/s) = 3.89476 3.95555 3.92527
# Velocity P-wave (km/s) = 7.45643 7.64911 7.55338
#
# Compressibility (1/GPa) = 0.01451208
#
# Stress axis : x y z
#
# Youngs Moduli (GPa) = 80.81945 86.62750 75.56994
#
# Poissons Ratio (x) = 0.39180 0.11685
# Poissons Ratio (y) = 0.36553 0.39673
# Poissons Ratio (z) = 0.12496 0.45478
#
# Static dielectric constant tensor:
#      x y z
#    x 5.006320 0.000000 -0.202300 
#    y 0.000000 3.501420 0.000000 
#    z -0.202300 0.000000 3.709180 
# 
# 
# High freq. dielectric constant tensor:
#      x y z
#    x 1.774630 0.000000 0.000020 
#    y 0.000000 1.744960 0.000000 
#    z 0.000020 0.000000 1.761500 
# 
# From -- ./inp_files/73009.got.cif
#   From: 2010.06.25/outbox.cif.g09.slc.cpg/sg13_37_cif.got.tgz:73009.got - 2010.06.28 04:50:58.
