data_PCOD8118085
_publ_section_title
;
Structure prediction by ZEFSAII (Michael W. Deem and Ramdas Pophale) SiO2 
 PCOD8118085
Probable space group: P 2/C
;
_chemical_formula_sum "Si O2"
_cell_formula_units_Z 28
_cell_length_a 10.957173
_cell_length_b 15.846581
_cell_length_c 8.225571
_cell_angle_alpha 90.000000
_cell_angle_beta 62.177814
_cell_angle_gamma 90.000000
_cell_volume 1263.132873
_symmetry_space_group_name_H-M "P 2/C"
_symmetry_group_IT_number 13
_symmetry_cell_setting 'monoclinic'
loop_
_space_group_symop_operation_xyz
x,y,z
-x,y,1/2-z
-x,-y,-z
x,-y,1/2+z
loop_
_atom_site_type_symbol
_atom_site_label
_atom_site_fract_x
_atom_site_fract_y
_atom_site_fract_z
Si Si1 0.191947 0.752495 0.403194
Si Si2 0.844678 0.581487 0.884309
Si Si3 0.659452 0.934011 0.617230
Si Si4 0.500000 0.313005 0.250000
Si Si5 0.284878 0.892611 0.562009
Si Si6 0.000000 0.296670 0.750000
Si Si7 0.555257 0.805585 0.441846
Si Si8 0.228967 0.407112 0.429711
O O1 0.161507 0.661837 0.496807
O O2 0.176241 0.826703 0.548153
O O3 0.081753 0.763637 0.325371
O O4 0.350538 0.753271 0.241852
O O5 0.769201 0.602224 0.764707
O O6 0.000000 0.554189 0.750000
O O7 0.771881 0.504845 0.022079
O O8 0.500000 0.955999 0.750000
O O9 0.736721 0.899906 0.730521
O O10 0.664811 0.862529 0.475170
O O11 0.738547 0.016945 0.506915
O O12 0.535216 0.253612 0.382002
O O13 0.373739 0.368350 0.393421
O O14 0.441326 0.862881 0.423355
O O15 0.105193 0.356676 0.588937
#
# Coordination Sequence:
#
# PCOD8118085 Si02
#       8
#     4   4   4   2   4   2   4   4
#     4  12  25  40  68  98 130 177 233 283 333 401
#     4  12  25  46  73  97 130 183 231 279 327 422
#     4  10  19  35  65  95 142 182 218 271 341 412
#     4  12  24  42  68 102 142 174 216 294 346 388
#     4  11  21  38  62 105 135 177 226 279 339 404
#     4  12  24  46  70  92 130 188 232 280 334 416
#     4  11  21  40  65 101 141 175 223 282 342 403
#     4  12  26  46  70  98 137 176 233 278 346 403
#
# _framework density 22.167106
#
# number of rings (size 3 to 8) (size 9 to 14) (size 15 to 20)
#    0.000    0.571    5.714    6.000    0.000    0.571 
#    2.571    0.000    0.000    3.429    1.857    0.000 
#    0.000    0.000    0.000    0.000    0.000    0.000 
#
# Total GULP energy -347228.329571 kJ/mol
# GULP energy per Si atom -12401.011770 kJ/mol
# Density = 2.211665 g / cm^3
# Si number density = 22.167106 Si / 1000 Ang^3
#
#
#
# Elastic Constant Matrix: (Units=GPa)
#
#
# Indices 1 2 3 4 5 6 
#
# 1 92.1751 46.1551 27.6404 0.0000 23.0411 0.0000
# 2 46.1551 129.1689 29.9456 0.0000 6.6185 0.0000
# 3 27.6404 29.9456 67.1558 0.0000 5.6511 0.0000
# 4 0.0000 0.0000 0.0000 56.7636 0.0000 38.1133
# 5 23.0411 6.6185 5.6511 0.0000 43.7092 0.0000
# 6 0.0000 0.0000 0.0000 38.1133 0.0000 66.7930
#
#
#
# Elastic Compliance Matrix: (Units=1/GPa)
#
#
# Indices 1 2 3 4 5 6 
#
# 1 0.016109 -0.004447 -0.004033 0.000000 -0.007297 0.000000
# 2 -0.004447 0.009891 -0.002681 0.000000 0.001193 0.000000
# 3 -0.004033 -0.002681 0.017726 0.000000 0.000240 0.000000
# 4 0.000000 0.000000 0.000000 0.028559 0.000000 -0.016296
# 5 -0.007297 0.001193 0.000240 0.000000 0.026513 0.000000
# 6 0.000000 0.000000 0.000000 -0.016296 0.000000 0.024271
#
#
# Mechanical properties :
#
#
# Convention : Reuss Voigt Hill
#
# Bulk Modulus (GPa) = 46.71983 55.10913 50.91448
# Shear Modulus (GPa) = 32.78128 45.77041 39.27585
#
# Velocity S-wave (km/s) = 3.84972 4.54893 4.21385
# Velocity P-wave (km/s) = 6.39394 7.24604 6.83328
#
# Compressibility (1/GPa) = 0.02140419
#
# Stress axis : x y z
#
# Youngs Moduli (GPa) = 62.07581 101.09958 56.41478
#
# Poissons Ratio (x) = 0.44962 0.22753
# Poissons Ratio (y) = 0.27607 0.15122
# Poissons Ratio (z) = 0.25037 0.27100
#
# Static dielectric constant tensor:
#      x y z
#    x 3.904030 0.000000 0.386190 
#    y 0.000000 3.986010 0.000000 
#    z 0.386190 0.000000 4.066520 
# 
# 
# High freq. dielectric constant tensor:
#      x y z
#    x 1.849500 0.000000 0.029890 
#    y 0.000000 1.876660 0.000000 
#    z 0.029890 0.000000 1.878310 
# 
# From -- ./inp_files/16689.got.cif
#   From: 2010.06.25/outbox.cif.g09.slc.cpg/sg13_9_cif.got.tgz:16689.got - 2010.06.28 04:50:58.
