data_PCOD8118810
_publ_section_title
;
Structure prediction by ZEFSAII (Michael W. Deem and Ramdas Pophale) SiO2 
 PCOD8118810
Probable space group: P 2/C
;
_chemical_formula_sum "Si O2"
_cell_formula_units_Z 24
_cell_length_a 18.478909
_cell_length_b 11.480718
_cell_length_c 11.861401
_cell_angle_alpha 90.000000
_cell_angle_beta 151.264023
_cell_angle_gamma 90.000000
_cell_volume 1209.824844
_symmetry_space_group_name_H-M "P 2/C"
_symmetry_group_IT_number 13
_symmetry_cell_setting 'monoclinic'
loop_
_space_group_symop_operation_xyz
x,y,z
-x,y,1/2-z
-x,-y,-z
x,-y,1/2+z
loop_
_atom_site_type_symbol
_atom_site_label
_atom_site_fract_x
_atom_site_fract_y
_atom_site_fract_z
Si Si1 0.167059 0.776208 0.866631
Si Si2 0.832740 0.549914 0.763870
Si Si3 0.324277 0.680099 0.516891
Si Si4 0.184759 0.169247 0.630448
Si Si5 0.144246 0.068920 0.146253
Si Si6 0.153455 0.292824 0.009750
O O1 0.179683 0.641415 0.854135
O O2 0.240568 0.865272 0.875650
O O3 0.993143 0.813682 0.624597
O O4 0.251412 0.789238 0.101474
O O5 0.713173 0.451640 0.568693
O O6 0.786556 0.614402 0.816691
O O7 0.000000 0.500000 0.000000
O O8 0.240699 0.760412 0.313370
O O9 0.274512 0.715984 0.574929
O O10 0.500000 0.701432 0.750000
O O11 0.238148 0.034816 0.716825
O O12 0.109909 0.167532 0.005044
O O13 0.000000 0.000000 0.000000
O O14 0.000000 0.345571 0.750000
#
# Coordination Sequence:
#
# PCOD8118810 Si02
#       6
#     4   4   4   4   4   4
#     4   9  19  34  60  94 115 157 211 266 313 371
#     4  11  21  40  62  91 123 164 218 268 321 375
#     4  12  27  42  61  94 133 172 215 263 325 390
#     4  10  20  35  61  87 128 158 202 265 318 370
#     4   9  19  34  60  97 124 153 207 270 323 365
#     4  11  22  38  68  94 126 167 213 269 322 382
#
# _framework density 19.837581
#
# number of rings (size 3 to 8) (size 9 to 14) (size 15 to 20)
#    0.000    1.667    3.333    2.000    9.333    0.667 
#    0.000    0.833    0.000    0.000    0.000    0.000 
#    0.000    0.000    0.000    0.000    0.000    0.000 
#
# Total GULP energy -297377.735469 kJ/mol
# GULP energy per Si atom -12390.738978 kJ/mol
# Density = 1.979243 g / cm^3
# Si number density = 19.837581 Si / 1000 Ang^3
#
#
#
# Elastic Constant Matrix: (Units=GPa)
#
#
# Indices 1 2 3 4 5 6 
#
# 1 141.9301 54.0110 48.9693 0.0000 -28.0853 0.0000
# 2 54.0110 140.7824 22.5928 0.0000 -25.7570 0.0000
# 3 48.9693 22.5928 31.6453 0.0000 -8.9269 0.0000
# 4 0.0000 0.0000 0.0000 -41.3412 0.0000 -14.0682
# 5 -28.0853 -25.7570 -8.9269 0.0000 36.0859 0.0000
# 6 0.0000 0.0000 0.0000 -14.0682 0.0000 26.4095
#
#
#
# Elastic Compliance Matrix: (Units=1/GPa)
#
#
# Indices 1 2 3 4 5 6 
#
# 1 0.016933 -0.001613 -0.023283 0.000000 0.006268 0.000000
# 2 -0.001613 0.008967 -0.002639 0.000000 0.004492 0.000000
# 3 -0.023283 -0.002639 0.068662 0.000000 -0.003019 0.000000
# 4 0.000000 0.000000 0.000000 -0.020477 0.000000 -0.010908
# 5 0.006268 0.004492 -0.003019 0.000000 0.035049 0.000000
# 6 0.000000 0.000000 0.000000 -0.010908 0.000000 0.032055
#
#
# Mechanical properties :
#
#
# Convention : Reuss Voigt Hill
#
# Bulk Modulus (GPa) = 25.32138 62.83378 44.07758
# Shear Modulus (GPa) = 23.87505 16.81648 20.34577
#
# Velocity S-wave (km/s) = 3.47295 2.91470 3.20600
# Velocity P-wave (km/s) = 5.37345 6.56279 5.99767
#
# Compressibility (1/GPa) = 0.03949232
#
# Stress axis : x y z
#
# Youngs Moduli (GPa) = 59.05580 111.51498 14.56412
#
# Poissons Ratio (x) = 0.17989 0.33910
# Poissons Ratio (y) = 0.09527 0.03843
# Poissons Ratio (z) = 1.37501 0.29425
#
# Static dielectric constant tensor:
#      x y z
#    x 1.883950 0.000000 -0.407740 
#    y 0.000000 4.097940 0.000000 
#    z -0.407740 0.000000 3.304830 
# 
# 
# High freq. dielectric constant tensor:
#      x y z
#    x 1.779920 0.000000 -0.041060 
#    y 0.000000 1.795860 0.000000 
#    z -0.041060 0.000000 1.722290 
# 
# From -- ./inp_files/39227.got.cif
#   From: 2010.06.25/outbox.cif.g09.slc.cpg/sg13_20_cif.got.tgz:39227.got - 2010.06.28 04:50:58.
