data_PCOD8118878
_publ_section_title
;
Structure prediction by ZEFSAII (Michael W. Deem and Ramdas Pophale) SiO2 
 PCOD8118878
Probable space group: P 2/C
;
_chemical_formula_sum "Si O2"
_cell_formula_units_Z 20
_cell_length_a 21.840571
_cell_length_b 7.624885
_cell_length_c 13.858464
_cell_angle_alpha 90.000000
_cell_angle_beta 155.193816
_cell_angle_gamma 90.000000
_cell_volume 968.269316
_symmetry_space_group_name_H-M "P 2/C"
_symmetry_group_IT_number 13
_symmetry_cell_setting 'monoclinic'
loop_
_space_group_symop_operation_xyz
x,y,z
-x,y,1/2-z
-x,-y,-z
x,-y,1/2+z
loop_
_atom_site_type_symbol
_atom_site_label
_atom_site_fract_x
_atom_site_fract_y
_atom_site_fract_z
Si Si1 0.172136 0.342526 0.186822
Si Si2 0.262381 0.002160 0.908663
Si Si3 0.638632 0.615020 0.725020
Si Si4 0.508119 0.057734 0.119705
Si Si5 0.154874 0.374623 0.816451
O O1 0.295269 0.312651 0.280843
O O2 0.215975 0.507898 0.315894
O O3 0.162021 0.164468 0.236962
O O4 0.018850 0.391991 0.918712
O O5 0.172841 0.166471 0.821571
O O6 0.348146 0.066422 0.936188
O O7 0.381238 0.938087 0.158820
O O8 0.500000 0.500000 0.500000
O O9 0.576981 0.750903 0.714981
O O10 0.771989 0.542190 0.981450
O O11 0.500000 0.000000 0.000000
#
# Coordination Sequence:
#
# PCOD8118878 Si02
#       5
#     4   4   4   4   4
#     4  11  22  41  64  83 124 165 199 250 305 365
#     4  10  21  38  63  85 122 159 196 253 307 352
#     4  11  23  38  64  89 123 159 200 256 308 352
#     4  10  20  36  56  93 120 147 204 249 293 370
#     4  10  24  41  58  92 121 158 211 245 298 371
#
# _framework density 20.655408999999999
#
# number of rings (size 3 to 8) (size 9 to 14) (size 15 to 20)
#    0.000    1.600    2.000    2.400    2.800    2.400 
#    0.000    0.000    0.000    0.000    0.000    0.000 
#    0.000    0.000    0.000    0.000    0.000    0.000 
#
# Total GULP energy -247761.348772 kJ/mol
# GULP energy per Si atom -12388.067439 kJ/mol
# Density = 2.060840 g / cm^3
# Si number density = 20.655409 Si / 1000 Ang^3
#
#
#
# Elastic Constant Matrix: (Units=GPa)
#
#
# Indices 1 2 3 4 5 6 
#
# 1 90.4604 13.5980 34.0714 0.0000 -12.1816 0.0000
# 2 13.5980 79.0798 39.0316 0.0000 -10.8310 0.0000
# 3 34.0714 39.0316 117.4372 0.0000 -23.5059 0.0000
# 4 0.0000 0.0000 0.0000 33.5251 0.0000 -2.8556
# 5 -12.1816 -10.8310 -23.5059 0.0000 34.5612 0.0000
# 6 0.0000 0.0000 0.0000 -2.8556 0.0000 30.9140
#
#
#
# Elastic Compliance Matrix: (Units=1/GPa)
#
#
# Indices 1 2 3 4 5 6 
#
# 1 0.012568 -0.000331 -0.003091 0.000000 0.002224 0.000000
# 2 -0.000331 0.015206 -0.004662 0.000000 0.001478 0.000000
# 3 -0.003091 -0.004662 0.012098 0.000000 0.005678 0.000000
# 4 0.000000 0.000000 0.000000 0.030065 0.000000 0.002777
# 5 0.002224 0.001478 0.005678 0.000000 0.034043 0.000000
# 6 0.000000 0.000000 0.000000 0.002777 0.000000 0.032604
#
#
# Mechanical properties :
#
#
# Convention : Reuss Voigt Hill
#
# Bulk Modulus (GPa) = 42.18772 51.15326 46.67049
# Shear Modulus (GPa) = 31.12297 33.15179 32.13738
#
# Velocity S-wave (km/s) = 3.88593 4.01058 3.94875
# Velocity P-wave (km/s) = 6.37203 6.80185 6.59045
#
# Compressibility (1/GPa) = 0.02370358
#
# Stress axis : x y z
#
# Youngs Moduli (GPa) = 79.56687 65.76434 82.65876
#
# Poissons Ratio (x) = 0.02175 0.25552
# Poissons Ratio (y) = 0.02632 0.38536
# Poissons Ratio (z) = 0.24596 0.30660
#
# Static dielectric constant tensor:
#      x y z
#    x 3.650700 0.000000 -0.896210 
#    y 0.000000 2.959480 0.000000 
#    z -0.896210 0.000000 4.189280 
# 
# 
# High freq. dielectric constant tensor:
#      x y z
#    x 1.808600 0.000000 -0.010910 
#    y 0.000000 1.788740 0.000000 
#    z -0.010910 0.000000 1.823390 
# 
# From -- ./inp_files/32288.got.cif
#   From: 2010.06.25/outbox.cif.g09.slc.cpg/sg13_17_cif.got.tgz:32288.got - 2010.06.28 04:50:58.
