data_PCOD8118541
_publ_section_title
;
Structure prediction by ZEFSAII (Michael W. Deem and Ramdas Pophale) SiO2 
 PCOD8118541
Probable space group: P 2/C
;
_chemical_formula_sum "Si O2"
_cell_formula_units_Z 24
_cell_length_a 8.782819
_cell_length_b 9.852137
_cell_length_c 23.554361
_cell_angle_alpha 90.000000
_cell_angle_beta 138.223458
_cell_angle_gamma 90.000000
_cell_volume 1357.869592
_symmetry_space_group_name_H-M "P 2/C"
_symmetry_group_IT_number 13
_symmetry_cell_setting 'monoclinic'
loop_
_space_group_symop_operation_xyz
x,y,z
-x,y,1/2-z
-x,-y,-z
x,-y,1/2+z
loop_
_atom_site_type_symbol
_atom_site_label
_atom_site_fract_x
_atom_site_fract_y
_atom_site_fract_z
Si Si1 0.027171 0.397545 0.924414
Si Si2 0.454887 0.891951 0.068733
Si Si3 0.166120 0.092690 0.750000
Si Si4 0.831553 0.414147 0.750000
Si Si5 0.670486 0.602455 0.424414
Si Si6 0.179956 0.891952 0.431267
O O1 0.155939 0.254964 0.952253
O O2 0.915761 0.458541 0.835964
O O3 0.824533 0.376567 0.912266
O O4 0.218370 0.499999 0.000000
O O5 0.574062 0.946331 0.160812
O O6 0.346927 0.745035 0.047747
O O7 0.644053 0.880429 0.072026
O O8 0.259943 1.000000 1.000000
O O9 0.151696 0.253963 0.749999
O O10 0.000000 0.023871 0.750000
O O11 0.069187 0.053668 0.660812
O O12 0.571906 0.458540 0.664037
O O13 0.000000 0.481159 0.750000
#
# Coordination Sequence:
#
# PCOD8118541 Si02
#       6
#     4   4   4   4   4   4
#     4  10  20  33  50  73 102 134 165 200 245 297
#     4   9  17  30  49  71  95 125 163 205 243 284
#     4   7  12  25  44  65  88 116 152 192 234 279
#     4   9  17  31  52  73  94 126 168 208 244 289
#     4  10  20  33  50  73 102 134 165 200 245 297
#     4   9  17  30  49  71  95 125 163 205 243 284
#
# _framework density 17.674747
#
# number of rings (size 3 to 8) (size 9 to 14) (size 15 to 20)
#    0.000    3.000    0.000    3.500    0.000    3.333 
#    0.000    1.667    0.000    2.000    0.000    0.000 
#    0.000    0.000    0.000    0.000    0.000    0.000 
#
# Total GULP energy -297331.791838 kJ/mol
# GULP energy per Si atom -12388.824660 kJ/mol
# Density = 1.763452 g / cm^3
# Si number density = 17.674747 Si / 1000 Ang^3
#
#
#
# Elastic Constant Matrix: (Units=GPa)
#
#
# Indices 1 2 3 4 5 6 
#
# 1 65.3966 32.0877 52.3898 0.0000 2.5295 0.0000
# 2 32.0877 72.1487 75.4645 0.0000 2.8171 0.0000
# 3 52.3898 75.4645 193.0957 0.0000 5.7640 0.0000
# 4 0.0000 0.0000 0.0000 30.5164 0.0000 0.6645
# 5 2.5295 2.8171 5.7640 0.0000 26.1872 0.0000
# 6 0.0000 0.0000 0.0000 0.6645 0.0000 20.2839
#
#
#
# Elastic Compliance Matrix: (Units=1/GPa)
#
#
# Indices 1 2 3 4 5 6 
#
# 1 0.020835 -0.005664 -0.003420 0.000000 -0.000650 0.000000
# 2 -0.005664 0.024990 -0.008220 0.000000 -0.000332 0.000000
# 3 -0.003420 -0.008220 0.009344 0.000000 -0.000842 0.000000
# 4 0.000000 0.000000 0.000000 0.032793 0.000000 -0.001074
# 5 -0.000650 -0.000332 -0.000842 0.000000 0.038471 0.000000
# 6 0.000000 0.000000 0.000000 -0.001074 0.000000 0.049335
#
#
# Mechanical properties :
#
#
# Convention : Reuss Voigt Hill
#
# Bulk Modulus (GPa) = 48.63320 72.28057 60.45689
# Shear Modulus (GPa) = 23.01720 26.77742 24.89731
#
# Velocity S-wave (km/s) = 3.61261 3.89654 3.75725
# Velocity P-wave (km/s) = 6.70646 7.82481 7.28712
#
# Compressibility (1/GPa) = 0.02056208
#
# Stress axis : x y z
#
# Youngs Moduli (GPa) = 47.99551 40.01651 107.01808
#
# Poissons Ratio (x) = 0.22664 0.36600
# Poissons Ratio (y) = 0.27184 0.87966
# Poissons Ratio (z) = 0.16415 0.32893
#
# Static dielectric constant tensor:
#      x y z
#    x 3.191920 0.000000 0.051490 
#    y 0.000000 2.877240 0.000000 
#    z 0.051490 0.000000 3.984790 
# 
# 
# High freq. dielectric constant tensor:
#      x y z
#    x 1.670310 0.000000 0.002560 
#    y 0.000000 1.638680 0.000000 
#    z 0.002560 0.000000 1.709670 
# 
# From -- ./inp_files/70420.got.cif
#   From: 2010.06.25/outbox.cif.g09.slc.cpg/sg13_36_cif.got.tgz:70420.got - 2010.06.28 04:50:58.
