data_PCOD8118263
_publ_section_title
;
Structure prediction by ZEFSAII (Michael W. Deem and Ramdas Pophale) SiO2 
 PCOD8118263
Probable space group: P 2/C
;
_chemical_formula_sum "Si O2"
_cell_formula_units_Z 18
_cell_length_a 21.096421
_cell_length_b 8.120962
_cell_length_c 5.298833
_cell_angle_alpha 90.000000
_cell_angle_beta 75.169764
_cell_angle_gamma 90.000000
_cell_volume 877.572538
_symmetry_space_group_name_H-M "P 2/C"
_symmetry_group_IT_number 13
_symmetry_cell_setting 'monoclinic'
loop_
_space_group_symop_operation_xyz
x,y,z
-x,y,1/2-z
-x,-y,-z
x,-y,1/2+z
loop_
_atom_site_type_symbol
_atom_site_label
_atom_site_fract_x
_atom_site_fract_y
_atom_site_fract_z
Si Si1 0.687549 0.159514 0.060151
Si Si2 0.500000 0.388238 0.750000
Si Si3 0.160196 0.092011 0.593299
Si Si4 0.072755 0.600616 0.147766
Si Si5 0.634105 0.199368 0.614647
O O1 0.671611 0.266662 0.326091
O O2 0.639574 0.999741 0.110087
O O3 0.761717 0.100532 0.982200
O O4 0.671003 0.267130 0.828344
O O5 0.500000 0.500000 0.500000
O O6 0.560678 0.264101 0.687956
O O7 0.129485 0.270653 0.643538
O O8 0.135316 0.008813 0.361194
O O9 0.081586 0.461795 0.352618
O O10 0.000000 0.679105 0.250000
#
# Coordination Sequence:
#
# PCOD8118263 Si02
#       5
#     4   2   4   4   4
#     4  10  19  37  63  87 111 147 192 256 301 357
#     4  12  26  42  56  84 122 158 200 242 292 376
#     4  12  21  38  67  97 130 156 218 275 307 364
#     4  10  23  43  62  89 133 178 212 250 316 388
#     4  10  20  38  61  82 115 150 190 241 306 349
#
# _framework density 20.511125
#
# number of rings (size 3 to 8) (size 9 to 14) (size 15 to 20)
#    0.000    1.333    4.444    2.667    0.000    4.444 
#    0.000    6.667    0.000    0.000    0.000    0.000 
#    0.000    0.000    0.000    0.000    0.000    0.000 
#
# Total GULP energy -223099.644027 kJ/mol
# GULP energy per Si atom -12394.424668 kJ/mol
# Density = 2.046444 g / cm^3
# Si number density = 20.511125 Si / 1000 Ang^3
#
#
#
# Elastic Constant Matrix: (Units=GPa)
#
#
# Indices 1 2 3 4 5 6 
#
# 1 79.7460 52.2275 37.8845 0.0000 5.3945 0.0000
# 2 52.2275 59.0425 20.2871 0.0000 -7.5527 0.0000
# 3 37.8845 20.2871 186.1910 0.0000 30.0340 0.0000
# 4 0.0000 0.0000 0.0000 19.5255 0.0000 2.0270
# 5 5.3945 -7.5527 30.0340 0.0000 23.1794 0.0000
# 6 0.0000 0.0000 0.0000 2.0270 0.0000 14.1575
#
#
#
# Elastic Compliance Matrix: (Units=1/GPa)
#
#
# Indices 1 2 3 4 5 6 
#
# 1 0.037112 -0.035078 -0.000622 0.000000 -0.019261 0.000000
# 2 -0.035078 0.052981 -0.003460 0.000000 0.029910 0.000000
# 3 -0.000622 -0.003460 0.007627 0.000000 -0.010865 0.000000
# 4 0.000000 0.000000 0.000000 0.051988 0.000000 -0.007443
# 5 -0.019261 0.029910 -0.010865 0.000000 0.071449 0.000000
# 6 0.000000 0.000000 0.000000 -0.007443 0.000000 0.071700
#
#
# Mechanical properties :
#
#
# Convention : Reuss Voigt Hill
#
# Bulk Modulus (GPa) = 51.54892 60.64197 56.09545
# Shear Modulus (GPa) = 13.23999 25.67785 19.45892
#
# Velocity S-wave (km/s) = 2.54343 3.54206 3.08344
# Velocity P-wave (km/s) = 5.81482 6.80866 6.33127
#
# Compressibility (1/GPa) = 0.01939905
#
# Stress axis : x y z
#
# Youngs Moduli (GPa) = 26.94559 18.87459 131.11161
#
# Poissons Ratio (x) = 0.66209 0.08158
# Poissons Ratio (y) = 0.94520 0.45367
# Poissons Ratio (z) = 0.01677 0.06531
#
# Static dielectric constant tensor:
#      x y z
#    x 3.709230 0.000000 0.354280 
#    y 0.000000 3.231010 0.000000 
#    z 0.354280 0.000000 4.999250 
# 
# 
# High freq. dielectric constant tensor:
#      x y z
#    x 1.800700 0.000000 0.012640 
#    y 0.000000 1.758230 0.000000 
#    z 0.012640 0.000000 1.844990 
# 
# From -- ./inp_files/5849.got.cif
#   From: 2010.06.25/outbox.cif.g09.slc.cpg/sg13_3_cif.got.tgz:5849.got - 2010.06.28 04:50:58.
