data_PCOD8118130
_publ_section_title
;
Structure prediction by ZEFSAII (Michael W. Deem and Ramdas Pophale) SiO2 
 PCOD8118130
Probable space group: P 2/C
;
_chemical_formula_sum "Si O2"
_cell_formula_units_Z 28
_cell_length_a 8.609700
_cell_length_b 6.732032
_cell_length_c 30.550093
_cell_angle_alpha 90.000000
_cell_angle_beta 126.800662
_cell_angle_gamma 90.000000
_cell_volume 1417.848464
_symmetry_space_group_name_H-M "P 2/C"
_symmetry_group_IT_number 13
_symmetry_cell_setting 'monoclinic'
loop_
_space_group_symop_operation_xyz
x,y,z
-x,y,1/2-z
-x,-y,-z
x,-y,1/2+z
loop_
_atom_site_type_symbol
_atom_site_label
_atom_site_fract_x
_atom_site_fract_y
_atom_site_fract_z
Si Si1 0.334572 0.341329 0.255010
Si Si2 0.802772 0.952835 0.116413
Si Si3 0.893844 0.623276 0.347306
Si Si4 0.212744 0.022483 0.788699
Si Si5 0.776947 0.352334 0.065087
Si Si6 0.488258 0.635265 0.058532
Si Si7 0.529963 0.345266 0.842966
O O1 0.500000 0.262038 0.250000
O O2 0.187554 0.493454 0.206715
O O3 0.214601 0.160036 0.254992
O O4 0.443658 0.444868 0.313700
O O5 0.623620 0.821548 0.068993
O O6 0.994503 0.815162 0.152529
O O7 0.752950 0.045102 0.155404
O O8 0.836204 0.129780 0.088141
O O9 0.725155 0.705144 0.349967
O O10 0.033453 0.487974 0.400329
O O11 0.000000 0.121907 0.750000
O O12 0.376202 0.178551 0.803120
O O13 0.606001 0.433024 0.067919
O O14 0.706302 0.353597 0.002964
O O15 0.426316 0.642285 0.098412
#
# Coordination Sequence:
#
# PCOD8118130 Si02
#       7
#     4   4   4   4   4   4   4
#     4  10  22  38  56  80 110 144 181 224 277 335
#     4  10  20  36  57  82 111 146 188 232 280 332
#     4  10  22  37  57  84 115 150 187 229 280 339
#     4  11  22  34  56  81 105 142 183 227 277 332
#     4  10  19  36  59  82 113 150 190 235 280 327
#     4   9  20  36  57  84 112 148 192 235 278 329
#     4  10  22  39  55  80 115 146 182 230 280 333
#
# _framework density 19.748231000000001
#
# number of rings (size 3 to 8) (size 9 to 14) (size 15 to 20)
#    0.000    2.000    0.000    3.000    0.000    8.571 
#    0.000    0.714    0.000    0.000    0.000    0.000 
#    0.000    0.000    0.000    0.000    0.000    0.000 
#
# Total GULP energy -347256.239541 kJ/mol
# GULP energy per Si atom -12402.008555 kJ/mol
# Density = 1.970328 g / cm^3
# Si number density = 19.748231 Si / 1000 Ang^3
#
#
#
# Elastic Constant Matrix: (Units=GPa)
#
#
# Indices 1 2 3 4 5 6 
#
# 1 114.3376 56.7752 54.3302 0.0000 2.3606 0.0000
# 2 56.7752 99.0985 46.6294 0.0000 -5.8831 0.0000
# 3 54.3302 46.6294 108.1318 0.0000 -0.1771 0.0000
# 4 0.0000 0.0000 0.0000 28.2018 0.0000 -1.8884
# 5 2.3606 -5.8831 -0.1771 0.0000 29.3797 0.0000
# 6 0.0000 0.0000 0.0000 -1.8884 0.0000 28.6298
#
#
#
# Elastic Compliance Matrix: (Units=1/GPa)
#
#
# Indices 1 2 3 4 5 6 
#
# 1 0.013863 -0.006025 -0.004371 0.000000 -0.002347 0.000000
# 2 -0.006025 0.015465 -0.003636 0.000000 0.003559 0.000000
# 3 -0.004371 -0.003636 0.013012 0.000000 -0.000298 0.000000
# 4 0.000000 0.000000 0.000000 0.035616 0.000000 0.002349
# 5 -0.002347 0.003559 -0.000298 0.000000 0.034936 0.000000
# 6 0.000000 0.000000 0.000000 0.002349 0.000000 0.035084
#
#
# Mechanical properties :
#
#
# Convention : Reuss Voigt Hill
#
# Bulk Modulus (GPa) = 70.04905 70.78192 70.41548
# Shear Modulus (GPa) = 27.65507 28.16448 27.90977
#
# Velocity S-wave (km/s) = 3.74623 3.78057 3.76344
# Velocity P-wave (km/s) = 7.36616 7.41464 7.39044
#
# Compressibility (1/GPa) = 0.01427571
#
# Stress axis : x y z
#
# Youngs Moduli (GPa) = 72.13262 64.66266 76.85422
#
# Poissons Ratio (x) = 0.38959 0.33595
# Poissons Ratio (y) = 0.43460 0.27943
# Poissons Ratio (z) = 0.31531 0.23510
#
# Static dielectric constant tensor:
#      x y z
#    x 3.522170 0.000000 0.039700 
#    y 0.000000 3.459600 0.000000 
#    z 0.039700 0.000000 3.663330 
# 
# 
# High freq. dielectric constant tensor:
#      x y z
#    x 1.762160 0.000000 0.004030 
#    y 0.000000 1.765650 0.000000 
#    z 0.004030 0.000000 1.779700 
# 
# From -- ./inp_files/95600.got.cif
#   From: 2010.06.25/outbox.cif.g09.slc.cpg/sg13_48_cif.got.tgz:95600.got - 2010.06.28 04:50:58.
