data_PCOD8118573
_publ_section_title
;
Structure prediction by ZEFSAII (Michael W. Deem and Ramdas Pophale) SiO2 
 PCOD8118573
Probable space group: P 2/C
;
_chemical_formula_sum "Si O2"
_cell_formula_units_Z 20
_cell_length_a 9.026676
_cell_length_b 9.096862
_cell_length_c 26.294007
_cell_angle_alpha 90.000000
_cell_angle_beta 27.992882
_cell_angle_gamma 90.000000
_cell_volume 1013.407325
_symmetry_space_group_name_H-M "P 2/C"
_symmetry_group_IT_number 13
_symmetry_cell_setting 'monoclinic'
loop_
_space_group_symop_operation_xyz
x,y,z
-x,y,1/2-z
-x,-y,-z
x,-y,1/2+z
loop_
_atom_site_type_symbol
_atom_site_label
_atom_site_fract_x
_atom_site_fract_y
_atom_site_fract_z
Si Si1 0.968242 0.860647 0.687269
Si Si2 0.750532 0.160500 0.866160
Si Si3 0.303142 0.811856 0.935915
Si Si4 0.530694 0.345435 0.018839
Si Si5 0.937842 0.115962 0.453138
O O1 0.661841 0.861111 0.815469
O O2 0.173183 0.713527 0.630917
O O3 0.871332 0.880496 0.657799
O O4 0.196901 0.990676 0.636535
O O5 0.000000 0.222736 0.750000
O O6 0.771370 0.249893 0.912086
O O7 0.405152 0.188468 0.948003
O O8 0.316950 0.670045 0.970057
O O9 0.127363 0.780923 0.935789
O O10 0.101393 0.945493 0.020395
O O11 0.500000 0.500000 0.000000
#
# Coordination Sequence:
#
# PCOD8118573 Si02
#       5
#     4   4   4   4   4
#     4  11  19  38  60  87 117 156 205 252 306 364
#     4  11  19  37  58  84 114 154 205 258 302 358
#     4  11  20  35  60  91 122 152 201 255 312 354
#     4  11  23  38  58  84 120 162 202 243 300 378
#     4  10  20  33  58  94 118 148 193 262 307 351
#
# _framework density 19.735401
#
# number of rings (size 3 to 8) (size 9 to 14) (size 15 to 20)
#    0.000    1.200    6.000    2.400    0.000    1.600 
#    0.000    5.000    0.000    4.800    0.000    0.000 
#    0.000    0.000    0.000    0.000    0.000    0.000 
#
# Total GULP energy -247817.606503 kJ/mol
# GULP energy per Si atom -12390.880325 kJ/mol
# Density = 1.969048 g / cm^3
# Si number density = 19.735401 Si / 1000 Ang^3
#
#
#
# Elastic Constant Matrix: (Units=GPa)
#
#
# Indices 1 2 3 4 5 6 
#
# 1 159.8690 49.2346 34.7273 0.0000 17.1657 0.0000
# 2 49.2346 84.8072 31.1771 0.0000 1.3096 0.0000
# 3 34.7273 31.1771 59.0810 0.0000 11.4692 0.0000
# 4 0.0000 0.0000 0.0000 15.6690 0.0000 7.9752
# 5 17.1657 1.3096 11.4692 0.0000 32.0795 0.0000
# 6 0.0000 0.0000 0.0000 7.9752 0.0000 33.7429
#
#
#
# Elastic Compliance Matrix: (Units=1/GPa)
#
#
# Indices 1 2 3 4 5 6 
#
# 1 0.008324 -0.004010 -0.002089 0.000000 -0.003544 0.000000
# 2 -0.004010 0.016724 -0.007256 0.000000 0.004057 0.000000
# 3 -0.002089 -0.007256 0.023327 0.000000 -0.006926 0.000000
# 4 0.000000 0.000000 0.000000 0.072548 0.000000 -0.017147
# 5 -0.003544 0.004057 -0.006926 0.000000 0.035379 0.000000
# 6 0.000000 0.000000 0.000000 -0.017147 0.000000 0.033689
#
#
# Mechanical properties :
#
#
# Convention : Reuss Voigt Hill
#
# Bulk Modulus (GPa) = 46.15514 59.33724 52.74619
# Shear Modulus (GPa) = 22.32903 28.87281 25.60092
#
# Velocity S-wave (km/s) = 3.36731 3.82906 3.60558
# Velocity P-wave (km/s) = 6.20936 7.04845 6.64217
#
# Compressibility (1/GPa) = 0.02166606
#
# Stress axis : x y z
#
# Youngs Moduli (GPa) = 120.12939 59.79330 42.86816
#
# Poissons Ratio (x) = 0.23977 0.08955
# Poissons Ratio (y) = 0.48172 0.31105
# Poissons Ratio (z) = 0.25094 0.43386
#
# Static dielectric constant tensor:
#      x y z
#    x 4.078010 0.000000 0.320790 
#    y 0.000000 3.155040 0.000000 
#    z 0.320790 0.000000 3.661210 
# 
# 
# High freq. dielectric constant tensor:
#      x y z
#    x 1.790320 0.000000 0.021720 
#    y 0.000000 1.713530 0.000000 
#    z 0.021720 0.000000 1.773580 
# 
# From -- ./inp_files/28147.got.cif
#   From: 2010.06.25/outbox.cif.g09.slc.cpg/sg13_15_cif.got.tgz:28147.got - 2010.06.28 04:50:58.
