data_PCOD8118476
_publ_section_title
;
Structure prediction by ZEFSAII (Michael W. Deem and Ramdas Pophale) SiO2 
 PCOD8118476
Probable space group: P 2/C
;
_chemical_formula_sum "Si O2"
_cell_formula_units_Z 30
_cell_length_a 19.107704
_cell_length_b 6.600892
_cell_length_c 22.901555
_cell_angle_alpha 90.000000
_cell_angle_beta 146.581232
_cell_angle_gamma 90.000000
_cell_volume 1590.867108
_symmetry_space_group_name_H-M "P 2/C"
_symmetry_group_IT_number 13
_symmetry_cell_setting 'monoclinic'
loop_
_space_group_symop_operation_xyz
x,y,z
-x,y,1/2-z
-x,-y,-z
x,-y,1/2+z
loop_
_atom_site_type_symbol
_atom_site_label
_atom_site_fract_x
_atom_site_fract_y
_atom_site_fract_z
Si Si1 0.934835 0.132496 0.539282
Si Si2 0.000000 0.897647 0.750000
Si Si3 0.332905 0.044031 0.826887
Si Si4 0.376840 0.059086 0.491094
Si Si5 0.890898 0.789072 0.877575
Si Si6 0.807015 0.811729 0.060025
Si Si7 0.836062 0.391761 0.773405
Si Si8 0.208586 0.419244 0.378014
O O1 0.907263 0.233199 0.458052
O O2 0.805888 0.162079 0.488519
O O3 0.044264 0.245934 0.652302
O O4 0.986670 0.903861 0.564913
O O5 0.899387 0.748400 0.710301
O O6 0.929506 0.047018 0.656992
O O7 0.279579 0.268965 0.777533
O O8 0.328578 0.991553 0.892530
O O9 0.244263 0.890445 0.730139
O O10 0.473230 0.032464 0.898484
O O11 0.337240 0.290596 0.479874
O O12 0.317621 0.901225 0.496060
O O13 0.886119 0.566176 0.849456
O O14 0.822514 0.575805 0.090730
O O15 0.778129 0.454764 0.671334
#
# Coordination Sequence:
#
# PCOD8118476 Si02
#       8
#     4   2   4   4   4   4   4   4
#     4  10  22  36  57  82 116 148 189 226 275 345
#     4  10  20  30  50  78 118 146 172 224 280 352
#     4  10  21  38  57  80 110 145 193 235 278 330
#     4  10  22  37  55  83 112 145 188 235 281 339
#     4  10  21  39  58  82 109 154 189 228 278 331
#     4  11  21  35  53  82 116 147 180 229 285 338
#     4  11  19  33  57  85 111 142 185 232 279 338
#     4  11  20  32  53  85 113 145 182 223 298 332
#
# _framework density 18.857641000000001
#
# number of rings (size 3 to 8) (size 9 to 14) (size 15 to 20)
#    0.000    1.600    2.667    3.200    3.733    2.667 
#    0.000    0.667    0.000    0.000    0.000    0.000 
#    0.000    0.000    0.000    0.000    0.000    0.000 
#
# Total GULP energy -371825.394604 kJ/mol
# GULP energy per Si atom -12394.179820 kJ/mol
# Density = 1.881472 g / cm^3
# Si number density = 18.857641 Si / 1000 Ang^3
#
#
#
# Elastic Constant Matrix: (Units=GPa)
#
#
# Indices 1 2 3 4 5 6 
#
# 1 117.1513 41.8604 27.3352 0.0000 12.0009 0.0000
# 2 41.8604 102.4534 12.1411 0.0000 4.2138 0.0000
# 3 27.3352 12.1411 48.2034 0.0000 12.8807 0.0000
# 4 0.0000 0.0000 0.0000 17.5439 0.0000 -4.3395
# 5 12.0009 4.2138 12.8807 0.0000 25.3900 0.0000
# 6 0.0000 0.0000 0.0000 -4.3395 0.0000 23.4650
#
#
#
# Elastic Compliance Matrix: (Units=1/GPa)
#
#
# Indices 1 2 3 4 5 6 
#
# 1 0.011302 -0.003955 -0.004814 0.000000 -0.002244 0.000000
# 2 -0.003955 0.011449 -0.000732 0.000000 0.000341 0.000000
# 3 -0.004814 -0.000732 0.026629 0.000000 -0.011113 0.000000
# 4 0.000000 0.000000 0.000000 0.059732 0.000000 0.011047
# 5 -0.002244 0.000341 -0.011113 0.000000 0.046027 0.000000
# 6 0.000000 0.000000 0.000000 0.011047 0.000000 0.044660
#
#
# Mechanical properties :
#
#
# Convention : Reuss Voigt Hill
#
# Bulk Modulus (GPa) = 32.91720 47.83129 40.37425
# Shear Modulus (GPa) = 21.84103 25.71119 23.77611
#
# Velocity S-wave (km/s) = 3.40693 3.69648 3.55466
# Velocity P-wave (km/s) = 5.74193 6.60591 6.18902
#
# Compressibility (1/GPa) = 0.03037925
#
# Stress axis : x y z
#
# Youngs Moduli (GPa) = 88.47814 87.34188 37.55323
#
# Poissons Ratio (x) = 0.34545 0.18076
# Poissons Ratio (y) = 0.34995 0.02748
# Poissons Ratio (z) = 0.42589 0.06392
#
# Static dielectric constant tensor:
#      x y z
#    x 3.418820 0.000000 0.051750 
#    y 0.000000 3.726220 0.000000 
#    z 0.051750 0.000000 3.260690 
# 
# 
# High freq. dielectric constant tensor:
#      x y z
#    x 1.726510 0.000000 0.004780 
#    y 0.000000 1.748110 0.000000 
#    z 0.004780 0.000000 1.703660 
# 
# From -- ./inp_files/86978.got.cif
#   From: 2010.06.25/outbox.cif.g09.slc.cpg/sg13_44_cif.got.tgz:86978.got - 2010.06.28 04:50:58.
