data_PCOD8118229
_publ_section_title
;
Structure prediction by ZEFSAII (Michael W. Deem and Ramdas Pophale) SiO2 
 PCOD8118229
Probable space group: P 2/C
;
_chemical_formula_sum "Si O2"
_cell_formula_units_Z 20
_cell_length_a 10.325241
_cell_length_b 12.320857
_cell_length_c 10.103571
_cell_angle_alpha 90.000000
_cell_angle_beta 55.541453
_cell_angle_gamma 90.000000
_cell_volume 1059.803890
_symmetry_space_group_name_H-M "P 2/C"
_symmetry_group_IT_number 13
_symmetry_cell_setting 'monoclinic'
loop_
_space_group_symop_operation_xyz
x,y,z
-x,y,1/2-z
-x,-y,-z
x,-y,1/2+z
loop_
_atom_site_type_symbol
_atom_site_label
_atom_site_fract_x
_atom_site_fract_y
_atom_site_fract_z
Si Si1 0.325241 0.775002 0.350615
Si Si2 0.609665 0.990703 0.311112
Si Si3 0.816789 0.559271 0.014698
Si Si4 0.825670 0.402930 0.223464
Si Si5 0.172861 0.161827 0.203714
O O1 0.500000 0.726568 0.250000
O O2 0.211078 0.673054 0.390562
O O3 0.289461 0.829548 0.512612
O O4 0.314988 0.869962 0.246401
O O5 0.500000 0.020228 0.250000
O O6 0.758829 0.071168 0.236927
O O7 0.500000 0.000000 0.500000
O O8 0.743038 0.459905 0.143694
O O9 0.739630 0.563397 0.911740
O O10 0.000700 0.546890 0.881475
O O11 0.832217 0.273159 0.208922
O O12 0.000000 0.131226 0.250000
#
# Coordination Sequence:
#
# PCOD8118229 Si02
#       5
#     4   4   4   4   4
#     4  10  19  37  60  80 118 158 190 235 307 348
#     4  11  22  41  62  85 119 162 194 242 304 352
#     4   9  17  34  55  81 111 152 187 231 295 347
#     4   9  17  34  58  81 115 146 190 242 289 337
#     4  11  20  39  63  88 116 159 200 241 294 352
#
# _framework density 18.871416
#
# number of rings (size 3 to 8) (size 9 to 14) (size 15 to 20)
#    0.000    2.000    8.000    0.000    0.000    0.800 
#    3.600    5.000    4.400    0.000    0.000    0.000 
#    0.000    0.000    0.000    0.000    0.000    0.000 
#
# Total GULP energy -247767.931363 kJ/mol
# GULP energy per Si atom -12388.396568 kJ/mol
# Density = 1.882846 g / cm^3
# Si number density = 18.871416 Si / 1000 Ang^3
#
#
#
# Elastic Constant Matrix: (Units=GPa)
#
#
# Indices 1 2 3 4 5 6 
#
# 1 81.5355 52.7572 30.8143 0.0000 6.0784 0.0000
# 2 52.7572 124.8248 42.5616 0.0000 17.5055 0.0000
# 3 30.8143 42.5616 95.9010 0.0000 12.7135 0.0000
# 4 0.0000 0.0000 0.0000 32.7473 0.0000 10.0177
# 5 6.0784 17.5055 12.7135 0.0000 21.8401 0.0000
# 6 0.0000 0.0000 0.0000 10.0177 0.0000 27.7865
#
#
#
# Elastic Compliance Matrix: (Units=1/GPa)
#
#
# Indices 1 2 3 4 5 6 
#
# 1 0.017570 -0.006731 -0.002953 0.000000 0.002224 0.000000
# 2 -0.006731 0.012684 -0.002565 0.000000 -0.006800 0.000000
# 3 -0.002953 -0.002565 0.013148 0.000000 -0.004776 0.000000
# 4 0.000000 0.000000 0.000000 0.034322 0.000000 -0.012374
# 5 0.002224 -0.006800 -0.004776 0.000000 0.053399 0.000000
# 6 0.000000 0.000000 0.000000 -0.012374 0.000000 0.040450
#
#
# Mechanical properties :
#
#
# Convention : Reuss Voigt Hill
#
# Bulk Modulus (GPa) = 52.89929 61.61417 57.25673
# Shear Modulus (GPa) = 24.70685 28.21667 26.46176
#
# Velocity S-wave (km/s) = 3.62224 3.87099 3.74868
# Velocity P-wave (km/s) = 6.75177 7.25946 7.01021
#
# Compressibility (1/GPa) = 0.01890385
#
# Stress axis : x y z
#
# Youngs Moduli (GPa) = 56.91484 78.83699 76.05819
#
# Poissons Ratio (x) = 0.53065 0.22461
# Poissons Ratio (y) = 0.38309 0.19510
# Poissons Ratio (z) = 0.16808 0.20223
#
# Static dielectric constant tensor:
#      x y z
#    x 3.033960 0.000000 0.181760 
#    y 0.000000 3.576770 0.000000 
#    z 0.181760 0.000000 3.777220 
# 
# 
# High freq. dielectric constant tensor:
#      x y z
#    x 1.691450 0.000000 0.005170 
#    y 0.000000 1.732780 0.000000 
#    z 0.005170 0.000000 1.744570 
# 
# From -- ./inp_files/21474.got.cif
#   From: 2010.06.25/outbox.cif.g09.slc.cpg/sg13_11_cif.got.tgz:21474.got - 2010.06.28 04:50:58.
