data_PCOD8118528
_publ_section_title
;
Structure prediction by ZEFSAII (Michael W. Deem and Ramdas Pophale) SiO2 
 PCOD8118528
Probable space group: P 2/C
;
_chemical_formula_sum "Si O2"
_cell_formula_units_Z 26
_cell_length_a 13.335455
_cell_length_b 11.608190
_cell_length_c 8.849152
_cell_angle_alpha 90.000000
_cell_angle_beta 104.061020
_cell_angle_gamma 90.000000
_cell_volume 1328.808929
_symmetry_space_group_name_H-M "P 2/C"
_symmetry_group_IT_number 13
_symmetry_cell_setting 'monoclinic'
loop_
_space_group_symop_operation_xyz
x,y,z
-x,y,1/2-z
-x,-y,-z
x,-y,1/2+z
loop_
_atom_site_type_symbol
_atom_site_label
_atom_site_fract_x
_atom_site_fract_y
_atom_site_fract_z
Si Si1 0.359085 0.542498 0.456614
Si Si2 0.101055 0.090434 0.699048
Si Si3 0.311200 0.720848 0.974455
Si Si4 0.893922 0.149885 0.151738
Si Si5 0.496390 0.874300 0.428237
Si Si6 0.288843 0.244403 0.817490
Si Si7 0.500000 0.498878 0.750000
O O1 0.324517 0.410581 0.424120
O O2 0.267251 0.633782 0.396507
O O3 0.407790 0.571121 0.638785
O O4 0.448628 0.577116 0.365099
O O5 0.092112 0.107151 0.515765
O O6 0.192287 0.163256 0.806050
O O7 0.000000 0.133564 0.750000
O O8 0.124109 0.957723 0.743558
O O9 0.204069 0.766723 0.863881
O O10 0.408794 0.800481 0.965364
O O11 0.304540 0.722549 0.150632
O O12 0.000000 0.211370 0.250000
O O13 0.500000 0.886249 0.250000
O O14 0.388026 0.815061 0.431306
O O15 0.500000 0.000000 0.500000
#
# Coordination Sequence:
#
# PCOD8118528 Si02
#       7
#     4   4   4   4   4   4   2
#     4  11  20  38  55  84 110 152 197 225 280 328
#     4  10  20  38  61  85 111 149 190 235 283 335
#     4  10  21  37  58  80 116 151 182 230 286 335
#     4  10  20  38  61  85 111 149 190 235 283 335
#     4  10  20  36  53  78 112 145 177 224 280 335
#     4  10  21  37  58  80 116 151 182 230 286 335
#     4  10  20  32  58  74 112 150 190 224 258 336
#
# _framework density 19.566395
#
# number of rings (size 3 to 8) (size 9 to 14) (size 15 to 20)
#    0.000    1.846    1.538    4.615    2.154    0.000 
#   11.077    0.769    0.000    3.692    0.000    0.000 
#    0.000    0.000    0.000    0.000    0.000    0.000 
#
# Total GULP energy -322192.691084 kJ/mol
# GULP energy per Si atom -12392.026580 kJ/mol
# Density = 1.952186 g / cm^3
# Si number density = 19.566395 Si / 1000 Ang^3
#
#
#
# Elastic Constant Matrix: (Units=GPa)
#
#
# Indices 1 2 3 4 5 6 
#
# 1 113.8974 66.6097 43.6718 0.0000 34.8610 0.0000
# 2 66.6097 126.2173 32.5811 0.0000 29.7076 0.0000
# 3 43.6718 32.5811 82.1041 0.0000 25.7748 0.0000
# 4 0.0000 0.0000 0.0000 30.8757 0.0000 0.8385
# 5 34.8610 29.7076 25.7748 0.0000 40.0879 0.0000
# 6 0.0000 0.0000 0.0000 0.8385 0.0000 11.6693
#
#
#
# Elastic Compliance Matrix: (Units=1/GPa)
#
#
# Indices 1 2 3 4 5 6 
#
# 1 0.015718 -0.005641 -0.003938 0.000000 -0.006956 0.000000
# 2 -0.005641 0.011884 -0.000615 0.000000 -0.003506 0.000000
# 3 -0.003938 -0.000615 0.016664 0.000000 -0.006834 0.000000
# 4 0.000000 0.000000 0.000000 0.032451 0.000000 -0.002332
# 5 -0.006956 -0.003506 -0.006834 0.000000 0.037986 0.000000
# 6 0.000000 0.000000 0.000000 -0.002332 0.000000 0.085862
#
#
# Mechanical properties :
#
#
# Convention : Reuss Voigt Hill
#
# Bulk Modulus (GPa) = 41.88092 67.54931 54.71511
# Shear Modulus (GPa) = 21.84244 28.48367 25.16306
#
# Velocity S-wave (km/s) = 3.34477 3.81956 3.59002
# Velocity P-wave (km/s) = 6.03056 7.35188 6.72375
#
# Compressibility (1/GPa) = 0.02387722
#
# Stress axis : x y z
#
# Youngs Moduli (GPa) = 63.62131 84.14887 60.01080
#
# Poissons Ratio (x) = 0.47470 0.23634
# Poissons Ratio (y) = 0.35890 0.03689
# Poissons Ratio (z) = 0.25056 0.05172
#
# Static dielectric constant tensor:
#      x y z
#    x 3.713840 0.000000 0.283770 
#    y 0.000000 3.523930 0.000000 
#    z 0.283770 0.000000 3.770340 
# 
# 
# High freq. dielectric constant tensor:
#      x y z
#    x 1.748900 0.000000 0.011510 
#    y 0.000000 1.753380 0.000000 
#    z 0.011510 0.000000 1.771230 
# 
# From -- ./inp_files/18625.got.cif
#   From: 2010.06.25/outbox.cif.g09.slc.cpg/sg13_10_cif.got.tgz:18625.got - 2010.06.28 04:50:58.
