data_PCOD8118513
_publ_section_title
;
Structure prediction by ZEFSAII (Michael W. Deem and Ramdas Pophale) SiO2 
 PCOD8118513
Probable space group: P 2/C
;
_chemical_formula_sum "Si O2"
_cell_formula_units_Z 26
_cell_length_a 11.922146
_cell_length_b 6.088753
_cell_length_c 18.676538
_cell_angle_alpha 90.000000
_cell_angle_beta 115.690410
_cell_angle_gamma 90.000000
_cell_volume 1221.732310
_symmetry_space_group_name_H-M "P 2/C"
_symmetry_group_IT_number 13
_symmetry_cell_setting 'monoclinic'
loop_
_space_group_symop_operation_xyz
x,y,z
-x,y,1/2-z
-x,-y,-z
x,-y,1/2+z
loop_
_atom_site_type_symbol
_atom_site_label
_atom_site_fract_x
_atom_site_fract_y
_atom_site_fract_z
Si Si1 0.970306 0.519389 0.361587
Si Si2 0.879704 0.119352 0.934960
Si Si3 0.404422 0.313065 0.993284
Si Si4 0.000000 0.149093 0.750000
Si Si5 0.224302 0.327136 0.465626
Si Si6 0.622436 0.925351 0.611003
Si Si7 0.191732 0.134508 0.224406
O O1 0.919827 0.641300 0.417652
O O2 0.857049 0.384961 0.293376
O O3 0.031126 0.699256 0.326262
O O4 0.077104 0.346584 0.410269
O O5 0.772269 0.164715 0.964697
O O6 0.815883 0.975296 0.855454
O O7 0.000000 0.000000 0.000000
O O8 0.284901 0.430857 0.997181
O O9 0.476631 0.145843 0.066819
O O10 0.500000 0.500000 0.000000
O O11 0.365431 0.179341 0.910654
O O12 0.883565 0.996622 0.735538
O O13 0.293073 0.221068 0.418037
O O14 0.668045 0.881133 0.705191
#
# Coordination Sequence:
#
# PCOD8118513 Si02
#       7
#     4   4   4   2   4   4   4
#     4  11  22  36  59  89 126 164 203 247 320 385
#     4  11  25  38  54  92 129 169 209 248 314 397
#     4   9  21  39  64  91 113 156 213 263 313 361
#     4  10  20  32  52  90 120 156 202 248 304 380
#     4  11  21  36  63  87 123 162 207 258 312 380
#     4  10  21  39  65  91 118 157 215 272 312 366
#     4  11  22  36  58  87 128 160 201 256 317 376
#
# _framework density 21.281255999999999
#
# number of rings (size 3 to 8) (size 9 to 14) (size 15 to 20)
#    0.000    1.538    1.538    3.692    4.308    3.692 
#    0.000    0.000    0.000   22.154    0.000    0.000 
#    0.000    0.000    0.000    0.000    0.000    0.000 
#
# Total GULP energy -322338.413851 kJ/mol
# GULP energy per Si atom -12397.631302 kJ/mol
# Density = 2.123282 g / cm^3
# Si number density = 21.281256 Si / 1000 Ang^3
#
#
#
# Elastic Constant Matrix: (Units=GPa)
#
#
# Indices 1 2 3 4 5 6 
#
# 1 41.8617 17.4919 31.2716 0.0000 1.2381 0.0000
# 2 17.4919 110.9495 43.2330 0.0000 4.7146 0.0000
# 3 31.2716 43.2330 142.6169 0.0000 8.8238 0.0000
# 4 0.0000 0.0000 0.0000 35.3262 0.0000 3.2357
# 5 1.2381 4.7146 8.8238 0.0000 27.9006 0.0000
# 6 0.0000 0.0000 0.0000 3.2357 0.0000 37.2311
#
#
#
# Elastic Compliance Matrix: (Units=1/GPa)
#
#
# Indices 1 2 3 4 5 6 
#
# 1 0.029136 -0.002405 -0.005717 0.000000 0.000921 0.000000
# 2 -0.002405 0.010435 -0.002584 0.000000 -0.000839 0.000000
# 3 -0.005717 -0.002584 0.009186 0.000000 -0.002215 0.000000
# 4 0.000000 0.000000 0.000000 0.028535 0.000000 -0.002480
# 5 0.000921 -0.000839 -0.002215 0.000000 0.036643 0.000000
# 6 0.000000 0.000000 0.000000 -0.002480 0.000000 0.027075
#
#
# Mechanical properties :
#
#
# Convention : Reuss Voigt Hill
#
# Bulk Modulus (GPa) = 36.56918 53.26901 44.91909
# Shear Modulus (GPa) = 29.14846 33.65370 31.40108
#
# Velocity S-wave (km/s) = 3.70493 3.98097 3.84543
# Velocity P-wave (km/s) = 5.96012 6.79824 6.39293
#
# Compressibility (1/GPa) = 0.02734543
#
# Stress axis : x y z
#
# Youngs Moduli (GPa) = 34.32136 95.83302 108.86611
#
# Poissons Ratio (x) = 0.23049 0.62235
# Poissons Ratio (y) = 0.08255 0.28130
# Poissons Ratio (z) = 0.19620 0.24763
#
# Static dielectric constant tensor:
#      x y z
#    x 3.836970 0.000000 0.168890 
#    y 0.000000 4.290180 0.000000 
#    z 0.168890 0.000000 3.961040 
# 
# 
# High freq. dielectric constant tensor:
#      x y z
#    x 1.802800 0.000000 0.006960 
#    y 0.000000 1.853330 0.000000 
#    z 0.006960 0.000000 1.829730 
# 
# From -- ./inp_files/67423.got.cif
#   From: 2010.06.25/outbox.cif.g09.slc.cpg/sg13_34_cif.got.tgz:67423.got - 2010.06.28 04:50:58.
