data_PCOD8118296
_publ_section_title
;
Structure prediction by ZEFSAII (Michael W. Deem and Ramdas Pophale) SiO2 
 PCOD8118296
Probable space group: P 2/C
;
_chemical_formula_sum "Si O2"
_cell_formula_units_Z 32
_cell_length_a 13.905340
_cell_length_b 8.291386
_cell_length_c 24.530218
_cell_angle_alpha 90.000000
_cell_angle_beta 149.935988
_cell_angle_gamma 90.000000
_cell_volume 1416.835634
_symmetry_space_group_name_H-M "P 2/C"
_symmetry_group_IT_number 13
_symmetry_cell_setting 'monoclinic'
loop_
_space_group_symop_operation_xyz
x,y,z
-x,y,1/2-z
-x,-y,-z
x,-y,1/2+z
loop_
_atom_site_type_symbol
_atom_site_label
_atom_site_fract_x
_atom_site_fract_y
_atom_site_fract_z
Si Si1 0.436481 0.573119 0.634342
Si Si2 0.828437 0.811704 0.043837
Si Si3 0.214443 0.716291 0.066417
Si Si4 0.043933 0.552323 0.212347
Si Si5 0.470148 0.598437 0.430592
Si Si6 0.145883 0.570626 0.656160
Si Si7 0.402845 0.885281 0.064476
Si Si8 0.213212 0.812014 0.182505
O O1 0.278067 0.713413 0.556874
O O2 0.370301 0.430382 0.642894
O O3 0.449730 0.508069 0.579316
O O4 0.644719 0.649003 0.752358
O O5 0.886667 0.689383 0.121096
O O6 0.018659 0.894194 0.110505
O O7 0.674823 0.940226 0.992605
O O8 0.239907 0.823782 0.025646
O O9 0.240934 0.834968 0.131129
O O10 0.000087 0.639420 0.960092
O O11 0.248279 0.641669 0.314039
O O12 0.054122 0.407200 0.172287
O O13 0.000000 0.475091 0.250000
O O14 0.500000 0.500000 0.500000
O O15 0.581055 0.770738 0.481266
O O16 0.183218 0.379518 0.672907
O O17 0.605617 0.885253 0.196565
#
# Coordination Sequence:
#
# PCOD8118296 Si02
#       8
#     4   4   4   4   4   4   4   4
#     4  10  20  37  61  97 122 168 216 275 322 386
#     4  11  23  41  63  90 137 174 214 269 338 403
#     4  11  21  38  67  91 127 173 223 277 328 390
#     4  10  19  37  67  90 127 167 204 267 341 386
#     4  10  20  39  67  95 121 165 221 270 329 392
#     4  10  20  36  61 100 122 159 222 277 328 382
#     4  11  24  41  64  93 135 177 213 270 339 407
#     4  11  21  41  65  92 127 175 218 274 338 387
#
# _framework density 22.585542
#
# number of rings (size 3 to 8) (size 9 to 14) (size 15 to 20)
#    0.000    1.500    7.500    1.500    1.750    1.500 
#    0.000    3.750    2.750    0.000    0.000    0.000 
#    0.000    0.000    0.000    0.000    0.000    0.000 
#
# Total GULP energy -396468.528465 kJ/mol
# GULP energy per Si atom -12389.641515 kJ/mol
# Density = 2.253414 g / cm^3
# Si number density = 22.585542 Si / 1000 Ang^3
#
#
#
# Elastic Constant Matrix: (Units=GPa)
#
#
# Indices 1 2 3 4 5 6 
#
# 1 66.6596 3.5248 38.1507 0.0000 1.9187 0.0000
# 2 3.5248 48.2166 42.6396 0.0000 6.6894 0.0000
# 3 38.1507 42.6396 145.2066 0.0000 21.5613 0.0000
# 4 0.0000 0.0000 0.0000 28.4065 0.0000 11.4883
# 5 1.9187 6.6894 21.5613 0.0000 34.8523 0.0000
# 6 0.0000 0.0000 0.0000 11.4883 0.0000 25.9966
#
#
#
# Elastic Compliance Matrix: (Units=1/GPa)
#
#
# Indices 1 2 3 4 5 6 
#
# 1 0.018329 0.003921 -0.006283 0.000000 0.002125 0.000000
# 2 0.003921 0.028857 -0.009524 0.000000 0.000138 0.000000
# 3 -0.006283 -0.009524 0.012125 0.000000 -0.005327 0.000000
# 4 0.000000 0.000000 0.000000 0.042864 0.000000 -0.018942
# 5 0.002125 0.000138 -0.005327 0.000000 0.031845 0.000000
# 6 0.000000 0.000000 0.000000 -0.018942 0.000000 0.046838
#
#
# Mechanical properties :
#
#
# Convention : Reuss Voigt Hill
#
# Bulk Modulus (GPa) = 28.13803 47.63479 37.88641
# Shear Modulus (GPa) = 23.09738 29.56894 26.33316
#
# Velocity S-wave (km/s) = 3.20138 3.62221 3.41828
# Velocity P-wave (km/s) = 5.11376 6.21534 5.69127
#
# Compressibility (1/GPa) = 0.03553909
#
# Stress axis : x y z
#
# Youngs Moduli (GPa) = 54.55918 34.65397 82.47269
#
# Poissons Ratio (x) = -0.13588 0.51814
# Poissons Ratio (y) = -0.21393 0.78550
# Poissons Ratio (z) = 0.34277 0.33006
#
# Static dielectric constant tensor:
#      x y z
#    x 4.812830 0.000000 0.111770 
#    y 0.000000 3.633710 0.000000 
#    z 0.111770 0.000000 4.440990 
# 
# 
# High freq. dielectric constant tensor:
#      x y z
#    x 1.894270 0.000000 0.019990 
#    y 0.000000 1.830270 0.000000 
#    z 0.019990 0.000000 1.905290 
# 
# From -- ./inp_files/92855.got.cif
#   From: 2010.06.25/outbox.cif.g09.slc.cpg/sg13_47_cif.got.tgz:92855.got - 2010.06.28 04:50:58.
