data_PCOD8118950
_publ_section_title
;
Structure prediction by ZEFSAII (Michael W. Deem and Ramdas Pophale) SiO2 
 PCOD8118950
Probable space group: P 2/C
;
_chemical_formula_sum "Si O2"
_cell_formula_units_Z 24
_cell_length_a 13.311873
_cell_length_b 11.332051
_cell_length_c 22.707880
_cell_angle_alpha 90.000000
_cell_angle_beta 158.637837
_cell_angle_gamma 90.000000
_cell_volume 1247.779856
_symmetry_space_group_name_H-M "P 2/C"
_symmetry_group_IT_number 13
_symmetry_cell_setting 'monoclinic'
loop_
_space_group_symop_operation_xyz
x,y,z
-x,y,1/2-z
-x,-y,-z
x,-y,1/2+z
loop_
_atom_site_type_symbol
_atom_site_label
_atom_site_fract_x
_atom_site_fract_y
_atom_site_fract_z
Si Si1 0.817645 0.924726 0.708121
Si Si2 0.500000 0.739597 0.250000
Si Si3 0.217864 0.763494 0.986046
Si Si4 0.246865 0.510765 0.491229
Si Si5 0.357494 0.827473 0.382686
Si Si6 0.000000 0.363533 0.750000
Si Si7 0.180703 0.553413 0.150294
O O1 0.517679 0.873098 0.528427
O O2 0.000000 0.925207 0.750000
O O3 0.811839 0.057295 0.731660
O O4 0.942537 0.836565 0.824103
O O5 0.303555 0.811138 0.098311
O O6 0.320969 0.667860 0.199781
O O7 0.450644 0.785441 0.064924
O O8 0.150503 0.624592 0.947773
O O9 0.204136 0.553542 0.400372
O O10 0.566167 0.528055 0.686121
O O11 0.034353 0.586241 0.415421
O O12 0.171323 0.717428 0.298923
O O13 0.000000 0.500000 0.000000
#
# Coordination Sequence:
#
# PCOD8118950 Si02
#       7
#     4   2   4   4   4   2   4
#     4   9  19  38  61  79 107 153 198 233 289 345
#     4  10  20  36  60  84 114 156 192 240 282 342
#     4  10  21  37  59  83 112 151 194 235 291 346
#     4  11  25  35  58  91 125 158 185 242 297 354
#     4  10  21  37  57  84 113 150 194 240 284 349
#     4  12  24  34  54  92 130 144 186 242 300 348
#     4  11  19  39  58  81 118 163 202 224 276 354
#
# _framework density 19.234162000000001
#
# number of rings (size 3 to 8) (size 9 to 14) (size 15 to 20)
#    0.000    1.667    4.167    2.000    5.833    1.333 
#    0.000    0.833    0.000    0.000    0.000    0.000 
#    0.000    0.000    0.000    0.000    0.000    0.000 
#
# Total GULP energy -297398.817372 kJ/mol
# GULP energy per Si atom -12391.617391 kJ/mol
# Density = 1.919038 g / cm^3
# Si number density = 19.234162 Si / 1000 Ang^3
#
#
#
# Elastic Constant Matrix: (Units=GPa)
#
#
# Indices 1 2 3 4 5 6 
#
# 1 67.2214 13.6375 33.0879 0.0000 -11.4637 0.0000
# 2 13.6375 64.0823 38.5299 0.0000 -14.4725 0.0000
# 3 33.0879 38.5299 128.7101 0.0000 -15.8257 0.0000
# 4 0.0000 0.0000 0.0000 27.1269 0.0000 7.3729
# 5 -11.4637 -14.4725 -15.8257 0.0000 33.4601 0.0000
# 6 0.0000 0.0000 0.0000 7.3729 0.0000 -17.9123
#
#
#
# Elastic Compliance Matrix: (Units=1/GPa)
#
#
# Indices 1 2 3 4 5 6 
#
# 1 0.017563 -0.000513 -0.003874 0.000000 0.003963 0.000000
# 2 -0.000513 0.020200 -0.005163 0.000000 0.006120 0.000000
# 3 -0.003874 -0.005163 0.010483 0.000000 0.001398 0.000000
# 4 0.000000 0.000000 0.000000 0.033155 0.000000 0.013647
# 5 0.003963 0.006120 0.001398 0.000000 0.034552 0.000000
# 6 0.000000 0.000000 0.000000 0.013647 0.000000 -0.050210
#
#
# Mechanical properties :
#
#
# Convention : Reuss Voigt Hill
#
# Bulk Modulus (GPa) = 34.31008 47.83605 41.07306
# Shear Modulus (GPa) = 52.87765 20.18549 36.53157
#
# Velocity S-wave (km/s) = 5.24892 3.24305 4.36283
# Velocity P-wave (km/s) = 7.38998 6.24080 6.83956
#
# Compressibility (1/GPa) = 0.02914596
#
# Stress axis : x y z
#
# Youngs Moduli (GPa) = 56.93761 49.50411 95.39594
#
# Poissons Ratio (x) = 0.02541 0.36957
# Poissons Ratio (y) = 0.02923 0.49250
# Poissons Ratio (z) = 0.22058 0.25557
#
# Static dielectric constant tensor:
#      x y z
#    x 4.681200 0.000000 2.398170 
#    y 0.000000 3.754920 0.000000 
#    z 2.398170 0.000000 9.964560 
# 
# 
# High freq. dielectric constant tensor:
#      x y z
#    x 1.743930 0.000000 -0.001140 
#    y 0.000000 1.723580 0.000000 
#    z -0.001140 0.000000 1.762530 
# 
# From -- ./inp_files/87502.got.cif
#   From: 2010.06.25/outbox.cif.g09.slc.cpg/sg13_44_cif.got.tgz:87502.got - 2010.06.28 04:50:58.
