data_PCOD8118463
_publ_section_title
;
Structure prediction by ZEFSAII (Michael W. Deem and Ramdas Pophale) SiO2 
 PCOD8118463
Probable space group: P 2/C
;
_chemical_formula_sum "Si O2"
_cell_formula_units_Z 32
_cell_length_a 17.904085
_cell_length_b 11.228300
_cell_length_c 14.910796
_cell_angle_alpha 90.000000
_cell_angle_beta 148.881607
_cell_angle_gamma 90.000000
_cell_volume 1549.160254
_symmetry_space_group_name_H-M "P 2/C"
_symmetry_group_IT_number 13
_symmetry_cell_setting 'monoclinic'
loop_
_space_group_symop_operation_xyz
x,y,z
-x,y,1/2-z
-x,-y,-z
x,-y,1/2+z
loop_
_atom_site_type_symbol
_atom_site_label
_atom_site_fract_x
_atom_site_fract_y
_atom_site_fract_z
Si Si1 0.854487 0.164715 0.059521
Si Si2 0.833387 0.101554 0.561188
Si Si3 0.743772 0.264237 0.611198
Si Si4 0.154458 0.561668 0.429591
Si Si5 0.795460 0.253590 0.365249
Si Si6 0.629277 0.645727 0.317398
Si Si7 0.042768 0.861342 0.032104
Si Si8 0.493088 0.357646 0.998290
O O1 0.000000 0.219998 0.250000
O O2 0.871633 0.156694 0.970999
O O3 0.822868 0.037494 0.071264
O O4 0.720660 0.245652 0.950931
O O5 0.715874 0.168545 0.503383
O O6 0.783124 0.128704 0.407329
O O7 0.000000 0.145123 0.750000
O O8 0.800304 0.382565 0.619499
O O9 0.602328 0.306621 0.518551
O O10 0.856306 0.192190 0.787351
O O11 0.136933 0.657182 0.491401
O O12 0.269733 0.469093 0.586020
O O13 0.000000 0.500382 0.250000
O O14 0.900821 0.223715 0.389989
O O15 0.650299 0.302566 0.172848
O O16 0.500000 0.613052 0.250000
O O17 0.572085 0.686612 0.162006
O O18 0.000000 0.000000 0.000000
O O19 0.500000 0.500000 0.000000
#
# Coordination Sequence:
#
# PCOD8118463 Si02
#       8
#     4   4   4   4   4   4   4   4
#     4  11  24  44  67 100 138 178 228 285 351 412
#     4  10  19  42  72 102 135 173 228 290 345 403
#     4  11  22  43  73 102 134 179 230 281 340 419
#     4  11  22  43  72 101 134 174 237 289 334 406
#     4  11  22  40  70 103 133 173 228 279 347 415
#     4  12  27  47  62  93 144 189 223 282 357 413
#     4  12  21  42  73 105 138 173 225 297 351 404
#     4  12  26  46  65 100 143 183 229 284 348 419
#
# _framework density 20.656351999999998
#
# number of rings (size 3 to 8) (size 9 to 14) (size 15 to 20)
#    0.000    0.750    6.250    2.625    1.750    1.500 
#    4.500    3.125    0.000    0.000    0.000    0.000 
#    0.000    0.000    0.000    0.000    0.000    0.000 
#
# Total GULP energy -396622.451346 kJ/mol
# GULP energy per Si atom -12394.451605 kJ/mol
# Density = 2.060934 g / cm^3
# Si number density = 20.656352 Si / 1000 Ang^3
#
#
#
# Elastic Constant Matrix: (Units=GPa)
#
#
# Indices 1 2 3 4 5 6 
#
# 1 95.8612 24.5806 12.9052 0.0000 13.1275 0.0000
# 2 24.5806 86.7567 37.3163 0.0000 16.2185 0.0000
# 3 12.9052 37.3163 106.4667 0.0000 7.1411 0.0000
# 4 0.0000 0.0000 0.0000 25.6289 0.0000 -0.7888
# 5 13.1275 16.2185 7.1411 0.0000 34.8829 0.0000
# 6 0.0000 0.0000 0.0000 -0.7888 0.0000 31.8549
#
#
#
# Elastic Compliance Matrix: (Units=1/GPa)
#
#
# Indices 1 2 3 4 5 6 
#
# 1 0.011554 -0.002569 -0.000292 0.000000 -0.003094 0.000000
# 2 -0.002569 0.015232 -0.004681 0.000000 -0.005157 0.000000
# 3 -0.000292 -0.004681 0.011067 0.000000 0.000021 0.000000
# 4 0.000000 0.000000 0.000000 0.039048 0.000000 0.000967
# 5 -0.003094 -0.005157 0.000021 0.000000 0.032225 0.000000
# 6 0.000000 0.000000 0.000000 0.000967 0.000000 0.031416
#
#
# Mechanical properties :
#
#
# Convention : Reuss Voigt Hill
#
# Bulk Modulus (GPa) = 43.92391 48.74320 46.33356
# Shear Modulus (GPa) = 30.63392 32.75886 31.69639
#
# Velocity S-wave (km/s) = 3.85519 3.98665 3.92147
# Velocity P-wave (km/s) = 6.41303 6.69624 6.55616
#
# Compressibility (1/GPa) = 0.02276664
#
# Stress axis : x y z
#
# Youngs Moduli (GPa) = 86.55327 65.65090 90.35470
#
# Poissons Ratio (x) = 0.16868 0.02642
# Poissons Ratio (y) = 0.22239 0.42299
# Poissons Ratio (z) = 0.02531 0.30734
#
# Static dielectric constant tensor:
#      x y z
#    x 3.942240 0.000000 -0.039850 
#    y 0.000000 3.814470 0.000000 
#    z -0.039850 0.000000 3.767180 
# 
# 
# High freq. dielectric constant tensor:
#      x y z
#    x 1.811140 0.000000 -0.008350 
#    y 0.000000 1.810070 0.000000 
#    z -0.008350 0.000000 1.805240 
# 
# From -- ./inp_files/55855.got.cif
#   From: 2010.06.25/outbox.cif.g09.slc.cpg/sg13_28_cif.got.tgz:55855.got - 2010.06.28 04:50:58.
