data_PCOD8118698
_publ_section_title
;
Structure prediction by ZEFSAII (Michael W. Deem and Ramdas Pophale) SiO2 
 PCOD8118698
Probable space group: P 2/C
;
_chemical_formula_sum "Si O2"
_cell_formula_units_Z 28
_cell_length_a 8.965179
_cell_length_b 10.374607
_cell_length_c 20.965753
_cell_angle_alpha 90.000000
_cell_angle_beta 133.839704
_cell_angle_gamma 90.000000
_cell_volume 1406.517789
_symmetry_space_group_name_H-M "P 2/C"
_symmetry_group_IT_number 13
_symmetry_cell_setting 'monoclinic'
loop_
_space_group_symop_operation_xyz
x,y,z
-x,y,1/2-z
-x,-y,-z
x,-y,1/2+z
loop_
_atom_site_type_symbol
_atom_site_label
_atom_site_fract_x
_atom_site_fract_y
_atom_site_fract_z
Si Si1 0.365846 0.392058 0.833111
Si Si2 0.915414 0.896359 0.360552
Si Si3 0.500000 0.743063 0.250000
Si Si4 0.089944 0.295249 0.008967
Si Si5 0.909564 0.366910 0.288127
Si Si6 0.789337 0.565362 0.510126
Si Si7 0.269736 0.161683 0.176341
Si Si8 0.000000 0.796653 0.250000
O O1 0.496632 0.346541 0.810894
O O2 0.539897 0.417432 0.939100
O O3 0.237261 0.514192 0.771881
O O4 0.206618 0.288859 0.814340
O O5 0.696207 0.832902 0.306392
O O6 0.067638 0.822638 0.453250
O O7 0.995217 0.885303 0.311509
O O8 0.898893 0.046791 0.373886
O O9 0.881882 0.335569 0.985119
O O10 0.172622 0.417617 0.995942
O O11 0.258419 0.246564 0.109241
O O12 0.101745 0.409964 0.389752
O O13 0.000000 0.309549 0.250000
O O14 0.772558 0.254637 0.277008
O O15 0.500000 0.104394 0.250000
#
# Coordination Sequence:
#
# PCOD8118698 Si02
#       8
#     4   4   2   4   4   4   4   2
#     4  11  21  40  62  94 126 158 207 255 318 365
#     4  11  21  42  61  88 125 163 211 247 299 365
#     4  10  20  34  68  88 118 158 212 256 290 360
#     4  10  21  38  64  98 117 156 211 263 299 361
#     4  11  25  41  59  94 130 159 201 253 318 380
#     4  10  21  38  67  92 127 158 200 260 322 357
#     4  11  24  41  64  89 121 166 210 253 304 362
#     4  10  24  38  62  96 124 162 208 254 304 378
#
# _framework density 19.907319999999999
#
# number of rings (size 3 to 8) (size 9 to 14) (size 15 to 20)
#    0.000    1.429    2.857    3.000    6.000    0.571 
#    2.571    0.000    0.000    2.571    0.000    0.000 
#    0.000    0.000    0.000    0.000    0.000    0.000 
#
# Total GULP energy -347167.486619 kJ/mol
# GULP energy per Si atom -12398.838808 kJ/mol
# Density = 1.986201 g / cm^3
# Si number density = 19.907320 Si / 1000 Ang^3
#
#
#
# Elastic Constant Matrix: (Units=GPa)
#
#
# Indices 1 2 3 4 5 6 
#
# 1 91.4514 20.1735 49.4452 0.0000 -13.8341 0.0000
# 2 20.1735 86.8465 29.0443 0.0000 -12.0591 0.0000
# 3 49.4452 29.0443 107.9906 0.0000 5.7797 0.0000
# 4 0.0000 0.0000 0.0000 9.8216 0.0000 -1.6940
# 5 -13.8341 -12.0591 5.7797 0.0000 36.6907 0.0000
# 6 0.0000 0.0000 0.0000 -1.6940 0.0000 116.5926
#
#
#
# Elastic Compliance Matrix: (Units=1/GPa)
#
#
# Indices 1 2 3 4 5 6 
#
# 1 0.016303 -0.000156 -0.007815 0.000000 0.007326 0.000000
# 2 -0.000156 0.013526 -0.003833 0.000000 0.004990 0.000000
# 3 -0.007815 -0.003833 0.014214 0.000000 -0.006445 0.000000
# 4 0.000000 0.000000 0.000000 0.102073 0.000000 0.001483
# 5 0.007326 0.004990 -0.006445 0.000000 0.032673 0.000000
# 6 0.000000 0.000000 0.000000 0.001483 0.000000 0.008598
#
#
# Mechanical properties :
#
#
# Convention : Reuss Voigt Hill
#
# Bulk Modulus (GPa) = 48.93735 53.73496 51.33615
# Shear Modulus (GPa) = 22.95622 45.12933 34.04277
#
# Velocity S-wave (km/s) = 3.39950 4.76644 4.13978
# Velocity P-wave (km/s) = 6.32809 7.57252 6.97810
#
# Compressibility (1/GPa) = 0.02043429
#
# Stress axis : x y z
#
# Youngs Moduli (GPa) = 61.33981 73.93270 70.35291
#
# Poissons Ratio (x) = 0.01155 0.54978
# Poissons Ratio (y) = 0.00958 0.26969
# Poissons Ratio (z) = 0.47934 0.28341
#
# Static dielectric constant tensor:
#      x y z
#    x 3.617890 0.000000 0.039920 
#    y 0.000000 3.568090 0.000000 
#    z 0.039920 0.000000 3.540120 
# 
# 
# High freq. dielectric constant tensor:
#      x y z
#    x 1.772820 0.000000 -0.003010 
#    y 0.000000 1.774340 0.000000 
#    z -0.003010 0.000000 1.782560 
# 
# From -- ./inp_files/76302.got.cif
#   From: 2010.06.25/outbox.cif.g09.slc.cpg/sg13_39_cif.got.tgz:76302.got - 2010.06.28 04:50:58.
