data_PCOD8118917
_publ_section_title
;
Structure prediction by ZEFSAII (Michael W. Deem and Ramdas Pophale) SiO2 
 PCOD8118917
Probable space group: P 2/C
;
_chemical_formula_sum "Si O2"
_cell_formula_units_Z 16
_cell_length_a 4.951113
_cell_length_b 18.954079
_cell_length_c 9.576115
_cell_angle_alpha 90.000000
_cell_angle_beta 59.145261
_cell_angle_gamma 90.000000
_cell_volume 771.471982
_symmetry_space_group_name_H-M "P 2/C"
_symmetry_group_IT_number 13
_symmetry_cell_setting 'monoclinic'
loop_
_space_group_symop_operation_xyz
x,y,z
-x,y,1/2-z
-x,-y,-z
x,-y,1/2+z
loop_
_atom_site_type_symbol
_atom_site_label
_atom_site_fract_x
_atom_site_fract_y
_atom_site_fract_z
Si Si1 0.130925 0.941783 0.364064
Si Si2 0.584049 0.431175 0.066696
Si Si3 0.864063 0.787419 0.137764
Si Si4 0.223623 0.642699 0.437443
O O1 0.500000 0.945968 0.250000
O O2 0.003927 0.863711 0.447299
O O3 0.000000 0.961022 0.250000
O O4 0.000000 0.000000 0.500000
O O5 0.500000 0.441935 0.250000
O O6 0.500000 0.500000 0.000000
O O7 0.367754 0.370759 0.053192
O O8 0.955059 0.412984 0.962428
O O9 0.500000 0.800549 0.250000
O O10 0.926799 0.721728 0.016569
O O11 0.000000 0.763813 0.250000
O O12 0.500000 0.637748 0.250000
#
# Coordination Sequence:
#
# PCOD8118917 Si02
#       4
#     4   4   4   4
#     4  10  20  36  58  86 120 157 198 241 288 344
#     4  12  26  43  61  88 122 154 189 239 297 353
#     4   9  18  34  59  87 115 152 196 239 287 348
#     4  11  22  41  66  89 113 153 201 243 288 347
#
# _framework density 20.739574999999999
#
# number of rings (size 3 to 8) (size 9 to 14) (size 15 to 20)
#    0.000    1.500    0.000    6.750    0.000    2.000 
#    0.000    3.750    0.000    0.000    0.000    0.000 
#    0.000    0.000    0.000    0.000    0.000    0.000 
#
# Total GULP energy -198274.320897 kJ/mol
# GULP energy per Si atom -12392.145056 kJ/mol
# Density = 2.069237 g / cm^3
# Si number density = 20.739575 Si / 1000 Ang^3
#
#
#
# Elastic Constant Matrix: (Units=GPa)
#
#
# Indices 1 2 3 4 5 6 
#
# 1 157.6724 49.1707 56.2428 0.0000 21.4247 0.0000
# 2 49.1707 161.0520 83.8828 0.0000 20.4320 0.0000
# 3 56.2428 83.8828 99.2755 0.0000 19.8282 0.0000
# 4 0.0000 0.0000 0.0000 34.9201 0.0000 6.0486
# 5 21.4247 20.4320 19.8282 0.0000 39.9152 0.0000
# 6 0.0000 0.0000 0.0000 6.0486 0.0000 36.8647
#
#
#
# Elastic Compliance Matrix: (Units=1/GPa)
#
#
# Indices 1 2 3 4 5 6 
#
# 1 0.008136 -0.000055 -0.004103 0.000000 -0.002300 0.000000
# 2 -0.000055 0.011136 -0.009154 0.000000 -0.001124 0.000000
# 3 -0.004103 -0.009154 0.020823 0.000000 -0.003455 0.000000
# 4 0.000000 0.000000 0.000000 0.029474 0.000000 -0.004836
# 5 -0.002300 -0.001124 -0.003455 0.000000 0.028580 0.000000
# 6 0.000000 0.000000 0.000000 -0.004836 0.000000 0.027920
#
#
# Mechanical properties :
#
#
# Convention : Reuss Voigt Hill
#
# Bulk Modulus (GPa) = 74.23921 88.51029 81.37475
# Shear Modulus (GPa) = 31.81008 37.58690 34.69849
#
# Velocity S-wave (km/s) = 3.92061 4.26176 4.09474
# Velocity P-wave (km/s) = 7.50790 8.18453 7.85350
#
# Compressibility (1/GPa) = 0.01346997
#
# Stress axis : x y z
#
# Youngs Moduli (GPa) = 122.91618 89.79593 48.02485
#
# Poissons Ratio (x) = 0.00493 0.19706
# Poissons Ratio (y) = 0.00675 0.43963
# Poissons Ratio (z) = 0.50436 0.82200
#
# Static dielectric constant tensor:
#      x y z
#    x 4.290560 0.000000 0.062940 
#    y 0.000000 4.551360 0.000000 
#    z 0.062940 0.000000 3.061730 
# 
# 
# High freq. dielectric constant tensor:
#      x y z
#    x 1.848080 0.000000 0.009770 
#    y 0.000000 1.832130 0.000000 
#    z 0.009770 0.000000 1.760200 
# 
# From -- ./inp_files/9282.got.cif
#   From: 2010.06.25/outbox.cif.g09.slc.cpg/sg13_5_cif.got.tgz:9282.got - 2010.06.28 04:50:58.
