data_PCOD8118151
_publ_section_title
;
Structure prediction by ZEFSAII (Michael W. Deem and Ramdas Pophale) SiO2 
 PCOD8118151
Probable space group: P 2/C
;
_chemical_formula_sum "Si O2"
_cell_formula_units_Z 32
_cell_length_a 8.400755
_cell_length_b 11.456376
_cell_length_c 21.259757
_cell_angle_alpha 90.000000
_cell_angle_beta 49.353748
_cell_angle_gamma 90.000000
_cell_volume 1552.458966
_symmetry_space_group_name_H-M "P 2/C"
_symmetry_group_IT_number 13
_symmetry_cell_setting 'monoclinic'
loop_
_space_group_symop_operation_xyz
x,y,z
-x,y,1/2-z
-x,-y,-z
x,-y,1/2+z
loop_
_atom_site_type_symbol
_atom_site_label
_atom_site_fract_x
_atom_site_fract_y
_atom_site_fract_z
Si Si1 0.038790 0.217007 0.633744
Si Si2 0.167510 0.570647 0.261275
Si Si3 0.407386 0.854912 0.648584
Si Si4 0.766201 0.186788 0.441658
Si Si5 0.647757 0.070209 0.770056
Si Si6 0.176823 0.049170 0.498216
Si Si7 0.566080 0.737316 0.380615
Si Si8 0.129533 0.312238 0.281439
O O1 0.121216 0.172533 0.545641
O O2 0.226178 0.223184 0.635539
O O3 0.919830 0.342331 0.662046
O O4 0.869750 0.122137 0.695568
O O5 0.382428 0.619405 0.172951
O O6 0.191902 0.443401 0.286464
O O7 0.000000 0.558021 0.250000
O O8 0.365244 0.819857 0.588145
O O9 0.639007 0.909545 0.595541
O O10 0.354292 0.748496 0.709643
O O11 0.268726 0.961349 0.710348
O O12 0.635131 0.273968 0.521700
O O13 0.994043 0.245991 0.370617
O O14 0.770170 0.054312 0.466358
O O15 0.500000 0.032882 0.750000
O O16 0.508892 0.160548 0.846559
O O17 0.000000 0.000000 0.500000
O O18 0.000000 0.307311 0.250000
#
# Coordination Sequence:
#
# PCOD8118151 Si02
#       8
#     4   4   4   4   4   4   4   4
#     4  10  20  35  58  83 114 154 193 241 291 345
#     4   8  17  36  57  85 114 146 202 242 290 343
#     4  11  21  37  57  84 122 151 196 232 298 359
#     4  11  21  38  59  86 120 154 196 242 297 351
#     4  11  21  34  55  85 116 154 192 238 296 351
#     4  12  23  36  56  89 120 152 190 244 295 355
#     4  10  19  36  60  86 116 152 195 245 286 353
#     4   9  20  37  58  86 117 152 193 249 293 347
#
# _framework density 20.612463999999999
#
# number of rings (size 3 to 8) (size 9 to 14) (size 15 to 20)
#    0.000    1.750    2.500    3.750    0.000    2.000 
#    2.250    2.500    0.000    9.750    0.000    0.000 
#    0.000    0.000    0.000    0.000    0.000    0.000 
#
# Total GULP energy -396443.159407 kJ/mol
# GULP energy per Si atom -12388.848731 kJ/mol
# Density = 2.056555 g / cm^3
# Si number density = 20.612464 Si / 1000 Ang^3
#
#
#
# Elastic Constant Matrix: (Units=GPa)
#
#
# Indices 1 2 3 4 5 6 
#
# 1 39.9787 10.4630 28.2583 0.0000 -9.2979 0.0000
# 2 10.4630 137.9630 66.2122 0.0000 -20.0504 0.0000
# 3 28.2583 66.2122 115.4020 0.0000 -19.3128 0.0000
# 4 0.0000 0.0000 0.0000 25.6458 0.0000 -3.4199
# 5 -9.2979 -20.0504 -19.3128 0.0000 17.6803 0.0000
# 6 0.0000 0.0000 0.0000 -3.4199 0.0000 9.9595
#
#
#
# Elastic Compliance Matrix: (Units=1/GPa)
#
#
# Indices 1 2 3 4 5 6 
#
# 1 0.032432 0.002950 -0.007611 0.000000 0.012087 0.000000
# 2 0.002950 0.010861 -0.005669 0.000000 0.007675 0.000000
# 3 -0.007611 -0.005669 0.014729 0.000000 0.005656 0.000000
# 4 0.000000 0.000000 0.000000 0.040864 0.000000 0.014032
# 5 0.012087 0.007675 0.005656 0.000000 0.077799 0.000000
# 6 0.000000 0.000000 0.000000 0.014032 0.000000 0.105225
#
#
# Mechanical properties :
#
#
# Convention : Reuss Voigt Hill
#
# Bulk Modulus (GPa) = 26.76640 55.91231 41.33935
# Shear Modulus (GPa) = 15.87173 23.21780 19.54477
#
# Velocity S-wave (km/s) = 2.77791 3.35982 3.08263
# Velocity P-wave (km/s) = 4.82729 6.49889 5.72444
#
# Compressibility (1/GPa) = 0.03736028
#
# Stress axis : x y z
#
# Youngs Moduli (GPa) = 30.83334 92.07295 67.89525
#
# Poissons Ratio (x) = -0.27161 0.51678
# Poissons Ratio (y) = -0.09096 0.38492
# Poissons Ratio (z) = 0.23468 0.52199
#
# Static dielectric constant tensor:
#      x y z
#    x 3.982870 0.000000 1.069620 
#    y 0.000000 3.839900 0.000000 
#    z 1.069620 0.000000 6.233230 
# 
# 
# High freq. dielectric constant tensor:
#      x y z
#    x 1.769430 0.000000 -0.009560 
#    y 0.000000 1.797800 0.000000 
#    z -0.009560 0.000000 1.820600 
# 
# From -- ./inp_files/76412.got.cif
#   From: 2010.06.25/outbox.cif.g09.slc.cpg/sg13_39_cif.got.tgz:76412.got - 2010.06.28 04:50:58.
