data_PCOD8118439
_publ_section_title
;
Structure prediction by ZEFSAII (Michael W. Deem and Ramdas Pophale) SiO2 
 PCOD8118439
Probable space group: P 2/C
;
_chemical_formula_sum "Si O2"
_cell_formula_units_Z 32
_cell_length_a 17.054035
_cell_length_b 14.931748
_cell_length_c 11.050976
_cell_angle_alpha 90.000000
_cell_angle_beta 34.778972
_cell_angle_gamma 90.000000
_cell_volume 1605.192839
_symmetry_space_group_name_H-M "P 2/C"
_symmetry_group_IT_number 13
_symmetry_cell_setting 'monoclinic'
loop_
_space_group_symop_operation_xyz
x,y,z
-x,y,1/2-z
-x,-y,-z
x,-y,1/2+z
loop_
_atom_site_type_symbol
_atom_site_label
_atom_site_fract_x
_atom_site_fract_y
_atom_site_fract_z
Si Si1 0.743613 0.257367 0.395887
Si Si2 0.406081 0.946385 0.771330
Si Si3 0.013167 0.850579 0.544110
Si Si4 0.573917 0.615318 0.526806
Si Si5 0.729351 0.754584 0.184579
Si Si6 0.411168 0.586868 0.484138
Si Si7 0.470142 0.868985 0.455401
Si Si8 0.100243 0.037603 0.723174
O O1 0.741378 0.290113 0.537678
O O2 0.721675 0.348745 0.348781
O O3 0.615986 0.188719 0.532712
O O4 0.886917 0.214637 0.172778
O O5 0.500000 0.892036 0.750000
O O6 0.378906 0.882096 0.691607
O O7 0.502622 0.032634 0.628659
O O8 0.257554 0.980310 0.996256
O O9 0.122323 0.800165 0.489064
O O10 0.098572 0.882559 0.321002
O O11 0.956983 0.940492 0.673719
O O12 0.500000 0.641200 0.750000
O O13 0.695449 0.684948 0.337278
O O14 0.478521 0.612593 0.527966
O O15 0.636967 0.515995 0.461056
O O16 0.611102 0.827748 0.324926
O O17 0.500000 0.609095 0.250000
O O18 0.000000 0.077738 0.750000
#
# Coordination Sequence:
#
# PCOD8118439 Si02
#       8
#     4   4   4   4   4   4   4   4
#     4  12  21  39  62  89 116 157 207 248 291 361
#     4  11  22  36  56  83 118 152 200 262 315 350
#     4  11  25  38  59  85 117 161 213 247 296 358
#     4  10  22  38  65  98 128 152 191 248 312 369
#     4  12  22  39  61  90 120 155 201 251 295 355
#     4  10  19  40  67  96 123 158 195 241 307 374
#     4  11  22  35  58  87 113 154 206 255 302 361
#     4  11  22  41  57  78 118 168 203 250 306 361
#
# _framework density 19.935300000000002
#
# number of rings (size 3 to 8) (size 9 to 14) (size 15 to 20)
#    0.000    1.000    2.500    6.000    0.000    5.500 
#    2.250    0.625    0.000    0.000    0.000    0.000 
#    0.000    0.000    0.000    0.000    0.000    0.000 
#
# Total GULP energy -396471.961147 kJ/mol
# GULP energy per Si atom -12389.748786 kJ/mol
# Density = 1.988993 g / cm^3
# Si number density = 19.935300 Si / 1000 Ang^3
#
#
#
# Elastic Constant Matrix: (Units=GPa)
#
#
# Indices 1 2 3 4 5 6 
#
# 1 118.9431 36.8154 49.2044 0.0000 0.7345 0.0000
# 2 36.8154 71.3277 33.7477 0.0000 -2.4468 0.0000
# 3 49.2044 33.7477 88.4246 0.0000 -5.1855 0.0000
# 4 0.0000 0.0000 0.0000 67.4717 0.0000 47.9896
# 5 0.7345 -2.4468 -5.1855 0.0000 41.8379 0.0000
# 6 0.0000 0.0000 0.0000 47.9896 0.0000 74.6950
#
#
#
# Elastic Compliance Matrix: (Units=1/GPa)
#
#
# Indices 1 2 3 4 5 6 
#
# 1 0.011675 -0.003611 -0.005180 0.000000 -0.001058 0.000000
# 2 -0.003611 0.018228 -0.004917 0.000000 0.000520 0.000000
# 3 -0.005180 -0.004917 0.016174 0.000000 0.001808 0.000000
# 4 0.000000 0.000000 0.000000 0.027293 0.000000 -0.017535
# 5 -0.001058 0.000520 0.001808 0.000000 0.024175 0.000000
# 6 0.000000 0.000000 0.000000 -0.017535 0.000000 0.024654
#
#
# Mechanical properties :
#
#
# Convention : Reuss Voigt Hill
#
# Bulk Modulus (GPa) = 53.58986 57.58117 55.58552
# Shear Modulus (GPa) = 32.08535 47.39613 39.74074
#
# Velocity S-wave (km/s) = 4.01618 4.88125 4.46969
# Velocity P-wave (km/s) = 6.96035 7.79202 7.38790
#
# Compressibility (1/GPa) = 0.01866025
#
# Stress axis : x y z
#
# Youngs Moduli (GPa) = 85.65603 54.86115 61.82679
#
# Poissons Ratio (x) = 0.19811 0.32028
# Poissons Ratio (y) = 0.30931 0.30399
# Poissons Ratio (z) = 0.44372 0.26974
#
# Static dielectric constant tensor:
#      x y z
#    x 3.961790 0.000000 0.333050 
#    y 0.000000 3.678740 0.000000 
#    z 0.333050 0.000000 3.626260 
# 
# 
# High freq. dielectric constant tensor:
#      x y z
#    x 1.793160 0.000000 0.014020 
#    y 0.000000 1.767190 0.000000 
#    z 0.014020 0.000000 1.766120 
# 
# From -- ./inp_files/39461.got.cif
#   From: 2010.06.25/outbox.cif.g09.slc.cpg/sg13_20_cif.got.tgz:39461.got - 2010.06.28 04:50:58.
