data_PCOD8118232
_publ_section_title
;
Structure prediction by ZEFSAII (Michael W. Deem and Ramdas Pophale) SiO2 
 PCOD8118232
Probable space group: P 2/C
;
_chemical_formula_sum "Si O2"
_cell_formula_units_Z 28
_cell_length_a 17.143182
_cell_length_b 8.789080
_cell_length_c 19.273508
_cell_angle_alpha 90.000000
_cell_angle_beta 29.829697
_cell_angle_gamma 90.000000
_cell_volume 1444.515033
_symmetry_space_group_name_H-M "P 2/C"
_symmetry_group_IT_number 13
_symmetry_cell_setting 'monoclinic'
loop_
_space_group_symop_operation_xyz
x,y,z
-x,y,1/2-z
-x,-y,-z
x,-y,1/2+z
loop_
_atom_site_type_symbol
_atom_site_label
_atom_site_fract_x
_atom_site_fract_y
_atom_site_fract_z
Si Si1 0.463622 0.896566 0.392187
Si Si2 0.319671 0.309258 0.695614
Si Si3 0.265618 0.361006 0.300403
Si Si4 0.740653 0.922569 0.073064
Si Si5 0.410176 0.226518 0.477165
Si Si6 0.039945 0.829487 0.488334
Si Si7 0.678612 0.247000 0.099916
O O1 0.515263 0.760723 0.403685
O O2 0.615799 0.939932 0.231049
O O3 0.328064 0.840743 0.442906
O O4 0.396371 0.042221 0.486521
O O5 0.293109 0.475515 0.746668
O O6 0.329702 0.305618 0.604944
O O7 0.167415 0.214988 0.832947
O O8 0.404327 0.255107 0.166628
O O9 0.268179 0.370864 0.383501
O O10 0.103327 0.287989 0.400348
O O11 0.789364 0.097602 0.019504
O O12 0.887435 0.826672 0.989436
O O13 0.320523 0.305835 0.480456
O O14 0.000000 0.000000 0.500000
O O15 0.500000 0.190886 0.250000
#
# Coordination Sequence:
#
# PCOD8118232 Si02
#       7
#     4   4   4   4   4   4   4
#     4   9  16  32  56  82 116 139 195 243 277 332
#     4  11  23  34  56  93 115 146 188 247 298 336
#     4  11  20  37  57  84 119 151 188 236 292 357
#     4   9  14  31  55  83 103 146 198 239 262 329
#     4  10  19  37  60  84 113 148 194 240 288 341
#     4  11  21  36  59  81 113 155 197 233 284 346
#     4   9  15  32  59  82 106 148 197 236 274 340
#
# _framework density 19.383666999999999
#
# number of rings (size 3 to 8) (size 9 to 14) (size 15 to 20)
#    0.000    2.000    5.714    2.143    0.000    0.000 
#   15.429    0.714    0.000    2.571    0.000    0.000 
#    0.000    0.000    0.000    0.000    0.000    0.000 
#
# Total GULP energy -346915.030618 kJ/mol
# GULP energy per Si atom -12389.822522 kJ/mol
# Density = 1.933955 g / cm^3
# Si number density = 19.383667 Si / 1000 Ang^3
#
#
#
# Elastic Constant Matrix: (Units=GPa)
#
#
# Indices 1 2 3 4 5 6 
#
# 1 175.7094 75.4623 71.1106 0.0000 7.5600 0.0000
# 2 75.4623 96.7105 30.4864 0.0000 3.3894 0.0000
# 3 71.1106 30.4864 60.1607 0.0000 2.4696 0.0000
# 4 0.0000 0.0000 0.0000 12.7627 0.0000 9.2051
# 5 7.5600 3.3894 2.4696 0.0000 30.9785 0.0000
# 6 0.0000 0.0000 0.0000 9.2051 0.0000 20.3315
#
#
#
# Elastic Compliance Matrix: (Units=1/GPa)
#
#
# Indices 1 2 3 4 5 6 
#
# 1 0.013869 -0.006686 -0.012938 0.000000 -0.001622 0.000000
# 2 -0.006686 0.015552 0.000025 0.000000 -0.000072 0.000000
# 3 -0.012938 0.000025 0.031877 0.000000 0.000613 0.000000
# 4 0.000000 0.000000 0.000000 0.116346 0.000000 -0.052676
# 5 -0.001622 -0.000072 0.000613 0.000000 0.032635 0.000000
# 6 0.000000 0.000000 0.000000 -0.052676 0.000000 0.073034
#
#
# Mechanical properties :
#
#
# Convention : Reuss Voigt Hill
#
# Bulk Modulus (GPa) = 45.24980 76.29992 60.77486
# Shear Modulus (GPa) = 15.15714 23.18261 19.16988
#
# Velocity S-wave (km/s) = 2.79938 3.46206 3.14820
# Velocity P-wave (km/s) = 5.81753 7.44510 6.68106
#
# Compressibility (1/GPa) = 0.02209955
#
# Stress axis : x y z
#
# Youngs Moduli (GPa) = 72.10492 64.30081 31.37038
#
# Poissons Ratio (x) = 0.42993 0.40587
# Poissons Ratio (y) = 0.48211 -0.00079
# Poissons Ratio (z) = 0.93290 -0.00162
#
# Static dielectric constant tensor:
#      x y z
#    x 4.245440 0.000000 -0.141680 
#    y 0.000000 3.374210 0.000000 
#    z -0.141680 0.000000 3.249130 
# 
# 
# High freq. dielectric constant tensor:
#      x y z
#    x 1.774760 0.000000 -0.003910 
#    y 0.000000 1.732730 0.000000 
#    z -0.003910 0.000000 1.710770 
# 
# From -- ./inp_files/80842.got.cif
#   From: 2010.06.25/outbox.cif.g09.slc.cpg/sg13_41_cif.got.tgz:80842.got - 2010.06.28 04:50:58.
