data_PCOD8118538
_publ_section_title
;
Structure prediction by ZEFSAII (Michael W. Deem and Ramdas Pophale) SiO2 
 PCOD8118538
Probable space group: P 2/C
;
_chemical_formula_sum "Si O2"
_cell_formula_units_Z 32
_cell_length_a 22.079705
_cell_length_b 15.565909
_cell_length_c 22.072084
_cell_angle_alpha 90.000000
_cell_angle_beta 166.852281
_cell_angle_gamma 90.000000
_cell_volume 1725.522898
_symmetry_space_group_name_H-M "P 2/C"
_symmetry_group_IT_number 13
_symmetry_cell_setting 'monoclinic'
loop_
_space_group_symop_operation_xyz
x,y,z
-x,y,1/2-z
-x,-y,-z
x,-y,1/2+z
loop_
_atom_site_type_symbol
_atom_site_label
_atom_site_fract_x
_atom_site_fract_y
_atom_site_fract_z
Si Si1 0.090780 0.819566 0.769482
Si Si2 0.174163 0.911940 0.581894
Si Si3 0.534635 0.522387 0.211710
Si Si4 0.375580 0.897578 0.259169
Si Si5 0.386954 0.907405 0.403259
Si Si6 0.536656 0.330008 0.214451
Si Si7 0.958001 0.377222 0.279968
Si Si8 0.027563 0.774957 0.205746
O O1 0.116776 0.720147 0.776656
O O2 0.000000 0.832668 0.750000
O O3 0.868550 0.852032 0.508845
O O4 0.359551 0.874028 0.020687
O O5 0.057168 0.863002 0.409378
O O6 0.918729 0.920468 0.375907
O O7 0.308763 0.000895 0.691237
O O8 0.415456 0.863537 0.853967
O O9 0.500000 0.520241 0.250000
O O10 0.535660 0.425692 0.185837
O O11 0.787267 0.580833 0.438726
O O12 0.288781 0.566264 0.938805
O O13 0.400006 0.859102 0.351160
O O14 0.500000 0.000000 0.500000
O O15 0.500000 0.335186 0.250000
O O16 0.829423 0.295896 0.486287
O O17 0.318954 0.263767 0.974242
O O18 0.000000 0.384927 0.250000
O O19 0.000000 0.793332 0.250000
#
# Coordination Sequence:
#
# PCOD8118538 Si02
#       8
#     4   4   4   4   4   4   4   4
#     4  11  22  35  50  76 112 143 169 205 256 315
#     4  11  21  36  56  76 101 135 175 218 262 304
#     4   9  15  26  45  67  94 133 172 201 240 296
#     4  11  21  36  55  74 101 138 177 218 258 302
#     4  10  20  37  57  76  94 124 177 234 272 288
#     4   9  17  29  46  70 102 137 168 202 246 300
#     4   9  17  28  44  67  99 134 166 203 245 296
#     4  10  20  33  49  74 110 140 163 201 253 314
#
# _framework density 18.545102
#
# number of rings (size 3 to 8) (size 9 to 14) (size 15 to 20)
#    0.000    2.000    0.000    6.375    0.000    5.500 
#    0.000    5.000    0.000    0.000    0.000    0.000 
#    0.000   70.000    0.000    0.000    0.000    0.000 
#
# Total GULP energy -396473.638483 kJ/mol
# GULP energy per Si atom -12389.801203 kJ/mol
# Density = 1.850289 g / cm^3
# Si number density = 18.545102 Si / 1000 Ang^3
#
#
#
# Elastic Constant Matrix: (Units=GPa)
#
#
# Indices 1 2 3 4 5 6 
#
# 1 65.3873 40.0218 39.6326 0.0000 -2.8453 0.0000
# 2 40.0218 107.6041 51.0524 0.0000 -2.1685 0.0000
# 3 39.6326 51.0524 149.2246 0.0000 -0.9189 0.0000
# 4 0.0000 0.0000 0.0000 32.0950 0.0000 5.9596
# 5 -2.8453 -2.1685 -0.9189 0.0000 31.0396 0.0000
# 6 0.0000 0.0000 0.0000 5.9596 0.0000 -1.1505
#
#
#
# Elastic Compliance Matrix: (Units=1/GPa)
#
#
# Indices 1 2 3 4 5 6 
#
# 1 0.021297 -0.006223 -0.003518 0.000000 0.001413 0.000000
# 2 -0.006223 0.012926 -0.002768 0.000000 0.000251 0.000000
# 3 -0.003518 -0.002768 0.008581 0.000000 -0.000262 0.000000
# 4 0.000000 0.000000 0.000000 0.015882 0.000000 0.082268
# 5 0.001413 0.000251 -0.000262 0.000000 0.032356 0.000000
# 6 0.000000 0.000000 0.000000 0.082268 0.000000 -0.443051
#
#
# Mechanical properties :
#
#
# Convention : Reuss Voigt Hill
#
# Bulk Modulus (GPa) = 56.22751 64.84775 60.53763
# Shear Modulus (GPa) = -15.57332 25.16410 4.79539
#
# Velocity S-wave (km/s) = -2.90099 3.68763 1.60979
# Velocity P-wave (km/s) = 4.37768 7.29212 6.01411
#
# Compressibility (1/GPa) = 0.01778489
#
# Stress axis : x y z
#
# Youngs Moduli (GPa) = 46.95584 77.36204 116.53501
#
# Poissons Ratio (x) = 0.48144 0.41002
# Poissons Ratio (y) = 0.29222 0.32256
# Poissons Ratio (z) = 0.16521 0.21413
#
# Static dielectric constant tensor:
#      x y z
#    x 4.193900 0.000000 -0.409980 
#    y 0.000000 3.467250 0.000000 
#    z -0.409980 0.000000 4.063620 
# 
# 
# High freq. dielectric constant tensor:
#      x y z
#    x 1.675760 0.000000 -0.000880 
#    y 0.000000 1.713170 0.000000 
#    z -0.000880 0.000000 1.750500 
# 
# From -- ./inp_files/89288.got.cif
#   From: 2010.06.25/outbox.cif.g09.slc.cpg/sg13_45_cif.got.tgz:89288.got - 2010.06.28 04:50:58.
