data_PCOD8118481
_publ_section_title
;
Structure prediction by ZEFSAII (Michael W. Deem and Ramdas Pophale) SiO2 
 PCOD8118481
Probable space group: P 2/C
;
_chemical_formula_sum "Si O2"
_cell_formula_units_Z 20
_cell_length_a 11.297804
_cell_length_b 10.835936
_cell_length_c 8.706842
_cell_angle_alpha 90.000000
_cell_angle_beta 115.413290
_cell_angle_gamma 90.000000
_cell_volume 962.769363
_symmetry_space_group_name_H-M "P 2/C"
_symmetry_group_IT_number 13
_symmetry_cell_setting 'monoclinic'
loop_
_space_group_symop_operation_xyz
x,y,z
-x,y,1/2-z
-x,-y,-z
x,-y,1/2+z
loop_
_atom_site_type_symbol
_atom_site_label
_atom_site_fract_x
_atom_site_fract_y
_atom_site_fract_z
Si Si1 0.890378 0.346203 0.471402
Si Si2 0.372634 0.408821 0.085771
Si Si3 0.635142 0.336130 0.765039
Si Si4 0.000000 0.545088 0.750000
Si Si5 0.886850 0.160243 0.904567
Si Si6 0.000000 0.029814 0.250000
O O1 0.740404 0.311488 0.424385
O O2 0.912613 0.468709 0.584042
O O3 0.903549 0.369955 0.296835
O O4 0.991549 0.243675 0.582996
O O5 0.500000 0.368010 0.250000
O O6 0.329928 0.549428 0.103983
O O7 0.394160 0.396502 0.916562
O O8 0.500000 0.272538 0.750000
O O9 0.751508 0.236051 0.822936
O O10 0.910241 0.113708 0.090281
O O11 0.892232 0.047025 0.788127
#
# Coordination Sequence:
#
# PCOD8118481 Si02
#       6
#     4   4   4   2   4   2
#     4  11  20  34  56  85 118 157 189 230 286 348
#     4  11  22  35  56  90 132 162 191 228 278 361
#     4  11  23  39  60  89 126 162 192 232 292 359
#     4  10  20  30  52  88 118 144 194 228 268 358
#     4  11  23  41  63  85 114 152 200 253 302 342
#     4  10  24  42  62  86 108 142 206 270 300 330
#
# _framework density 20.773408
#
# number of rings (size 3 to 8) (size 9 to 14) (size 15 to 20)
#    0.000    1.200    0.000    9.600    0.000    4.800 
#    0.000    1.000    0.000    4.800    0.000    0.000 
#    0.000    0.000    0.000    0.000    0.000    0.000 
#
# Total GULP energy -247921.209415 kJ/mol
# GULP energy per Si atom -12396.060471 kJ/mol
# Density = 2.072613 g / cm^3
# Si number density = 20.773408 Si / 1000 Ang^3
#
#
#
# Elastic Constant Matrix: (Units=GPa)
#
#
# Indices 1 2 3 4 5 6 
#
# 1 146.8535 37.7103 43.9076 0.0000 16.6985 0.0000
# 2 37.7103 55.2052 37.7321 0.0000 8.6801 0.0000
# 3 43.9076 37.7321 127.0674 0.0000 -14.0939 0.0000
# 4 0.0000 0.0000 0.0000 23.9468 0.0000 -5.7034
# 5 16.6985 8.6801 -14.0939 0.0000 40.8459 0.0000
# 6 0.0000 0.0000 0.0000 -5.7034 0.0000 31.4304
#
#
#
# Elastic Compliance Matrix: (Units=1/GPa)
#
#
# Indices 1 2 3 4 5 6 
#
# 1 0.008925 -0.003950 -0.002311 0.000000 -0.003607 0.000000
# 2 -0.003950 0.026882 -0.007354 0.000000 -0.006635 0.000000
# 3 -0.002311 -0.007354 0.011573 0.000000 0.006501 0.000000
# 4 0.000000 0.000000 0.000000 0.043646 0.000000 0.007920
# 5 -0.003607 -0.006635 0.006501 0.000000 0.029610 0.000000
# 6 0.000000 0.000000 0.000000 0.007920 0.000000 0.033253
#
#
# Mechanical properties :
#
#
# Convention : Reuss Voigt Hill
#
# Bulk Modulus (GPa) = 49.62598 63.09180 56.35889
# Shear Modulus (GPa) = 26.61919 33.22969 29.92444
#
# Velocity S-wave (km/s) = 3.58356 4.00387 3.79953
# Velocity P-wave (km/s) = 6.40809 7.19806 6.81453
#
# Compressibility (1/GPa) = 0.02015074
#
# Stress axis : x y z
#
# Youngs Moduli (GPa) = 112.04609 37.20010 86.40734
#
# Poissons Ratio (x) = 0.14693 0.19970
# Poissons Ratio (y) = 0.44256 0.63540
# Poissons Ratio (z) = 0.25895 0.27355
#
# Static dielectric constant tensor:
#      x y z
#    x 4.079020 0.000000 -0.236740 
#    y 0.000000 3.584940 0.000000 
#    z -0.236740 0.000000 3.869870 
# 
# 
# High freq. dielectric constant tensor:
#      x y z
#    x 1.821540 0.000000 -0.017350 
#    y 0.000000 1.774660 0.000000 
#    z -0.017350 0.000000 1.833910 
# 
# From -- ./inp_files/15365.got.cif
#   From: 2010.06.25/outbox.cif.g09.slc.cpg/sg13_8_cif.got.tgz:15365.got - 2010.06.28 04:50:58.
