data_PCOD8118597
_publ_section_title
;
Structure prediction by ZEFSAII (Michael W. Deem and Ramdas Pophale) SiO2 
 PCOD8118597
Probable space group: P 2/C
;
_chemical_formula_sum "Si O2"
_cell_formula_units_Z 30
_cell_length_a 24.286583
_cell_length_b 7.773262
_cell_length_c 8.719262
_cell_angle_alpha 90.000000
_cell_angle_beta 121.498196
_cell_angle_gamma 90.000000
_cell_volume 1403.536191
_symmetry_space_group_name_H-M "P 2/C"
_symmetry_group_IT_number 13
_symmetry_cell_setting 'monoclinic'
loop_
_space_group_symop_operation_xyz
x,y,z
-x,y,1/2-z
-x,-y,-z
x,-y,1/2+z
loop_
_atom_site_type_symbol
_atom_site_label
_atom_site_fract_x
_atom_site_fract_y
_atom_site_fract_z
Si Si1 0.172750 0.382695 0.882252
Si Si2 0.165942 0.260444 0.211013
Si Si3 0.909435 0.094564 0.870534
Si Si4 0.689088 0.263917 0.050801
Si Si5 0.440510 0.903251 0.066059
Si Si6 0.000000 0.993283 0.750000
Si Si7 0.439015 0.245288 0.223698
Si Si8 0.315465 0.430384 0.140949
O O1 0.155292 0.580985 0.814424
O O2 0.142114 0.246963 0.718627
O O3 0.149504 0.337995 0.019999
O O4 0.249272 0.350680 0.978831
O O5 0.120716 0.098093 0.182188
O O6 0.239267 0.184251 0.325793
O O7 0.962642 0.115354 0.814855
O O8 0.946662 0.122917 0.085247
O O9 0.677392 0.402571 0.168806
O O10 0.630878 0.131699 0.969479
O O11 0.685320 0.364796 0.884652
O O12 0.500000 0.818630 0.250000
O O13 0.441018 0.107706 0.087449
O O14 0.447797 0.849823 0.900332
O O15 0.500000 0.362477 0.250000
O O16 0.374232 0.353191 0.128729
#
# Coordination Sequence:
#
# PCOD8118597 Si02
#       8
#     4   4   4   4   4   2   4   4
#     4  10  22  40  64  93 124 161 206 250 301 359
#     4  10  22  40  64  93 124 161 206 250 301 359
#     4  11  22  44  66  90 131 160 200 248 297 354
#     4   9  20  37  55  82 113 145 192 242 287 345
#     4  10  20  34  52  76 110 147 192 237 286 346
#     4  10  24  42  66  94 126 162 202 246 286 364
#     4  10  20  34  52  76 110 147 192 237 286 346
#     4   9  20  37  55  82 113 145 192 242 287 345
#
# _framework density 21.374583000000001
#
# number of rings (size 3 to 8) (size 9 to 14) (size 15 to 20)
#    0.000    2.133    1.333    1.600    3.733    2.667 
#    0.000    6.667    0.000    0.000    0.000    0.000 
#    0.000    0.000    0.000    0.000    0.000    0.000 
#
# Total GULP energy -371663.717769 kJ/mol
# GULP energy per Si atom -12388.790592 kJ/mol
# Density = 2.132593 g / cm^3
# Si number density = 21.374583 Si / 1000 Ang^3
#
#
#
# Elastic Constant Matrix: (Units=GPa)
#
#
# Indices 1 2 3 4 5 6 
#
# 1 91.9979 26.0182 16.9509 0.0000 8.2623 0.0000
# 2 26.0182 69.0304 23.6240 0.0000 12.6987 0.0000
# 3 16.9509 23.6240 82.4178 0.0000 17.4664 0.0000
# 4 0.0000 0.0000 0.0000 24.6218 0.0000 0.4525
# 5 8.2623 12.6987 17.4664 0.0000 26.2583 0.0000
# 6 0.0000 0.0000 0.0000 0.4525 0.0000 17.8551
#
#
#
# Elastic Compliance Matrix: (Units=1/GPa)
#
#
# Indices 1 2 3 4 5 6 
#
# 1 0.012327 -0.004044 -0.001127 0.000000 -0.001173 0.000000
# 2 -0.004044 0.018095 -0.003225 0.000000 -0.005334 0.000000
# 3 -0.001127 -0.003225 0.014998 0.000000 -0.008062 0.000000
# 4 0.000000 0.000000 0.000000 0.040633 0.000000 -0.001030
# 5 -0.001173 -0.005334 -0.008062 0.000000 0.046394 0.000000
# 6 0.000000 0.000000 0.000000 -0.001030 0.000000 0.056032
#
#
# Mechanical properties :
#
#
# Convention : Reuss Voigt Hill
#
# Bulk Modulus (GPa) = 34.93192 41.84804 38.38998
# Shear Modulus (GPa) = 23.27575 25.53724 24.40649
#
# Velocity S-wave (km/s) = 3.30350 3.46026 3.38279
# Velocity P-wave (km/s) = 5.56138 5.96536 5.76691
#
# Compressibility (1/GPa) = 0.02862711
#
# Stress axis : x y z
#
# Youngs Moduli (GPa) = 81.12474 55.26242 66.67528
#
# Poissons Ratio (x) = 0.22351 0.07517
# Poissons Ratio (y) = 0.32811 0.21501
# Poissons Ratio (z) = 0.09146 0.17820
#
# Static dielectric constant tensor:
#      x y z
#    x 4.144650 0.000000 0.209950 
#    y 0.000000 3.446180 0.000000 
#    z 0.209950 0.000000 4.071060 
# 
# 
# High freq. dielectric constant tensor:
#      x y z
#    x 1.856390 0.000000 0.006550 
#    y 0.000000 1.799410 0.000000 
#    z 0.006550 0.000000 1.849310 
# 
# From -- ./inp_files/23963.got.cif
#   From: 2010.06.25/outbox.cif.g09.slc.cpg/sg13_12_cif.got.tgz:23963.got - 2010.06.28 04:50:58.
