data_PCOD8118340
_publ_section_title
;
Structure prediction by ZEFSAII (Michael W. Deem and Ramdas Pophale) SiO2 
 PCOD8118340
Probable space group: P 2/C
;
_chemical_formula_sum "Si O2"
_cell_formula_units_Z 18
_cell_length_a 13.968110
_cell_length_b 8.783536
_cell_length_c 18.364444
_cell_angle_alpha 90.000000
_cell_angle_beta 155.493638
_cell_angle_gamma 90.000000
_cell_volume 934.582351
_symmetry_space_group_name_H-M "P 2/C"
_symmetry_group_IT_number 13
_symmetry_cell_setting 'monoclinic'
loop_
_space_group_symop_operation_xyz
x,y,z
-x,y,1/2-z
-x,-y,-z
x,-y,1/2+z
loop_
_atom_site_type_symbol
_atom_site_label
_atom_site_fract_x
_atom_site_fract_y
_atom_site_fract_z
Si Si1 0.028320 0.241087 0.016401
Si Si2 0.301744 0.496914 0.265317
Si Si3 0.000000 0.120948 0.250000
Si Si4 0.779646 0.013880 0.951531
Si Si5 0.772399 0.415488 0.125146
O O1 0.254424 0.327014 0.203265
O O2 0.113903 0.139137 0.008747
O O3 0.860617 0.373389 0.876580
O O4 0.892879 0.152576 0.985894
O O5 0.272103 0.497171 0.330597
O O6 0.561862 0.545998 0.425035
O O7 0.133285 0.021192 0.403857
O O8 0.191675 0.231388 0.344571
O O9 0.500000 0.017718 0.750000
O O10 0.000000 0.493953 0.250000
#
# Coordination Sequence:
#
# PCOD8118340 Si02
#       5
#     4   4   2   4   4
#     4  10  22  39  61  89 120 160 203 251 308 361
#     4  10  19  38  62  87 120 153 202 258 303 359
#     4  10  20  42  60  90 120 168 206 244 304 374
#     4  11  23  42  60  89 125 166 205 246 305 370
#     4   9  19  35  60  88 114 157 203 245 308 357
#
# _framework density 19.25994
#
# number of rings (size 3 to 8) (size 9 to 14) (size 15 to 20)
#    0.667    1.333    2.222    1.333    0.000    1.778 
#   10.000    7.778    0.000    0.000    0.000    0.000 
#    0.000    0.000    0.000    0.000    0.000    0.000 
#
# Total GULP energy -222992.211501 kJ/mol
# GULP energy per Si atom -12388.456195 kJ/mol
# Density = 1.921610 g / cm^3
# Si number density = 19.259940 Si / 1000 Ang^3
#
#
#
# Elastic Constant Matrix: (Units=GPa)
#
#
# Indices 1 2 3 4 5 6 
#
# 1 76.6086 27.5725 45.8792 0.0000 -5.4384 0.0000
# 2 27.5725 89.4016 37.5431 0.0000 2.5315 0.0000
# 3 45.8792 37.5431 135.2648 0.0000 6.0143 0.0000
# 4 0.0000 0.0000 0.0000 43.1333 0.0000 -12.3621
# 5 -5.4384 2.5315 6.0143 0.0000 31.1062 0.0000
# 6 0.0000 0.0000 0.0000 -12.3621 0.0000 26.9881
#
#
#
# Elastic Compliance Matrix: (Units=1/GPa)
#
#
# Indices 1 2 3 4 5 6 
#
# 1 0.017741 -0.003381 -0.005275 0.000000 0.004397 0.000000
# 2 -0.003381 0.013309 -0.002494 0.000000 -0.001192 0.000000
# 3 -0.005275 -0.002494 0.009992 0.000000 -0.002651 0.000000
# 4 0.000000 0.000000 0.000000 0.026688 0.000000 0.012224
# 5 0.004397 -0.001192 -0.002651 0.000000 0.033526 0.000000
# 6 0.000000 0.000000 0.000000 0.012224 0.000000 0.042653
#
#
# Mechanical properties :
#
#
# Convention : Reuss Voigt Hill
#
# Bulk Modulus (GPa) = 53.35348 58.14050 55.74699
# Shear Modulus (GPa) = 28.99278 32.93087 30.96183
#
# Velocity S-wave (km/s) = 3.88408 4.13947 4.01381
# Velocity P-wave (km/s) = 6.91930 7.28696 7.10551
#
# Compressibility (1/GPa) = 0.01874292
#
# Stress axis : x y z
#
# Youngs Moduli (GPa) = 56.36602 75.13464 100.07925
#
# Poissons Ratio (x) = 0.25404 0.52787
# Poissons Ratio (y) = 0.19058 0.24962
# Poissons Ratio (z) = 0.29730 0.18740
#
# Static dielectric constant tensor:
#      x y z
#    x 3.376820 0.000000 -0.063320 
#    y 0.000000 3.491090 0.000000 
#    z -0.063320 0.000000 4.148090 
# 
# 
# High freq. dielectric constant tensor:
#      x y z
#    x 1.741020 0.000000 -0.004310 
#    y 0.000000 1.743310 0.000000 
#    z -0.004310 0.000000 1.764100 
# 
# From -- ./inp_files/79907.got.cif
#   From: 2010.06.25/outbox.cif.g09.slc.cpg/sg13_40_cif.got.tgz:79907.got - 2010.06.28 04:50:58.
