data_PCOD8118397
_publ_section_title
;
Structure prediction by ZEFSAII (Michael W. Deem and Ramdas Pophale) SiO2 
 PCOD8118397
Probable space group: P 2/C
;
_chemical_formula_sum "Si O2"
_cell_formula_units_Z 20
_cell_length_a 13.776431
_cell_length_b 6.977255
_cell_length_c 22.057870
_cell_angle_alpha 90.000000
_cell_angle_beta 149.383036
_cell_angle_gamma 90.000000
_cell_volume 1079.829927
_symmetry_space_group_name_H-M "P 2/C"
_symmetry_group_IT_number 13
_symmetry_cell_setting 'monoclinic'
loop_
_space_group_symop_operation_xyz
x,y,z
-x,y,1/2-z
-x,-y,-z
x,-y,1/2+z
loop_
_atom_site_type_symbol
_atom_site_label
_atom_site_fract_x
_atom_site_fract_y
_atom_site_fract_z
Si Si1 0.512253 0.798798 0.827248
Si Si2 0.208692 0.678456 0.863827
Si Si3 0.463954 0.201860 0.598292
Si Si4 0.756621 0.476412 0.248849
Si Si5 0.810805 0.488028 0.527733
O O1 0.500000 0.838545 0.750000
O O2 0.339971 0.660559 0.753685
O O3 0.490900 0.998466 0.849795
O O4 0.716447 0.707479 0.953773
O O5 0.280318 0.615891 0.836755
O O6 0.185646 0.491924 0.896315
O O7 0.000000 0.780221 0.750000
O O8 0.364763 0.820766 0.978187
O O9 0.663660 0.313683 0.699602
O O10 0.318034 0.327587 0.562175
O O11 0.977609 0.495498 0.385390
#
# Coordination Sequence:
#
# PCOD8118397 Si02
#       5
#     4   4   4   4   4
#     4  11  24  38  55  83 117 153 196 232 271 332
#     4   8  16  37  61  85 116 139 179 238 287 341
#     4   9  20  35  57  87 117 144 183 235 281 335
#     4  10  19  39  63  85 109 152 188 232 290 339
#     4   8  20  39  59  83 116 145 185 234 290 333
#
# _framework density 18.521433999999999
#
# number of rings (size 3 to 8) (size 9 to 14) (size 15 to 20)
#    1.200    1.600    0.000    0.600    0.000    6.400 
#    0.000    3.000    0.000    0.000    0.000    0.000 
#    0.000    0.000    0.000    0.000    0.000    0.000 
#
# Total GULP energy -247801.637282 kJ/mol
# GULP energy per Si atom -12390.081864 kJ/mol
# Density = 1.847928 g / cm^3
# Si number density = 18.521434 Si / 1000 Ang^3
#
#
#
# Elastic Constant Matrix: (Units=GPa)
#
#
# Indices 1 2 3 4 5 6 
#
# 1 72.3081 33.3960 39.0495 0.0000 7.5329 0.0000
# 2 33.3960 66.9029 9.1186 0.0000 4.0961 0.0000
# 3 39.0495 9.1186 61.3837 0.0000 22.0250 0.0000
# 4 0.0000 0.0000 0.0000 29.9145 0.0000 -49.0602
# 5 7.5329 4.0961 22.0250 0.0000 38.0106 0.0000
# 6 0.0000 0.0000 0.0000 -49.0602 0.0000 124.2565
#
#
#
# Elastic Compliance Matrix: (Units=1/GPa)
#
#
# Indices 1 2 3 4 5 6 
#
# 1 0.029153 -0.012356 -0.019083 0.000000 0.006611 0.000000
# 2 -0.012356 0.020498 0.005971 0.000000 -0.003220 0.000000
# 3 -0.019083 0.005971 0.033352 0.000000 -0.016187 0.000000
# 4 0.000000 0.000000 0.000000 0.094840 0.000000 0.037446
# 5 0.006611 -0.003220 -0.016187 0.000000 0.034725 0.000000
# 6 0.000000 0.000000 0.000000 0.037446 0.000000 0.022833
#
#
# Mechanical properties :
#
#
# Convention : Reuss Voigt Hill
#
# Bulk Modulus (GPa) = 31.18481 40.41366 35.79923
# Shear Modulus (GPa) = 16.83357 46.37168 31.60262
#
# Velocity S-wave (km/s) = 3.01802 5.00910 4.13519
# Velocity P-wave (km/s) = 5.38686 7.43789 6.49386
#
# Compressibility (1/GPa) = 0.03206690
#
# Stress axis : x y z
#
# Youngs Moduli (GPa) = 34.30145 48.78447 29.98357
#
# Poissons Ratio (x) = 0.60280 0.57217
# Poissons Ratio (y) = 0.42384 -0.17903
# Poissons Ratio (z) = 0.65456 -0.29129
#
# Static dielectric constant tensor:
#      x y z
#    x 3.228080 0.000000 0.096210 
#    y 0.000000 3.036850 0.000000 
#    z 0.096210 0.000000 3.486650 
# 
# 
# High freq. dielectric constant tensor:
#      x y z
#    x 1.707410 0.000000 0.010930 
#    y 0.000000 1.687620 0.000000 
#    z 0.010930 0.000000 1.727140 
# 
# From -- ./inp_files/59086.got.cif
#   From: 2010.06.25/outbox.cif.g09.slc.cpg/sg13_30_cif.got.tgz:59086.got - 2010.06.28 04:50:58.
