data_PCOD8118681
_publ_section_title
;
Structure prediction by ZEFSAII (Michael W. Deem and Ramdas Pophale) SiO2 
 PCOD8118681
Probable space group: P 2/C
;
_chemical_formula_sum "Si O2"
_cell_formula_units_Z 24
_cell_length_a 9.069664
_cell_length_b 6.701604
_cell_length_c 21.590057
_cell_angle_alpha 90.000000
_cell_angle_beta 65.412174
_cell_angle_gamma 90.000000
_cell_volume 1193.280819
_symmetry_space_group_name_H-M "P 2/C"
_symmetry_group_IT_number 13
_symmetry_cell_setting 'monoclinic'
loop_
_space_group_symop_operation_xyz
x,y,z
-x,y,1/2-z
-x,-y,-z
x,-y,1/2+z
loop_
_atom_site_type_symbol
_atom_site_label
_atom_site_fract_x
_atom_site_fract_y
_atom_site_fract_z
Si Si1 0.057801 0.987439 0.089755
Si Si2 0.400487 0.014759 0.580433
Si Si3 0.527590 0.703447 0.334051
Si Si4 0.286176 0.924710 0.305841
Si Si5 0.906786 0.700169 0.525428
Si Si6 0.426792 0.730426 0.853656
O O1 0.212726 0.041054 0.104084
O O2 0.908137 0.931555 0.160908
O O3 0.009888 0.171948 0.055651
O O4 0.108822 0.803249 0.038272
O O5 0.463329 0.865879 0.621822
O O6 0.500000 0.000000 0.500000
O O7 0.422068 0.240394 0.604324
O O8 0.531801 0.467201 0.318740
O O9 0.345375 0.786107 0.352913
O O10 0.651533 0.824297 0.267868
O O11 0.365180 0.146273 0.303573
O O12 0.727822 0.655823 0.580959
O O13 0.000000 0.500000 0.500000
#
# Coordination Sequence:
#
# PCOD8118681 Si02
#       6
#     4   4   4   4   4   4
#     4  10  21  38  58  85 125 157 194 249 296 358
#     4  11  23  38  57  90 127 163 192 243 307 354
#     4  10  22  38  63  88 117 158 203 249 295 361
#     4   9  21  41  62  86 117 158 204 250 300 346
#     4  10  20  34  60  89 116 156 202 245 293 349
#     4  10  21  39  63  90 119 156 204 246 298 358
#
# _framework density 20.112615000000002
#
# number of rings (size 3 to 8) (size 9 to 14) (size 15 to 20)
#    0.000    2.000    1.667    1.000    4.667    8.000 
#    0.000    0.000    0.000    6.000    0.000    0.000 
#    0.000    0.000    0.000    0.000    0.000    0.000 
#
# Total GULP energy -297498.158110 kJ/mol
# GULP energy per Si atom -12395.756588 kJ/mol
# Density = 2.006684 g / cm^3
# Si number density = 20.112615 Si / 1000 Ang^3
#
#
#
# Elastic Constant Matrix: (Units=GPa)
#
#
# Indices 1 2 3 4 5 6 
#
# 1 129.0394 17.4246 40.2490 0.0000 -15.0075 0.0000
# 2 17.4246 113.9407 43.4988 0.0000 -5.7169 0.0000
# 3 40.2490 43.4988 102.7649 0.0000 -13.8595 0.0000
# 4 0.0000 0.0000 0.0000 25.7977 0.0000 -5.3151
# 5 -15.0075 -5.7169 -13.8595 0.0000 35.0357 0.0000
# 6 0.0000 0.0000 0.0000 -5.3151 0.0000 22.1796
#
#
#
# Elastic Compliance Matrix: (Units=1/GPa)
#
#
# Indices 1 2 3 4 5 6 
#
# 1 0.009049 -0.000041 -0.003174 0.000000 0.002614 0.000000
# 2 -0.000041 0.010468 -0.004423 0.000000 -0.000059 0.000000
# 3 -0.003174 -0.004423 0.013274 0.000000 0.003169 0.000000
# 4 0.000000 0.000000 0.000000 0.040776 0.000000 0.009772
# 5 0.002614 -0.000059 0.003169 0.000000 0.030906 0.000000
# 6 0.000000 0.000000 0.000000 0.009772 0.000000 0.047428
#
#
# Mechanical properties :
#
#
# Convention : Reuss Voigt Hill
#
# Bulk Modulus (GPa) = 57.09443 60.89886 58.99664
# Shear Modulus (GPa) = 28.89892 32.90746 30.90319
#
# Velocity S-wave (km/s) = 3.79470 4.04934 3.92408
# Velocity P-wave (km/s) = 6.90280 7.22548 7.06598
#
# Compressibility (1/GPa) = 0.01751484
#
# Stress axis : x y z
#
# Youngs Moduli (GPa) = 110.50677 95.52603 75.33584
#
# Poissons Ratio (x) = 0.00390 0.23915
# Poissons Ratio (y) = 0.00451 0.33321
# Poissons Ratio (z) = 0.35080 0.42252
#
# Static dielectric constant tensor:
#      x y z
#    x 4.283270 0.000000 0.751820 
#    y 0.000000 3.697730 0.000000 
#    z 0.751820 0.000000 4.720070 
# 
# 
# High freq. dielectric constant tensor:
#      x y z
#    x 1.777710 0.000000 -0.009680 
#    y 0.000000 1.784060 0.000000 
#    z -0.009680 0.000000 1.786280 
# 
# From -- ./inp_files/84301.got.cif
#   From: 2010.06.25/outbox.cif.g09.slc.cpg/sg13_43_cif.got.tgz:84301.got - 2010.06.28 04:50:58.
