data_PCOD8118775
_publ_section_title
;
Structure prediction by ZEFSAII (Michael W. Deem and Ramdas Pophale) SiO2 
 PCOD8118775
Probable space group: P 2/C
;
_chemical_formula_sum "Si O2"
_cell_formula_units_Z 20
_cell_length_a 4.941916
_cell_length_b 12.824265
_cell_length_c 17.937262
_cell_angle_alpha 90.000000
_cell_angle_beta 59.166055
_cell_angle_gamma 90.000000
_cell_volume 976.120421
_symmetry_space_group_name_H-M "P 2/C"
_symmetry_group_IT_number 13
_symmetry_cell_setting 'monoclinic'
loop_
_space_group_symop_operation_xyz
x,y,z
-x,y,1/2-z
-x,-y,-z
x,-y,1/2+z
loop_
_atom_site_type_symbol
_atom_site_label
_atom_site_fract_x
_atom_site_fract_y
_atom_site_fract_z
Si Si1 0.364058 0.936926 0.692158
Si Si2 0.771368 0.868832 0.083535
Si Si3 0.536141 0.821760 0.524268
Si Si4 0.301439 0.599793 0.049283
Si Si5 0.615728 0.645463 0.153344
O O1 0.500000 0.889556 0.750000
O O2 0.391940 0.849333 0.624727
O O3 0.000000 0.971156 0.750000
O O4 0.574410 0.036856 0.643915
O O5 0.689196 0.768293 0.144638
O O6 0.709800 0.851892 0.004795
O O7 0.146092 0.888472 0.036779
O O8 0.593084 0.697680 0.516097
O O9 0.348542 0.623678 0.130093
O O10 0.930894 0.580264 0.088325
O O11 0.500000 0.500000 0.000000
O O12 0.500000 0.608260 0.250000
#
# Coordination Sequence:
#
# PCOD8118775 Si02
#       5
#     4   4   4   4   4
#     4  12  23  35  54  83 117 150 186 229 274 332
#     4  10  20  36  58  80 109 146 184 227 279 334
#     4  10  21  38  57  78 109 150 189 226 274 337
#     4  10  21  38  59  80 110 148 186 227 281 340
#     4  10  20  35  58  87 110 134 181 241 284 319
#
# _framework density 20.489276
#
# number of rings (size 3 to 8) (size 9 to 14) (size 15 to 20)
#    0.000    1.600    0.000    5.400    0.000    3.200 
#    0.000    3.000    0.000    0.000    0.000    0.000 
#    0.000    0.000    0.000    0.000    0.000    0.000 
#
# Total GULP energy -248083.844112 kJ/mol
# GULP energy per Si atom -12404.192206 kJ/mol
# Density = 2.044264 g / cm^3
# Si number density = 20.489276 Si / 1000 Ang^3
#
#
#
# Elastic Constant Matrix: (Units=GPa)
#
#
# Indices 1 2 3 4 5 6 
#
# 1 80.5882 20.0247 15.0900 0.0000 -3.5483 0.0000
# 2 20.0247 82.4654 52.2363 0.0000 -13.1374 0.0000
# 3 15.0900 52.2363 102.9793 0.0000 6.6171 0.0000
# 4 0.0000 0.0000 0.0000 15.3877 0.0000 -2.8373
# 5 -3.5483 -13.1374 6.6171 0.0000 29.8640 0.0000
# 6 0.0000 0.0000 0.0000 -2.8373 0.0000 26.8712
#
#
#
# Elastic Compliance Matrix: (Units=1/GPa)
#
#
# Indices 1 2 3 4 5 6 
#
# 1 0.013225 -0.002785 -0.000556 0.000000 0.000469 0.000000
# 2 -0.002785 0.021987 -0.011509 0.000000 0.011892 0.000000
# 3 -0.000556 -0.011509 0.016190 0.000000 -0.008716 0.000000
# 4 0.000000 0.000000 0.000000 0.066277 0.000000 0.006998
# 5 0.000469 0.011892 -0.008716 0.000000 0.040703 0.000000
# 6 0.000000 0.000000 0.000000 0.006998 0.000000 0.037953
#
#
# Mechanical properties :
#
#
# Convention : Reuss Voigt Hill
#
# Bulk Modulus (GPa) = 46.07454 48.97054 47.52254
# Shear Modulus (GPa) = 21.43435 26.33671 23.88553
#
# Velocity S-wave (km/s) = 3.23790 3.58912 3.41802
# Velocity P-wave (km/s) = 6.04273 6.41313 6.23068
#
# Compressibility (1/GPa) = 0.02170396
#
# Stress axis : x y z
#
# Youngs Moduli (GPa) = 75.61190 45.48110 61.76592
#
# Poissons Ratio (x) = 0.12665 0.03431
# Poissons Ratio (y) = 0.21056 0.71087
# Poissons Ratio (z) = 0.04201 0.52344
#
# Static dielectric constant tensor:
#      x y z
#    x 4.079440 0.000000 0.061230 
#    y 0.000000 3.469460 0.000000 
#    z 0.061230 0.000000 3.631360 
# 
# 
# High freq. dielectric constant tensor:
#      x y z
#    x 1.826100 0.000000 0.002800 
#    y 0.000000 1.776260 0.000000 
#    z 0.002800 0.000000 1.796500 
# 
# From -- ./inp_files/43684.got.cif
#   From: 2010.06.25/outbox.cif.g09.slc.cpg/sg13_22_cif.got.tgz:43684.got - 2010.06.28 04:50:58.
