data_PCOD8118367
_publ_section_title
;
Structure prediction by ZEFSAII (Michael W. Deem and Ramdas Pophale) SiO2 
 PCOD8118367
Probable space group: P 2/C
;
_chemical_formula_sum "Si O2"
_cell_formula_units_Z 26
_cell_length_a 21.223511
_cell_length_b 8.898223
_cell_length_c 15.159435
_cell_angle_alpha 90.000000
_cell_angle_beta 154.275804
_cell_angle_gamma 90.000000
_cell_volume 1242.604313
_symmetry_space_group_name_H-M "P 2/C"
_symmetry_group_IT_number 13
_symmetry_cell_setting 'monoclinic'
loop_
_space_group_symop_operation_xyz
x,y,z
-x,y,1/2-z
-x,-y,-z
x,-y,1/2+z
loop_
_atom_site_type_symbol
_atom_site_label
_atom_site_fract_x
_atom_site_fract_y
_atom_site_fract_z
Si Si1 0.255375 0.696837 0.007758
Si Si2 0.432105 0.886349 0.811864
Si Si3 0.984235 0.715397 0.552550
Si Si4 0.772781 0.360145 0.495754
Si Si5 0.939127 0.624273 0.032624
Si Si6 0.706987 0.139942 0.764106
Si Si7 0.500000 0.886774 0.250000
O O1 0.290128 0.520110 0.053480
O O2 0.274608 0.750748 0.130727
O O3 0.360586 0.779272 0.072082
O O4 0.093168 0.737170 0.771632
O O5 0.349766 0.766969 0.645404
O O6 0.318213 0.967686 0.735451
O O7 0.504931 0.013700 0.843608
O O8 0.564453 0.806790 0.030265
O O9 0.068134 0.728516 0.564151
O O10 0.920173 0.548033 0.479247
O O11 0.854682 0.839249 0.393244
O O12 0.809748 0.348132 0.438218
O O13 0.910942 0.330871 0.730908
#
# Coordination Sequence:
#
# PCOD8118367 Si02
#       7
#     4   4   4   4   4   4   2
#     4  10  21  41  67  86 123 164 214 254 310 372
#     4  10  24  40  60  88 133 162 207 261 307 374
#     4  10  19  38  65  92 119 161 205 261 299 369
#     4  10  20  41  62  92 123 162 199 264 318 357
#     4   9  20  36  62  94 125 147 210 261 303 361
#     4  10  21  41  62  89 126 174 200 251 318 373
#     4  10  24  44  56  88 124 164 212 258 304 390
#
# _framework density 20.923794999999998
#
# number of rings (size 3 to 8) (size 9 to 14) (size 15 to 20)
#    0.000    2.154    1.538    0.462    2.154    4.923 
#   16.615    1.538    0.000    0.000    0.000    0.000 
#    0.000    0.000    0.000    0.000    0.000    0.000 
#
# Total GULP energy -322306.220776 kJ/mol
# GULP energy per Si atom -12396.393107 kJ/mol
# Density = 2.087617 g / cm^3
# Si number density = 20.923795 Si / 1000 Ang^3
#
#
#
# Elastic Constant Matrix: (Units=GPa)
#
#
# Indices 1 2 3 4 5 6 
#
# 1 101.6089 36.2949 27.7366 0.0000 1.6444 0.0000
# 2 36.2949 87.5955 58.9326 0.0000 10.0609 0.0000
# 3 27.7366 58.9326 100.8548 0.0000 0.9310 0.0000
# 4 0.0000 0.0000 0.0000 34.8241 0.0000 3.8381
# 5 1.6444 10.0609 0.9310 0.0000 30.0349 0.0000
# 6 0.0000 0.0000 0.0000 3.8381 0.0000 31.8642
#
#
#
# Elastic Compliance Matrix: (Units=1/GPa)
#
#
# Indices 1 2 3 4 5 6 
#
# 1 0.011598 -0.004545 -0.000543 0.000000 0.000904 0.000000
# 2 -0.004545 0.021724 -0.011382 0.000000 -0.006675 0.000000
# 3 -0.000543 -0.011382 0.016685 0.000000 0.003325 0.000000
# 4 0.000000 0.000000 0.000000 0.029102 0.000000 -0.003505
# 5 0.000904 -0.006675 0.003325 0.000000 0.035378 0.000000
# 6 0.000000 0.000000 0.000000 -0.003505 0.000000 0.031805
#
#
# Mechanical properties :
#
#
# Convention : Reuss Voigt Hill
#
# Bulk Modulus (GPa) = 58.58940 59.55415 59.07177
# Shear Modulus (GPa) = 27.03857 30.48432 28.76145
#
# Velocity S-wave (km/s) = 3.59867 3.82110 3.71156
# Velocity P-wave (km/s) = 6.73271 6.92762 6.83086
#
# Compressibility (1/GPa) = 0.01706793
#
# Stress axis : x y z
#
# Youngs Moduli (GPa) = 86.21822 46.03259 59.93458
#
# Poissons Ratio (x) = 0.20920 0.03252
# Poissons Ratio (y) = 0.39183 0.68220
# Poissons Ratio (z) = 0.04678 0.52396
#
# Static dielectric constant tensor:
#      x y z
#    x 4.007450 0.000000 -0.003910 
#    y 0.000000 3.613620 0.000000 
#    z -0.003910 0.000000 3.679630 
# 
# 
# High freq. dielectric constant tensor:
#      x y z
#    x 1.823160 0.000000 -0.009140 
#    y 0.000000 1.802750 0.000000 
#    z -0.009140 0.000000 1.813760 
# 
# From -- ./inp_files/57312.got.cif
#   From: 2010.06.25/outbox.cif.g09.slc.cpg/sg13_29_cif.got.tgz:57312.got - 2010.06.28 04:50:58.
