data_PCOD8118189
_publ_section_title
;
Structure prediction by ZEFSAII (Michael W. Deem and Ramdas Pophale) SiO2 
 PCOD8118189
Probable space group: P 2/C
;
_chemical_formula_sum "Si O2"
_cell_formula_units_Z 24
_cell_length_a 8.453505
_cell_length_b 8.897419
_cell_length_c 19.076228
_cell_angle_alpha 90.000000
_cell_angle_beta 126.985637
_cell_angle_gamma 90.000000
_cell_volume 1146.103914
_symmetry_space_group_name_H-M "P 2/C"
_symmetry_group_IT_number 13
_symmetry_cell_setting 'monoclinic'
loop_
_space_group_symop_operation_xyz
x,y,z
-x,y,1/2-z
-x,-y,-z
x,-y,1/2+z
loop_
_atom_site_type_symbol
_atom_site_label
_atom_site_fract_x
_atom_site_fract_y
_atom_site_fract_z
Si Si1 0.494512 0.646465 0.093770
Si Si2 0.059575 0.203000 0.973471
Si Si3 0.184365 0.525347 0.421302
Si Si4 0.324255 0.941110 0.079379
Si Si5 0.829502 0.338583 0.350014
Si Si6 0.500000 0.573250 0.250000
Si Si7 0.500000 0.109764 0.250000
O O1 0.693815 0.578625 0.113846
O O2 0.432990 0.818860 0.057408
O O3 0.535359 0.664700 0.187956
O O4 0.322508 0.534220 0.021582
O O5 0.072597 0.324704 0.916037
O O6 0.839236 0.137379 0.914374
O O7 0.092482 0.284166 0.055305
O O8 0.220176 0.069334 0.003934
O O9 0.023370 0.395580 0.357758
O O10 0.478215 0.013888 0.174103
O O11 0.690375 0.479942 0.322984
O O12 0.695767 0.206824 0.281040
#
# Coordination Sequence:
#
# PCOD8118189 Si02
#       7
#     4   4   4   4   4   2   2
#     4  11  23  37  61  95 127 164 208 262 311 374
#     4  10  19  36  63  89 121 168 209 254 306 384
#     4  11  22  38  61  95 129 161 213 260 310 372
#     4  10  20  36  60  91 124 165 208 251 316 382
#     4  10  19  37  63  88 120 162 211 258 314 367
#     4  11  21  36  62  86 122 162 210 264 310 364
#     4   9  21  36  62  96 122 162 214 262 316 378
#
# _framework density 20.940508000000001
#
# number of rings (size 3 to 8) (size 9 to 14) (size 15 to 20)
#    0.000    1.667    3.333    2.000    0.000    1.333 
#    0.000    0.000    0.000    2.000    0.000    0.000 
#    0.000    0.000    0.000    0.000    0.000    0.000 
#
# Total GULP energy -297341.455558 kJ/mol
# GULP energy per Si atom -12389.227315 kJ/mol
# Density = 2.089285 g / cm^3
# Si number density = 20.940508 Si / 1000 Ang^3
#
#
#
# Elastic Constant Matrix: (Units=GPa)
#
#
# Indices 1 2 3 4 5 6 
#
# 1 100.4572 48.9046 44.2015 0.0000 15.2679 0.0000
# 2 48.9046 111.6234 29.2651 0.0000 7.5598 0.0000
# 3 44.2015 29.2651 76.1814 0.0000 4.6401 0.0000
# 4 0.0000 0.0000 0.0000 29.2454 0.0000 9.6007
# 5 15.2679 7.5598 4.6401 0.0000 27.4827 0.0000
# 6 0.0000 0.0000 0.0000 9.6007 0.0000 41.1435
#
#
#
# Elastic Compliance Matrix: (Units=1/GPa)
#
#
# Indices 1 2 3 4 5 6 
#
# 1 0.016566 -0.004887 -0.007331 0.000000 -0.006621 0.000000
# 2 -0.004887 0.011527 -0.001581 0.000000 -0.000189 0.000000
# 3 -0.007331 -0.001581 0.017897 0.000000 0.001486 0.000000
# 4 0.000000 0.000000 0.000000 0.037030 0.000000 -0.008641
# 5 -0.006621 -0.000189 0.001486 0.000000 0.039866 0.000000
# 6 0.000000 0.000000 0.000000 -0.008641 0.000000 0.026321
#
#
# Mechanical properties :
#
#
# Convention : Reuss Voigt Hill
#
# Bulk Modulus (GPa) = 54.37346 59.22270 56.79808
# Shear Modulus (GPa) = 27.33199 30.63370 28.98285
#
# Velocity S-wave (km/s) = 3.61670 3.82893 3.72433
# Velocity P-wave (km/s) = 6.59263 6.92029 6.75844
#
# Compressibility (1/GPa) = 0.01839133
#
# Stress axis : x y z
#
# Youngs Moduli (GPa) = 60.36594 86.75111 55.87576
#
# Poissons Ratio (x) = 0.42398 0.40962
# Poissons Ratio (y) = 0.29503 0.08834
# Poissons Ratio (z) = 0.44253 0.13715
#
# Static dielectric constant tensor:
#      x y z
#    x 3.677470 0.000000 0.389870 
#    y 0.000000 4.389120 0.000000 
#    z 0.389870 0.000000 3.643850 
# 
# 
# High freq. dielectric constant tensor:
#      x y z
#    x 1.786850 0.000000 0.033660 
#    y 0.000000 1.836740 0.000000 
#    z 0.033660 0.000000 1.812310 
# 
# From -- ./inp_files/63479.got.cif
#   From: 2010.06.25/outbox.cif.g09.slc.cpg/sg13_32_cif.got.tgz:63479.got - 2010.06.28 04:50:58.
