data_PCOD8118032
_publ_section_title
;
Structure prediction by ZEFSAII (Michael W. Deem and Ramdas Pophale) SiO2 
 PCOD8118032
Probable space group: P 2/C
;
_chemical_formula_sum "Si O2"
_cell_formula_units_Z 28
_cell_length_a 9.274971
_cell_length_b 11.416461
_cell_length_c 15.387052
_cell_angle_alpha 90.000000
_cell_angle_beta 118.730625
_cell_angle_gamma 90.000000
_cell_volume 1428.710635
_symmetry_space_group_name_H-M "P 2/C"
_symmetry_group_IT_number 13
_symmetry_cell_setting 'monoclinic'
loop_
_space_group_symop_operation_xyz
x,y,z
-x,y,1/2-z
-x,-y,-z
x,-y,1/2+z
loop_
_atom_site_type_symbol
_atom_site_label
_atom_site_fract_x
_atom_site_fract_y
_atom_site_fract_z
Si Si1 0.114705 0.026706 0.857906
Si Si2 0.182202 0.433553 0.786797
Si Si3 0.142444 0.569274 0.086673
Si Si4 0.669134 0.807087 0.176002
Si Si5 0.341695 0.578662 0.973447
Si Si6 0.670040 0.160190 0.001086
Si Si7 0.127154 0.831095 0.104582
O O1 0.186090 0.147254 0.842847
O O2 0.000000 0.967943 0.750000
O O3 0.009776 0.070880 0.911208
O O4 0.272648 0.942178 0.917492
O O5 0.199095 0.489905 0.694275
O O6 0.324554 0.333704 0.835358
O O7 0.204060 0.532134 0.867009
O O8 0.000000 0.381212 0.750000
O O9 0.068963 0.695910 0.094140
O O10 0.293201 0.572504 0.061659
O O11 0.000000 0.500000 0.000000
O O12 0.711229 0.843243 0.287217
O O13 0.496668 0.865555 0.099674
O O14 0.357971 0.717024 0.956656
O O15 0.500000 0.500000 0.000000
O O16 0.824220 0.154323 0.980931
#
# Coordination Sequence:
#
# PCOD8118032 Si02
#       7
#     4   4   4   4   4   4   4
#     4  10  21  37  57  84 114 152 194 239 295 360
#     4  11  20  36  62  84 118 159 198 249 303 357
#     4  10  20  35  58  89 115 153 204 242 293 365
#     4  10  19  35  59  83 108 146 199 243 289 346
#     4  11  23  37  56  87 122 155 195 249 301 365
#     4  11  21  36  57  85 115 151 192 244 298 348
#     4   9  20  35  57  83 113 147 195 246 286 344
#
# _framework density 19.598091
#
# number of rings (size 3 to 8) (size 9 to 14) (size 15 to 20)
#    0.000    1.714    2.857    3.429    0.000    1.143 
#    0.000    0.000    0.000    0.000    7.429    0.000 
#    0.000    0.000    0.000    0.000    0.000    0.000 
#
# Total GULP energy -346900.083470 kJ/mol
# GULP energy per Si atom -12389.288695 kJ/mol
# Density = 1.955348 g / cm^3
# Si number density = 19.598091 Si / 1000 Ang^3
#
#
#
# Elastic Constant Matrix: (Units=GPa)
#
#
# Indices 1 2 3 4 5 6 
#
# 1 65.2425 28.7183 25.8024 0.0000 -1.4941 0.0000
# 2 28.7183 87.4357 47.1514 0.0000 9.2201 0.0000
# 3 25.8024 47.1514 105.9430 0.0000 1.9552 0.0000
# 4 0.0000 0.0000 0.0000 29.7513 0.0000 7.8760
# 5 -1.4941 9.2201 1.9552 0.0000 38.5875 0.0000
# 6 0.0000 0.0000 0.0000 7.8760 0.0000 29.3613
#
#
#
# Elastic Compliance Matrix: (Units=1/GPa)
#
#
# Indices 1 2 3 4 5 6 
#
# 1 0.018507 -0.005057 -0.002295 0.000000 0.002041 0.000000
# 2 -0.005057 0.016851 -0.006196 0.000000 -0.003908 0.000000
# 3 -0.002295 -0.006196 0.012742 0.000000 0.000746 0.000000
# 4 0.000000 0.000000 0.000000 0.036181 0.000000 -0.009705
# 5 0.002041 -0.003908 0.000746 0.000000 0.026890 0.000000
# 6 0.000000 0.000000 0.000000 -0.009705 0.000000 0.036662
#
#
# Mechanical properties :
#
#
# Convention : Reuss Voigt Hill
#
# Bulk Modulus (GPa) = 47.60614 51.32949 49.46782
# Shear Modulus (GPa) = 27.48291 30.00328 28.74310
#
# Velocity S-wave (km/s) = 3.74883 3.91695 3.83381
# Velocity P-wave (km/s) = 6.56370 6.83408 6.70026
#
# Compressibility (1/GPa) = 0.02100569
#
# Stress axis : x y z
#
# Youngs Moduli (GPa) = 54.03219 59.34212 78.48133
#
# Poissons Ratio (x) = 0.30007 0.18009
# Poissons Ratio (y) = 0.27322 0.48629
# Poissons Ratio (z) = 0.12399 0.36770
#
# Static dielectric constant tensor:
#      x y z
#    x 3.626700 0.000000 -0.209390 
#    y 0.000000 3.438700 0.000000 
#    z -0.209390 0.000000 3.868520 
# 
# 
# High freq. dielectric constant tensor:
#      x y z
#    x 1.761840 0.000000 -0.004020 
#    y 0.000000 1.743170 0.000000 
#    z -0.004020 0.000000 1.766610 
# 
# From -- ./inp_files/46969.got.cif
#   From: 2010.06.25/outbox.cif.g09.slc.cpg/sg13_24_cif.got.tgz:46969.got - 2010.06.28 04:50:58.
