data_PCOD8118324
_publ_section_title
;
Structure prediction by ZEFSAII (Michael W. Deem and Ramdas Pophale) SiO2 
 PCOD8118324
Probable space group: P 2/C
;
_chemical_formula_sum "Si O2"
_cell_formula_units_Z 20
_cell_length_a 5.947552
_cell_length_b 11.347746
_cell_length_c 13.550789
_cell_angle_alpha 90.000000
_cell_angle_beta 72.735277
_cell_angle_gamma 90.000000
_cell_volume 873.353792
_symmetry_space_group_name_H-M "P 2/C"
_symmetry_group_IT_number 13
_symmetry_cell_setting 'monoclinic'
loop_
_space_group_symop_operation_xyz
x,y,z
-x,y,1/2-z
-x,-y,-z
x,-y,1/2+z
loop_
_atom_site_type_symbol
_atom_site_label
_atom_site_fract_x
_atom_site_fract_y
_atom_site_fract_z
Si Si1 0.837522 0.912593 0.462669
Si Si2 0.076632 0.680443 0.474169
Si Si3 0.408549 0.936412 0.660584
Si Si4 0.630393 0.472291 0.083172
Si Si5 0.766372 0.690329 0.829005
O O1 0.608108 0.890610 0.559180
O O2 0.992845 0.794652 0.423473
O O3 0.762536 0.967623 0.367521
O O4 0.000000 0.000000 0.500000
O O5 0.256424 0.595137 0.388310
O O6 0.211777 0.715026 0.556967
O O7 0.843603 0.613643 0.535164
O O8 0.500000 0.996831 0.750000
O O9 0.274870 0.818461 0.713801
O O10 0.438100 0.403627 0.174744
O O11 0.500000 0.500000 0.000000
O O12 0.000000 0.635199 0.750000
#
# Coordination Sequence:
#
# PCOD8118324 Si02
#       5
#     4   4   4   4   4
#     4  11  22  39  64  96 129 174 218 259 332 393
#     4  10  19  38  60  93 124 169 211 262 314 396
#     4  11  24  37  58 100 135 166 219 276 325 389
#     4   9  20  35  59  93 119 160 215 261 324 383
#     4  11  21  34  60  97 130 158 211 284 327 371
#
# _framework density 22.900229
#
# number of rings (size 3 to 8) (size 9 to 14) (size 15 to 20)
#    0.000    1.600    4.000    1.200    0.000    0.000 
#    0.000    0.000    0.000    0.000   88.400    0.000 
#    0.000    0.000    0.000    0.000    0.000    0.000 
#
# Total GULP energy -247838.036102 kJ/mol
# GULP energy per Si atom -12391.901805 kJ/mol
# Density = 2.284811 g / cm^3
# Si number density = 22.900229 Si / 1000 Ang^3
#
#
#
# Elastic Constant Matrix: (Units=GPa)
#
#
# Indices 1 2 3 4 5 6 
#
# 1 139.0917 84.3974 36.5164 0.0000 1.5297 0.0000
# 2 84.3974 183.7517 41.0187 0.0000 2.5725 0.0000
# 3 36.5164 41.0187 65.7073 0.0000 15.2867 0.0000
# 4 0.0000 0.0000 0.0000 18.0898 0.0000 1.0160
# 5 1.5297 2.5725 15.2867 0.0000 52.0015 0.0000
# 6 0.0000 0.0000 0.0000 1.0160 0.0000 57.4934
#
#
#
# Elastic Compliance Matrix: (Units=1/GPa)
#
#
# Indices 1 2 3 4 5 6 
#
# 1 0.010590 -0.004084 -0.003554 0.000000 0.000935 0.000000
# 2 -0.004084 0.007939 -0.002815 0.000000 0.000555 0.000000
# 3 -0.003554 -0.002815 0.020282 0.000000 -0.005718 0.000000
# 4 0.000000 0.000000 0.000000 0.055335 0.000000 -0.000978
# 5 0.000935 0.000555 -0.005718 0.000000 0.020856 0.000000
# 6 0.000000 0.000000 0.000000 -0.000978 0.000000 0.017411
#
#
# Mechanical properties :
#
#
# Convention : Reuss Voigt Hill
#
# Bulk Modulus (GPa) = 55.85034 79.15731 67.50383
# Shear Modulus (GPa) = 31.39015 40.62482 36.00749
#
# Velocity S-wave (km/s) = 3.70636 4.21645 3.96961
# Velocity P-wave (km/s) = 6.53893 7.63844 7.10997
#
# Compressibility (1/GPa) = 0.01790499
#
# Stress axis : x y z
#
# Youngs Moduli (GPa) = 94.42728 125.96754 49.30550
#
# Poissons Ratio (x) = 0.51444 0.17521
# Poissons Ratio (y) = 0.38563 0.13881
# Poissons Ratio (z) = 0.33555 0.35463
#
# Static dielectric constant tensor:
#      x y z
#    x 4.605740 0.000000 -0.106780 
#    y 0.000000 4.622730 0.000000 
#    z -0.106780 0.000000 3.973120 
# 
# 
# High freq. dielectric constant tensor:
#      x y z
#    x 1.937710 0.000000 0.010850 
#    y 0.000000 1.904760 0.000000 
#    z 0.010850 0.000000 1.854960 
# 
# From -- ./inp_files/43584.got.cif
#   From: 2010.06.25/outbox.cif.g09.slc.cpg/sg13_22_cif.got.tgz:43584.got - 2010.06.28 04:50:58.
