data_PCOD8118061
_publ_section_title
;
Structure prediction by ZEFSAII (Michael W. Deem and Ramdas Pophale) SiO2 
 PCOD8118061
Probable space group: P 2/C
;
_chemical_formula_sum "Si O2"
_cell_formula_units_Z 28
_cell_length_a 9.281751
_cell_length_b 9.543067
_cell_length_c 25.763087
_cell_angle_alpha 90.000000
_cell_angle_beta 140.123271
_cell_angle_gamma 90.000000
_cell_volume 1463.077387
_symmetry_space_group_name_H-M "P 2/C"
_symmetry_group_IT_number 13
_symmetry_cell_setting 'monoclinic'
loop_
_space_group_symop_operation_xyz
x,y,z
-x,y,1/2-z
-x,-y,-z
x,-y,1/2+z
loop_
_atom_site_type_symbol
_atom_site_label
_atom_site_fract_x
_atom_site_fract_y
_atom_site_fract_z
Si Si1 0.945574 0.778548 0.154300
Si Si2 0.434584 0.954270 0.672044
Si Si3 0.290276 0.543338 0.476097
Si Si4 0.951599 0.978863 0.064844
Si Si5 0.260314 0.256927 0.055946
Si Si6 0.642620 0.807544 0.166469
Si Si7 0.174633 0.279140 0.501457
O O1 0.876017 0.645261 0.100822
O O2 0.993288 0.917478 0.133662
O O3 0.748553 0.825517 0.138832
O O4 0.173764 0.729954 0.246502
O O5 0.500000 0.950618 0.750000
O O6 0.424845 0.792997 0.648214
O O7 0.601429 0.042511 0.682205
O O8 0.185948 0.022806 0.597855
O O9 0.500000 0.500000 0.500000
O O10 0.370217 0.621324 0.551336
O O11 0.159719 0.402751 0.455268
O O12 0.768662 0.883037 0.986301
O O13 0.855910 0.136502 0.039912
O O14 0.018795 0.307628 0.009990
O O15 0.413739 0.718516 0.097908
#
# Coordination Sequence:
#
# PCOD8118061 Si02
#       7
#     4   4   4   4   4   4   4
#     4  10  23  37  57  89 121 154 202 248 297 361
#     4  11  19  35  61  90 119 150 190 253 309 342
#     4  11  23  40  59  85 120 165 201 242 296 358
#     4  10  19  35  61  90 115 146 199 250 295 355
#     4  10  21  37  59  90 119 148 201 249 292 361
#     4  11  20  36  61  85 119 154 198 246 302 348
#     4  11  20  37  61  87 119 157 197 247 296 354
#
# _framework density 19.137741999999999
#
# number of rings (size 3 to 8) (size 9 to 14) (size 15 to 20)
#    0.000    1.429    5.714    1.286    0.000    1.714 
#    0.000    2.857    0.000    0.000    0.000    0.000 
#    0.000    0.000    0.000    0.000    0.000    0.000 
#
# Total GULP energy -347125.502972 kJ/mol
# GULP energy per Si atom -12397.339392 kJ/mol
# Density = 1.909418 g / cm^3
# Si number density = 19.137742 Si / 1000 Ang^3
#
#
#
# Elastic Constant Matrix: (Units=GPa)
#
#
# Indices 1 2 3 4 5 6 
#
# 1 115.2251 60.3614 27.4284 0.0000 -6.8874 0.0000
# 2 60.3614 122.0272 32.0251 0.0000 -7.4045 0.0000
# 3 27.4284 32.0251 74.5969 0.0000 0.2028 0.0000
# 4 0.0000 0.0000 0.0000 22.7591 0.0000 -5.4649
# 5 -6.8874 -7.4045 0.2028 0.0000 26.1968 0.0000
# 6 0.0000 0.0000 0.0000 -5.4649 0.0000 32.3670
#
#
#
# Elastic Compliance Matrix: (Units=1/GPa)
#
#
# Indices 1 2 3 4 5 6 
#
# 1 0.012072 -0.005300 -0.002168 0.000000 0.001693 0.000000
# 2 -0.005300 0.011749 -0.003100 0.000000 0.001951 0.000000
# 3 -0.002168 -0.003100 0.015538 0.000000 -0.001567 0.000000
# 4 0.000000 0.000000 0.000000 0.045795 0.000000 0.007732
# 5 0.001693 0.001951 -0.001567 0.000000 0.039181 0.000000
# 6 0.000000 0.000000 0.000000 0.007732 0.000000 0.032201
#
#
# Mechanical properties :
#
#
# Convention : Reuss Voigt Hill
#
# Bulk Modulus (GPa) = 54.87898 61.27547 58.07722
# Shear Modulus (GPa) = 27.21131 29.06688 28.13909
#
# Velocity S-wave (km/s) = 3.77485 3.90144 3.83867
# Velocity P-wave (km/s) = 6.90923 7.23758 7.07531
#
# Compressibility (1/GPa) = 0.01822191
#
# Stress axis : x y z
#
# Youngs Moduli (GPa) = 82.83389 85.11654 64.35893
#
# Poissons Ratio (x) = 0.45111 0.13954
# Poissons Ratio (y) = 0.43901 0.19954
# Poissons Ratio (z) = 0.17960 0.26389
#
# Static dielectric constant tensor:
#      x y z
#    x 3.654400 0.000000 -0.141380 
#    y 0.000000 3.472380 0.000000 
#    z -0.141380 0.000000 3.596250 
# 
# 
# High freq. dielectric constant tensor:
#      x y z
#    x 1.754280 0.000000 -0.009210 
#    y 0.000000 1.729050 0.000000 
#    z -0.009210 0.000000 1.736130 
# 
# From -- ./inp_files/91462.got.cif
#   From: 2010.06.25/outbox.cif.g09.slc.cpg/sg13_46_cif.got.tgz:91462.got - 2010.06.28 04:50:58.
