data_PCOD8118033
_publ_section_title
;
Structure prediction by ZEFSAII (Michael W. Deem and Ramdas Pophale) SiO2 
 PCOD8118033
Probable space group: P 2/C
;
_chemical_formula_sum "Si O2"
_cell_formula_units_Z 30
_cell_length_a 10.817609
_cell_length_b 9.892506
_cell_length_c 14.224554
_cell_angle_alpha 90.000000
_cell_angle_beta 66.518291
_cell_angle_gamma 90.000000
_cell_volume 1396.157148
_symmetry_space_group_name_H-M "P 2/C"
_symmetry_group_IT_number 13
_symmetry_cell_setting 'monoclinic'
loop_
_space_group_symop_operation_xyz
x,y,z
-x,y,1/2-z
-x,-y,-z
x,-y,1/2+z
loop_
_atom_site_type_symbol
_atom_site_label
_atom_site_fract_x
_atom_site_fract_y
_atom_site_fract_z
Si Si1 0.267485 0.771258 0.143397
Si Si2 0.000000 0.079992 0.750000
Si Si3 0.044213 0.125745 0.381179
Si Si4 0.688693 0.213918 0.266524
Si Si5 0.514390 0.030683 0.853606
Si Si6 0.783368 0.476098 0.307751
Si Si7 0.731415 0.874646 0.554864
Si Si8 0.978856 0.576713 0.908654
O O1 0.132930 0.832050 0.233472
O O2 0.288393 0.621032 0.176254
O O3 0.406267 0.848947 0.121181
O O4 0.244126 0.773760 0.038501
O O5 0.040471 0.991766 0.644750
O O6 0.155680 0.166597 0.267234
O O7 0.123758 0.069805 0.450060
O O8 0.964179 0.262029 0.432084
O O9 0.593681 0.108699 0.348007
O O10 0.670994 0.361030 0.320200
O O11 0.659618 0.211612 0.161733
O O12 0.500000 0.071010 0.750000
O O13 0.364677 0.003336 0.942014
O O14 0.843982 0.466064 0.394652
O O15 0.894952 0.461912 0.193669
O O16 0.000000 0.500000 0.000000
#
# Coordination Sequence:
#
# PCOD8118033 Si02
#       8
#     4   2   4   4   4   4   4   4
#     4  12  23  35  58  90 128 151 196 251 317 354
#     4  12  20  34  56  86 124 158 190 242 298 382
#     4   9  18  33  58  83 108 153 201 234 289 350
#     4   8  17  38  60  77 105 155 204 235 290 353
#     4  10  19  40  65  80 112 159 204 247 301 359
#     4  10  21  35  56  86 119 160 193 246 311 349
#     4   9  20  37  60  86 113 158 203 252 287 363
#     4  10  19  35  59  83 120 161 198 246 295 364
#
# _framework density 21.487551
#
# number of rings (size 3 to 8) (size 9 to 14) (size 15 to 20)
#    0.800    1.333    1.333    3.600    0.000    0.533 
#    0.000    5.333    2.933    0.000    0.000    0.000 
#    0.000    0.000    0.000    0.000    0.000    0.000 
#
# Total GULP energy -371732.942074 kJ/mol
# GULP energy per Si atom -12391.098069 kJ/mol
# Density = 2.143864 g / cm^3
# Si number density = 21.487551 Si / 1000 Ang^3
#
#
#
# Elastic Constant Matrix: (Units=GPa)
#
#
# Indices 1 2 3 4 5 6 
#
# 1 75.4908 50.0535 8.0535 0.0000 17.1626 0.0000
# 2 50.0535 114.6024 2.0765 0.0000 21.5525 0.0000
# 3 8.0535 2.0765 47.6887 0.0000 23.9677 0.0000
# 4 0.0000 0.0000 0.0000 17.4251 0.0000 6.0558
# 5 17.1626 21.5525 23.9677 0.0000 25.0570 0.0000
# 6 0.0000 0.0000 0.0000 6.0558 0.0000 26.3599
#
#
#
# Elastic Compliance Matrix: (Units=1/GPa)
#
#
# Indices 1 2 3 4 5 6 
#
# 1 0.019741 -0.006973 0.001446 0.000000 -0.008907 0.000000
# 2 -0.006973 0.014631 0.008599 0.000000 -0.016033 0.000000
# 3 0.001446 0.008599 0.047309 0.000000 -0.053639 0.000000
# 4 0.000000 0.000000 0.000000 0.062368 0.000000 -0.014328
# 5 -0.008907 -0.016033 -0.053639 0.000000 0.111107 0.000000
# 6 0.000000 0.000000 0.000000 -0.014328 0.000000 0.041228
#
#
# Mechanical properties :
#
#
# Convention : Reuss Voigt Hill
#
# Bulk Modulus (GPa) = 11.38642 39.79435 25.59038
# Shear Modulus (GPa) = 15.64876 25.60830 20.62853
#
# Velocity S-wave (km/s) = 2.70158 3.45595 3.10178
# Velocity P-wave (km/s) = 3.87839 5.87237 4.97628
#
# Compressibility (1/GPa) = 0.08782395
#
# Stress axis : x y z
#
# Youngs Moduli (GPa) = 50.65661 68.34896 21.13780
#
# Poissons Ratio (x) = 0.47660 -0.03057
# Poissons Ratio (y) = 0.35323 -0.18175
# Poissons Ratio (z) = -0.07327 -0.58770
#
# Static dielectric constant tensor:
#      x y z
#    x 3.888480 0.000000 0.188580 
#    y 0.000000 3.784470 0.000000 
#    z 0.188580 0.000000 3.600390 
# 
# 
# High freq. dielectric constant tensor:
#      x y z
#    x 1.834040 0.000000 0.019170 
#    y 0.000000 1.826030 0.000000 
#    z 0.019170 0.000000 1.827390 
# 
# From -- ./inp_files/49995.got.cif
#   From: 2010.06.25/outbox.cif.g09.slc.cpg/sg13_25_cif.got.tgz:49995.got - 2010.06.28 04:50:58.
