data_PCOD8118402
_publ_section_title
;
Structure prediction by ZEFSAII (Michael W. Deem and Ramdas Pophale) SiO2 
 PCOD8118402
Probable space group: P 2/C
;
_chemical_formula_sum "Si O2"
_cell_formula_units_Z 24
_cell_length_a 9.515268
_cell_length_b 7.605439
_cell_length_c 19.321182
_cell_angle_alpha 90.000000
_cell_angle_beta 121.452191
_cell_angle_gamma 90.000000
_cell_volume 1192.797315
_symmetry_space_group_name_H-M "P 2/C"
_symmetry_group_IT_number 13
_symmetry_cell_setting 'monoclinic'
loop_
_space_group_symop_operation_xyz
x,y,z
-x,y,1/2-z
-x,-y,-z
x,-y,1/2+z
loop_
_atom_site_type_symbol
_atom_site_label
_atom_site_fract_x
_atom_site_fract_y
_atom_site_fract_z
Si Si1 0.372937 0.077910 0.823649
Si Si2 0.806417 0.904010 0.085164
Si Si3 0.415849 0.250277 0.160580
Si Si4 0.699859 0.193161 0.958684
Si Si5 0.823944 0.040086 0.858807
Si Si6 0.343646 0.448311 0.005969
O O1 0.229893 0.066261 0.843770
O O2 0.512446 0.218501 0.881960
O O3 0.291844 0.128901 0.729399
O O4 0.459808 0.890723 0.839431
O O5 0.991376 0.968207 0.120575
O O6 0.771101 0.700223 0.057733
O O7 0.691324 0.027438 0.008574
O O8 0.500000 0.337677 0.250000
O O9 0.390776 0.396932 0.096379
O O10 0.244245 0.153552 0.138068
O O11 0.823940 0.160700 0.927139
O O12 0.758731 0.369775 0.012822
O O13 0.500000 0.500000 0.000000
#
# Coordination Sequence:
#
# PCOD8118402 Si02
#       6
#     4   4   4   4   4   4
#     4  10  19  39  64  86 117 161 202 242 301 367
#     4  12  22  40  62  89 127 153 202 259 300 355
#     4   9  20  39  63  89 120 157 208 248 300 368
#     4  11  22  38  65  86 119 161 207 241 300 365
#     4  10  22  39  62  89 121 163 195 252 315 349
#     4  12  23  37  63  93 115 160 205 247 300 358
#
# _framework density 20.120768999999999
#
# number of rings (size 3 to 8) (size 9 to 14) (size 15 to 20)
#    0.000    1.333    5.000    4.000    0.000    2.000 
#    0.000    0.000    0.000    2.000    0.000    0.000 
#    0.000    0.000    0.000    0.000    0.000    0.000 
#
# Total GULP energy -297518.521316 kJ/mol
# GULP energy per Si atom -12396.605055 kJ/mol
# Density = 2.007497 g / cm^3
# Si number density = 20.120769 Si / 1000 Ang^3
#
#
#
# Elastic Constant Matrix: (Units=GPa)
#
#
# Indices 1 2 3 4 5 6 
#
# 1 111.4669 22.2857 8.9160 0.0000 -7.7290 0.0000
# 2 22.2857 89.3578 22.4272 0.0000 -4.0969 0.0000
# 3 8.9160 22.4272 61.5150 0.0000 -8.9047 0.0000
# 4 0.0000 0.0000 0.0000 20.3339 0.0000 -7.0863
# 5 -7.7290 -4.0969 -8.9047 0.0000 33.0962 0.0000
# 6 0.0000 0.0000 0.0000 -7.0863 0.0000 21.1158
#
#
#
# Elastic Compliance Matrix: (Units=1/GPa)
#
#
# Indices 1 2 3 4 5 6 
#
# 1 0.009571 -0.002224 -0.000304 0.000000 0.001878 0.000000
# 2 -0.002224 0.012839 -0.004374 0.000000 -0.000107 0.000000
# 3 -0.000304 -0.004374 0.018528 0.000000 0.004373 0.000000
# 4 0.000000 0.000000 0.000000 0.055692 0.000000 0.018690
# 5 0.001878 -0.000107 0.004373 0.000000 0.031817 0.000000
# 6 0.000000 0.000000 0.000000 0.018690 0.000000 0.053630
#
#
# Mechanical properties :
#
#
# Convention : Reuss Voigt Hill
#
# Bulk Modulus (GPa) = 36.85701 41.06641 38.96171
# Shear Modulus (GPa) = 24.39914 28.82322 26.61118
#
# Velocity S-wave (km/s) = 3.48607 3.78896 3.64066
# Velocity P-wave (km/s) = 5.87888 6.29253 6.08922
#
# Compressibility (1/GPa) = 0.02713188
#
# Stress axis : x y z
#
# Youngs Moduli (GPa) = 104.48718 77.89038 53.97278
#
# Poissons Ratio (x) = 0.17326 0.01643
# Poissons Ratio (y) = 0.23242 0.23606
# Poissons Ratio (z) = 0.03180 0.34068
#
# Static dielectric constant tensor:
#      x y z
#    x 3.670940 0.000000 -0.236090 
#    y 0.000000 3.520470 0.000000 
#    z -0.236090 0.000000 3.910800 
# 
# 
# High freq. dielectric constant tensor:
#      x y z
#    x 1.790380 0.000000 -0.023300 
#    y 0.000000 1.761700 0.000000 
#    z -0.023300 0.000000 1.788500 
# 
# From -- ./inp_files/75383.got.cif
#   From: 2010.06.25/outbox.cif.g09.slc.cpg/sg13_38_cif.got.tgz:75383.got - 2010.06.28 04:50:58.
