data_PCOD8118882
_publ_section_title
;
Structure prediction by ZEFSAII (Michael W. Deem and Ramdas Pophale) SiO2 
 PCOD8118882
Probable space group: P 2/C
;
_chemical_formula_sum "Si O2"
_cell_formula_units_Z 28
_cell_length_a 28.095644
_cell_length_b 9.649161
_cell_length_c 8.670542
_cell_angle_alpha 90.000000
_cell_angle_beta 140.490727
_cell_angle_gamma 90.000000
_cell_volume 1495.445423
_symmetry_space_group_name_H-M "P 2/C"
_symmetry_group_IT_number 13
_symmetry_cell_setting 'monoclinic'
loop_
_space_group_symop_operation_xyz
x,y,z
-x,y,1/2-z
-x,-y,-z
x,-y,1/2+z
loop_
_atom_site_type_symbol
_atom_site_label
_atom_site_fract_x
_atom_site_fract_y
_atom_site_fract_z
Si Si1 0.367137 0.850220 0.734877
Si Si2 0.790507 0.852245 0.293927
Si Si3 0.077401 0.350474 0.011518
Si Si4 0.632863 0.850220 0.399190
Si Si5 0.077401 0.649527 0.875486
Si Si6 0.790507 0.147757 0.158611
Si Si7 0.500000 0.347306 0.931890
O O1 0.287226 0.799347 0.472176
O O2 0.389160 0.000000 0.722899
O O3 0.364393 0.863266 0.910982
O O4 0.427230 0.736937 0.829535
O O5 0.855276 0.747959 0.405314
O O6 0.781359 0.863233 0.453399
O O7 0.813122 0.000001 0.282805
O O8 0.069489 0.361459 0.173722
O O9 0.144724 0.252043 0.128934
O O10 0.095305 0.500001 0.988264
O O11 0.000000 0.290460 0.750000
O O12 0.712774 0.799345 0.536048
O O13 0.572770 0.736937 0.193386
O O14 0.000000 0.709542 0.750000
O O15 0.500000 0.360905 0.750000
O O16 0.500000 0.500000 0.000000
#
# Coordination Sequence:
#
# PCOD8118882 Si02
#       7
#     4   4   4   4   4   4   4
#     4  10  20  36  57  80 106 139 177 217 262 314
#     4  10  21  36  55  81 108 138 176 218 263 312
#     4  10  21  36  55  78 106 140 178 217 262 314
#     4  10  20  36  57  80 106 139 177 217 262 314
#     4  10  21  36  55  78 106 140 178 217 262 314
#     4  10  21  36  55  81 108 138 176 218 263 312
#     4  10  23  38  54  80 110 140 177 218 262 310
#
# _framework density 18.723517999999999
#
# number of rings (size 3 to 8) (size 9 to 14) (size 15 to 20)
#    0.000    2.000    0.000    5.571    0.000    8.571 
#    0.000    8.571    0.000    0.000    0.000    0.000 
#    0.000    0.000    0.000    0.000    0.000    0.000 
#
# Total GULP energy -347261.498079 kJ/mol
# GULP energy per Si atom -12402.196360 kJ/mol
# Density = 1.868090 g / cm^3
# Si number density = 18.723518 Si / 1000 Ang^3
#
#
#
# Elastic Constant Matrix: (Units=GPa)
#
#
# Indices 1 2 3 4 5 6 
#
# 1 115.5238 80.3540 76.7051 0.0000 24.1928 0.0000
# 2 80.3540 132.6705 91.5100 0.0000 37.1398 0.0000
# 3 76.7051 91.5100 131.2484 0.0000 28.1611 0.0000
# 4 0.0000 0.0000 0.0000 34.4569 0.0000 2.3659
# 5 24.1928 37.1398 28.1611 0.0000 36.2559 0.0000
# 6 0.0000 0.0000 0.0000 2.3659 0.0000 33.7468
#
#
#
# Elastic Compliance Matrix: (Units=1/GPa)
#
#
# Indices 1 2 3 4 5 6 
#
# 1 0.016618 -0.006336 -0.005169 0.000000 -0.000583 0.000000
# 2 -0.006336 0.019445 -0.007785 0.000000 -0.009644 0.000000
# 3 -0.005169 -0.007785 0.016340 0.000000 -0.001268 0.000000
# 4 0.000000 0.000000 0.000000 0.029162 0.000000 -0.002045
# 5 -0.000583 -0.009644 -0.001268 0.000000 0.038834 0.000000
# 6 0.000000 0.000000 0.000000 -0.002045 0.000000 0.029776
#
#
# Mechanical properties :
#
#
# Convention : Reuss Voigt Hill
#
# Bulk Modulus (GPa) = 72.34954 97.39788 84.87371
# Shear Modulus (GPa) = 25.85827 29.61682 27.73755
#
# Velocity S-wave (km/s) = 3.72029 3.98150 3.85311
# Velocity P-wave (km/s) = 7.56168 8.55969 8.07612
#
# Compressibility (1/GPa) = 0.01382179
#
# Stress axis : x y z
#
# Youngs Moduli (GPa) = 60.17727 51.42839 61.19995
#
# Poissons Ratio (x) = 0.32586 0.31633
# Poissons Ratio (y) = 0.38130 0.47644
# Poissons Ratio (z) = 0.31105 0.40037
#
# Static dielectric constant tensor:
#      x y z
#    x 3.607240 0.000000 0.114220 
#    y 0.000000 3.463410 0.000000 
#    z 0.114220 0.000000 3.641540 
# 
# 
# High freq. dielectric constant tensor:
#      x y z
#    x 1.741090 0.000000 0.000530 
#    y 0.000000 1.722820 0.000000 
#    z 0.000530 0.000000 1.741240 
# 
# From -- ./inp_files/24892.got.cif
#   From: 2010.06.25/outbox.cif.g09.slc.cpg/sg13_13_cif.got.tgz:24892.got - 2010.06.28 04:50:58.
