data_PCOD8118426
_publ_section_title
;
Structure prediction by ZEFSAII (Michael W. Deem and Ramdas Pophale) SiO2 
 PCOD8118426
Probable space group: P 2/C
;
_chemical_formula_sum "Si O2"
_cell_formula_units_Z 30
_cell_length_a 10.919973
_cell_length_b 9.043596
_cell_length_c 17.114227
_cell_angle_alpha 90.000000
_cell_angle_beta 117.012624
_cell_angle_gamma 90.000000
_cell_volume 1505.747397
_symmetry_space_group_name_H-M "P 2/C"
_symmetry_group_IT_number 13
_symmetry_cell_setting 'monoclinic'
loop_
_space_group_symop_operation_xyz
x,y,z
-x,y,1/2-z
-x,-y,-z
x,-y,1/2+z
loop_
_atom_site_type_symbol
_atom_site_label
_atom_site_fract_x
_atom_site_fract_y
_atom_site_fract_z
Si Si1 0.708411 0.009325 0.418963
Si Si2 0.692680 0.320312 0.648533
Si Si3 0.284554 0.522702 0.071849
Si Si4 0.862738 0.730491 0.041962
Si Si5 0.500000 0.176943 0.250000
Si Si6 0.578771 0.371394 0.146349
Si Si7 0.817847 0.248080 0.842873
Si Si8 0.599983 0.233095 0.989978
O O1 0.820685 0.126246 0.479954
O O2 0.581598 0.081283 0.336594
O O3 0.779716 0.895807 0.380910
O O4 0.652560 0.929528 0.481583
O O5 0.770973 0.286095 0.592052
O O6 0.687661 0.497537 0.663380
O O7 0.766814 0.232183 0.739435
O O8 0.538628 0.261331 0.598519
O O9 0.424917 0.431247 0.112813
O O10 0.256827 0.605514 0.145388
O O11 0.288687 0.645193 0.004688
O O12 0.158826 0.412660 0.018592
O O13 0.019599 0.737125 0.111672
O O14 0.610238 0.279339 0.234412
O O15 0.578806 0.252316 0.075938
#
# Coordination Sequence:
#
# PCOD8118426 Si02
#       8
#     4   4   4   4   2   4   4   4
#     4  11  25  39  60  92 122 163 202 245 308 363
#     4  11  21  38  65  92 119 153 206 257 308 346
#     4  10  19  40  61  89 112 157 202 245 300 353
#     4  12  22  42  61  85 124 167 204 235 294 376
#     4  12  22  36  60  92 126 150 200 258 316 354
#     4  11  20  38  65  93 122 147 196 268 308 352
#     4  11  25  39  61  87 126 163 201 247 291 359
#     4  10  20  39  64  89 122 151 195 257 310 362
#
# _framework density 19.923660999999999
#
# number of rings (size 3 to 8) (size 9 to 14) (size 15 to 20)
#    0.000    1.067    4.000    3.600    0.000    6.933 
#    0.000    0.000    0.000    0.000    0.000    0.000 
#    0.000    0.000    0.000    0.000    0.000    0.000 
#
# Total GULP energy -372021.943437 kJ/mol
# GULP energy per Si atom -12400.731448 kJ/mol
# Density = 1.987831 g / cm^3
# Si number density = 19.923661 Si / 1000 Ang^3
#
#
#
# Elastic Constant Matrix: (Units=GPa)
#
#
# Indices 1 2 3 4 5 6 
#
# 1 45.9388 26.1673 14.4887 0.0000 6.3506 0.0000
# 2 26.1673 93.4475 37.6569 0.0000 -11.5987 0.0000
# 3 14.4887 37.6569 85.4036 0.0000 -11.0844 0.0000
# 4 0.0000 0.0000 0.0000 25.5451 0.0000 -8.4288
# 5 6.3506 -11.5987 -11.0844 0.0000 23.3109 0.0000
# 6 0.0000 0.0000 0.0000 -8.4288 0.0000 23.4175
#
#
#
# Elastic Compliance Matrix: (Units=1/GPa)
#
#
# Indices 1 2 3 4 5 6 
#
# 1 0.029646 -0.008842 -0.002931 0.000000 -0.013870 0.000000
# 2 -0.008842 0.016009 -0.004489 0.000000 0.008240 0.000000
# 3 -0.002931 -0.004489 0.014920 0.000000 0.005659 0.000000
# 4 0.000000 0.000000 0.000000 0.044422 0.000000 0.015989
# 5 -0.013870 0.008240 0.005659 0.000000 0.053468 0.000000
# 6 0.000000 0.000000 0.000000 0.015989 0.000000 0.048458
#
#
# Mechanical properties :
#
#
# Convention : Reuss Voigt Hill
#
# Bulk Modulus (GPa) = 35.64929 42.37952 39.01441
# Shear Modulus (GPa) = 20.09657 24.21983 22.15820
#
# Velocity S-wave (km/s) = 3.17942 3.49037 3.33852
# Velocity P-wave (km/s) = 5.60447 6.12868 5.87243
#
# Compressibility (1/GPa) = 0.02805105
#
# Stress axis : x y z
#
# Youngs Moduli (GPa) = 33.73096 62.46505 67.02259
#
# Poissons Ratio (x) = 0.55232 0.19644
# Poissons Ratio (y) = 0.29825 0.30089
# Poissons Ratio (z) = 0.09886 0.28043
#
# Static dielectric constant tensor:
#      x y z
#    x 3.558270 0.000000 -0.174500 
#    y 0.000000 3.937080 0.000000 
#    z -0.174500 0.000000 3.580730 
# 
# 
# High freq. dielectric constant tensor:
#      x y z
#    x 1.765070 0.000000 -0.018990 
#    y 0.000000 1.788180 0.000000 
#    z -0.018990 0.000000 1.776330 
# 
# From -- ./inp_files/50481.got.cif
#   From: 2010.06.25/outbox.cif.g09.slc.cpg/sg13_26_cif.got.tgz:50481.got - 2010.06.28 04:50:58.
