data_PCOD8118502
_publ_section_title
;
Structure prediction by ZEFSAII (Michael W. Deem and Ramdas Pophale) SiO2 
 PCOD8118502
Probable space group: P 2/C
;
_chemical_formula_sum "Si O2"
_cell_formula_units_Z 28
_cell_length_a 16.228582
_cell_length_b 13.906484
_cell_length_c 8.176718
_cell_angle_alpha 90.000000
_cell_angle_beta 50.318649
_cell_angle_gamma 90.000000
_cell_volume 1420.189127
_symmetry_space_group_name_H-M "P 2/C"
_symmetry_group_IT_number 13
_symmetry_cell_setting 'monoclinic'
loop_
_space_group_symop_operation_xyz
x,y,z
-x,y,1/2-z
-x,-y,-z
x,-y,1/2+z
loop_
_atom_site_type_symbol
_atom_site_label
_atom_site_fract_x
_atom_site_fract_y
_atom_site_fract_z
Si Si1 0.453182 0.597733 0.491610
Si Si2 0.275626 0.260002 0.595358
Si Si3 0.500000 0.276453 0.250000
Si Si4 0.960118 0.317902 0.050842
Si Si5 0.081597 0.132677 0.853628
Si Si6 0.838386 0.368900 0.516953
Si Si7 0.000000 0.965119 0.750000
Si Si8 0.774774 0.416220 0.100919
O O1 0.500000 0.622697 0.250000
O O2 0.500000 0.500000 0.500000
O O3 0.487525 0.669246 0.592638
O O4 0.322261 0.591331 0.643181
O O5 0.392734 0.214212 0.415746
O O6 0.193716 0.176322 0.654741
O O7 0.258065 0.299600 0.801645
O O8 0.263941 0.357930 0.506632
O O9 0.888469 0.311889 0.303035
O O10 0.889977 0.374452 0.007706
O O11 0.986043 0.210951 0.947660
O O12 0.071911 0.373008 0.950126
O O13 0.071558 0.033852 0.770342
O O14 0.079203 0.103820 0.047651
O O15 0.795961 0.473672 0.522503
#
# Coordination Sequence:
#
# PCOD8118502 Si02
#       8
#     4   4   2   4   4   4   2   4
#     4  11  23  36  53  74 107 153 214 256 279 308
#     4  10  21  36  55  77 111 145 186 232 279 317
#     4  10  22  38  56  82 106 152 196 240 290 332
#     4  10  21  34  50  78 112 142 184 225 276 338
#     4  10  20  37  58  85 110 140 169 225 285 345
#     4  10  20  32  49  74 112 152 189 222 269 315
#     4  10  20  36  62  86 108 132 176 210 284 372
#     4  11  22  32  51  76 106 158 194 232 269 316
#
# _framework density 19.715685000000001
#
# number of rings (size 3 to 8) (size 9 to 14) (size 15 to 20)
#    0.000    1.714    0.714    4.714    6.000    5.143 
#    0.000    0.000    0.000    0.857    0.000    0.000 
#    0.000    0.000    0.000    0.000    0.000    0.000 
#
# Total GULP energy -346866.849471 kJ/mol
# GULP energy per Si atom -12388.101767 kJ/mol
# Density = 1.967081 g / cm^3
# Si number density = 19.715685 Si / 1000 Ang^3
#
#
#
# Elastic Constant Matrix: (Units=GPa)
#
#
# Indices 1 2 3 4 5 6 
#
# 1 51.8465 4.5426 30.8894 0.0000 -7.5886 0.0000
# 2 4.5426 46.5791 21.5734 0.0000 -10.9190 0.0000
# 3 30.8894 21.5734 134.8927 0.0000 -20.3524 0.0000
# 4 0.0000 0.0000 0.0000 13.9402 0.0000 6.4927
# 5 -7.5886 -10.9190 -20.3524 0.0000 39.3967 0.0000
# 6 0.0000 0.0000 0.0000 6.4927 0.0000 13.1074
#
#
#
# Elastic Compliance Matrix: (Units=1/GPa)
#
#
# Indices 1 2 3 4 5 6 
#
# 1 0.022466 0.000549 -0.004942 0.000000 0.001927 0.000000
# 2 0.000549 0.024103 -0.003207 0.000000 0.005130 0.000000
# 3 -0.004942 -0.003207 0.009522 0.000000 0.003079 0.000000
# 4 0.000000 0.000000 0.000000 0.093248 0.000000 -0.046190
# 5 0.001927 0.005130 0.003079 0.000000 0.028766 0.000000
# 6 0.000000 0.000000 0.000000 -0.046190 0.000000 0.099173
#
#
# Mechanical properties :
#
#
# Convention : Reuss Voigt Hill
#
# Bulk Modulus (GPa) = 24.45399 38.59214 31.52307
# Shear Modulus (GPa) = 16.33418 25.04305 20.68862
#
# Velocity S-wave (km/s) = 2.88147 3.56787 3.24288
# Velocity P-wave (km/s) = 4.84775 6.04894 5.48135
#
# Compressibility (1/GPa) = 0.04089312
#
# Stress axis : x y z
#
# Youngs Moduli (GPa) = 44.51226 41.48878 105.01732
#
# Poissons Ratio (x) = -0.02280 0.51896
# Poissons Ratio (y) = -0.02446 0.33676
# Poissons Ratio (z) = 0.21996 0.13304
#
# Static dielectric constant tensor:
#      x y z
#    x 3.702380 0.000000 -0.126680 
#    y 0.000000 3.320840 0.000000 
#    z -0.126680 0.000000 4.217610 
# 
# 
# High freq. dielectric constant tensor:
#      x y z
#    x 1.757380 0.000000 0.005550 
#    y 0.000000 1.728480 0.000000 
#    z 0.005550 0.000000 1.795250 
# 
# From -- ./inp_files/21962.got.cif
#   From: 2010.06.25/outbox.cif.g09.slc.cpg/sg13_11_cif.got.tgz:21962.got - 2010.06.28 04:50:58.
