data_PCOD8118898
_publ_section_title
;
Structure prediction by ZEFSAII (Michael W. Deem and Ramdas Pophale) SiO2 
 PCOD8118898
Probable space group: P 2/C
;
_chemical_formula_sum "Si O2"
_cell_formula_units_Z 20
_cell_length_a 17.082344
_cell_length_b 12.620715
_cell_length_c 10.191492
_cell_angle_alpha 90.000000
_cell_angle_beta 30.177339
_cell_angle_gamma 90.000000
_cell_volume 1104.483259
_symmetry_space_group_name_H-M "P 2/C"
_symmetry_group_IT_number 13
_symmetry_cell_setting 'monoclinic'
loop_
_space_group_symop_operation_xyz
x,y,z
-x,y,1/2-z
-x,-y,-z
x,-y,1/2+z
loop_
_atom_site_type_symbol
_atom_site_label
_atom_site_fract_x
_atom_site_fract_y
_atom_site_fract_z
Si Si1 0.817245 0.576862 0.990083
Si Si2 0.320934 0.431823 0.528321
Si Si3 0.679535 0.813229 0.476313
Si Si4 0.107794 0.983790 0.219967
Si Si5 0.816533 0.189004 0.498647
O O1 0.760043 0.695482 0.030757
O O2 0.000000 0.573454 0.750000
O O3 0.781436 0.499541 0.922923
O O4 0.728136 0.541944 0.251597
O O5 0.500000 0.463004 0.250000
O O6 0.289611 0.309796 0.537487
O O7 0.500000 0.843272 0.750000
O O8 0.780015 0.882552 0.431894
O O9 0.731718 0.841805 0.255174
O O10 0.000000 0.966276 0.250000
O O11 0.214902 0.090650 0.053748
O O12 0.000000 0.000000 0.500000
O O13 0.000000 0.196747 0.250000
#
# Coordination Sequence:
#
# PCOD8118898 Si02
#       5
#     4   4   4   4   4
#     4  10  20  36  58  82 110 145 186 228 269 326
#     4  10  21  38  57  80 115 149 179 224 283 327
#     4  10  21  37  57  83 113 146 182 229 276 323
#     4  11  20  38  61  82 108 149 186 222 276 334
#     4   9  18  36  57  76 114 148 178 219 288 316
#
# _framework density 18.108015000000002
#
# number of rings (size 3 to 8) (size 9 to 14) (size 15 to 20)
#    0.000    2.000    4.000    1.200    0.000    1.600 
#    3.600    1.000    0.000    0.000    0.000    0.000 
#    0.000    0.000    0.000    0.000    0.000    0.000 
#
# Total GULP energy -247927.540121 kJ/mol
# GULP energy per Si atom -12396.377006 kJ/mol
# Density = 1.806680 g / cm^3
# Si number density = 18.108015 Si / 1000 Ang^3
#
#
#
# Elastic Constant Matrix: (Units=GPa)
#
#
# Indices 1 2 3 4 5 6 
#
# 1 70.3989 54.1466 26.5904 0.0000 7.9923 0.0000
# 2 54.1466 113.3795 28.9809 0.0000 10.0778 0.0000
# 3 26.5904 28.9809 125.3446 0.0000 10.1036 0.0000
# 4 0.0000 0.0000 0.0000 23.9372 0.0000 7.7904
# 5 7.9923 10.0778 10.1036 0.0000 23.3530 0.0000
# 6 0.0000 0.0000 0.0000 7.7904 0.0000 22.8289
#
#
#
# Elastic Compliance Matrix: (Units=1/GPa)
#
#
# Indices 1 2 3 4 5 6 
#
# 1 0.023306 -0.010304 -0.002359 0.000000 -0.002509 0.000000
# 2 -0.010304 0.014169 -0.000913 0.000000 -0.002193 0.000000
# 3 -0.002359 -0.000913 0.008903 0.000000 -0.002650 0.000000
# 4 0.000000 0.000000 0.000000 0.046995 0.000000 -0.016037
# 5 -0.002509 -0.002193 -0.002650 0.000000 0.045773 0.000000
# 6 0.000000 0.000000 0.000000 -0.016037 0.000000 0.049277
#
#
# Mechanical properties :
#
#
# Convention : Reuss Voigt Hill
#
# Bulk Modulus (GPa) = 52.01655 58.72875 55.37265
# Shear Modulus (GPa) = 22.52393 27.31749 24.92071
#
# Velocity S-wave (km/s) = 3.53067 3.88827 3.71378
# Velocity P-wave (km/s) = 6.73862 7.25679 7.00250
#
# Compressibility (1/GPa) = 0.01922465
#
# Stress axis : x y z
#
# Youngs Moduli (GPa) = 42.90716 70.57505 112.31712
#
# Poissons Ratio (x) = 0.72722 0.26501
# Poissons Ratio (y) = 0.44212 0.10259
# Poissons Ratio (z) = 0.10124 0.06446
#
# Static dielectric constant tensor:
#      x y z
#    x 2.858740 0.000000 -0.014560 
#    y 0.000000 3.901380 0.000000 
#    z -0.014560 0.000000 3.547220 
# 
# 
# High freq. dielectric constant tensor:
#      x y z
#    x 1.664820 0.000000 0.004420 
#    y 0.000000 1.716590 0.000000 
#    z 0.004420 0.000000 1.723690 
# 
# From -- ./inp_files/15519.got.cif
#   From: 2010.06.25/outbox.cif.g09.slc.cpg/sg13_8_cif.got.tgz:15519.got - 2010.06.28 04:50:58.
