data_PCOD8118578
_publ_section_title
;
Structure prediction by ZEFSAII (Michael W. Deem and Ramdas Pophale) SiO2 
 PCOD8118578
Probable space group: P 2/C
;
_chemical_formula_sum "Si O2"
_cell_formula_units_Z 28
_cell_length_a 25.307403
_cell_length_b 8.265051
_cell_length_c 9.368767
_cell_angle_alpha 90.000000
_cell_angle_beta 41.264177
_cell_angle_gamma 90.000000
_cell_volume 1292.442750
_symmetry_space_group_name_H-M "P 2/C"
_symmetry_group_IT_number 13
_symmetry_cell_setting 'monoclinic'
loop_
_space_group_symop_operation_xyz
x,y,z
-x,y,1/2-z
-x,-y,-z
x,-y,1/2+z
loop_
_atom_site_type_symbol
_atom_site_label
_atom_site_fract_x
_atom_site_fract_y
_atom_site_fract_z
Si Si1 0.319662 0.817946 0.354633
Si Si2 0.241472 0.316629 0.756089
Si Si3 0.751575 0.312851 0.226897
Si Si4 0.070541 0.350528 0.015922
Si Si5 0.490083 0.333095 0.438829
Si Si6 0.926566 0.313483 0.823629
Si Si7 0.649790 0.816835 0.692868
O O1 0.265775 0.817006 0.322470
O O2 0.269212 0.710534 0.566559
O O3 0.330188 0.999485 0.389345
O O4 0.404251 0.739001 0.147290
O O5 0.244551 0.496307 0.817479
O O6 0.154995 0.262997 0.871697
O O7 0.304588 0.309955 0.499935
O O8 0.679340 0.224107 0.291656
O O9 0.838463 0.231955 0.012501
O O10 0.051643 0.352987 0.885144
O O11 0.078256 0.529679 0.064352
O O12 0.000000 0.260708 0.250000
O O13 0.500000 0.359837 0.250000
O O14 0.500000 0.500000 0.500000
O O15 0.555051 0.207711 0.368861
O O16 0.000000 0.210936 0.750000
#
# Coordination Sequence:
#
# PCOD8118578 Si02
#       7
#     4   4   4   4   4   4   4
#     4  12  27  43  69  96 130 181 209 272 331 389
#     4  11  22  42  66  98 130 169 227 271 321 388
#     4  11  24  40  70  97 129 172 224 272 326 386
#     4  10  20  33  60  94 131 169 216 279 329 376
#     4  12  27  47  71 100 130 168 221 273 320 385
#     4  10  20  34  58  95 132 167 217 279 328 379
#     4  12  25  47  66  96 137 170 219 263 331 398
#
# _framework density 21.664401999999999
#
# number of rings (size 3 to 8) (size 9 to 14) (size 15 to 20)
#    0.000    0.857    2.857    5.571   10.000    0.000 
#    0.000    0.000    0.000    5.143    0.000    0.000 
#    0.000    0.000    0.000    0.000    0.000    0.000 
#
# Total GULP energy -347129.021015 kJ/mol
# GULP energy per Si atom -12397.465036 kJ/mol
# Density = 2.161509 g / cm^3
# Si number density = 21.664402 Si / 1000 Ang^3
#
#
#
# Elastic Constant Matrix: (Units=GPa)
#
#
# Indices 1 2 3 4 5 6 
#
# 1 158.8071 27.7339 58.9243 0.0000 -1.2297 0.0000
# 2 27.7339 64.1747 14.1981 0.0000 2.1854 0.0000
# 3 58.9243 14.1981 143.8260 0.0000 0.6343 0.0000
# 4 0.0000 0.0000 0.0000 -3.6163 0.0000 -1.4305
# 5 -1.2297 2.1854 0.6343 0.0000 33.4414 0.0000
# 6 0.0000 0.0000 0.0000 -1.4305 0.0000 15.4754
#
#
#
# Elastic Compliance Matrix: (Units=1/GPa)
#
#
# Indices 1 2 3 4 5 6 
#
# 1 0.007882 -0.002770 -0.002958 0.000000 0.000527 0.000000
# 2 -0.002770 0.016938 -0.000532 0.000000 -0.001199 0.000000
# 3 -0.002958 -0.000532 0.008218 0.000000 -0.000230 0.000000
# 4 0.000000 0.000000 0.000000 -0.266774 0.000000 -0.024660
# 5 0.000527 -0.001199 -0.000230 0.000000 0.030005 0.000000
# 6 0.000000 0.000000 0.000000 -0.024660 0.000000 0.062339
#
#
# Mechanical properties :
#
#
# Convention : Reuss Voigt Hill
#
# Bulk Modulus (GPa) = 48.73651 63.16892 55.95271
# Shear Modulus (GPa) = -40.97323 26.79022 -7.09150
#
# Velocity S-wave (km/s) = -4.35359 3.52035 -1.81120
# Velocity P-wave (km/s) = 1.65128 6.76351 4.63780
#
# Compressibility (1/GPa) = 0.02051850
#
# Stress axis : x y z
#
# Youngs Moduli (GPa) = 126.86491 59.03870 121.67914
#
# Poissons Ratio (x) = 0.16353 0.35996
# Poissons Ratio (y) = 0.35141 0.06473
# Poissons Ratio (z) = 0.37530 0.03141
#
# Static dielectric constant tensor:
#      x y z
#    x 4.633080 0.000000 -0.469580 
#    y 0.000000 3.280300 0.000000 
#    z -0.469580 0.000000 4.250990 
# 
# 
# High freq. dielectric constant tensor:
#      x y z
#    x 1.877980 0.000000 -0.006010 
#    y 0.000000 1.805800 0.000000 
#    z -0.006010 0.000000 1.867850 
# 
# From -- ./inp_files/24415.got.cif
#   From: 2010.06.25/outbox.cif.g09.slc.cpg/sg13_13_cif.got.tgz:24415.got - 2010.06.28 04:50:58.
