data_PCOD8118062
_publ_section_title
;
Structure prediction by ZEFSAII (Michael W. Deem and Ramdas Pophale) SiO2 
 PCOD8118062
Probable space group: P 2/C
;
_chemical_formula_sum "Si O2"
_cell_formula_units_Z 30
_cell_length_a 13.056901
_cell_length_b 6.010848
_cell_length_c 18.985374
_cell_angle_alpha 90.000000
_cell_angle_beta 95.862169
_cell_angle_gamma 90.000000
_cell_volume 1482.237851
_symmetry_space_group_name_H-M "P 2/C"
_symmetry_group_IT_number 13
_symmetry_cell_setting 'monoclinic'
loop_
_space_group_symop_operation_xyz
x,y,z
-x,y,1/2-z
-x,-y,-z
x,-y,1/2+z
loop_
_atom_site_type_symbol
_atom_site_label
_atom_site_fract_x
_atom_site_fract_y
_atom_site_fract_z
Si Si1 0.500000 0.788297 0.750000
Si Si2 0.753130 0.218289 0.936025
Si Si3 0.684349 0.912260 0.213932
Si Si4 0.021933 0.233797 0.409784
Si Si5 0.179144 0.859113 0.668704
Si Si6 0.339838 0.477289 0.685445
Si Si7 0.228738 0.969466 0.431282
Si Si8 0.123674 0.404001 0.988045
O O1 0.441452 0.629837 0.689949
O O2 0.416654 0.939343 0.782509
O O3 0.658803 0.310716 0.881625
O O4 0.839775 0.407082 0.953727
O O5 0.801024 0.005883 0.899586
O O6 0.713744 0.138425 0.010574
O O7 0.663612 0.663387 0.241535
O O8 0.785724 0.007414 0.259811
O O9 0.704735 0.927988 0.132981
O O10 0.942960 0.197215 0.339052
O O11 0.957225 0.237442 0.479274
O O12 0.110984 0.048821 0.409734
O O13 0.074604 0.478875 0.414771
O O14 0.238540 0.626264 0.671157
O O15 0.222387 0.730586 0.468383
#
# Coordination Sequence:
#
# PCOD8118062 Si02
#       8
#     2   4   4   4   4   4   4   4
#     4  10  22  44  68  84 108 146 200 250 300 374
#     4  10  19  35  61  90 117 159 200 243 285 342
#     4  10  24  40  61  87 115 153 192 250 310 357
#     4  10  20  32  55  86 122 167 206 233 275 335
#     4  10  20  37  59  84 121 160 208 240 278 347
#     4  10  20  39  66  88 110 153 199 241 299 365
#     4  11  22  36  54  89 130 154 196 246 291 340
#     4  10  20  31  56  88 120 167 205 236 280 338
#
# _framework density 20.239668000000002
#
# number of rings (size 3 to 8) (size 9 to 14) (size 15 to 20)
#    0.000    1.867    2.667    0.800    3.733    4.800 
#    0.000    0.667    0.000   15.200    0.000    0.000 
#    0.000    0.000    0.000    0.000    0.000    0.000 
#
# Total GULP energy -371658.440593 kJ/mol
# GULP energy per Si atom -12388.614686 kJ/mol
# Density = 2.019360 g / cm^3
# Si number density = 20.239668 Si / 1000 Ang^3
#
#
#
# Elastic Constant Matrix: (Units=GPa)
#
#
# Indices 1 2 3 4 5 6 
#
# 1 77.0048 45.9056 44.1721 0.0000 2.4168 0.0000
# 2 45.9056 108.8022 45.9612 0.0000 -2.4043 0.0000
# 3 44.1721 45.9612 98.9971 0.0000 -12.3693 0.0000
# 4 0.0000 0.0000 0.0000 28.9303 0.0000 13.2071
# 5 2.4168 -2.4043 -12.3693 0.0000 26.9488 0.0000
# 6 0.0000 0.0000 0.0000 13.2071 0.0000 27.9736
#
#
#
# Elastic Compliance Matrix: (Units=1/GPa)
#
#
# Indices 1 2 3 4 5 6 
#
# 1 0.020833 -0.005830 -0.007306 0.000000 -0.005742 0.000000
# 2 -0.005830 0.013123 -0.003479 0.000000 0.000097 0.000000
# 3 -0.007306 -0.003479 0.015933 0.000000 0.007658 0.000000
# 4 0.000000 0.000000 0.000000 0.044063 0.000000 -0.020803
# 5 -0.005742 0.000097 0.007658 0.000000 0.041146 0.000000
# 6 0.000000 0.000000 0.000000 -0.020803 0.000000 0.045570
#
#
# Mechanical properties :
#
#
# Convention : Reuss Voigt Hill
#
# Bulk Modulus (GPa) = 60.03064 61.87578 60.95321
# Shear Modulus (GPa) = 22.78408 26.68821 24.73615
#
# Velocity S-wave (km/s) = 3.35881 3.63521 3.49974
# Velocity P-wave (km/s) = 6.69077 6.94676 6.81997
#
# Compressibility (1/GPa) = 0.01665816
#
# Stress axis : x y z
#
# Youngs Moduli (GPa) = 48.00026 76.20417 62.76168
#
# Poissons Ratio (x) = 0.44430 0.45855
# Poissons Ratio (y) = 0.27986 0.21834
# Poissons Ratio (z) = 0.35070 0.26510
#
# Static dielectric constant tensor:
#      x y z
#    x 3.395040 0.000000 0.368350 
#    y 0.000000 3.977890 0.000000 
#    z 0.368350 0.000000 3.610130 
# 
# 
# High freq. dielectric constant tensor:
#      x y z
#    x 1.753490 0.000000 0.031760 
#    y 0.000000 1.812730 0.000000 
#    z 0.031760 0.000000 1.772420 
# 
# From -- ./inp_files/79063.got.cif
#   From: 2010.06.25/outbox.cif.g09.slc.cpg/sg13_40_cif.got.tgz:79063.got - 2010.06.28 04:50:58.
