data_PCOD8118453
_publ_section_title
;
Structure prediction by ZEFSAII (Michael W. Deem and Ramdas Pophale) SiO2 
 PCOD8118453
Probable space group: P 2/C
;
_chemical_formula_sum "Si O2"
_cell_formula_units_Z 20
_cell_length_a 11.593362
_cell_length_b 11.589622
_cell_length_c 14.133656
_cell_angle_alpha 90.000000
_cell_angle_beta 31.462348
_cell_angle_gamma 90.000000
_cell_volume 991.179286
_symmetry_space_group_name_H-M "P 2/C"
_symmetry_group_IT_number 13
_symmetry_cell_setting 'monoclinic'
loop_
_space_group_symop_operation_xyz
x,y,z
-x,y,1/2-z
-x,-y,-z
x,-y,1/2+z
loop_
_atom_site_type_symbol
_atom_site_label
_atom_site_fract_x
_atom_site_fract_y
_atom_site_fract_z
Si Si1 0.968240 0.633083 0.042554
Si Si2 0.732751 0.226255 0.048729
Si Si3 0.075188 0.960726 0.303883
Si Si4 0.890024 0.217154 0.224882
Si Si5 0.627396 0.239555 0.907783
O O1 0.741760 0.668254 0.256357
O O2 0.000000 0.500000 0.000000
O O3 0.180582 0.661173 0.958214
O O4 0.975515 0.698785 0.937443
O O5 0.500000 0.187537 0.250000
O O6 0.731352 0.258156 0.939237
O O7 0.885841 0.121218 0.978292
O O8 0.307195 0.893763 0.161086
O O9 0.000000 0.979414 0.250000
O O10 0.093569 0.089080 0.333691
O O11 0.634438 0.255581 0.412601
O O12 0.000000 0.225510 0.250000
#
# Coordination Sequence:
#
# PCOD8118453 Si02
#       5
#     4   4   4   4   4
#     4  11  25  43  63  92 120 166 218 257 307 359
#     4  10  19  41  68  93 119 162 213 258 312 375
#     4   8  18  36  62  93 124 155 201 255 316 379
#     4  11  23  41  58  93 133 162 200 254 319 372
#     4  10  21  41  66  90 123 161 208 258 306 371
#
# _framework density 20.177983999999999
#
# number of rings (size 3 to 8) (size 9 to 14) (size 15 to 20)
#    0.000    2.000    2.000    2.400    0.000    6.400 
#   14.400    0.000    0.000    0.000    0.000    0.000 
#    0.000    0.000    0.000    0.000    0.000    0.000 
#
# Total GULP energy -247817.480446 kJ/mol
# GULP energy per Si atom -12390.874022 kJ/mol
# Density = 2.013206 g / cm^3
# Si number density = 20.177984 Si / 1000 Ang^3
#
#
#
# Elastic Constant Matrix: (Units=GPa)
#
#
# Indices 1 2 3 4 5 6 
#
# 1 97.4849 38.2036 32.9278 0.0000 8.1385 0.0000
# 2 38.2036 152.6463 46.0975 0.0000 24.0210 0.0000
# 3 32.9278 46.0975 122.3242 0.0000 4.3965 0.0000
# 4 0.0000 0.0000 0.0000 -9.8350 0.0000 -7.6535
# 5 8.1385 24.0210 4.3965 0.0000 31.6885 0.0000
# 6 0.0000 0.0000 0.0000 -7.6535 0.0000 15.0561
#
#
#
# Elastic Compliance Matrix: (Units=1/GPa)
#
#
# Indices 1 2 3 4 5 6 
#
# 1 0.011984 -0.002094 -0.002395 0.000000 -0.001158 0.000000
# 2 -0.002094 0.008740 -0.002524 0.000000 -0.005737 0.000000
# 3 -0.002395 -0.002524 0.009729 0.000000 0.001179 0.000000
# 4 0.000000 0.000000 0.000000 -0.072857 0.000000 -0.037036
# 5 -0.001158 -0.005737 0.001179 0.000000 0.036040 0.000000
# 6 0.000000 0.000000 0.000000 -0.037036 0.000000 0.047592
#
#
# Mechanical properties :
#
#
# Convention : Reuss Voigt Hill
#
# Bulk Modulus (GPa) = 60.87500 67.43481 64.15491
# Shear Modulus (GPa) = 82.33209 24.39703 53.36456
#
# Velocity S-wave (km/s) = 6.39465 3.48097 5.14824
# Velocity P-wave (km/s) = 9.20633 7.04619 8.19772
#
# Compressibility (1/GPa) = 0.01642710
#
# Stress axis : x y z
#
# Youngs Moduli (GPa) = 83.44245 114.41447 102.79020
#
# Poissons Ratio (x) = 0.23955 0.24622
# Poissons Ratio (y) = 0.17470 0.25943
# Poissons Ratio (z) = 0.19987 0.28877
#
# Static dielectric constant tensor:
#      x y z
#    x 3.629130 0.000000 0.249510 
#    y 0.000000 3.682920 0.000000 
#    z 0.249510 0.000000 3.124490 
# 
# 
# High freq. dielectric constant tensor:
#      x y z
#    x 1.790520 0.000000 0.004790 
#    y 0.000000 1.773780 0.000000 
#    z 0.004790 0.000000 1.793270 
# 
# From -- ./inp_files/34027.got.cif
#   From: 2010.06.25/outbox.cif.g09.slc.cpg/sg13_18_cif.got.tgz:34027.got - 2010.06.28 04:50:58.
