data_PCOD8118054
_publ_section_title
;
Structure prediction by ZEFSAII (Michael W. Deem and Ramdas Pophale) SiO2 
 PCOD8118054
Probable space group: P 2/C
;
_chemical_formula_sum "Si O2"
_cell_formula_units_Z 28
_cell_length_a 26.922714
_cell_length_b 9.693977
_cell_length_c 8.855732
_cell_angle_alpha 90.000000
_cell_angle_beta 141.341064
_cell_angle_gamma 90.000000
_cell_volume 1443.793513
_symmetry_space_group_name_H-M "P 2/C"
_symmetry_group_IT_number 13
_symmetry_cell_setting 'monoclinic'
loop_
_space_group_symop_operation_xyz
x,y,z
-x,y,1/2-z
-x,-y,-z
x,-y,1/2+z
loop_
_atom_site_type_symbol
_atom_site_label
_atom_site_fract_x
_atom_site_fract_y
_atom_site_fract_z
Si Si1 0.725338 0.011840 0.122420
Si Si2 0.909496 0.818602 0.544990
Si Si3 0.756579 0.685945 0.142012
Si Si4 0.163570 0.025986 0.361210
Si Si5 0.427717 0.603017 0.309060
Si Si6 0.546556 0.893899 0.207828
Si Si7 0.680317 0.485575 0.204290
O O1 0.727115 0.843838 0.102753
O O2 0.783703 0.061491 0.395152
O O3 0.765284 0.090707 0.073863
O O4 0.637122 0.060598 0.949354
O O5 0.852832 0.689217 0.371342
O O6 0.889937 0.866640 0.670951
O O7 0.000000 0.769700 0.750000
O O8 0.894441 0.937461 0.383887
O O9 0.731535 0.581128 0.214701
O O10 0.729426 0.630404 0.913406
O O11 0.500000 0.500000 0.500000
O O12 0.460323 0.755819 0.405931
O O13 0.360536 0.585943 0.274000
O O14 0.388870 0.591882 0.051363
O O15 0.500000 0.871449 0.250000
O O16 0.500000 0.000000 0.000000
#
# Coordination Sequence:
#
# PCOD8118054 Si02
#       7
#     4   4   4   4   4   4   4
#     4  10  21  38  59  85 125 158 198 251 296 366
#     4  10  19  35  60  91 126 150 190 245 301 363
#     4   9  22  39  62  85 113 157 207 236 305 351
#     4   8  18  34  58  83 118 158 195 224 296 365
#     4  11  25  41  64  84 117 158 212 253 302 345
#     4  12  28  37  58  89 126 157 200 256 316 346
#     4  10  22  42  64  79 113 162 210 247 279 375
#
# _framework density 19.393353000000001
#
# number of rings (size 3 to 8) (size 9 to 14) (size 15 to 20)
#    0.000    2.286    0.000    2.571   16.000    0.000 
#    0.000    0.714    0.000    0.000    0.000    0.000 
#    0.000    0.000    0.000    0.000    0.000    0.000 
#
# Total GULP energy -346883.724703 kJ/mol
# GULP energy per Si atom -12388.704454 kJ/mol
# Density = 1.934921 g / cm^3
# Si number density = 19.393353 Si / 1000 Ang^3
#
#
#
# Elastic Constant Matrix: (Units=GPa)
#
#
# Indices 1 2 3 4 5 6 
#
# 1 119.2698 27.2869 55.9835 0.0000 14.7016 0.0000
# 2 27.2869 96.2527 40.3499 0.0000 9.7761 0.0000
# 3 55.9835 40.3499 114.3130 0.0000 11.6542 0.0000
# 4 0.0000 0.0000 0.0000 27.6925 0.0000 5.7634
# 5 14.7016 9.7761 11.6542 0.0000 46.0397 0.0000
# 6 0.0000 0.0000 0.0000 5.7634 0.0000 21.4791
#
#
#
# Elastic Compliance Matrix: (Units=1/GPa)
#
#
# Indices 1 2 3 4 5 6 
#
# 1 0.011167 -0.000878 -0.004942 0.000000 -0.002129 0.000000
# 2 -0.000878 0.012370 -0.003795 0.000000 -0.001386 0.000000
# 3 -0.004942 -0.003795 0.012590 0.000000 -0.000803 0.000000
# 4 0.000000 0.000000 0.000000 0.038247 0.000000 -0.010263
# 5 -0.002129 -0.001386 -0.000803 0.000000 0.022898 0.000000
# 6 0.000000 0.000000 0.000000 -0.010263 0.000000 0.049311
#
#
# Mechanical properties :
#
#
# Convention : Reuss Voigt Hill
#
# Bulk Modulus (GPa) = 59.18340 64.11956 61.65148
# Shear Modulus (GPa) = 29.16398 32.78994 30.97696
#
# Velocity S-wave (km/s) = 3.88211 4.11637 4.00096
# Velocity P-wave (km/s) = 7.11885 7.46506 7.29401
#
# Compressibility (1/GPa) = 0.01689663
#
# Stress axis : x y z
#
# Youngs Moduli (GPa) = 89.54654 80.84176 79.42970
#
# Poissons Ratio (x) = 0.07097 0.39256
# Poissons Ratio (y) = 0.07861 0.30144
# Poissons Ratio (z) = 0.44256 0.30680
#
# Static dielectric constant tensor:
#      x y z
#    x 3.809490 0.000000 -0.128280 
#    y 0.000000 3.391240 0.000000 
#    z -0.128280 0.000000 3.830110 
# 
# 
# High freq. dielectric constant tensor:
#      x y z
#    x 1.769680 0.000000 -0.011140 
#    y 0.000000 1.728960 0.000000 
#    z -0.011140 0.000000 1.763470 
# 
# From -- ./inp_files/24883.got.cif
#   From: 2010.06.25/outbox.cif.g09.slc.cpg/sg13_13_cif.got.tgz:24883.got - 2010.06.28 04:50:58.
