data_PCOD8118108
_publ_section_title
;
Structure prediction by ZEFSAII (Michael W. Deem and Ramdas Pophale) SiO2 
 PCOD8118108
Probable space group: P 2/C
;
_chemical_formula_sum "Si O2"
_cell_formula_units_Z 24
_cell_length_a 15.887413
_cell_length_b 16.152910
_cell_length_c 15.714229
_cell_angle_alpha 90.000000
_cell_angle_beta 161.927949
_cell_angle_gamma 90.000000
_cell_volume 1250.998102
_symmetry_space_group_name_H-M "P 2/C"
_symmetry_group_IT_number 13
_symmetry_cell_setting 'monoclinic'
loop_
_space_group_symop_operation_xyz
x,y,z
-x,y,1/2-z
-x,-y,-z
x,-y,1/2+z
loop_
_atom_site_type_symbol
_atom_site_label
_atom_site_fract_x
_atom_site_fract_y
_atom_site_fract_z
Si Si1 0.500000 0.015929 0.250000
Si Si2 0.935249 0.782635 0.834797
Si Si3 0.000000 0.093313 0.250000
Si Si4 0.621092 0.246208 0.612875
Si Si5 0.617100 0.573542 0.168149
Si Si6 0.928602 0.399068 0.273980
Si Si7 0.291308 0.826952 0.485305
O O1 0.758798 0.959859 0.475958
O O2 0.595179 0.078115 0.418251
O O3 0.878246 0.852324 0.709791
O O4 0.687563 0.775974 0.662663
O O5 0.001686 0.697628 0.849783
O O6 0.196764 0.802844 0.143482
O O7 0.667330 0.345191 0.659192
O O8 0.712887 0.218262 0.608234
O O9 0.896104 0.550849 0.486129
O O10 0.500000 0.500000 0.000000
O O11 0.391713 0.591576 0.022815
O O12 0.000000 0.434262 0.250000
O O13 0.000000 0.827468 0.250000
O O14 0.500000 0.779719 0.750000
#
# Coordination Sequence:
#
# PCOD8118108 Si02
#       7
#     2   4   2   4   4   4   4
#     4  10  22  36  58  78 110 154 178 240 286 328
#     4  10  21  34  58  86 115 141 188 228 275 355
#     4  12  20  38  56  86 116 144 180 228 304 326
#     4  10  21  38  59  84 107 152 193 225 277 337
#     4  10  21  36  57  84 120 145 179 239 285 319
#     4  10  19  36  57  82 112 155 183 219 278 347
#     4  10  20  40  61  74 108 153 195 231 276 333
#
# _framework density 19.184681000000001
#
# number of rings (size 3 to 8) (size 9 to 14) (size 15 to 20)
#    0.500    1.333    1.667    3.000    0.000    0.000 
#    0.000    7.500    0.000    0.000    0.000    0.000 
#    0.000    0.000    0.000    0.000    0.000    0.000 
#
# Total GULP energy -297489.580706 kJ/mol
# GULP energy per Si atom -12395.399196 kJ/mol
# Density = 1.914102 g / cm^3
# Si number density = 19.184681 Si / 1000 Ang^3
#
#
#
# Elastic Constant Matrix: (Units=GPa)
#
#
# Indices 1 2 3 4 5 6 
#
# 1 98.3983 40.5728 22.2366 0.0000 -7.8007 0.0000
# 2 40.5728 71.6874 22.7811 0.0000 -9.0641 0.0000
# 3 22.2366 22.7811 105.3994 0.0000 1.8163 0.0000
# 4 0.0000 0.0000 0.0000 20.4468 0.0000 -2.6285
# 5 -7.8007 -9.0641 1.8163 0.0000 25.1217 0.0000
# 6 0.0000 0.0000 0.0000 -2.6285 0.0000 15.3152
#
#
#
# Elastic Compliance Matrix: (Units=1/GPa)
#
#
# Indices 1 2 3 4 5 6 
#
# 1 0.013489 -0.006975 -0.001369 0.000000 0.001771 0.000000
# 2 -0.006975 0.019430 -0.002815 0.000000 0.005048 0.000000
# 3 -0.001369 -0.002815 0.010423 0.000000 -0.002194 0.000000
# 4 0.000000 0.000000 0.000000 0.050011 0.000000 0.008583
# 5 0.001771 0.005048 -0.002194 0.000000 0.042336 0.000000
# 6 0.000000 0.000000 0.000000 0.008583 0.000000 0.066768
#
#
# Mechanical properties :
#
#
# Convention : Reuss Voigt Hill
#
# Bulk Modulus (GPa) = 47.56577 49.62958 48.59767
# Shear Modulus (GPa) = 21.57201 24.83637 23.20419
#
# Velocity S-wave (km/s) = 3.35690 3.60195 3.48158
# Velocity P-wave (km/s) = 6.31447 6.57452 6.44580
#
# Compressibility (1/GPa) = 0.02102352
#
# Stress axis : x y z
#
# Youngs Moduli (GPa) = 74.13676 51.46648 95.94425
#
# Poissons Ratio (x) = 0.35899 0.13131
# Poissons Ratio (y) = 0.51713 0.27009
# Poissons Ratio (z) = 0.10146 0.14488
#
# Static dielectric constant tensor:
#      x y z
#    x 3.203620 0.000000 0.017920 
#    y 0.000000 3.367080 0.000000 
#    z 0.017920 0.000000 3.817750 
# 
# 
# High freq. dielectric constant tensor:
#      x y z
#    x 1.729640 0.000000 0.004730 
#    y 0.000000 1.724540 0.000000 
#    z 0.004730 0.000000 1.771260 
# 
# From -- ./inp_files/53940.got.cif
#   From: 2010.06.25/outbox.cif.g09.slc.cpg/sg13_27_cif.got.tgz:53940.got - 2010.06.28 04:50:58.
