data_PCOD8118924
_publ_section_title
;
Structure prediction by ZEFSAII (Michael W. Deem and Ramdas Pophale) SiO2 
 PCOD8118924
Probable space group: P 2/C
;
_chemical_formula_sum "Si O2"
_cell_formula_units_Z 32
_cell_length_a 10.860559
_cell_length_b 18.441819
_cell_length_c 14.096524
_cell_angle_alpha 90.000000
_cell_angle_beta 147.492998
_cell_angle_gamma 90.000000
_cell_volume 1517.287194
_symmetry_space_group_name_H-M "P 2/C"
_symmetry_group_IT_number 13
_symmetry_cell_setting 'monoclinic'
loop_
_space_group_symop_operation_xyz
x,y,z
-x,y,1/2-z
-x,-y,-z
x,-y,1/2+z
loop_
_atom_site_type_symbol
_atom_site_label
_atom_site_fract_x
_atom_site_fract_y
_atom_site_fract_z
Si Si1 0.861359 0.048922 0.742556
Si Si2 0.257060 0.909201 0.627418
Si Si3 0.355056 0.095423 0.411919
Si Si4 0.613459 0.475377 0.422816
Si Si5 0.992343 0.368633 0.849201
Si Si6 0.776521 0.253083 0.163318
Si Si7 0.516162 0.604467 0.483945
Si Si8 0.256077 0.254265 0.132054
O O1 0.624519 0.089409 0.612054
O O2 0.000000 0.091428 0.750000
O O3 0.789961 0.972648 0.643641
O O4 0.033160 0.045718 0.945339
O O5 0.500000 0.942286 0.750000
O O6 0.281606 0.910914 0.755164
O O7 0.225000 0.826570 0.570285
O O8 0.287399 0.172235 0.413717
O O9 0.500000 0.494259 0.250000
O O10 0.853743 0.440115 0.552433
O O11 0.658141 0.549554 0.509881
O O12 0.463341 0.420205 0.391710
O O13 0.000000 0.331720 0.750000
O O14 0.746519 0.398983 0.719083
O O15 0.062450 0.307448 0.968669
O O16 0.784648 0.253215 0.282098
O O17 0.000000 0.276006 0.250000
O O18 0.591608 0.313239 0.015613
O O19 0.500000 0.284042 0.250000
#
# Coordination Sequence:
#
# PCOD8118924 Si02
#       8
#     4   4   4   4   4   4   4   4
#     4  11  21  37  65  92 122 166 212 276 316 379
#     4  10  20  36  58  93 127 160 215 270 323 378
#     4  10  23  40  60  90 125 170 217 252 331 388
#     4  10  21  39  59  88 122 159 208 266 315 371
#     4  10  20  36  60  90 121 157 212 268 313 373
#     4  11  24  43  63  87 130 171 203 260 320 394
#     4  10  23  37  60  90 117 162 213 253 319 382
#     4  10  21  38  64  93 123 165 209 262 322 377
#
# _framework density 21.090271999999999
#
# number of rings (size 3 to 8) (size 9 to 14) (size 15 to 20)
#    0.000    1.750    1.250    3.375    1.750    4.500 
#    0.000    0.000    0.000    0.000    0.000    0.000 
#    0.000    0.000    0.000    0.000    0.000    0.000 
#
# Total GULP energy -396502.413342 kJ/mol
# GULP energy per Si atom -12390.700417 kJ/mol
# Density = 2.104227 g / cm^3
# Si number density = 21.090272 Si / 1000 Ang^3
#
#
#
# Elastic Constant Matrix: (Units=GPa)
#
#
# Indices 1 2 3 4 5 6 
#
# 1 87.6195 12.8327 33.1045 0.0000 6.2484 0.0000
# 2 12.8327 105.2322 34.2896 0.0000 10.6098 0.0000
# 3 33.1045 34.2896 115.3358 0.0000 9.9628 0.0000
# 4 0.0000 0.0000 0.0000 20.3615 0.0000 -19.8536
# 5 6.2484 10.6098 9.9628 0.0000 27.7235 0.0000
# 6 0.0000 0.0000 0.0000 -19.8536 0.0000 70.7283
#
#
#
# Elastic Compliance Matrix: (Units=1/GPa)
#
#
# Indices 1 2 3 4 5 6 
#
# 1 0.012879 -0.000281 -0.003480 0.000000 -0.001545 0.000000
# 2 -0.000281 0.010775 -0.002861 0.000000 -0.003032 0.000000
# 3 -0.003480 -0.002861 0.010689 0.000000 -0.001962 0.000000
# 4 0.000000 0.000000 0.000000 0.067620 0.000000 0.018981
# 5 -0.001545 -0.003032 -0.001962 0.000000 0.038284 0.000000
# 6 0.000000 0.000000 0.000000 0.018981 0.000000 0.019467
#
#
# Mechanical properties :
#
#
# Convention : Reuss Voigt Hill
#
# Bulk Modulus (GPa) = 47.39311 52.07126 49.73218
# Shear Modulus (GPa) = 27.77929 38.96003 33.36966
#
# Velocity S-wave (km/s) = 3.63321 4.30268 3.98204
# Velocity P-wave (km/s) = 6.33408 7.03046 6.69134
#
# Compressibility (1/GPa) = 0.02110011
#
# Stress axis : x y z
#
# Youngs Moduli (GPa) = 77.64585 92.80767 93.55311
#
# Poissons Ratio (x) = 0.02608 0.32553
# Poissons Ratio (y) = 0.02182 0.26764
# Poissons Ratio (z) = 0.27018 0.26551
#
# Static dielectric constant tensor:
#      x y z
#    x 3.805620 0.000000 0.114500 
#    y 0.000000 4.062820 0.000000 
#    z 0.114500 0.000000 3.858890 
# 
# 
# High freq. dielectric constant tensor:
#      x y z
#    x 1.822450 0.000000 0.005460 
#    y 0.000000 1.828460 0.000000 
#    z 0.005460 0.000000 1.818050 
# 
# From -- ./inp_files/51667.got.cif
#   From: 2010.06.25/outbox.cif.g09.slc.cpg/sg13_26_cif.got.tgz:51667.got - 2010.06.28 04:50:58.
