data_PCOD8118046
_publ_section_title
;
Structure prediction by ZEFSAII (Michael W. Deem and Ramdas Pophale) SiO2 
 PCOD8118046
Probable space group: P 2/C
;
_chemical_formula_sum "Si O2"
_cell_formula_units_Z 32
_cell_length_a 16.914064
_cell_length_b 5.257370
_cell_length_c 30.152386
_cell_angle_alpha 90.000000
_cell_angle_beta 142.755237
_cell_angle_gamma 90.000000
_cell_volume 1622.752733
_symmetry_space_group_name_H-M "P 2/C"
_symmetry_group_IT_number 13
_symmetry_cell_setting 'monoclinic'
loop_
_space_group_symop_operation_xyz
x,y,z
-x,y,1/2-z
-x,-y,-z
x,-y,1/2+z
loop_
_atom_site_type_symbol
_atom_site_label
_atom_site_fract_x
_atom_site_fract_y
_atom_site_fract_z
Si Si1 0.368696 0.667817 0.341369
Si Si2 0.170474 0.019499 0.533932
Si Si3 0.351425 0.724977 0.056333
Si Si4 0.858853 0.669459 0.064424
Si Si5 0.886974 0.167177 0.399750
Si Si6 0.608240 0.815286 0.592578
Si Si7 0.672084 0.942815 0.035655
Si Si8 0.856548 0.655823 0.330459
O O1 0.505969 0.595533 0.377692
O O2 0.335655 0.439020 0.360254
O O3 0.260500 0.673162 0.255692
O O4 0.369036 0.936626 0.366652
O O5 0.152532 0.832268 0.485039
O O6 0.190220 0.867465 0.588412
O O7 0.301583 0.184529 0.582741
O O8 0.041771 0.199263 0.479368
O O9 0.234573 0.569305 0.982207
O O10 0.371516 0.955110 0.031650
O O11 0.810131 0.802792 0.088415
O O12 0.010541 0.596092 0.137660
O O13 0.832378 0.424174 0.353671
O O14 0.862144 0.922991 0.358198
O O15 0.455691 0.768407 0.510345
O O16 0.689913 0.855224 0.583344
#
# Coordination Sequence:
#
# PCOD8118046 Si02
#       8
#     4   4   4   4   4   4   4   4
#     4  11  23  39  59  82 119 158 193 231 295 355
#     4   9  20  34  59  90 112 143 198 245 289 332
#     4  10  19  35  60  84 114 150 190 243 287 343
#     4  10  19  35  60  84 114 150 190 243 287 343
#     4  10  21  37  61  86 113 152 193 243 285 344
#     4  10  21  37  61  86 113 152 193 243 285 344
#     4   9  20  34  59  90 112 143 198 245 289 332
#     4  11  23  39  59  82 119 158 193 231 295 355
#
# _framework density 19.719579
#
# number of rings (size 3 to 8) (size 9 to 14) (size 15 to 20)
#    0.000    2.000    2.500    0.750    3.500    3.000 
#    0.000    1.250    0.000    0.000    0.000    0.000 
#    0.000    0.000    0.000    0.000    0.000    0.000 
#
# Total GULP energy -396533.779364 kJ/mol
# GULP energy per Si atom -12391.680605 kJ/mol
# Density = 1.967470 g / cm^3
# Si number density = 19.719579 Si / 1000 Ang^3
#
#
#
# Elastic Constant Matrix: (Units=GPa)
#
#
# Indices 1 2 3 4 5 6 
#
# 1 142.6970 20.2577 46.6355 0.0000 6.8131 0.0000
# 2 20.2577 65.2536 17.3605 0.0000 5.2910 0.0000
# 3 46.6355 17.3605 91.2815 0.0000 8.1478 0.0000
# 4 0.0000 0.0000 0.0000 21.7927 0.0000 -2.3280
# 5 6.8131 5.2910 8.1478 0.0000 19.4515 0.0000
# 6 0.0000 0.0000 0.0000 -2.3280 0.0000 25.0382
#
#
#
# Elastic Compliance Matrix: (Units=1/GPa)
#
#
# Indices 1 2 3 4 5 6 
#
# 1 0.008579 -0.001522 -0.004012 0.000000 -0.000910 0.000000
# 2 -0.001522 0.016609 -0.002104 0.000000 -0.003103 0.000000
# 3 -0.004012 -0.002104 0.013742 0.000000 -0.003779 0.000000
# 4 0.000000 0.000000 0.000000 0.046347 0.000000 0.004309
# 5 -0.000910 -0.003103 -0.003779 0.000000 0.054156 0.000000
# 6 0.000000 0.000000 0.000000 0.004309 0.000000 0.040340
#
#
# Mechanical properties :
#
#
# Convention : Reuss Voigt Hill
#
# Bulk Modulus (GPa) = 42.27756 51.97106 47.12431
# Shear Modulus (GPa) = 24.63866 27.58838 26.11352
#
# Velocity S-wave (km/s) = 3.53859 3.74443 3.64296
# Velocity P-wave (km/s) = 6.17911 6.71614 6.45322
#
# Compressibility (1/GPa) = 0.02365321
#
# Stress axis : x y z
#
# Youngs Moduli (GPa) = 116.56936 60.20924 72.76772
#
# Poissons Ratio (x) = 0.09164 0.29195
# Poissons Ratio (y) = 0.17742 0.15312
# Poissons Ratio (z) = 0.46769 0.12669
#
# Static dielectric constant tensor:
#      x y z
#    x 4.280880 0.000000 0.318020 
#    y 0.000000 3.573450 0.000000 
#    z 0.318020 0.000000 3.393360 
# 
# 
# High freq. dielectric constant tensor:
#      x y z
#    x 1.785340 0.000000 0.006630 
#    y 0.000000 1.768610 0.000000 
#    z 0.006630 0.000000 1.726390 
# 
# From -- ./inp_files/96864.got.cif
#   From: 2010.06.25/outbox.cif.g09.slc.cpg/sg13_49_cif.got.tgz:96864.got - 2010.06.28 04:50:58.
