data_PCOD8118411
_publ_section_title
;
Structure prediction by ZEFSAII (Michael W. Deem and Ramdas Pophale) SiO2 
 PCOD8118411
Probable space group: P 2/C
;
_chemical_formula_sum "Si O2"
_cell_formula_units_Z 22
_cell_length_a 8.676268
_cell_length_b 7.071084
_cell_length_c 17.360655
_cell_angle_alpha 90.000000
_cell_angle_beta 96.439680
_cell_angle_gamma 90.000000
_cell_volume 1058.366761
_symmetry_space_group_name_H-M "P 2/C"
_symmetry_group_IT_number 13
_symmetry_cell_setting 'monoclinic'
loop_
_space_group_symop_operation_xyz
x,y,z
-x,y,1/2-z
-x,-y,-z
x,-y,1/2+z
loop_
_atom_site_type_symbol
_atom_site_label
_atom_site_fract_x
_atom_site_fract_y
_atom_site_fract_z
Si Si1 0.500000 0.982479 0.250000
Si Si2 0.341543 0.901347 0.890193
Si Si3 0.004395 0.816799 0.661390
Si Si4 0.631432 0.191680 0.487447
Si Si5 0.853520 0.517403 0.938911
Si Si6 0.759482 0.888631 0.374517
O O1 0.594088 0.110771 0.193664
O O2 0.627143 0.858242 0.302225
O O3 0.167567 0.821881 0.884772
O O4 0.451920 0.776425 0.952563
O O5 0.351156 0.118683 0.923252
O O6 0.000000 0.767853 0.750000
O O7 0.106521 0.650654 0.630640
O O8 0.085877 0.019735 0.653453
O O9 0.717767 0.388972 0.482003
O O10 0.702108 0.023884 0.439158
O O11 0.799558 0.315184 0.908117
O O12 0.000000 0.500000 0.000000
#
# Coordination Sequence:
#
# PCOD8118411 Si02
#       6
#     2   4   4   4   4   4
#     4  10  20  38  62  86 122 162 198 252 298 358
#     4  10  19  39  65  87 121 163 202 248 301 356
#     4  11  22  40  63  92 124 161 200 248 308 360
#     4   9  21  40  64  90 118 163 205 247 300 356
#     4  11  23  41  62  93 124 159 206 252 298 363
#     4  10  21  41  63  89 123 157 202 248 310 356
#
# _framework density 20.786745
#
# number of rings (size 3 to 8) (size 9 to 14) (size 15 to 20)
#    0.000    1.818    1.818    2.182    0.000    3.636 
#    6.545   14.545    0.000    0.000    0.000    0.000 
#    0.000    0.000    0.000    0.000    0.000    0.000 
#
# Total GULP energy -272762.248876 kJ/mol
# GULP energy per Si atom -12398.284040 kJ/mol
# Density = 2.073943 g / cm^3
# Si number density = 20.786745 Si / 1000 Ang^3
#
#
#
# Elastic Constant Matrix: (Units=GPa)
#
#
# Indices 1 2 3 4 5 6 
#
# 1 120.0316 30.1631 14.0358 0.0000 23.9285 0.0000
# 2 30.1631 103.0171 12.9540 0.0000 9.4444 0.0000
# 3 14.0358 12.9540 70.7542 0.0000 5.1555 0.0000
# 4 0.0000 0.0000 0.0000 21.9604 0.0000 -1.3636
# 5 23.9285 9.4444 5.1555 0.0000 46.6652 0.0000
# 6 0.0000 0.0000 0.0000 -1.3636 0.0000 27.0893
#
#
#
# Elastic Compliance Matrix: (Units=1/GPa)
#
#
# Indices 1 2 3 4 5 6 
#
# 1 0.009961 -0.002351 -0.001218 0.000000 -0.004497 0.000000
# 2 -0.002351 0.010647 -0.001425 0.000000 -0.000792 0.000000
# 3 -0.001218 -0.001425 0.014688 0.000000 -0.000710 0.000000
# 4 0.000000 0.000000 0.000000 0.045679 0.000000 0.002299
# 5 -0.004497 -0.000792 -0.000710 0.000000 0.023974 0.000000
# 6 0.000000 0.000000 0.000000 0.002299 0.000000 0.037031
#
#
# Mechanical properties :
#
#
# Convention : Reuss Voigt Hill
#
# Bulk Modulus (GPa) = 39.51392 45.34540 42.42966
# Shear Modulus (GPa) = 31.17129 34.91966 33.04548
#
# Velocity S-wave (km/s) = 3.87664 4.10311 3.99148
# Velocity P-wave (km/s) = 6.25206 6.65652 6.45745
#
# Compressibility (1/GPa) = 0.02530754
#
# Stress axis : x y z
#
# Youngs Moduli (GPa) = 100.39258 93.92029 68.08424
#
# Poissons Ratio (x) = 0.22081 0.08292
# Poissons Ratio (y) = 0.23603 0.09704
# Poissons Ratio (z) = 0.12226 0.13386
#
# Static dielectric constant tensor:
#      x y z
#    x 4.191840 0.000000 -0.101880 
#    y 0.000000 3.472290 0.000000 
#    z -0.101880 0.000000 3.903000 
# 
# 
# High freq. dielectric constant tensor:
#      x y z
#    x 1.839850 0.000000 0.000760 
#    y 0.000000 1.778250 0.000000 
#    z 0.000760 0.000000 1.823060 
# 
# From -- ./inp_files/74475.got.cif
#   From: 2010.06.25/outbox.cif.g09.slc.cpg/sg13_38_cif.got.tgz:74475.got - 2010.06.28 04:50:58.
