data_PCOD8118862
_publ_section_title
;
Structure prediction by ZEFSAII (Michael W. Deem and Ramdas Pophale) SiO2 
 PCOD8118862
Probable space group: P 2/C
;
_chemical_formula_sum "Si O2"
_cell_formula_units_Z 32
_cell_length_a 28.284161
_cell_length_b 13.736773
_cell_length_c 9.776025
_cell_angle_alpha 90.000000
_cell_angle_beta 27.706225
_cell_angle_gamma 90.000000
_cell_volume 1765.979229
_symmetry_space_group_name_H-M "P 2/C"
_symmetry_group_IT_number 13
_symmetry_cell_setting 'monoclinic'
loop_
_space_group_symop_operation_xyz
x,y,z
-x,y,1/2-z
-x,-y,-z
x,-y,1/2+z
loop_
_atom_site_type_symbol
_atom_site_label
_atom_site_fract_x
_atom_site_fract_y
_atom_site_fract_z
Si Si1 0.111759 0.097181 0.126785
Si Si2 0.370341 0.707290 0.282919
Si Si3 0.427593 0.491767 0.559647
Si Si4 0.573639 0.990088 0.685216
Si Si5 0.305980 0.200844 0.670117
Si Si6 0.402017 0.298278 0.186650
Si Si7 0.690560 0.182395 0.312009
Si Si8 0.117615 0.089839 0.795223
O O1 0.995297 0.131780 0.442518
O O2 0.136098 0.007921 0.163642
O O3 0.184185 0.185826 0.988843
O O4 0.133861 0.066206 0.913538
O O5 0.347346 0.595784 0.293471
O O6 0.352327 0.777203 0.199908
O O7 0.298283 0.739878 0.592568
O O8 0.485149 0.715923 0.043697
O O9 0.500000 0.500000 0.500000
O O10 0.376719 0.598164 0.676906
O O11 0.500000 0.462310 0.250000
O O12 0.500000 0.973237 0.750000
O O13 0.646221 0.082941 0.485643
O O14 0.645522 0.896728 0.517462
O O15 0.500000 0.000000 0.000000
O O16 0.327050 0.287363 0.508217
O O17 0.385354 0.218475 0.112105
O O18 0.802148 0.169970 0.961332
#
# Coordination Sequence:
#
# PCOD8118862 Si02
#       8
#     4   4   4   4   4   4   4   4
#     4  10  22  40  60  80 109 146 192 244 281 321
#     4  11  23  35  54  83 113 148 187 233 274 334
#     4  10  20  36  56  78 109 148 195 240 277 314
#     4  12  24  32  45  72 115 151 175 205 253 330
#     4  12  22  36  54  80 113 151 187 226 281 333
#     4  11  21  37  56  79 112 154 190 230 274 332
#     4  12  22  36  55  80 113 151 190 224 278 339
#     4  10  22  40  59  82 107 146 195 241 279 326
#
# _framework density 18.120258
#
# number of rings (size 3 to 8) (size 9 to 14) (size 15 to 20)
#    0.000    1.000    2.500    7.500    1.750    0.000 
#    0.000    0.000    0.000    0.000    0.000    5.250 
#    0.000    0.000    0.000    0.000    0.000    0.000 
#
# Total GULP energy -396753.564952 kJ/mol
# GULP energy per Si atom -12398.548905 kJ/mol
# Density = 1.807902 g / cm^3
# Si number density = 18.120258 Si / 1000 Ang^3
#
#
#
# Elastic Constant Matrix: (Units=GPa)
#
#
# Indices 1 2 3 4 5 6 
#
# 1 89.0653 35.8386 42.3618 0.0000 15.7056 0.0000
# 2 35.8386 87.4711 48.7111 0.0000 -0.9174 0.0000
# 3 42.3618 48.7111 110.9490 0.0000 8.2971 0.0000
# 4 0.0000 0.0000 0.0000 25.7457 0.0000 10.5304
# 5 15.7056 -0.9174 8.2971 0.0000 33.1491 0.0000
# 6 0.0000 0.0000 0.0000 10.5304 0.0000 20.7397
#
#
#
# Elastic Compliance Matrix: (Units=1/GPa)
#
#
# Indices 1 2 3 4 5 6 
#
# 1 0.015989 -0.004641 -0.003558 0.000000 -0.006813 0.000000
# 2 -0.004641 0.016627 -0.005836 0.000000 0.004120 0.000000
# 3 -0.003558 -0.005836 0.013064 0.000000 -0.001746 0.000000
# 4 0.000000 0.000000 0.000000 0.049022 0.000000 -0.024891
# 5 -0.006813 0.004120 -0.001746 0.000000 0.033946 0.000000
# 6 0.000000 0.000000 0.000000 -0.024891 0.000000 0.060855
#
#
# Mechanical properties :
#
#
# Convention : Reuss Voigt Hill
#
# Bulk Modulus (GPa) = 56.78379 60.14538 58.46458
# Shear Modulus (GPa) = 22.37713 26.63184 24.50448
#
# Velocity S-wave (km/s) = 3.51796 3.83786 3.68139
# Velocity P-wave (km/s) = 6.92146 7.27347 7.09964
#
# Compressibility (1/GPa) = 0.01761066
#
# Stress axis : x y z
#
# Youngs Moduli (GPa) = 62.54387 60.14275 76.54479
#
# Poissons Ratio (x) = 0.27914 0.27231
# Poissons Ratio (y) = 0.29028 0.44671
# Poissons Ratio (z) = 0.22250 0.35099
#
# Static dielectric constant tensor:
#      x y z
#    x 3.451460 0.000000 0.145150 
#    y 0.000000 5.003360 0.000000 
#    z 0.145150 0.000000 3.454040 
# 
# 
# High freq. dielectric constant tensor:
#      x y z
#    x 1.711070 0.000000 0.027440 
#    y 0.000000 1.689020 0.000000 
#    z 0.027440 0.000000 1.691390 
# 
# From -- ./inp_files/24747.got.cif
#   From: 2010.06.25/outbox.cif.g09.slc.cpg/sg13_13_cif.got.tgz:24747.got - 2010.06.28 04:50:58.
