data_PCOD8118863
_publ_section_title
;
Structure prediction by ZEFSAII (Michael W. Deem and Ramdas Pophale) SiO2 
 PCOD8118863
Probable space group: P 2/C
;
_chemical_formula_sum "Si O2"
_cell_formula_units_Z 22
_cell_length_a 22.294155
_cell_length_b 9.113497
_cell_length_c 9.649067
_cell_angle_alpha 90.000000
_cell_angle_beta 31.942166
_cell_angle_gamma 90.000000
_cell_volume 1037.214948
_symmetry_space_group_name_H-M "P 2/C"
_symmetry_group_IT_number 13
_symmetry_cell_setting 'monoclinic'
loop_
_space_group_symop_operation_xyz
x,y,z
-x,y,1/2-z
-x,-y,-z
x,-y,1/2+z
loop_
_atom_site_type_symbol
_atom_site_label
_atom_site_fract_x
_atom_site_fract_y
_atom_site_fract_z
Si Si1 0.240246 0.105016 0.708141
Si Si2 0.000000 0.840524 0.750000
Si Si3 0.799619 0.432228 0.746291
Si Si4 0.567780 0.403923 0.758290
Si Si5 0.109949 0.632145 0.722229
Si Si6 0.696060 0.851001 0.118254
O O1 0.229255 0.264328 0.658555
O O2 0.319364 0.106914 0.689558
O O3 0.293860 0.996962 0.492778
O O4 0.111998 0.060355 0.012207
O O5 0.997951 0.726155 0.621669
O O6 0.904520 0.504189 0.632636
O O7 0.829286 0.446282 0.527110
O O8 0.688950 0.525401 0.993531
O O9 0.500000 0.389256 0.750000
O O10 0.586057 0.241319 0.786206
O O11 0.500000 0.500000 0.000000
O O12 0.191444 0.756405 0.626289
#
# Coordination Sequence:
#
# PCOD8118863 Si02
#       6
#     4   2   4   4   4   4
#     4  10  20  36  56  78 115 144 179 223 274 324
#     4   8  18  34  56  82 108 148 186 224 262 328
#     4   9  19  35  54  80 110 142 174 233 280 309
#     4  11  21  38  61  81 105 142 188 225 272 336
#     4   9  18  33  54  79 112 143 186 222 269 323
#     4   9  21  37  54  81 111 146 178 226 278 318
#
# _framework density 21.210646000000001
#
# number of rings (size 3 to 8) (size 9 to 14) (size 15 to 20)
#    0.000    2.909    0.000    3.273    0.000   10.182 
#    0.000    4.545    0.000   30.545    0.000    0.000 
#    0.000    0.000    0.000    0.000    0.000    0.000 
#
# Total GULP energy -272598.609566 kJ/mol
# GULP energy per Si atom -12390.845889 kJ/mol
# Density = 2.116237 g / cm^3
# Si number density = 21.210646 Si / 1000 Ang^3
#
#
#
# Elastic Constant Matrix: (Units=GPa)
#
#
# Indices 1 2 3 4 5 6 
#
# 1 152.0088 67.1417 21.7876 0.0000 12.6941 0.0000
# 2 67.1417 110.5027 17.8746 0.0000 20.8767 0.0000
# 3 21.7876 17.8746 38.2949 0.0000 8.1960 0.0000
# 4 0.0000 0.0000 0.0000 19.5264 0.0000 5.0346
# 5 12.6941 20.8767 8.1960 0.0000 23.1900 0.0000
# 6 0.0000 0.0000 0.0000 5.0346 0.0000 32.1369
#
#
#
# Elastic Compliance Matrix: (Units=1/GPa)
#
#
# Indices 1 2 3 4 5 6 
#
# 1 0.009283 -0.005300 -0.002966 0.000000 0.000738 0.000000
# 2 -0.005300 0.014313 -0.001654 0.000000 -0.009400 0.000000
# 3 -0.002966 -0.001654 0.030190 0.000000 -0.007558 0.000000
# 4 0.000000 0.000000 0.000000 0.053368 0.000000 -0.008361
# 5 0.000738 -0.009400 -0.007558 0.000000 0.053851 0.000000
# 6 0.000000 0.000000 0.000000 -0.008361 0.000000 0.032427
#
#
# Mechanical properties :
#
#
# Convention : Reuss Voigt Hill
#
# Bulk Modulus (GPa) = 29.45734 57.15716 43.30725
# Shear Modulus (GPa) = 22.26308 27.90416 25.08362
#
# Velocity S-wave (km/s) = 3.24330 3.63102 3.44262
# Velocity P-wave (km/s) = 5.28616 6.67720 6.02198
#
# Compressibility (1/GPa) = 0.03394740
#
# Stress axis : x y z
#
# Youngs Moduli (GPa) = 107.72338 69.86535 33.12373
#
# Poissons Ratio (x) = 0.37030 0.09823
# Poissons Ratio (y) = 0.57095 0.05478
# Poissons Ratio (z) = 0.31946 0.11553
#
# Static dielectric constant tensor:
#      x y z
#    x 4.394190 0.000000 -0.094000 
#    y 0.000000 3.762080 0.000000 
#    z -0.094000 0.000000 3.481210 
# 
# 
# High freq. dielectric constant tensor:
#      x y z
#    x 1.853140 0.000000 -0.005780 
#    y 0.000000 1.824960 0.000000 
#    z -0.005780 0.000000 1.804720 
# 
# From -- ./inp_files/22672.got.cif
#   From: 2010.06.25/outbox.cif.g09.slc.cpg/sg13_12_cif.got.tgz:22672.got - 2010.06.28 04:50:58.
