data_PCOD8118570
_publ_section_title
;
Structure prediction by ZEFSAII (Michael W. Deem and Ramdas Pophale) SiO2 
 PCOD8118570
Probable space group: P 2/C
;
_chemical_formula_sum "Si O2"
_cell_formula_units_Z 32
_cell_length_a 14.317650
_cell_length_b 14.650619
_cell_length_c 20.626556
_cell_angle_alpha 90.000000
_cell_angle_beta 20.360197
_cell_angle_gamma 90.000000
_cell_volume 1505.340961
_symmetry_space_group_name_H-M "P 2/C"
_symmetry_group_IT_number 13
_symmetry_cell_setting 'monoclinic'
loop_
_space_group_symop_operation_xyz
x,y,z
-x,y,1/2-z
-x,-y,-z
x,-y,1/2+z
loop_
_atom_site_type_symbol
_atom_site_label
_atom_site_fract_x
_atom_site_fract_y
_atom_site_fract_z
Si Si1 0.240947 0.971605 0.043434
Si Si2 0.815531 0.148206 0.039272
Si Si3 0.255960 0.348974 0.270686
Si Si4 0.819512 0.348447 0.040833
Si Si5 0.136622 0.337572 0.093052
Si Si6 0.241240 0.141374 0.284191
Si Si7 0.225112 0.463629 0.549827
Si Si8 0.707122 0.151086 0.557249
O O1 0.000000 0.973062 0.250000
O O2 0.113936 0.925155 0.061574
O O3 0.499440 0.918626 0.903130
O O4 0.349354 0.073711 0.959254
O O5 0.500000 0.158413 0.250000
O O6 0.940385 0.248557 0.942908
O O7 0.903143 0.112428 0.053692
O O8 0.089987 0.376392 0.444576
O O9 0.350636 0.244634 0.219271
O O10 0.081572 0.358625 0.320088
O O11 0.517330 0.410554 0.092120
O O12 0.500000 0.345520 0.250000
O O13 0.904660 0.422964 0.932030
O O14 0.310233 0.430242 0.985253
O O15 0.000000 0.312504 0.250000
O O16 0.327189 0.252570 0.949976
O O17 0.016395 0.134855 0.375720
O O18 0.000000 0.456069 0.750000
O O19 0.500000 0.139138 0.750000
#
# Coordination Sequence:
#
# PCOD8118570 Si02
#       8
#     4   4   4   4   4   4   4   4
#     4  11  22  35  59  91 122 152 189 238 299 362
#     4   8  15  31  54  81 115 149 186 237 287 336
#     4   9  19  38  60  83 117 158 195 240 298 353
#     4   8  15  30  53  81 114 148 187 239 289 340
#     4  10  23  42  59  81 121 161 195 248 307 358
#     4   9  20  40  61  85 118 153 194 244 294 349
#     4  10  20  33  57  89 121 154 195 245 300 356
#     4  11  24  42  63  83 112 158 206 249 295 350
#
# _framework density 21.257642000000001
#
# number of rings (size 3 to 8) (size 9 to 14) (size 15 to 20)
#    0.000    2.500    0.000    3.750    0.000    8.500 
#    0.000    8.750    0.000    1.500    0.000    0.000 
#    0.000    0.000    0.000    0.000    0.000    0.000 
#
# Total GULP energy -396612.575325 kJ/mol
# GULP energy per Si atom -12394.142979 kJ/mol
# Density = 2.120926 g / cm^3
# Si number density = 21.257642 Si / 1000 Ang^3
#
#
#
# Elastic Constant Matrix: (Units=GPa)
#
#
# Indices 1 2 3 4 5 6 
#
# 1 87.2870 26.4438 25.2011 0.0000 16.2600 0.0000
# 2 26.4438 144.5088 62.4788 0.0000 14.3516 0.0000
# 3 25.2011 62.4788 88.6069 0.0000 20.4558 0.0000
# 4 0.0000 0.0000 0.0000 31.1484 0.0000 10.3560
# 5 16.2600 14.3516 20.4558 0.0000 31.6225 0.0000
# 6 0.0000 0.0000 0.0000 10.3560 0.0000 25.7375
#
#
#
# Elastic Compliance Matrix: (Units=1/GPa)
#
#
# Indices 1 2 3 4 5 6 
#
# 1 0.013278 -0.001150 -0.001775 0.000000 -0.005157 0.000000
# 2 -0.001150 0.010055 -0.006872 0.000000 0.000474 0.000000
# 3 -0.001775 -0.006872 0.018463 0.000000 -0.007912 0.000000
# 4 0.000000 0.000000 0.000000 0.037063 0.000000 -0.014913
# 5 -0.005157 0.000474 -0.007912 0.000000 0.039178 0.000000
# 6 0.000000 0.000000 0.000000 -0.014913 0.000000 0.044854
#
#
# Mechanical properties :
#
#
# Convention : Reuss Voigt Hill
#
# Bulk Modulus (GPa) = 45.04221 60.96110 53.00166
# Shear Modulus (GPa) = 26.33186 31.45361 28.89274
#
# Velocity S-wave (km/s) = 3.52334 3.85078 3.69069
# Velocity P-wave (km/s) = 6.14708 6.96497 6.56877
#
# Compressibility (1/GPa) = 0.02220140
#
# Stress axis : x y z
#
# Youngs Moduli (GPa) = 75.31227 99.45787 54.16369
#
# Poissons Ratio (x) = 0.11440 0.09613
# Poissons Ratio (y) = 0.08663 0.37220
# Poissons Ratio (z) = 0.13366 0.68346
#
# Static dielectric constant tensor:
#      x y z
#    x 4.936270 0.000000 0.225940 
#    y 0.000000 4.198090 0.000000 
#    z 0.225940 0.000000 3.332270 
# 
# 
# High freq. dielectric constant tensor:
#      x y z
#    x 1.836770 0.000000 0.013600 
#    y 0.000000 1.849760 0.000000 
#    z 0.013600 0.000000 1.793350 
# 
# From -- ./inp_files/80372.got.cif
#   From: 2010.06.25/outbox.cif.g09.slc.cpg/sg13_41_cif.got.tgz:80372.got - 2010.06.28 04:50:58.
