data_PCOD8118695
_publ_section_title
;
Structure prediction by ZEFSAII (Michael W. Deem and Ramdas Pophale) SiO2 
 PCOD8118695
Probable space group: P 2/C
;
_chemical_formula_sum "Si O2"
_cell_formula_units_Z 30
_cell_length_a 14.057464
_cell_length_b 19.436359
_cell_length_c 11.679353
_cell_angle_alpha 90.000000
_cell_angle_beta 28.409962
_cell_angle_gamma 90.000000
_cell_volume 1518.253370
_symmetry_space_group_name_H-M "P 2/C"
_symmetry_group_IT_number 13
_symmetry_cell_setting 'monoclinic'
loop_
_space_group_symop_operation_xyz
x,y,z
-x,y,1/2-z
-x,-y,-z
x,-y,1/2+z
loop_
_atom_site_type_symbol
_atom_site_label
_atom_site_fract_x
_atom_site_fract_y
_atom_site_fract_z
Si Si1 0.646587 0.007458 0.501812
Si Si2 0.319894 0.428634 0.526036
Si Si3 0.000000 0.061743 0.750000
Si Si4 0.210963 0.714000 0.063507
Si Si5 0.497202 0.248043 0.437524
Si Si6 0.208277 0.575233 0.581533
Si Si7 0.345877 0.899995 0.721429
Si Si8 0.515073 0.379166 0.916398
O O1 0.702037 0.059638 0.343108
O O2 0.528932 0.938509 0.589082
O O3 0.500000 0.044297 0.750000
O O4 0.862204 0.988034 0.321149
O O5 0.183814 0.361474 0.647730
O O6 0.186236 0.495640 0.643524
O O7 0.418530 0.426403 0.547578
O O8 0.500000 0.429720 0.250000
O O9 0.147989 0.106079 0.511256
O O10 0.000000 0.745316 0.250000
O O11 0.349997 0.709352 0.804281
O O12 0.301876 0.765004 0.064493
O O13 0.585491 0.176167 0.386019
O O14 0.448199 0.297850 0.596602
O O15 0.363193 0.590097 0.317379
O O16 0.282600 0.613491 0.620158
O O17 0.000000 0.602586 0.750000
#
# Coordination Sequence:
#
# PCOD8118695 Si02
#       8
#     4   4   2   4   4   4   4   4
#     4   9  20  38  59  88 122 153 195 242 280 341
#     4  11  19  39  61  87 114 149 190 250 306 349
#     4  10  20  34  64  90 124 142 194 252 284 336
#     4  10  21  35  56  87 120 145 187 241 299 349
#     4  10  22  37  57  83 119 158 189 231 294 352
#     4  11  24  38  62  84 111 157 203 244 295 349
#     4  10  21  37  59  90 117 159 192 235 297 342
#     4  10  22  41  57  82 122 150 192 249 288 354
#
# _framework density 19.759547999999999
#
# number of rings (size 3 to 8) (size 9 to 14) (size 15 to 20)
#    0.000    1.867    4.000    1.200    6.533    2.667 
#    2.400    0.000    1.467    0.000    0.000    0.000 
#    0.000    0.000    0.000    0.000    0.000    0.000 
#
# Total GULP energy -371744.365992 kJ/mol
# GULP energy per Si atom -12391.478866 kJ/mol
# Density = 1.971457 g / cm^3
# Si number density = 19.759548 Si / 1000 Ang^3
#
#
#
# Elastic Constant Matrix: (Units=GPa)
#
#
# Indices 1 2 3 4 5 6 
#
# 1 137.2880 38.1548 43.4133 0.0000 -15.4186 0.0000
# 2 38.1548 103.3305 28.8983 0.0000 3.6382 0.0000
# 3 43.4133 28.8983 60.3298 0.0000 -7.1219 0.0000
# 4 0.0000 0.0000 0.0000 18.8885 0.0000 1.5542
# 5 -15.4186 3.6382 -7.1219 0.0000 40.8862 0.0000
# 6 0.0000 0.0000 0.0000 1.5542 0.0000 2.4616
#
#
#
# Elastic Compliance Matrix: (Units=1/GPa)
#
#
# Indices 1 2 3 4 5 6 
#
# 1 0.010077 -0.002189 -0.005851 0.000000 0.002976 0.000000
# 2 -0.002189 0.011807 -0.004392 0.000000 -0.002641 0.000000
# 3 -0.005851 -0.004392 0.023152 0.000000 0.002217 0.000000
# 4 0.000000 0.000000 0.000000 0.055843 0.000000 -0.035258
# 5 0.002976 -0.002641 0.002217 0.000000 0.026202 0.000000
# 6 0.000000 0.000000 0.000000 -0.035258 0.000000 0.428508
#
#
# Mechanical properties :
#
#
# Convention : Reuss Voigt Hill
#
# Bulk Modulus (GPa) = 49.57757 57.98677 53.78217
# Shear Modulus (GPa) = 8.51530 25.14604 16.83067
#
# Velocity S-wave (km/s) = 2.07818 3.57122 2.92168
# Velocity P-wave (km/s) = 5.55908 6.81284 6.21764
#
# Compressibility (1/GPa) = 0.02017041
#
# Stress axis : x y z
#
# Youngs Moduli (GPa) = 99.23673 84.69233 43.19299
#
# Poissons Ratio (x) = 0.18541 0.25274
# Poissons Ratio (y) = 0.21725 0.18972
# Poissons Ratio (z) = 0.58068 0.37199
#
# Static dielectric constant tensor:
#      x y z
#    x 4.346880 0.000000 -0.131350 
#    y 0.000000 3.610620 0.000000 
#    z -0.131350 0.000000 3.371440 
# 
# 
# High freq. dielectric constant tensor:
#      x y z
#    x 1.788870 0.000000 -0.005110 
#    y 0.000000 1.750850 0.000000 
#    z -0.005110 0.000000 1.751700 
# 
# From -- ./inp_files/37655.got.cif
#   From: 2010.06.25/outbox.cif.g09.slc.cpg/sg13_19_cif.got.tgz:37655.got - 2010.06.28 04:50:58.
