data_PCOD8118537
_publ_section_title
;
Structure prediction by ZEFSAII (Michael W. Deem and Ramdas Pophale) SiO2 
 PCOD8118537
Probable space group: P 2/C
;
_chemical_formula_sum "Si O2"
_cell_formula_units_Z 24
_cell_length_a 12.283023
_cell_length_b 9.116251
_cell_length_c 18.397383
_cell_angle_alpha 90.000000
_cell_angle_beta 138.494767
_cell_angle_gamma 90.000000
_cell_volume 1365.170799
_symmetry_space_group_name_H-M "P 2/C"
_symmetry_group_IT_number 13
_symmetry_cell_setting 'monoclinic'
loop_
_space_group_symop_operation_xyz
x,y,z
-x,y,1/2-z
-x,-y,-z
x,-y,1/2+z
loop_
_atom_site_type_symbol
_atom_site_label
_atom_site_fract_x
_atom_site_fract_y
_atom_site_fract_z
Si Si1 0.160467 0.399974 0.500444
Si Si2 0.685153 0.313447 0.427624
Si Si3 0.314848 0.313448 0.242471
Si Si4 0.839532 0.399974 0.839977
Si Si5 0.983136 0.167396 0.327040
Si Si6 0.983136 0.832604 0.156096
O O1 0.304342 0.512060 0.547567
O O2 0.198035 0.335375 0.599018
O O3 1.000000 0.500000 0.421334
O O4 0.134659 0.261815 0.434919
O O5 0.500000 0.259806 0.350329
O O6 0.733325 0.291376 0.366662
O O7 0.806680 0.220925 0.539115
O O8 0.304343 0.487940 0.256775
O O9 0.193320 0.220925 0.232435
O O10 0.865341 0.261815 0.800260
O O11 0.000000 0.185591 0.250000
O O12 1.000000 0.000000 0.360243
O O13 0.000000 0.814409 0.250000
#
# Coordination Sequence:
#
# PCOD8118537 Si02
#       6
#     4   4   4   4   4   4
#     4   8  15  29  49  70  92 123 164 205 243 290
#     4   9  18  34  55  77 100 127 165 214 258 293
#     4   9  18  34  55  77 100 127 165 214 258 293
#     4   8  15  29  49  70  92 123 164 205 243 290
#     4  10  20  33  48  72 105 139 171 201 242 299
#     4  10  20  33  48  72 105 139 171 201 242 299
#
# _framework density 17.580217999999999
#
# number of rings (size 3 to 8) (size 9 to 14) (size 15 to 20)
#    0.000    3.000    0.000    3.000    0.000    8.667 
#    0.000    8.333    0.000    4.000    0.000    0.000 
#    0.000    0.000    0.000    0.000    0.000    0.000 
#
# Total GULP energy -297389.175843 kJ/mol
# GULP energy per Si atom -12391.215660 kJ/mol
# Density = 1.754020 g / cm^3
# Si number density = 17.580218 Si / 1000 Ang^3
#
#
#
# Elastic Constant Matrix: (Units=GPa)
#
#
# Indices 1 2 3 4 5 6 
#
# 1 84.5283 53.1571 43.5705 0.0000 0.9474 0.0000
# 2 53.1571 130.4195 53.9408 0.0000 -15.7770 0.0000
# 3 43.5705 53.9408 84.4366 0.0000 0.8983 0.0000
# 4 0.0000 0.0000 0.0000 21.1575 0.0000 -4.1946
# 5 0.9474 -15.7770 0.8983 0.0000 21.4455 0.0000
# 6 0.0000 0.0000 0.0000 -4.1946 0.0000 20.9491
#
#
#
# Elastic Compliance Matrix: (Units=1/GPa)
#
#
# Indices 1 2 3 4 5 6 
#
# 1 0.018475 -0.005685 -0.005851 0.000000 -0.004754 0.000000
# 2 -0.005685 0.013727 -0.005948 0.000000 0.010599 0.000000
# 3 -0.005851 -0.005948 0.018714 0.000000 -0.004902 0.000000
# 4 0.000000 0.000000 0.000000 0.049218 0.000000 0.009855
# 5 -0.004754 0.010599 -0.004902 0.000000 0.054843 0.000000
# 6 0.000000 0.000000 0.000000 0.009855 0.000000 0.049708
#
#
# Mechanical properties :
#
#
# Convention : Reuss Voigt Hill
#
# Bulk Modulus (GPa) = 62.70568 66.74678 64.72623
# Shear Modulus (GPa) = 20.41066 22.62484 21.51775
#
# Velocity S-wave (km/s) = 3.41104 3.59130 3.50233
# Velocity P-wave (km/s) = 7.15957 7.43276 7.29744
#
# Compressibility (1/GPa) = 0.01594752
#
# Stress axis : x y z
#
# Youngs Moduli (GPa) = 54.12824 72.84784 53.43460
#
# Poissons Ratio (x) = 0.41416 0.31263
# Poissons Ratio (y) = 0.30773 0.31786
# Poissons Ratio (z) = 0.31669 0.43334
#
# Static dielectric constant tensor:
#      x y z
#    x 3.301030 0.000000 0.108630 
#    y 0.000000 3.389480 0.000000 
#    z 0.108630 0.000000 3.295630 
# 
# 
# High freq. dielectric constant tensor:
#      x y z
#    x 1.666970 0.000000 -0.006760 
#    y 0.000000 1.672150 0.000000 
#    z -0.006760 0.000000 1.667300 
# 
# From -- ./inp_files/66091.got.cif
#   From: 2010.06.25/outbox.cif.g09.slc.cpg/sg13_34_cif.got.tgz:66091.got - 2010.06.28 04:50:58.
