data_PCOD8118902
_publ_section_title
;
Structure prediction by ZEFSAII (Michael W. Deem and Ramdas Pophale) SiO2 
 PCOD8118902
Probable space group: P 2/C
;
_chemical_formula_sum "Si O2"
_cell_formula_units_Z 32
_cell_length_a 19.752134
_cell_length_b 14.886588
_cell_length_c 14.238795
_cell_angle_alpha 90.000000
_cell_angle_beta 157.231073
_cell_angle_gamma 90.000000
_cell_volume 1620.357625
_symmetry_space_group_name_H-M "P 2/C"
_symmetry_group_IT_number 13
_symmetry_cell_setting 'monoclinic'
loop_
_space_group_symop_operation_xyz
x,y,z
-x,y,1/2-z
-x,-y,-z
x,-y,1/2+z
loop_
_atom_site_type_symbol
_atom_site_label
_atom_site_fract_x
_atom_site_fract_y
_atom_site_fract_z
Si Si1 0.460681 0.859876 0.992311
Si Si2 0.801472 0.978693 0.726001
Si Si3 0.391903 0.349881 0.017636
Si Si4 0.678905 0.461548 0.037585
Si Si5 0.179450 0.658941 0.932075
Si Si6 0.476411 0.655788 0.012347
Si Si7 0.187852 0.134797 0.445333
Si Si8 0.398050 0.844386 0.524655
O O1 0.307027 0.925414 0.832529
O O2 0.412743 0.756958 0.954492
O O3 0.472077 0.870885 0.894451
O O4 0.653113 0.884248 0.279437
O O5 0.773824 0.926197 0.594712
O O6 0.740435 0.079649 0.636271
O O7 0.000000 0.000000 0.000000
O O8 0.261326 0.435296 0.863530
O O9 0.500000 0.339774 0.250000
O O10 0.522826 0.367771 0.097265
O O11 0.301273 0.252613 0.879907
O O12 0.817314 0.406094 0.154030
O O13 0.657843 0.411555 0.109925
O O14 0.500000 0.462885 0.750000
O O15 0.186968 0.762512 0.909022
O O16 0.000000 0.634257 0.750000
O O17 0.330256 0.639603 0.199827
O O18 0.000000 0.109424 0.250000
O O19 0.500000 0.832020 0.750000
#
# Coordination Sequence:
#
# PCOD8118902 Si02
#       8
#     4   4   4   4   4   4   4   4
#     4  10  20  37  57  80 108 140 178 224 274 323
#     4  12  24  36  55  82 109 140 178 223 274 330
#     4   9  18  32  52  76 104 139 179 216 254 309
#     4   9  16  29  52  80 106 134 172 216 259 315
#     4   9  18  32  53  81 110 135 167 218 276 323
#     4   9  17  31  55  80 103 134 175 220 267 313
#     4  10  20  36  58  83 109 138 176 227 279 325
#     4  10  21  37  56  76 105 146 184 220 264 318
#
# _framework density 19.748726999999999
#
# number of rings (size 3 to 8) (size 9 to 14) (size 15 to 20)
#    0.000    2.250    0.000    3.375    0.000    4.000 
#    0.000    0.625    0.000   11.250    0.000    0.000 
#    0.000    0.000    0.000    0.000    0.000    0.000 
#
# Total GULP energy -396521.446694 kJ/mol
# GULP energy per Si atom -12391.295209 kJ/mol
# Density = 1.970378 g / cm^3
# Si number density = 19.748727 Si / 1000 Ang^3
#
#
#
# Elastic Constant Matrix: (Units=GPa)
#
#
# Indices 1 2 3 4 5 6 
#
# 1 153.9086 81.8851 42.8012 0.0000 -4.6332 0.0000
# 2 81.8851 158.0981 36.2799 0.0000 13.0501 0.0000
# 3 42.8012 36.2799 56.5493 0.0000 11.0430 0.0000
# 4 0.0000 0.0000 0.0000 10.2596 0.0000 22.9166
# 5 -4.6332 13.0501 11.0430 0.0000 30.3214 0.0000
# 6 0.0000 0.0000 0.0000 22.9166 0.0000 -40.2468
#
#
#
# Elastic Compliance Matrix: (Units=1/GPa)
#
#
# Indices 1 2 3 4 5 6 
#
# 1 0.010984 -0.004702 -0.006481 0.000000 0.006062 0.000000
# 2 -0.004702 0.009500 -0.001720 0.000000 -0.004181 0.000000
# 3 -0.006481 -0.001720 0.025559 0.000000 -0.009559 0.000000
# 4 0.000000 0.000000 0.000000 0.042903 0.000000 0.024429
# 5 0.006062 -0.004181 -0.009559 0.000000 0.039187 0.000000
# 6 0.000000 0.000000 0.000000 0.024429 0.000000 -0.010937
#
#
# Mechanical properties :
#
#
# Convention : Reuss Voigt Hill
#
# Bulk Modulus (GPa) = 49.41186 76.72092 63.06639
# Shear Modulus (GPa) = 33.38965 13.90615 23.64790
#
# Velocity S-wave (km/s) = 4.11630 2.65647 3.46416
# Velocity P-wave (km/s) = 6.90409 6.95284 6.92851
#
# Compressibility (1/GPa) = 0.02023806
#
# Stress axis : x y z
#
# Youngs Moduli (GPa) = 91.04285 105.25893 39.12585
#
# Poissons Ratio (x) = 0.49495 0.25356
# Poissons Ratio (y) = 0.42810 0.06728
# Poissons Ratio (z) = 0.59001 0.18100
#
# Static dielectric constant tensor:
#      x y z
#    x 3.756070 0.000000 -0.108680 
#    y 0.000000 3.623590 0.000000 
#    z -0.108680 0.000000 3.202380 
# 
# 
# High freq. dielectric constant tensor:
#      x y z
#    x 1.782340 0.000000 -0.014050 
#    y 0.000000 1.795210 0.000000 
#    z -0.014050 0.000000 1.721890 
# 
# From -- ./inp_files/57880.got.cif
#   From: 2010.06.25/outbox.cif.g09.slc.cpg/sg13_29_cif.got.tgz:57880.got - 2010.06.28 04:50:58.
