data_PCOD8118514
_publ_section_title
;
Structure prediction by ZEFSAII (Michael W. Deem and Ramdas Pophale) SiO2 
 PCOD8118514
Probable space group: P 2/C
;
_chemical_formula_sum "Si O2"
_cell_formula_units_Z 24
_cell_length_a 17.030429
_cell_length_b 5.228261
_cell_length_c 22.642250
_cell_angle_alpha 90.000000
_cell_angle_beta 26.065711
_cell_angle_gamma 90.000000
_cell_volume 885.858025
_symmetry_space_group_name_H-M "P 2/C"
_symmetry_group_IT_number 13
_symmetry_cell_setting 'monoclinic'
loop_
_space_group_symop_operation_xyz
x,y,z
-x,y,1/2-z
-x,-y,-z
x,-y,1/2+z
loop_
_atom_site_type_symbol
_atom_site_label
_atom_site_fract_x
_atom_site_fract_y
_atom_site_fract_z
Si Si1 0.057770 0.972958 0.146627
Si Si2 0.517447 0.198949 0.120942
Si Si3 0.402021 0.692149 0.249279
Si Si4 0.680598 0.858081 0.392255
Si Si5 0.828230 0.457823 0.486226
Si Si6 0.216667 0.524505 0.769630
O O1 0.861314 0.002724 0.247848
O O2 0.000000 0.883397 0.250000
O O3 0.181265 0.751786 0.031983
O O4 0.156505 0.245693 0.076239
O O5 0.551910 0.469177 0.132593
O O6 0.331632 0.221908 0.208815
O O7 0.495883 0.967841 0.181637
O O8 0.681628 0.161097 0.964010
O O9 0.332135 0.635282 0.362335
O O10 0.246868 0.671930 0.304547
O O11 0.690418 0.582729 0.353400
O O12 0.500000 0.000000 0.500000
O O13 0.006793 0.431560 0.405337
#
# Coordination Sequence:
#
# PCOD8118514 Si02
#       6
#     4   4   4   4   4   4
#     4  11  26  43  64  86 117 159 203 252 299 349
#     4  10  20  32  53  86 127 150 191 237 304 341
#     4  10  21  33  55  88 129 153 191 242 305 355
#     4  11  19  39  61  93 121 155 202 249 296 350
#     4  11  22  39  61  84 120 160 204 240 298 363
#     4   9  21  31  56  92 123 158 192 248 298 348
#
# _framework density 27.092376999999999
#
# number of rings (size 3 to 8) (size 9 to 14) (size 15 to 20)
#    1.000    0.667    1.667    3.500    2.333    4.667 
#    0.000    0.000    0.000    6.000    0.000    0.000 
#    0.000    0.000    0.000    0.000    0.000    0.000 
#
# Total GULP energy -297504.131968 kJ/mol
# GULP energy per Si atom -12396.005499 kJ/mol
# Density = 2.703071 g / cm^3
# Si number density = 27.092377 Si / 1000 Ang^3
#
#
#
# Elastic Constant Matrix: (Units=GPa)
#
#
# Indices 1 2 3 4 5 6 
#
# 1 69.4508 29.5914 47.5373 0.0000 13.4127 0.0000
# 2 29.5914 182.2519 91.1985 0.0000 -0.4197 0.0000
# 3 47.5373 91.1985 176.6107 0.0000 13.8017 0.0000
# 4 0.0000 0.0000 0.0000 51.2216 0.0000 5.8536
# 5 13.4127 -0.4197 13.8017 0.0000 53.4692 0.0000
# 6 0.0000 0.0000 0.0000 5.8536 0.0000 45.2037
#
#
#
# Elastic Compliance Matrix: (Units=1/GPa)
#
#
# Indices 1 2 3 4 5 6 
#
# 1 0.018331 -0.000881 -0.004204 0.000000 -0.003520 0.000000
# 2 -0.000881 0.007501 -0.003734 0.000000 0.001244 0.000000
# 3 -0.004204 -0.003734 0.008820 0.000000 -0.001251 0.000000
# 4 0.000000 0.000000 0.000000 0.019816 0.000000 -0.002566
# 5 -0.003520 0.001244 -0.001251 0.000000 0.019918 0.000000
# 6 0.000000 0.000000 0.000000 -0.002566 0.000000 0.022454
#
#
# Mechanical properties :
#
#
# Convention : Reuss Voigt Hill
#
# Bulk Modulus (GPa) = 58.77171 84.99643 71.88407
# Shear Modulus (GPa) = 41.61484 47.31132 44.46308
#
# Velocity S-wave (km/s) = 3.92348 4.18340 4.05553
# Velocity P-wave (km/s) = 6.50116 7.40104 6.96565
#
# Compressibility (1/GPa) = 0.01701499
#
# Stress axis : x y z
#
# Youngs Moduli (GPa) = 54.55094 133.31536 113.38469
#
# Poissons Ratio (x) = 0.11740 0.47671
# Poissons Ratio (y) = 0.04804 0.42332
# Poissons Ratio (z) = 0.22935 0.49774
#
# Static dielectric constant tensor:
#      x y z
#    x 5.624220 0.000000 -0.281860 
#    y 0.000000 4.648180 0.000000 
#    z -0.281860 0.000000 5.146850 
# 
# 
# High freq. dielectric constant tensor:
#      x y z
#    x 2.145650 0.000000 -0.030150 
#    y 0.000000 2.077040 0.000000 
#    z -0.030150 0.000000 2.098900 
# 
# From -- ./inp_files/88255.got.cif
#   From: 2010.06.25/outbox.cif.g09.slc.cpg/sg13_45_cif.got.tgz:88255.got - 2010.06.28 04:50:58.
