data_PCOD8118672
_publ_section_title
;
Structure prediction by ZEFSAII (Michael W. Deem and Ramdas Pophale) SiO2 
 PCOD8118672
Probable space group: P 2/C
;
_chemical_formula_sum "Si O2"
_cell_formula_units_Z 32
_cell_length_a 5.232608
_cell_length_b 10.280062
_cell_length_c 29.787164
_cell_angle_alpha 90.000000
_cell_angle_beta 79.573133
_cell_angle_gamma 90.000000
_cell_volume 1575.838072
_symmetry_space_group_name_H-M "P 2/C"
_symmetry_group_IT_number 13
_symmetry_cell_setting 'monoclinic'
loop_
_space_group_symop_operation_xyz
x,y,z
-x,y,1/2-z
-x,-y,-z
x,-y,1/2+z
loop_
_atom_site_type_symbol
_atom_site_label
_atom_site_fract_x
_atom_site_fract_y
_atom_site_fract_z
Si Si1 0.844798 0.417883 0.622625
Si Si2 0.735834 0.224018 0.452368
Si Si3 0.220431 0.264230 0.277496
Si Si4 0.913159 0.114297 0.128403
Si Si5 0.605904 0.488164 0.416193
Si Si6 0.777080 0.427867 0.723193
Si Si7 0.563695 0.999855 0.403640
Si Si8 0.640036 0.739253 0.053993
O O1 0.599824 0.513112 0.618730
O O2 0.816475 0.360518 0.673569
O O3 0.846401 0.298057 0.586764
O O4 0.106242 0.500810 0.612579
O O5 0.005329 0.209629 0.415816
O O6 0.584360 0.356017 0.444694
O O7 0.793542 0.222654 0.503811
O O8 0.548680 0.102849 0.445486
O O9 0.500000 0.219261 0.250000
O O10 0.211426 0.418144 0.284543
O O11 0.000000 0.217944 0.250000
O O12 0.163069 0.199694 0.326807
O O13 0.160448 0.019820 0.130949
O O14 0.670124 0.025371 0.123172
O O15 0.541646 0.612856 0.449835
O O16 0.500000 0.381207 0.750000
O O17 0.000000 0.379636 0.750000
O O18 0.544609 0.855315 0.423684
#
# Coordination Sequence:
#
# PCOD8118672 Si02
#       8
#     4   4   4   4   4   4   4   4
#     4  10  23  37  62  86 128 156 206 252 315 369
#     4  10  23  39  64  92 128 163 214 262 303 358
#     4  10  20  35  61  91 123 153 195 257 322 369
#     4  10  23  37  63  91 125 156 204 258 310 362
#     4  10  23  37  61  89 124 161 208 254 307 357
#     4  10  20  34  58  89 121 152 196 253 319 373
#     4  10  24  39  62  88 126 165 210 250 298 367
#     4  10  24  42  61  89 128 175 210 248 305 370
#
# _framework density 20.306654999999999
#
# number of rings (size 3 to 8) (size 9 to 14) (size 15 to 20)
#    1.500    0.500    0.000    3.000    5.250    3.000 
#    0.000    0.000    0.000    3.000    0.000    0.000 
#    0.000    0.000    0.000    0.000    0.000    0.000 
#
# Total GULP energy -396556.702336 kJ/mol
# GULP energy per Si atom -12392.396948 kJ/mol
# Density = 2.026044 g / cm^3
# Si number density = 20.306655 Si / 1000 Ang^3
#
#
#
# Elastic Constant Matrix: (Units=GPa)
#
#
# Indices 1 2 3 4 5 6 
#
# 1 141.9559 5.8766 40.5546 0.0000 7.1787 0.0000
# 2 5.8766 63.1822 1.6946 0.0000 4.3153 0.0000
# 3 40.5546 1.6946 124.1620 0.0000 2.4095 0.0000
# 4 0.0000 0.0000 0.0000 14.7333 0.0000 0.4812
# 5 7.1787 4.3153 2.4095 0.0000 30.0493 0.0000
# 6 0.0000 0.0000 0.0000 0.4812 0.0000 8.9628
#
#
#
# Elastic Compliance Matrix: (Units=1/GPa)
#
#
# Indices 1 2 3 4 5 6 
#
# 1 0.007872 -0.000555 -0.002533 0.000000 -0.001598 0.000000
# 2 -0.000555 0.016027 0.000005 0.000000 -0.002169 0.000000
# 3 -0.002533 0.000005 0.008883 0.000000 -0.000108 0.000000
# 4 0.000000 0.000000 0.000000 0.067993 0.000000 -0.003650
# 5 -0.001598 -0.002169 -0.000108 0.000000 0.033981 0.000000
# 6 0.000000 0.000000 0.000000 -0.003650 0.000000 0.111769
#
#
# Mechanical properties :
#
#
# Convention : Reuss Voigt Hill
#
# Bulk Modulus (GPa) = 37.57151 47.28353 42.42752
# Shear Modulus (GPa) = 19.11593 29.49400 24.30497
#
# Velocity S-wave (km/s) = 3.07149 3.81521 3.46337
# Velocity P-wave (km/s) = 5.57862 6.53782 6.07717
#
# Compressibility (1/GPa) = 0.02661591
#
# Stress axis : x y z
#
# Youngs Moduli (GPa) = 127.03698 62.39505 112.57181
#
# Poissons Ratio (x) = 0.03464 0.28509
# Poissons Ratio (y) = 0.07052 -0.00053
# Poissons Ratio (z) = 0.32172 -0.00029
#
# Static dielectric constant tensor:
#      x y z
#    x 3.667730 0.000000 0.069700 
#    y 0.000000 3.360210 0.000000 
#    z 0.069700 0.000000 3.568850 
# 
# 
# High freq. dielectric constant tensor:
#      x y z
#    x 1.795080 0.000000 0.001790 
#    y 0.000000 1.767520 0.000000 
#    z 0.001790 0.000000 1.785970 
# 
# From -- ./inp_files/90422.got.cif
#   From: 2010.06.25/outbox.cif.g09.slc.cpg/sg13_46_cif.got.tgz:90422.got - 2010.06.28 04:50:58.
