data_PCOD8118525
_publ_section_title
;
Structure prediction by ZEFSAII (Michael W. Deem and Ramdas Pophale) SiO2 
 PCOD8118525
Probable space group: P 2/C
;
_chemical_formula_sum "Si O2"
_cell_formula_units_Z 24
_cell_length_a 22.876064
_cell_length_b 10.807219
_cell_length_c 13.105041
_cell_angle_alpha 90.000000
_cell_angle_beta 23.441730
_cell_angle_gamma 90.000000
_cell_volume 1288.890772
_symmetry_space_group_name_H-M "P 2/C"
_symmetry_group_IT_number 13
_symmetry_cell_setting 'monoclinic'
loop_
_space_group_symop_operation_xyz
x,y,z
-x,y,1/2-z
-x,-y,-z
x,-y,1/2+z
loop_
_atom_site_type_symbol
_atom_site_label
_atom_site_fract_x
_atom_site_fract_y
_atom_site_fract_z
Si Si1 0.033605 0.718405 0.583580
Si Si2 0.024652 0.011167 0.598593
Si Si3 0.248946 0.964228 0.584143
Si Si4 0.655881 0.654407 0.377118
Si Si5 0.718182 0.301297 0.541105
Si Si6 0.500000 0.450089 0.750000
Si Si7 0.500000 0.857392 0.750000
O O1 0.054794 0.865139 0.548822
O O2 0.190027 0.656423 0.305753
O O3 0.000000 0.671981 0.750000
O O4 0.893664 0.674872 0.739515
O O5 0.000000 0.065370 0.750000
O O6 0.875822 0.041718 0.776198
O O7 0.168103 0.077424 0.319494
O O8 0.307838 0.846101 0.427395
O O9 0.381340 0.056036 0.387843
O O10 0.673199 0.656496 0.226968
O O11 0.571884 0.530954 0.545161
O O12 0.563727 0.774541 0.556811
O O13 0.624424 0.367775 0.604301
#
# Coordination Sequence:
#
# PCOD8118525 Si02
#       7
#     4   4   4   4   4   2   2
#     4   8  15  32  59  80 101 144 185 215 266 327
#     4   9  17  34  55  81 117 148 177 218 268 328
#     4  10  20  32  57  85 115 145 179 224 271 345
#     4  10  21  38  59  77 110 147 190 233 268 330
#     4  10  21  38  57  82 110 148 182 231 284 319
#     4  11  23  38  56  80 111 145 188 238 280 323
#     4  11  21  34  54  90 111 143 186 218 282 335
#
# _framework density 18.620663
#
# number of rings (size 3 to 8) (size 9 to 14) (size 15 to 20)
#    0.000    2.333    1.667    2.000    0.000    1.333 
#    3.000    0.000    0.000    1.000    0.000    0.000 
#    0.000    0.000    0.000    0.000    0.000    0.000 
#
# Total GULP energy -297409.706293 kJ/mol
# GULP energy per Si atom -12392.071096 kJ/mol
# Density = 1.857828 g / cm^3
# Si number density = 18.620663 Si / 1000 Ang^3
#
#
#
# Elastic Constant Matrix: (Units=GPa)
#
#
# Indices 1 2 3 4 5 6 
#
# 1 89.8594 26.8944 46.9940 0.0000 -2.8838 0.0000
# 2 26.8944 58.8152 38.5399 0.0000 -12.6729 0.0000
# 3 46.9940 38.5399 108.4869 0.0000 -16.4331 0.0000
# 4 0.0000 0.0000 0.0000 14.4363 0.0000 3.0141
# 5 -2.8838 -12.6729 -16.4331 0.0000 39.7961 0.0000
# 6 0.0000 0.0000 0.0000 3.0141 0.0000 11.2196
#
#
#
# Elastic Compliance Matrix: (Units=1/GPa)
#
#
# Indices 1 2 3 4 5 6 
#
# 1 0.015088 -0.003775 -0.005559 0.000000 -0.002404 0.000000
# 2 -0.003775 0.023738 -0.006074 0.000000 0.004778 0.000000
# 3 -0.005559 -0.006074 0.014326 0.000000 0.003578 0.000000
# 4 0.000000 0.000000 0.000000 0.073386 0.000000 -0.019715
# 5 -0.002404 0.004778 0.003578 0.000000 0.027953 0.000000
# 6 0.000000 0.000000 0.000000 -0.019715 0.000000 0.094426
#
#
# Mechanical properties :
#
#
# Convention : Reuss Voigt Hill
#
# Bulk Modulus (GPa) = 44.77055 53.55756 49.16406
# Shear Modulus (GPa) = 17.41079 22.73929 20.07504
#
# Velocity S-wave (km/s) = 3.06114 3.49834 3.28701
# Velocity P-wave (km/s) = 6.04895 6.71883 6.39267
#
# Compressibility (1/GPa) = 0.02233611
#
# Stress axis : x y z
#
# Youngs Moduli (GPa) = 66.27615 42.12631 69.80473
#
# Poissons Ratio (x) = 0.15902 0.38805
# Poissons Ratio (y) = 0.25018 0.42400
# Poissons Ratio (z) = 0.36844 0.25588
#
# Static dielectric constant tensor:
#      x y z
#    x 3.504380 0.000000 -0.052640 
#    y 0.000000 3.106280 0.000000 
#    z -0.052640 0.000000 3.773360 
# 
# 
# High freq. dielectric constant tensor:
#      x y z
#    x 1.717240 0.000000 -0.008220 
#    y 0.000000 1.689550 0.000000 
#    z -0.008220 0.000000 1.739150 
# 
# From -- ./inp_files/58893.got.cif
#   From: 2010.06.25/outbox.cif.g09.slc.cpg/sg13_30_cif.got.tgz:58893.got - 2010.06.28 04:50:58.
