data_PCOD8118347
_publ_section_title
;
Structure prediction by ZEFSAII (Michael W. Deem and Ramdas Pophale) SiO2 
 PCOD8118347
Probable space group: P 2/C
;
_chemical_formula_sum "Si O2"
_cell_formula_units_Z 24
_cell_length_a 19.422581
_cell_length_b 7.319363
_cell_length_c 25.751085
_cell_angle_alpha 90.000000
_cell_angle_beta 18.813167
_cell_angle_gamma 90.000000
_cell_volume 1180.545962
_symmetry_space_group_name_H-M "P 2/C"
_symmetry_group_IT_number 13
_symmetry_cell_setting 'monoclinic'
loop_
_space_group_symop_operation_xyz
x,y,z
-x,y,1/2-z
-x,-y,-z
x,-y,1/2+z
loop_
_atom_site_type_symbol
_atom_site_label
_atom_site_fract_x
_atom_site_fract_y
_atom_site_fract_z
Si Si1 0.248363 0.589309 0.420202
Si Si2 0.097933 0.777387 0.055261
Si Si3 0.050118 0.758797 0.659450
Si Si4 0.816753 0.051134 0.591011
Si Si5 0.367064 0.078067 0.450047
Si Si6 0.710140 0.059553 0.879750
O O1 0.500000 0.591171 0.250000
O O2 0.157926 0.386121 0.472214
O O3 0.115781 0.620284 0.567824
O O4 0.197254 0.730167 0.409846
O O5 0.848579 0.784124 0.250789
O O6 0.257473 0.770085 0.991081
O O7 0.140646 0.968724 0.995953
O O8 0.000000 0.655079 0.750000
O O9 0.248670 0.888147 0.528668
O O10 0.847403 0.876619 0.786914
O O11 0.608638 0.959209 0.762844
O O12 0.000000 0.000000 0.500000
O O13 0.351988 0.145966 0.520205
O O14 0.500000 0.000000 0.000000
#
# Coordination Sequence:
#
# PCOD8118347 Si02
#       6
#     4   4   4   4   4   4
#     4  12  22  40  66  92 126 164 213 265 313 380
#     4  11  23  40  63  92 120 162 217 258 308 382
#     4   9  19  35  60  87 117 159 208 249 305 371
#     4  12  23  39  63  89 127 164 203 263 324 376
#     4  10  19  38  63  88 120 165 211 255 307 375
#     4  10  20  38  64  92 123 165 205 257 321 373
#
# _framework density 20.329577
#
# number of rings (size 3 to 8) (size 9 to 14) (size 15 to 20)
#    0.000    1.333    5.000    4.000    0.000    2.000 
#    0.000    0.833    0.000    0.000    0.000    0.000 
#    0.000    0.000    0.000    0.000    0.000    0.000 
#
# Total GULP energy -297467.998476 kJ/mol
# GULP energy per Si atom -12394.499936 kJ/mol
# Density = 2.028331 g / cm^3
# Si number density = 20.329577 Si / 1000 Ang^3
#
#
#
# Elastic Constant Matrix: (Units=GPa)
#
#
# Indices 1 2 3 4 5 6 
#
# 1 99.1362 26.2186 64.0877 0.0000 -14.2901 0.0000
# 2 26.2186 75.4293 23.9833 0.0000 -0.4429 0.0000
# 3 64.0877 23.9833 142.2142 0.0000 1.9661 0.0000
# 4 0.0000 0.0000 0.0000 19.5856 0.0000 7.0478
# 5 -14.2901 -0.4429 1.9661 0.0000 32.8180 0.0000
# 6 0.0000 0.0000 0.0000 7.0478 0.0000 20.0042
#
#
#
# Elastic Compliance Matrix: (Units=1/GPa)
#
#
# Indices 1 2 3 4 5 6 
#
# 1 0.016651 -0.003512 -0.007017 0.000000 0.007623 0.000000
# 2 -0.003512 0.014753 -0.000888 0.000000 -0.001277 0.000000
# 3 -0.007017 -0.000888 0.010394 0.000000 -0.003690 0.000000
# 4 0.000000 0.000000 0.000000 0.058471 0.000000 -0.020600
# 5 0.007623 -0.001277 -0.003690 0.000000 0.033994 0.000000
# 6 0.000000 0.000000 0.000000 -0.020600 0.000000 0.057247
#
#
# Mechanical properties :
#
#
# Convention : Reuss Voigt Hill
#
# Bulk Modulus (GPa) = 52.72729 60.59543 56.66136
# Shear Modulus (GPa) = 22.65879 27.98090 25.31984
#
# Velocity S-wave (km/s) = 3.34214 3.71396 3.53295
# Velocity P-wave (km/s) = 6.39420 6.94713 6.67639
#
# Compressibility (1/GPa) = 0.01896551
#
# Stress axis : x y z
#
# Youngs Moduli (GPa) = 60.05701 67.78318 96.20577
#
# Poissons Ratio (x) = 0.23805 0.67505
# Poissons Ratio (y) = 0.21092 0.08540
# Poissons Ratio (z) = 0.42140 0.06017
#
# Static dielectric constant tensor:
#      x y z
#    x 3.717310 0.000000 0.290290 
#    y 0.000000 3.475440 0.000000 
#    z 0.290290 0.000000 4.355730 
# 
# 
# High freq. dielectric constant tensor:
#      x y z
#    x 1.787100 0.000000 0.015270 
#    y 0.000000 1.765780 0.000000 
#    z 0.015270 0.000000 1.816470 
# 
# From -- ./inp_files/87855.got.cif
#   From: 2010.06.25/outbox.cif.g09.slc.cpg/sg13_44_cif.got.tgz:87855.got - 2010.06.28 04:50:58.
