data_PCOD8118080
_publ_section_title
;
Structure prediction by ZEFSAII (Michael W. Deem and Ramdas Pophale) SiO2 
 PCOD8118080
Probable space group: P 2/C
;
_chemical_formula_sum "Si O2"
_cell_formula_units_Z 24
_cell_length_a 8.345959
_cell_length_b 14.575262
_cell_length_c 18.415369
_cell_angle_alpha 90.000000
_cell_angle_beta 33.205766
_cell_angle_gamma 90.000000
_cell_volume 1226.800928
_symmetry_space_group_name_H-M "P 2/C"
_symmetry_group_IT_number 13
_symmetry_cell_setting 'monoclinic'
loop_
_space_group_symop_operation_xyz
x,y,z
-x,y,1/2-z
-x,-y,-z
x,-y,1/2+z
loop_
_atom_site_type_symbol
_atom_site_label
_atom_site_fract_x
_atom_site_fract_y
_atom_site_fract_z
Si Si1 0.329298 0.635265 0.239954
Si Si2 0.731140 0.867719 0.601771
Si Si3 0.684852 0.292567 0.006315
Si Si4 0.627417 0.929110 0.120531
Si Si5 0.656475 0.209038 0.870458
Si Si6 0.659748 0.532321 0.866304
O O1 0.500000 0.636514 0.250000
O O2 0.463458 0.716424 0.140868
O O3 0.397887 0.539319 0.175903
O O4 0.982409 0.652047 0.376851
O O5 0.500000 0.838438 0.750000
O O6 0.750620 0.783292 0.540655
O O7 0.053084 0.885548 0.511302
O O8 0.626772 0.962445 0.604191
O O9 0.456262 0.369612 0.118173
O O10 0.536877 0.238271 0.994611
O O11 0.500000 0.908627 0.250000
O O12 0.435320 0.888933 0.127450
O O13 0.000000 0.208710 0.750000
O O14 0.000000 0.542103 0.750000
O O15 0.500000 0.500000 0.000000
#
# Coordination Sequence:
#
# PCOD8118080 Si02
#       6
#     4   4   4   4   4   4
#     4  11  22  39  66  92 116 162 216 251 304 382
#     4  10  23  41  61  93 131 163 205 265 314 365
#     4  11  23  40  63  90 128 163 207 261 314 375
#     4  10  20  40  67  90 126 171 206 251 315 374
#     4  10  19  35  63  94 121 162 209 256 302 377
#     4  12  23  45  64  87 127 166 203 261 322 367
#
# _framework density 19.563075999999999
#
# number of rings (size 3 to 8) (size 9 to 14) (size 15 to 20)
#    0.000    1.333    3.333    4.000    0.000    3.333 
#    3.000    0.833    0.000    0.000    0.000    0.000 
#    0.000    0.000    0.000    0.000    0.000    0.000 
#
# Total GULP energy -297521.863757 kJ/mol
# GULP energy per Si atom -12396.744323 kJ/mol
# Density = 1.951855 g / cm^3
# Si number density = 19.563076 Si / 1000 Ang^3
#
#
#
# Elastic Constant Matrix: (Units=GPa)
#
#
# Indices 1 2 3 4 5 6 
#
# 1 94.4181 45.3660 14.9063 0.0000 9.8888 0.0000
# 2 45.3660 124.9787 24.3452 0.0000 10.9903 0.0000
# 3 14.9063 24.3452 87.4144 0.0000 2.7434 0.0000
# 4 0.0000 0.0000 0.0000 26.2823 0.0000 -8.1222
# 5 9.8888 10.9903 2.7434 0.0000 20.8042 0.0000
# 6 0.0000 0.0000 0.0000 -8.1222 0.0000 -14.6949
#
#
#
# Elastic Compliance Matrix: (Units=1/GPa)
#
#
# Indices 1 2 3 4 5 6 
#
# 1 0.013197 -0.004264 -0.000940 0.000000 -0.003896 0.000000
# 2 -0.004264 0.010216 -0.002021 0.000000 -0.003103 0.000000
# 3 -0.000940 -0.002021 0.012166 0.000000 -0.000090 0.000000
# 4 0.000000 0.000000 0.000000 0.032498 0.000000 -0.017962
# 5 -0.003896 -0.003103 -0.000090 0.000000 0.051570 0.000000
# 6 0.000000 0.000000 0.000000 -0.017962 0.000000 -0.058123
#
#
# Mechanical properties :
#
#
# Convention : Reuss Voigt Hill
#
# Bulk Modulus (GPa) = 47.33213 52.89400 50.11306
# Shear Modulus (GPa) = 60.22885 21.29121 40.76003
#
# Velocity S-wave (km/s) = 5.55462 3.30257 4.56951
# Velocity P-wave (km/s) = 8.08614 6.45283 7.31521
#
# Compressibility (1/GPa) = 0.02112730
#
# Stress axis : x y z
#
# Youngs Moduli (GPa) = 75.77659 97.88747 82.19845
#
# Poissons Ratio (x) = 0.41744 0.07730
# Poissons Ratio (y) = 0.32315 0.16609
# Poissons Ratio (z) = 0.07126 0.19779
#
# Static dielectric constant tensor:
#      x y z
#    x 3.490940 0.000000 0.002680 
#    y 0.000000 3.830840 0.000000 
#    z 0.002680 0.000000 3.648670 
# 
# 
# High freq. dielectric constant tensor:
#      x y z
#    x 1.757370 0.000000 -0.003250 
#    y 0.000000 1.776830 0.000000 
#    z -0.003250 0.000000 1.756600 
# 
# From -- ./inp_files/64585.got.cif
#   From: 2010.06.25/outbox.cif.g09.slc.cpg/sg13_33_cif.got.tgz:64585.got - 2010.06.28 04:50:58.
