data_PCOD8118552
_publ_section_title
;
Structure prediction by ZEFSAII (Michael W. Deem and Ramdas Pophale) SiO2 
 PCOD8118552
Probable space group: P 2/C
;
_chemical_formula_sum "Si O2"
_cell_formula_units_Z 22
_cell_length_a 13.067962
_cell_length_b 12.722156
_cell_length_c 9.080150
_cell_angle_alpha 90.000000
_cell_angle_beta 50.671092
_cell_angle_gamma 90.000000
_cell_volume 1167.705850
_symmetry_space_group_name_H-M "P 2/C"
_symmetry_group_IT_number 13
_symmetry_cell_setting 'monoclinic'
loop_
_space_group_symop_operation_xyz
x,y,z
-x,y,1/2-z
-x,-y,-z
x,-y,1/2+z
loop_
_atom_site_type_symbol
_atom_site_label
_atom_site_fract_x
_atom_site_fract_y
_atom_site_fract_z
Si Si1 0.817531 0.530170 0.162621
Si Si2 0.652309 0.900185 0.271718
Si Si3 0.631704 0.307557 0.947809
Si Si4 0.336978 0.104699 0.070644
Si Si5 0.000000 0.506354 0.750000
Si Si6 0.324508 0.687345 0.750471
O O1 0.686371 0.595450 0.305191
O O2 0.773190 0.407434 0.206538
O O3 0.922256 0.559577 0.196168
O O4 0.885950 0.567450 0.946196
O O5 0.694072 0.796695 0.321081
O O6 0.494473 0.900767 0.420407
O O7 0.713627 0.001772 0.296661
O O8 0.713070 0.895973 0.052041
O O9 0.680932 0.303090 0.069530
O O10 0.476763 0.327369 0.066973
O O11 0.278741 0.205945 0.210114
#
# Coordination Sequence:
#
# PCOD8118552 Si02
#       6
#     4   4   4   4   2   4
#     4  11  21  40  54  80 103 141 180 226 264 319
#     4   9  17  29  47  74 109 144 175 206 253 319
#     4  10  20  33  53  81 113 142 170 216 271 319
#     4   9  17  29  47  74 109 144 175 206 253 319
#     4  10  24  38  58  70 102 142 192 220 262 306
#     4  10  20  33  53  81 113 142 170 216 271 319
#
# _framework density 18.840358999999999
#
# number of rings (size 3 to 8) (size 9 to 14) (size 15 to 20)
#    0.000    2.182    1.818    1.636    2.545    4.364 
#    0.000    0.000    0.000    0.000    0.000    7.636 
#    0.000    0.000    0.000    0.000    0.000    0.000 
#
# Total GULP energy -272562.892929 kJ/mol
# GULP energy per Si atom -12389.222406 kJ/mol
# Density = 1.879748 g / cm^3
# Si number density = 18.840359 Si / 1000 Ang^3
#
#
#
# Elastic Constant Matrix: (Units=GPa)
#
#
# Indices 1 2 3 4 5 6 
#
# 1 52.5501 35.7937 33.9494 0.0000 12.7805 0.0000
# 2 35.7937 123.9045 49.7878 0.0000 4.5247 0.0000
# 3 33.9494 49.7878 125.4612 0.0000 17.6109 0.0000
# 4 0.0000 0.0000 0.0000 21.4178 0.0000 12.5015
# 5 12.7805 4.5247 17.6109 0.0000 19.0272 0.0000
# 6 0.0000 0.0000 0.0000 12.5015 0.0000 9.0403
#
#
#
# Elastic Compliance Matrix: (Units=1/GPa)
#
#
# Indices 1 2 3 4 5 6 
#
# 1 0.029278 -0.006634 -0.003162 0.000000 -0.015162 0.000000
# 2 -0.006634 0.011139 -0.003309 0.000000 0.004869 0.000000
# 3 -0.003162 -0.003309 0.011184 0.000000 -0.007441 0.000000
# 4 0.000000 0.000000 0.000000 0.242132 0.000000 -0.334834
# 5 -0.015162 0.004869 -0.007441 0.000000 0.068469 0.000000
# 6 0.000000 0.000000 0.000000 -0.334834 0.000000 0.573644
#
#
# Mechanical properties :
#
#
# Convention : Reuss Voigt Hill
#
# Bulk Modulus (GPa) = 39.38251 60.10863 49.74557
# Shear Modulus (GPa) = 5.15189 22.05605 13.60397
#
# Velocity S-wave (km/s) = 1.65543 3.42523 2.69004
# Velocity P-wave (km/s) = 4.96010 6.90046 6.00912
#
# Compressibility (1/GPa) = 0.02539198
#
# Stress axis : x y z
#
# Youngs Moduli (GPa) = 34.15535 89.77629 89.41640
#
# Poissons Ratio (x) = 0.59555 0.28271
# Poissons Ratio (y) = 0.22658 0.29586
# Poissons Ratio (z) = 0.10799 0.29705
#
# Static dielectric constant tensor:
#      x y z
#    x 3.188520 0.000000 0.254960 
#    y 0.000000 3.447930 0.000000 
#    z 0.254960 0.000000 3.690150 
# 
# 
# High freq. dielectric constant tensor:
#      x y z
#    x 1.701810 0.000000 0.030830 
#    y 0.000000 1.720180 0.000000 
#    z 0.030830 0.000000 1.739960 
# 
# From -- ./inp_files/18401.got.cif
#   From: 2010.06.25/outbox.cif.g09.slc.cpg/sg13_10_cif.got.tgz:18401.got - 2010.06.28 04:50:58.
