data_PCOD8118156
_publ_section_title
;
Structure prediction by ZEFSAII (Michael W. Deem and Ramdas Pophale) SiO2 
 PCOD8118156
Probable space group: P 2/C
;
_chemical_formula_sum "Si O2"
_cell_formula_units_Z 28
_cell_length_a 23.844575
_cell_length_b 8.744533
_cell_length_c 18.701168
_cell_angle_alpha 90.000000
_cell_angle_beta 158.640060
_cell_angle_gamma 90.000000
_cell_volume 1420.252459
_symmetry_space_group_name_H-M "P 2/C"
_symmetry_group_IT_number 13
_symmetry_cell_setting 'monoclinic'
loop_
_space_group_symop_operation_xyz
x,y,z
-x,y,1/2-z
-x,-y,-z
x,-y,1/2+z
loop_
_atom_site_type_symbol
_atom_site_label
_atom_site_fract_x
_atom_site_fract_y
_atom_site_fract_z
Si Si1 0.544080 0.811973 0.476858
Si Si2 0.031797 0.898321 0.969038
Si Si3 0.660232 0.662275 0.983581
Si Si4 0.637521 0.871031 0.369004
Si Si5 0.112299 0.894279 0.322111
Si Si6 0.769947 0.333771 0.148411
Si Si7 0.629885 0.157502 0.591575
O O1 0.409694 0.783702 0.259430
O O2 0.685289 0.702783 0.623340
O O3 0.492732 0.777258 0.496604
O O4 0.592240 0.987062 0.522792
O O5 0.939787 0.737641 0.857855
O O6 0.206587 0.842629 0.174837
O O7 0.991471 0.011183 0.856465
O O8 0.000000 0.000000 0.000000
O O9 0.500000 0.632847 0.750000
O O10 0.787102 0.760184 0.092441
O O11 0.759320 0.512563 0.120598
O O12 0.615656 0.739461 0.005172
O O13 0.500000 0.958165 0.250000
O O14 0.690881 0.742665 0.486847
O O15 0.767652 0.989101 0.499920
O O16 0.000000 0.827013 0.250000
#
# Coordination Sequence:
#
# PCOD8118156 Si02
#       7
#     4   4   4   4   4   4   4
#     4  10  19  36  60  91 113 152 208 249 289 340
#     4  11  20  41  63  88 119 155 200 249 304 356
#     4  12  24  41  58  85 123 164 197 241 304 365
#     4   9  17  36  62  83 110 151 200 247 289 346
#     4  11  22  37  61  89 117 156 203 248 293 350
#     4  10  22  39  62  83 120 160 194 237 299 362
#     4  11  22  36  61  89 121 152 198 256 297 350
#
# _framework density 19.714804999999998
#
# number of rings (size 3 to 8) (size 9 to 14) (size 15 to 20)
#    0.000    1.429    2.857    5.143    0.000    2.286 
#    0.000    5.714    0.000    0.000    0.000    0.000 
#    0.000    0.000    0.000    0.000    0.000    0.000 
#
# Total GULP energy -347038.670695 kJ/mol
# GULP energy per Si atom -12394.238239 kJ/mol
# Density = 1.966993 g / cm^3
# Si number density = 19.714805 Si / 1000 Ang^3
#
#
#
# Elastic Constant Matrix: (Units=GPa)
#
#
# Indices 1 2 3 4 5 6 
#
# 1 109.2389 47.1311 23.5203 0.0000 13.8381 0.0000
# 2 47.1311 86.2519 15.7850 0.0000 15.8812 0.0000
# 3 23.5203 15.7850 63.2664 0.0000 3.5707 0.0000
# 4 0.0000 0.0000 0.0000 22.7311 0.0000 1.7500
# 5 13.8381 15.8812 3.5707 0.0000 24.0363 0.0000
# 6 0.0000 0.0000 0.0000 1.7500 0.0000 10.5596
#
#
#
# Elastic Compliance Matrix: (Units=1/GPa)
#
#
# Indices 1 2 3 4 5 6 
#
# 1 0.012718 -0.005827 -0.003104 0.000000 -0.003011 0.000000
# 2 -0.005827 0.016390 -0.001514 0.000000 -0.007249 0.000000
# 3 -0.003104 -0.001514 0.017326 0.000000 0.000214 0.000000
# 4 0.000000 0.000000 0.000000 0.044561 0.000000 -0.007385
# 5 -0.003011 -0.007249 0.000214 0.000000 0.048095 0.000000
# 6 0.000000 0.000000 0.000000 -0.007385 0.000000 0.095925
#
#
# Mechanical properties :
#
#
# Convention : Reuss Voigt Hill
#
# Bulk Modulus (GPa) = 39.14910 47.95887 43.55398
# Shear Modulus (GPa) = 18.90932 22.95347 20.93139
#
# Velocity S-wave (km/s) = 3.10036 3.41585 3.26192
# Velocity P-wave (km/s) = 5.71989 6.31953 6.02717
#
# Compressibility (1/GPa) = 0.02554337
#
# Stress axis : x y z
#
# Youngs Moduli (GPa) = 78.62762 61.01293 57.71701
#
# Poissons Ratio (x) = 0.35553 0.17918
# Poissons Ratio (y) = 0.45818 0.08737
# Poissons Ratio (z) = 0.24409 0.09236
#
# Static dielectric constant tensor:
#      x y z
#    x 3.632620 0.000000 -0.028350 
#    y 0.000000 3.423200 0.000000 
#    z -0.028350 0.000000 3.954140 
# 
# 
# High freq. dielectric constant tensor:
#      x y z
#    x 1.776680 0.000000 -0.004690 
#    y 0.000000 1.745120 0.000000 
#    z -0.004690 0.000000 1.777130 
# 
# From -- ./inp_files/82229.got.cif
#   From: 2010.06.25/outbox.cif.g09.slc.cpg/sg13_42_cif.got.tgz:82229.got - 2010.06.28 04:50:58.
