data_PCOD8118301
_publ_section_title
;
Structure prediction by ZEFSAII (Michael W. Deem and Ramdas Pophale) SiO2 
 PCOD8118301
Probable space group: P 2/C
;
_chemical_formula_sum "Si O2"
_cell_formula_units_Z 20
_cell_length_a 7.525429
_cell_length_b 9.294949
_cell_length_c 16.791872
_cell_angle_alpha 90.000000
_cell_angle_beta 53.784432
_cell_angle_gamma 90.000000
_cell_volume 947.639543
_symmetry_space_group_name_H-M "P 2/C"
_symmetry_group_IT_number 13
_symmetry_cell_setting 'monoclinic'
loop_
_space_group_symop_operation_xyz
x,y,z
-x,y,1/2-z
-x,-y,-z
x,-y,1/2+z
loop_
_atom_site_type_symbol
_atom_site_label
_atom_site_fract_x
_atom_site_fract_y
_atom_site_fract_z
Si Si1 0.317462 0.677397 0.435531
Si Si2 0.599847 0.637116 0.637143
Si Si3 0.940840 0.845263 0.481639
Si Si4 0.807395 0.393092 0.361757
Si Si5 0.201814 0.729149 0.140928
O O1 0.302988 0.520595 0.401192
O O2 0.187508 0.685333 0.554590
O O3 0.562746 0.744636 0.377447
O O4 0.179618 0.771350 0.409800
O O5 0.500000 0.648206 0.750000
O O6 0.785787 0.758903 0.583891
O O7 0.419328 0.658797 0.616698
O O8 0.817587 0.837697 0.428923
O O9 0.000000 0.000000 0.500000
O O10 0.816022 0.562463 0.379968
O O11 0.000000 0.347239 0.250000
O O12 0.000000 0.773225 0.250000
#
# Coordination Sequence:
#
# PCOD8118301 Si02
#       5
#     4   4   4   4   4
#     4  11  22  41  70  93 129 167 217 275 330 370
#     4  11  22  40  66 101 129 163 221 277 320 384
#     4  12  26  43  62  94 137 177 214 258 321 398
#     4  10  19  37  68  99 127 162 215 279 334 368
#     4  10  22  41  65  97 125 163 219 271 321 384
#
# _framework density 21.105072
#
# number of rings (size 3 to 8) (size 9 to 14) (size 15 to 20)
#    0.000    1.200    4.000    3.000    8.400    0.800 
#    3.600    1.000    0.000    0.000    0.000    0.000 
#    0.000    0.000    0.000    0.000    0.000    0.000 
#
# Total GULP energy -247907.318589 kJ/mol
# GULP energy per Si atom -12395.365929 kJ/mol
# Density = 2.105704 g / cm^3
# Si number density = 21.105072 Si / 1000 Ang^3
#
#
#
# Elastic Constant Matrix: (Units=GPa)
#
#
# Indices 1 2 3 4 5 6 
#
# 1 91.7815 65.2769 21.7102 0.0000 -14.7366 0.0000
# 2 65.2769 105.0755 37.9519 0.0000 -11.8807 0.0000
# 3 21.7102 37.9519 105.0189 0.0000 -13.0443 0.0000
# 4 0.0000 0.0000 0.0000 121.1144 0.0000 18.5991
# 5 -14.7366 -11.8807 -13.0443 0.0000 37.5840 0.0000
# 6 0.0000 0.0000 0.0000 18.5991 0.0000 37.8644
#
#
#
# Elastic Compliance Matrix: (Units=1/GPa)
#
#
# Indices 1 2 3 4 5 6 
#
# 1 0.020167 -0.012340 0.000824 0.000000 0.004292 0.000000
# 2 -0.012340 0.018671 -0.004247 0.000000 -0.000411 0.000000
# 3 0.000824 -0.004247 0.011245 0.000000 0.002883 0.000000
# 4 0.000000 0.000000 0.000000 0.008930 0.000000 -0.004387
# 5 0.004292 -0.000411 0.002883 0.000000 0.029161 0.000000
# 6 0.000000 0.000000 0.000000 -0.004387 0.000000 0.028565
#
#
# Mechanical properties :
#
#
# Convention : Reuss Voigt Hill
#
# Bulk Modulus (GPa) = 53.89546 61.30598 57.60072
# Shear Modulus (GPa) = 32.37279 51.10834 41.74057
#
# Velocity S-wave (km/s) = 3.92074 4.92633 4.45202
# Velocity P-wave (km/s) = 6.78884 7.84024 7.33341
#
# Compressibility (1/GPa) = 0.01855444
#
# Stress axis : x y z
#
# Youngs Moduli (GPa) = 49.58717 53.55926 88.93011
#
# Poissons Ratio (x) = 0.66094 -0.07326
# Poissons Ratio (y) = 0.61193 0.37771
# Poissons Ratio (z) = -0.04085 0.22748
#
# Static dielectric constant tensor:
#      x y z
#    x 4.270810 0.000000 0.312270 
#    y 0.000000 3.375970 0.000000 
#    z 0.312270 0.000000 5.207280 
# 
# 
# High freq. dielectric constant tensor:
#      x y z
#    x 1.848540 0.000000 -0.006420 
#    y 0.000000 1.776320 0.000000 
#    z -0.006420 0.000000 1.837360 
# 
# From -- ./inp_files/63641.got.cif
#   From: 2010.06.25/outbox.cif.g09.slc.cpg/sg13_32_cif.got.tgz:63641.got - 2010.06.28 04:50:58.
