data_PCOD8118507
_publ_section_title
;
Structure prediction by ZEFSAII (Michael W. Deem and Ramdas Pophale) SiO2 
 PCOD8118507
Probable space group: P 2/C
;
_chemical_formula_sum "Si O2"
_cell_formula_units_Z 28
_cell_length_a 13.202728
_cell_length_b 21.133138
_cell_length_c 5.548520
_cell_angle_alpha 90.000000
_cell_angle_beta 119.019915
_cell_angle_gamma 90.000000
_cell_volume 1353.755926
_symmetry_space_group_name_H-M "P 2/C"
_symmetry_group_IT_number 13
_symmetry_cell_setting 'monoclinic'
loop_
_space_group_symop_operation_xyz
x,y,z
-x,y,1/2-z
-x,-y,-z
x,-y,1/2+z
loop_
_atom_site_type_symbol
_atom_site_label
_atom_site_fract_x
_atom_site_fract_y
_atom_site_fract_z
Si Si1 0.380440 0.255788 0.991449
Si Si2 0.500000 0.824715 0.250000
Si Si3 0.868339 0.037851 0.599675
Si Si4 0.862876 0.532584 0.600271
Si Si5 0.000000 0.306064 0.750000
Si Si6 0.886764 0.779389 0.736811
Si Si7 0.191556 0.338847 0.642712
Si Si8 0.292972 0.853133 0.716021
O O1 0.500000 0.273922 0.250000
O O2 0.304020 0.207837 0.060341
O O3 0.407004 0.220767 0.770892
O O4 0.317305 0.324598 0.901263
O O5 0.578636 0.868139 0.521693
O O6 0.764601 0.089230 0.495767
O O7 0.000000 0.066378 0.750000
O O8 0.850546 0.001449 0.325309
O O9 0.819251 0.499500 0.299542
O O10 0.806340 0.602920 0.540512
O O11 0.000000 0.537109 0.750000
O O12 0.917137 0.260562 0.506244
O O13 0.915235 0.353463 0.798492
O O14 0.832185 0.730040 0.491245
O O15 0.799110 0.836412 0.681829
O O16 0.000000 0.811454 0.750000
#
# Coordination Sequence:
#
# PCOD8118507 Si02
#       8
#     4   2   4   4   2   4   4   4
#     4  10  22  39  62  91 120 159 205 266 328 374
#     4  10  22  42  60  94 122 160 210 268 320 392
#     4  10  25  45  66  96 133 174 215 257 310 380
#     4  10  23  38  57  85 125 173 211 250 304 376
#     4  10  20  32  50  90 122 146 192 252 312 386
#     4  10  21  32  55  93 121 155 193 256 324 384
#     4  11  21  36  59  86 125 160 204 255 319 383
#     4  11  22  39  67  89 129 165 210 261 319 384
#
# _framework density 20.683195000000001
#
# number of rings (size 3 to 8) (size 9 to 14) (size 15 to 20)
#    0.000    1.714    2.857    1.286    8.000    1.714 
#    0.000    0.714    0.000    0.857    0.000    0.000 
#    0.000    0.000    0.000    0.000    0.000    0.000 
#
# Total GULP energy -346938.012614 kJ/mol
# GULP energy per Si atom -12390.643308 kJ/mol
# Density = 2.063612 g / cm^3
# Si number density = 20.683195 Si / 1000 Ang^3
#
#
#
# Elastic Constant Matrix: (Units=GPa)
#
#
# Indices 1 2 3 4 5 6 
#
# 1 83.4420 34.9608 34.4602 0.0000 5.4331 0.0000
# 2 34.9608 61.9419 35.0415 0.0000 13.8804 0.0000
# 3 34.4602 35.0415 105.1889 0.0000 -0.0381 0.0000
# 4 0.0000 0.0000 0.0000 31.1309 0.0000 7.0781
# 5 5.4331 13.8804 -0.0381 0.0000 34.0653 0.0000
# 6 0.0000 0.0000 0.0000 7.0781 0.0000 14.6442
#
#
#
# Elastic Compliance Matrix: (Units=1/GPa)
#
#
# Indices 1 2 3 4 5 6 
#
# 1 0.016354 -0.007795 -0.002761 0.000000 0.000565 0.000000
# 2 -0.007795 0.026136 -0.006156 0.000000 -0.009413 0.000000
# 3 -0.002761 -0.006156 0.012463 0.000000 0.002963 0.000000
# 4 0.000000 0.000000 0.000000 0.036088 0.000000 -0.017443
# 5 0.000565 -0.009413 0.002963 0.000000 0.033104 0.000000
# 6 0.000000 0.000000 0.000000 -0.017443 0.000000 0.076717
#
#
# Mechanical properties :
#
#
# Convention : Reuss Voigt Hill
#
# Bulk Modulus (GPa) = 46.44982 51.05530 48.75256
# Shear Modulus (GPa) = 20.70713 25.70877 23.20795
#
# Velocity S-wave (km/s) = 3.16754 3.52941 3.35336
# Velocity P-wave (km/s) = 5.99035 6.43017 6.21415
#
# Compressibility (1/GPa) = 0.02152861
#
# Stress axis : x y z
#
# Youngs Moduli (GPa) = 61.14839 38.26145 80.23753
#
# Poissons Ratio (x) = 0.29825 0.22150
# Poissons Ratio (y) = 0.47666 0.49397
# Poissons Ratio (z) = 0.16880 0.23555
#
# Static dielectric constant tensor:
#      x y z
#    x 1.028280 0.000000 -4.834010 
#    y 0.000000 3.370070 0.000000 
#    z -4.834010 0.000000 -3.890870 
# 
# 
# High freq. dielectric constant tensor:
#      x y z
#    x 1.800860 0.000000 -0.002520 
#    y 0.000000 1.771550 0.000000 
#    z -0.002520 0.000000 1.829380 
# 
# From -- ./inp_files/5412.got.cif
#   From: 2010.06.25/outbox.cif.g09.slc.cpg/sg13_3_cif.got.tgz:5412.got - 2010.06.28 04:50:58.
