data_PCOD8118966
_publ_section_title
;
Structure prediction by ZEFSAII (Michael W. Deem and Ramdas Pophale) SiO2 
 PCOD8118966
Probable space group: P 2/C
;
_chemical_formula_sum "Si O2"
_cell_formula_units_Z 32
_cell_length_a 13.980667
_cell_length_b 9.454289
_cell_length_c 13.516601
_cell_angle_alpha 90.000000
_cell_angle_beta 66.127021
_cell_angle_gamma 90.000000
_cell_volume 1633.735745
_symmetry_space_group_name_H-M "P 2/C"
_symmetry_group_IT_number 13
_symmetry_cell_setting 'monoclinic'
loop_
_space_group_symop_operation_xyz
x,y,z
-x,y,1/2-z
-x,-y,-z
x,-y,1/2+z
loop_
_atom_site_type_symbol
_atom_site_label
_atom_site_fract_x
_atom_site_fract_y
_atom_site_fract_z
Si Si1 0.842066 0.605965 0.339918
Si Si2 0.700206 0.160414 0.819035
Si Si3 0.201653 0.216487 0.916717
Si Si4 0.516466 0.261987 0.544087
Si Si5 0.577722 0.755414 0.627082
Si Si6 0.682119 0.470758 0.542557
Si Si7 0.320273 0.974753 0.495529
Si Si8 0.969799 0.609353 0.097531
O O1 0.783351 0.751075 0.346269
O O2 0.762558 0.489961 0.417112
O O3 0.890634 0.547974 0.215608
O O4 0.926360 0.651325 0.387388
O O5 0.742025 0.127036 0.693079
O O6 0.687862 0.015239 0.885386
O O7 0.593997 0.251262 0.853566
O O8 0.261205 0.366725 0.904026
O O9 0.082274 0.254219 0.936157
O O10 0.214910 0.111276 0.005233
O O11 0.497432 0.257059 0.435566
O O12 0.573923 0.407590 0.546592
O O13 0.583455 0.131097 0.555081
O O14 0.500000 0.776320 0.750000
O O15 0.652456 0.618050 0.608151
O O16 0.655374 0.889057 0.582630
O O17 0.000000 0.500000 0.000000
#
# Coordination Sequence:
#
# PCOD8118966 Si02
#       8
#     4   4   4   4   4   4   4   4
#     4  10  20  36  60  88 117 151 185 252 301 355
#     4  10  20  38  59  81 123 163 192 238 302 346
#     4  10  23  36  65  86 113 158 205 246 299 363
#     4  10  22  36  55  82 122 162 194 239 287 349
#     4  11  23  33  54  83 125 162 200 240 286 338
#     4  11  21  37  55  91 121 151 203 244 293 354
#     4  10  22  38  56  85 118 163 205 237 282 365
#     4  10  20  38  63  88 114 146 195 246 311 358
#
# _framework density 19.587011
#
# number of rings (size 3 to 8) (size 9 to 14) (size 15 to 20)
#    0.000    1.750    3.750    1.875    5.250    2.000 
#    0.000    0.625    0.000    0.000    0.000    0.000 
#    0.000    0.000    0.000    0.000    0.000    0.000 
#
# Total GULP energy -396615.744458 kJ/mol
# GULP energy per Si atom -12394.242014 kJ/mol
# Density = 1.954243 g / cm^3
# Si number density = 19.587011 Si / 1000 Ang^3
#
#
#
# Elastic Constant Matrix: (Units=GPa)
#
#
# Indices 1 2 3 4 5 6 
#
# 1 102.9939 29.2658 6.7043 0.0000 -0.6433 0.0000
# 2 29.2658 92.4535 14.8917 0.0000 -0.5077 0.0000
# 3 6.7043 14.8917 64.6469 0.0000 -7.9099 0.0000
# 4 0.0000 0.0000 0.0000 18.1309 0.0000 4.3391
# 5 -0.6433 -0.5077 -7.9099 0.0000 23.3747 0.0000
# 6 0.0000 0.0000 0.0000 4.3391 0.0000 26.0141
#
#
#
# Elastic Compliance Matrix: (Units=1/GPa)
#
#
# Indices 1 2 3 4 5 6 
#
# 1 0.010676 -0.003326 -0.000327 0.000000 0.000111 0.000000
# 2 -0.003326 0.012279 -0.002569 0.000000 -0.000694 0.000000
# 3 -0.000327 -0.002569 0.016781 0.000000 0.005614 0.000000
# 4 0.000000 0.000000 0.000000 0.057448 0.000000 -0.009582
# 5 0.000111 -0.000694 0.005614 0.000000 0.044669 0.000000
# 6 0.000000 0.000000 0.000000 -0.009582 0.000000 0.040039
#
#
# Mechanical properties :
#
#
# Convention : Reuss Voigt Hill
#
# Bulk Modulus (GPa) = 36.64036 40.20198 38.42117
# Shear Modulus (GPa) = 24.57797 27.45277 26.01537
#
# Velocity S-wave (km/s) = 3.54617 3.74783 3.64839
# Velocity P-wave (km/s) = 5.95938 6.26879 6.11604
#
# Compressibility (1/GPa) = 0.02729231
#
# Stress axis : x y z
#
# Youngs Moduli (GPa) = 93.66393 81.43946 59.59064
#
# Poissons Ratio (x) = 0.27089 0.01951
# Poissons Ratio (y) = 0.31155 0.15306
# Poissons Ratio (z) = 0.03067 0.20918
#
# Static dielectric constant tensor:
#      x y z
#    x 3.873220 0.000000 -0.025740 
#    y 0.000000 3.487690 0.000000 
#    z -0.025740 0.000000 3.729260 
# 
# 
# High freq. dielectric constant tensor:
#      x y z
#    x 1.771370 0.000000 0.008170 
#    y 0.000000 1.747180 0.000000 
#    z 0.008170 0.000000 1.756660 
# 
# From -- ./inp_files/53044.got.cif
#   From: 2010.06.25/outbox.cif.g09.slc.cpg/sg13_27_cif.got.tgz:53044.got - 2010.06.28 04:50:58.
