data_PCOD8118107
_publ_section_title
;
Structure prediction by ZEFSAII (Michael W. Deem and Ramdas Pophale) SiO2 
 PCOD8118107
Probable space group: P 2/C
;
_chemical_formula_sum "Si O2"
_cell_formula_units_Z 26
_cell_length_a 12.617607
_cell_length_b 6.260567
_cell_length_c 27.930556
_cell_angle_alpha 90.000000
_cell_angle_beta 145.549195
_cell_angle_gamma 90.000000
_cell_volume 1248.116751
_symmetry_space_group_name_H-M "P 2/C"
_symmetry_group_IT_number 13
_symmetry_cell_setting 'monoclinic'
loop_
_space_group_symop_operation_xyz
x,y,z
-x,y,1/2-z
-x,-y,-z
x,-y,1/2+z
loop_
_atom_site_type_symbol
_atom_site_label
_atom_site_fract_x
_atom_site_fract_y
_atom_site_fract_z
Si Si1 0.353955 0.310011 0.941742
Si Si2 0.801448 0.543030 0.815835
Si Si3 0.948461 0.633294 0.678259
Si Si4 0.898607 0.209813 0.015755
Si Si5 0.334699 0.913891 0.988903
Si Si6 0.811443 0.147358 0.881033
Si Si7 0.500000 0.824373 0.750000
O O1 0.156331 0.407026 0.852296
O O2 0.320259 0.171973 0.977972
O O3 0.500000 0.500000 0.000000
O O4 0.447136 0.146121 0.938757
O O5 0.762149 0.297072 0.816942
O O6 0.610952 0.677653 0.752928
O O7 0.867498 0.580398 0.785682
O O8 0.970916 0.607367 0.914024
O O9 0.814572 0.806395 0.603410
O O10 0.000000 0.722939 0.750000
O O11 0.708516 0.175041 0.974726
O O12 0.840101 0.280993 0.940630
O O13 0.998676 0.980529 0.057872
O O14 0.648524 0.976087 0.831651
#
# Coordination Sequence:
#
# PCOD8118107 Si02
#       7
#     4   4   4   4   4   4   2
#     4   9  18  35  55  79 112 147 192 233 280 333
#     4  10  20  38  59  79 118 152 186 240 288 339
#     4  10  21  37  56  85 113 154 196 228 283 348
#     4   9  19  34  59  87 103 148 196 232 292 346
#     4   9  18  36  56  81 115 147 186 248 281 326
#     4  10  19  36  57  81 115 145 191 238 285 348
#     4  10  22  38  50  84 116 148 190 226 298 342
#
# _framework density 20.831385999999998
#
# number of rings (size 3 to 8) (size 9 to 14) (size 15 to 20)
#    0.000    2.462    0.000    1.846    0.000    0.615 
#   13.846    0.000    0.000    0.000    0.000    0.000 
#    0.000    0.000    0.000    0.000    0.000    0.000 
#
# Total GULP energy -322165.907938 kJ/mol
# GULP energy per Si atom -12390.996459 kJ/mol
# Density = 2.078397 g / cm^3
# Si number density = 20.831386 Si / 1000 Ang^3
#
#
#
# Elastic Constant Matrix: (Units=GPa)
#
#
# Indices 1 2 3 4 5 6 
#
# 1 134.6659 26.9810 37.6073 0.0000 7.3925 0.0000
# 2 26.9810 85.9399 11.8849 0.0000 3.3200 0.0000
# 3 37.6073 11.8849 39.6608 0.0000 -0.6348 0.0000
# 4 0.0000 0.0000 0.0000 27.7399 0.0000 4.6813
# 5 7.3925 3.3200 -0.6348 0.0000 35.2506 0.0000
# 6 0.0000 0.0000 0.0000 4.6813 0.0000 25.3978
#
#
#
# Elastic Compliance Matrix: (Units=1/GPa)
#
#
# Indices 1 2 3 4 5 6 
#
# 1 0.010584 -0.001925 -0.009495 0.000000 -0.002209 0.000000
# 2 -0.001925 0.012541 -0.001946 0.000000 -0.000813 0.000000
# 3 -0.009495 -0.001946 0.034845 0.000000 0.002802 0.000000
# 4 0.000000 0.000000 0.000000 0.037206 0.000000 -0.006858
# 5 -0.002209 -0.000813 0.002802 0.000000 0.028959 0.000000
# 6 0.000000 0.000000 0.000000 -0.006858 0.000000 0.040638
#
#
# Mechanical properties :
#
#
# Convention : Reuss Voigt Hill
#
# Bulk Modulus (GPa) = 32.01125 45.91257 38.96191
# Shear Modulus (GPa) = 24.76269 29.93056 27.34663
#
# Velocity S-wave (km/s) = 3.45152 3.79463 3.62713
# Velocity P-wave (km/s) = 5.59323 6.42549 6.02375
#
# Compressibility (1/GPa) = 0.03123902
#
# Stress axis : x y z
#
# Youngs Moduli (GPa) = 94.48030 79.73986 28.69847
#
# Poissons Ratio (x) = 0.15346 0.27249
# Poissons Ratio (y) = 0.18183 0.05585
# Poissons Ratio (z) = 0.89708 0.15519
#
# Static dielectric constant tensor:
#      x y z
#    x 4.056440 0.000000 0.267960 
#    y 0.000000 3.944860 0.000000 
#    z 0.267960 0.000000 3.432740 
# 
# 
# High freq. dielectric constant tensor:
#      x y z
#    x 1.825330 0.000000 0.023280 
#    y 0.000000 1.819720 0.000000 
#    z 0.023280 0.000000 1.774320 
# 
# From -- ./inp_files/96902.got.cif
#   From: 2010.06.25/outbox.cif.g09.slc.cpg/sg13_49_cif.got.tgz:96902.got - 2010.06.28 04:50:58.
