data_PCOD8118298
_publ_section_title
;
Structure prediction by ZEFSAII (Michael W. Deem and Ramdas Pophale) SiO2 
 PCOD8118298
Probable space group: P 2/C
;
_chemical_formula_sum "Si O2"
_cell_formula_units_Z 30
_cell_length_a 13.451433
_cell_length_b 8.839989
_cell_length_c 18.666045
_cell_angle_alpha 90.000000
_cell_angle_beta 137.007591
_cell_angle_gamma 90.000000
_cell_volume 1513.541053
_symmetry_space_group_name_H-M "P 2/C"
_symmetry_group_IT_number 13
_symmetry_cell_setting 'monoclinic'
loop_
_space_group_symop_operation_xyz
x,y,z
-x,y,1/2-z
-x,-y,-z
x,-y,1/2+z
loop_
_atom_site_type_symbol
_atom_site_label
_atom_site_fract_x
_atom_site_fract_y
_atom_site_fract_z
Si Si1 0.236026 0.586501 0.473010
Si Si2 0.000000 0.529766 0.750000
Si Si3 0.632833 0.221265 0.770322
Si Si4 0.383638 0.844418 0.473707
Si Si5 0.251737 0.367446 0.285277
Si Si6 0.171951 0.486527 0.593383
Si Si7 0.339176 0.027321 0.324416
Si Si8 0.495253 0.398090 0.925560
O O1 0.079161 0.571108 0.352160
O O2 0.289600 0.754122 0.481835
O O3 0.231489 0.578104 0.556335
O O4 0.340121 0.454877 0.497473
O O5 0.883606 0.628929 0.731896
O O6 0.500000 0.167473 0.750000
O O7 0.766551 0.312688 0.878787
O O8 0.561171 0.339220 0.678994
O O9 0.696574 0.072267 0.764699
O O10 0.485716 0.959374 0.571943
O O11 0.485007 0.732416 0.479733
O O12 0.279766 0.939259 0.364265
O O13 0.222888 0.438525 0.193206
O O14 0.274426 0.192067 0.281685
O O15 0.390493 0.458653 0.392780
O O16 0.000000 0.500000 0.500000
#
# Coordination Sequence:
#
# PCOD8118298 Si02
#       8
#     4   2   4   4   4   4   4   4
#     4  12  21  37  65  96 119 163 215 269 309 365
#     4  12  24  36  66  94 124 164 216 262 316 364
#     4  10  21  39  63  91 123 168 207 262 314 379
#     4  10  20  37  60  95 126 160 198 271 314 368
#     4  11  22  41  64  96 125 168 210 269 310 380
#     4  11  24  42  63  92 130 165 219 267 318 372
#     4  10  22  37  60  93 137 157 202 258 328 377
#     4  10  19  37  67  91 118 153 225 268 303 351
#
# _framework density 19.821068
#
# number of rings (size 3 to 8) (size 9 to 14) (size 15 to 20)
#    0.000    1.333    5.333    1.200    0.000    1.067 
#    0.000    2.667    0.000    0.000    0.000    0.000 
#    0.000    0.000    0.000    0.000    0.000    0.000 
#
# Total GULP energy -371799.102416 kJ/mol
# GULP energy per Si atom -12393.303414 kJ/mol
# Density = 1.977595 g / cm^3
# Si number density = 19.821068 Si / 1000 Ang^3
#
#
#
# Elastic Constant Matrix: (Units=GPa)
#
#
# Indices 1 2 3 4 5 6 
#
# 1 108.7490 38.0010 21.5078 0.0000 -5.2305 0.0000
# 2 38.0010 113.1329 22.2313 0.0000 -0.6163 0.0000
# 3 21.5078 22.2313 56.4072 0.0000 4.9438 0.0000
# 4 0.0000 0.0000 0.0000 21.3133 0.0000 -8.3138
# 5 -5.2305 -0.6163 4.9438 0.0000 32.5086 0.0000
# 6 0.0000 0.0000 0.0000 -8.3138 0.0000 29.7186
#
#
#
# Elastic Compliance Matrix: (Units=1/GPa)
#
#
# Indices 1 2 3 4 5 6 
#
# 1 0.010999 -0.003057 -0.003181 0.000000 0.002195 0.000000
# 2 -0.003057 0.010450 -0.002967 0.000000 0.000157 0.000000
# 3 -0.003181 -0.002967 0.020432 0.000000 -0.003675 0.000000
# 4 0.000000 0.000000 0.000000 0.052666 0.000000 0.014733
# 5 0.002195 0.000157 -0.003675 0.000000 0.031676 0.000000
# 6 0.000000 0.000000 0.000000 0.014733 0.000000 0.037771
#
#
# Mechanical properties :
#
#
# Convention : Reuss Voigt Hill
#
# Bulk Modulus (GPa) = 42.60601 49.08548 45.84574
# Shear Modulus (GPa) = 26.28427 29.81137 28.04782
#
# Velocity S-wave (km/s) = 3.64549 3.88238 3.76580
# Velocity P-wave (km/s) = 6.26589 6.70188 6.48755
#
# Compressibility (1/GPa) = 0.02347087
#
# Stress axis : x y z
#
# Youngs Moduli (GPa) = 90.92090 95.69458 48.94165
#
# Poissons Ratio (x) = 0.29257 0.15569
# Poissons Ratio (y) = 0.27797 0.14519
# Poissons Ratio (z) = 0.28923 0.28389
#
# Static dielectric constant tensor:
#      x y z
#    x 1.419030 0.000000 4.819990 
#    y 0.000000 3.610650 0.000000 
#    z 4.819990 0.000000 -7.115640 
# 
# 
# High freq. dielectric constant tensor:
#      x y z
#    x 1.767840 0.000000 -0.020750 
#    y 0.000000 1.767640 0.000000 
#    z -0.020750 0.000000 1.777650 
# 
# From -- ./inp_files/79670.got.cif
#   From: 2010.06.25/outbox.cif.g09.slc.cpg/sg13_40_cif.got.tgz:79670.got - 2010.06.28 04:50:58.
