data_PCOD8118039
_publ_section_title
;
Structure prediction by ZEFSAII (Michael W. Deem and Ramdas Pophale) SiO2 
 PCOD8118039
Probable space group: P 2/C
;
_chemical_formula_sum "Si O2"
_cell_formula_units_Z 20
_cell_length_a 25.211101
_cell_length_b 5.075561
_cell_length_c 12.097089
_cell_angle_alpha 90.000000
_cell_angle_beta 150.875854
_cell_angle_gamma 90.000000
_cell_volume 753.392462
_symmetry_space_group_name_H-M "P 2/C"
_symmetry_group_IT_number 13
_symmetry_cell_setting 'monoclinic'
loop_
_space_group_symop_operation_xyz
x,y,z
-x,y,1/2-z
-x,-y,-z
x,-y,1/2+z
loop_
_atom_site_type_symbol
_atom_site_label
_atom_site_fract_x
_atom_site_fract_y
_atom_site_fract_z
Si Si1 0.463434 0.581499 0.808077
Si Si2 0.410608 0.085468 0.439338
Si Si3 0.810132 0.018876 0.076567
Si Si4 0.275906 0.285261 0.381984
Si Si5 0.884242 0.525419 0.093719
O O1 0.500000 0.533525 0.750000
O O2 0.335566 0.493638 0.574551
O O3 0.486398 0.885904 0.881829
O O4 0.545187 0.373852 0.023605
O O5 0.366132 0.101748 0.484608
O O6 0.315081 0.986885 0.187500
O O7 0.807199 0.099477 0.200567
O O8 0.877850 0.234033 0.131022
O O9 0.868620 0.738656 0.164071
O O10 0.210232 0.441695 0.169002
O O11 0.000000 0.571801 0.250000
#
# Coordination Sequence:
#
# PCOD8118039 Si02
#       5
#     4   4   4   4   4
#     4  10  19  35  59  87 127 168 198 241 301 358
#     4  10  21  38  58  90 130 163 200 246 297 363
#     4  11  24  42  67  95 123 164 211 256 315 375
#     4  10  24  41  66  94 127 167 212 258 305 370
#     4  11  26  46  65  91 125 159 209 271 321 372
#
# _framework density 26.546589000000001
#
# number of rings (size 3 to 8) (size 9 to 14) (size 15 to 20)
#    0.000    1.600    0.000    6.000    0.000   12.800 
#    0.000    0.000    0.000    2.400    0.000    0.000 
#    0.000    0.000    0.000    0.000    0.000    0.000 
#
# Total GULP energy -248118.546209 kJ/mol
# GULP energy per Si atom -12405.927310 kJ/mol
# Density = 2.648617 g / cm^3
# Si number density = 26.546589 Si / 1000 Ang^3
#
#
#
# Elastic Constant Matrix: (Units=GPa)
#
#
# Indices 1 2 3 4 5 6 
#
# 1 131.4656 37.4946 18.9716 0.0000 7.2640 0.0000
# 2 37.4946 119.2612 27.7145 0.0000 5.8830 0.0000
# 3 18.9716 27.7145 41.2283 0.0000 3.2521 0.0000
# 4 0.0000 0.0000 0.0000 28.0875 0.0000 1.2778
# 5 7.2640 5.8830 3.2521 0.0000 40.4308 0.0000
# 6 0.0000 0.0000 0.0000 1.2778 0.0000 52.6900
#
#
#
# Elastic Compliance Matrix: (Units=1/GPa)
#
#
# Indices 1 2 3 4 5 6 
#
# 1 0.008616 -0.002080 -0.002484 0.000000 -0.001046 0.000000
# 2 -0.002080 0.010473 -0.006031 0.000000 -0.000665 0.000000
# 3 -0.002484 -0.006031 0.029535 0.000000 -0.001052 0.000000
# 4 0.000000 0.000000 0.000000 0.035642 0.000000 -0.000864
# 5 -0.001046 -0.000665 -0.001052 0.000000 0.025103 0.000000
# 6 0.000000 0.000000 0.000000 -0.000864 0.000000 0.019000
#
#
# Mechanical properties :
#
#
# Convention : Reuss Voigt Hill
#
# Bulk Modulus (GPa) = 36.44995 51.14627 43.79811
# Shear Modulus (GPa) = 31.50525 38.09328 34.79927
#
# Velocity S-wave (km/s) = 3.44872 3.79220 3.62453
# Velocity P-wave (km/s) = 5.44230 6.20345 5.83530
#
# Compressibility (1/GPa) = 0.02743488
#
# Stress axis : x y z
#
# Youngs Moduli (GPa) = 116.06303 95.48253 33.85799
#
# Poissons Ratio (x) = 0.19860 0.08411
# Poissons Ratio (y) = 0.24141 0.20419
# Poissons Ratio (z) = 0.28831 0.57582
#
# Static dielectric constant tensor:
#      x y z
#    x 5.362310 0.000000 -0.519740 
#    y 0.000000 4.903670 0.000000 
#    z -0.519740 0.000000 4.927330 
# 
# 
# High freq. dielectric constant tensor:
#      x y z
#    x 2.106630 0.000000 -0.026530 
#    y 0.000000 2.076410 0.000000 
#    z -0.026530 0.000000 2.042190 
# 
# From -- ./inp_files/42563.got.cif
#   From: 2010.06.25/outbox.cif.g09.slc.cpg/sg13_22_cif.got.tgz:42563.got - 2010.06.28 04:50:58.
