data_PCOD8118519
_publ_section_title
;
Structure prediction by ZEFSAII (Michael W. Deem and Ramdas Pophale) SiO2 
 PCOD8118519
Probable space group: P 2/C
;
_chemical_formula_sum "Si O2"
_cell_formula_units_Z 30
_cell_length_a 8.641744
_cell_length_b 9.331082
_cell_length_c 22.390022
_cell_angle_alpha 90.000000
_cell_angle_beta 58.433913
_cell_angle_gamma 90.000000
_cell_volume 1538.318778
_symmetry_space_group_name_H-M "P 2/C"
_symmetry_group_IT_number 13
_symmetry_cell_setting 'monoclinic'
loop_
_space_group_symop_operation_xyz
x,y,z
-x,y,1/2-z
-x,-y,-z
x,-y,1/2+z
loop_
_atom_site_type_symbol
_atom_site_label
_atom_site_fract_x
_atom_site_fract_y
_atom_site_fract_z
Si Si1 0.069628 0.378494 0.568692
Si Si2 0.419131 0.424778 0.707255
Si Si3 0.052624 0.440371 0.304294
Si Si4 0.760546 0.440357 0.082469
Si Si5 0.132667 0.185857 0.355131
Si Si6 0.500000 0.038259 0.250000
Si Si7 0.717772 0.863925 0.296190
Si Si8 0.048812 0.907594 0.140869
O O1 0.233955 0.414217 0.489950
O O2 0.082945 0.212541 0.584136
O O3 0.085545 0.475208 0.624683
O O4 0.878185 0.418125 0.575244
O O5 0.500000 0.348573 0.750000
O O6 0.262765 0.519086 0.770085
O O7 0.553546 0.530218 0.643730
O O8 0.344999 0.299753 0.679117
O O9 0.043798 0.270293 0.316980
O O10 0.000000 0.487412 0.250000
O O11 0.855601 0.298869 0.092603
O O12 0.334910 0.138109 0.301077
O O13 0.996938 0.050104 0.388912
O O14 0.551006 0.949476 0.299732
O O15 0.779938 0.928103 0.348098
O O16 0.879676 0.861641 0.215616
#
# Coordination Sequence:
#
# PCOD8118519 Si02
#       8
#     4   4   4   4   4   2   4   4
#     4  10  20  39  59  85 119 152 198 237 293 347
#     4  12  18  35  60  88 112 146 199 248 285 338
#     4  11  22  36  59  88 118 151 190 243 294 348
#     4  10  22  37  60  89 117 151 195 250 286 349
#     4  10  21  35  55  86 116 152 193 237 299 343
#     4  10  20  32  54  86 116 146 186 248 286 334
#     4  10  20  32  57  88 114 147 198 243 288 340
#     4  10  20  36  56  83 117 155 192 237 288 357
#
# _framework density 19.501809999999999
#
# number of rings (size 3 to 8) (size 9 to 14) (size 15 to 20)
#    0.000    1.600    4.667    1.600    5.600    0.533 
#    0.000    2.667    0.000    0.800    0.000    0.000 
#    0.000    0.000    0.000    0.000    0.000    0.000 
#
# Total GULP energy -371748.553382 kJ/mol
# GULP energy per Si atom -12391.618446 kJ/mol
# Density = 1.945742 g / cm^3
# Si number density = 19.501810 Si / 1000 Ang^3
#
#
#
# Elastic Constant Matrix: (Units=GPa)
#
#
# Indices 1 2 3 4 5 6 
#
# 1 77.2032 46.6451 29.0140 0.0000 15.3164 0.0000
# 2 46.6451 121.8103 36.9752 0.0000 6.5199 0.0000
# 3 29.0140 36.9752 99.6171 0.0000 14.1594 0.0000
# 4 0.0000 0.0000 0.0000 36.2525 0.0000 -4.9768
# 5 15.3164 6.5199 14.1594 0.0000 22.0906 0.0000
# 6 0.0000 0.0000 0.0000 -4.9768 0.0000 33.0101
#
#
#
# Elastic Compliance Matrix: (Units=1/GPa)
#
#
# Indices 1 2 3 4 5 6 
#
# 1 0.019585 -0.006378 -0.001842 0.000000 -0.010516 0.000000
# 2 -0.006378 0.011335 -0.002754 0.000000 0.002841 0.000000
# 3 -0.001842 -0.002754 0.012433 0.000000 -0.005879 0.000000
# 4 0.000000 0.000000 0.000000 0.028167 0.000000 0.004247
# 5 -0.010516 0.002841 -0.005879 0.000000 0.055489 0.000000
# 6 0.000000 0.000000 0.000000 0.004247 0.000000 0.030934
#
#
# Mechanical properties :
#
#
# Convention : Reuss Voigt Hill
#
# Bulk Modulus (GPa) = 46.71651 58.21102 52.46377
# Shear Modulus (GPa) = 26.73435 30.67041 28.70238
#
# Velocity S-wave (km/s) = 3.70654 3.97002 3.84054
# Velocity P-wave (km/s) = 6.50575 7.13643 6.82838
#
# Compressibility (1/GPa) = 0.02140571
#
# Stress axis : x y z
#
# Youngs Moduli (GPa) = 51.06051 88.21872 80.43267
#
# Poissons Ratio (x) = 0.56262 0.14818
# Poissons Ratio (y) = 0.32564 0.22150
# Poissons Ratio (z) = 0.09407 0.24294
#
# Static dielectric constant tensor:
#      x y z
#    x 3.763860 0.000000 0.127160 
#    y 0.000000 3.627970 0.000000 
#    z 0.127160 0.000000 3.358290 
# 
# 
# High freq. dielectric constant tensor:
#      x y z
#    x 1.751860 0.000000 0.011810 
#    y 0.000000 1.765340 0.000000 
#    z 0.011810 0.000000 1.730290 
# 
# From -- ./inp_files/82245.got.cif
#   From: 2010.06.25/outbox.cif.g09.slc.cpg/sg13_42_cif.got.tgz:82245.got - 2010.06.28 04:50:58.
