data_PCOD8118099
_publ_section_title
;
Structure prediction by ZEFSAII (Michael W. Deem and Ramdas Pophale) SiO2 
 PCOD8118099
Probable space group: P 2/C
;
_chemical_formula_sum "Si O2"
_cell_formula_units_Z 30
_cell_length_a 12.032155
_cell_length_b 11.195324
_cell_length_c 12.297153
_cell_angle_alpha 90.000000
_cell_angle_beta 78.212806
_cell_angle_gamma 90.000000
_cell_volume 1621.544191
_symmetry_space_group_name_H-M "P 2/C"
_symmetry_group_IT_number 13
_symmetry_cell_setting 'monoclinic'
loop_
_space_group_symop_operation_xyz
x,y,z
-x,y,1/2-z
-x,-y,-z
x,-y,1/2+z
loop_
_atom_site_type_symbol
_atom_site_label
_atom_site_fract_x
_atom_site_fract_y
_atom_site_fract_z
Si Si1 0.040289 0.913348 0.853860
Si Si2 0.754775 0.773782 0.176870
Si Si3 0.283278 0.967035 0.879293
Si Si4 0.000852 0.179198 0.583754
Si Si5 0.550540 0.341320 0.061667
Si Si6 0.750105 0.793667 0.426149
Si Si7 0.500000 0.841113 0.750000
Si Si8 0.573988 0.601859 0.133518
O O1 0.176085 0.917032 0.834070
O O2 0.000000 0.853982 0.750000
O O3 0.988321 0.045984 0.870408
O O4 0.987813 0.828962 0.956631
O O5 0.890945 0.752019 0.151454
O O6 0.712832 0.800420 0.308035
O O7 0.698210 0.657277 0.133120
O O8 0.721204 0.889563 0.112105
O O9 0.391990 0.925833 0.788952
O O10 0.276895 0.917965 0.004804
O O11 0.117523 0.245063 0.593051
O O12 0.487289 0.242134 0.146626
O O13 0.571348 0.458948 0.129486
O O14 0.677225 0.307364 0.000284
O O15 0.471267 0.352941 0.972738
O O16 0.500000 0.647142 0.250000
#
# Coordination Sequence:
#
# PCOD8118099 Si02
#       8
#     4   4   4   4   4   4   2   4
#     4   9  16  30  48  71 110 150 180 212 254 317
#     4  11  21  34  56  83 112 144 181 218 274 325
#     4   9  21  32  51  83 114 147 178 215 268 325
#     4   9  18  30  50  79 106 141 182 216 263 319
#     4  10  22  39  59  78 104 141 188 230 270 324
#     4  10  19  36  56  79 111 148 178 225 267 318
#     4  10  20  36  54  78 112 146 178 218 272 318
#     4  11  22  39  58  80 103 141 186 231 275 320
#
# _framework density 18.500883999999999
#
# number of rings (size 3 to 8) (size 9 to 14) (size 15 to 20)
#    0.000    2.133    2.000    2.800    0.933    2.133 
#    0.000    3.333    0.000    0.000    0.000    0.000 
#    0.000    0.000    0.000    0.000    0.000    0.000 
#
# Total GULP energy -371884.843835 kJ/mol
# GULP energy per Si atom -12396.161461 kJ/mol
# Density = 1.845878 g / cm^3
# Si number density = 18.500884 Si / 1000 Ang^3
#
#
#
# Elastic Constant Matrix: (Units=GPa)
#
#
# Indices 1 2 3 4 5 6 
#
# 1 85.0974 24.9838 36.2184 0.0000 -12.3701 0.0000
# 2 24.9838 34.2600 15.7378 0.0000 0.2326 0.0000
# 3 36.2184 15.7378 101.4229 0.0000 5.1554 0.0000
# 4 0.0000 0.0000 0.0000 12.9128 0.0000 -0.8869
# 5 -12.3701 0.2326 5.1554 0.0000 38.4805 0.0000
# 6 0.0000 0.0000 0.0000 -0.8869 0.0000 21.4578
#
#
#
# Elastic Compliance Matrix: (Units=1/GPa)
#
#
# Indices 1 2 3 4 5 6 
#
# 1 0.018068 -0.010879 -0.005097 0.000000 0.006557 0.000000
# 2 -0.010879 0.037987 -0.001833 0.000000 -0.003481 0.000000
# 3 -0.005097 -0.001833 0.012130 0.000000 -0.003253 0.000000
# 4 0.000000 0.000000 0.000000 0.077663 0.000000 0.003210
# 5 0.006557 -0.003481 -0.003253 0.000000 0.028552 0.000000
# 6 0.000000 0.000000 0.000000 0.003210 0.000000 0.046736
#
#
# Mechanical properties :
#
#
# Convention : Reuss Voigt Hill
#
# Bulk Modulus (GPa) = 30.70572 41.62893 36.16733
# Shear Modulus (GPa) = 18.68400 24.15955 21.42177
#
# Velocity S-wave (km/s) = 3.18134 3.61759 3.40645
# Velocity P-wave (km/s) = 5.48885 6.32449 5.92143
#
# Compressibility (1/GPa) = 0.03256722
#
# Stress axis : x y z
#
# Youngs Moduli (GPa) = 55.34734 26.32460 82.44246
#
# Poissons Ratio (x) = 0.28638 0.42023
# Poissons Ratio (y) = 0.60211 0.15109
# Poissons Ratio (z) = 0.28212 0.04825
#
# Static dielectric constant tensor:
#      x y z
#    x 3.379190 0.000000 -0.104360 
#    y 0.000000 3.126620 0.000000 
#    z -0.104360 0.000000 3.675820 
# 
# 
# High freq. dielectric constant tensor:
#      x y z
#    x 1.716830 0.000000 -0.005590 
#    y 0.000000 1.675020 0.000000 
#    z -0.005590 0.000000 1.737320 
# 
# From -- ./inp_files/33786.got.cif
#   From: 2010.06.25/outbox.cif.g09.slc.cpg/sg13_17_cif.got.tgz:33786.got - 2010.06.28 04:50:58.
