data_PCOD8118958
_publ_section_title
;
Structure prediction by ZEFSAII (Michael W. Deem and Ramdas Pophale) SiO2 
 PCOD8118958
Probable space group: P 2/C
;
_chemical_formula_sum "Si O2"
_cell_formula_units_Z 24
_cell_length_a 9.039831
_cell_length_b 10.078761
_cell_length_c 13.617805
_cell_angle_alpha 90.000000
_cell_angle_beta 91.233721
_cell_angle_gamma 90.000000
_cell_volume 1240.434628
_symmetry_space_group_name_H-M "P 2/C"
_symmetry_group_IT_number 13
_symmetry_cell_setting 'monoclinic'
loop_
_space_group_symop_operation_xyz
x,y,z
-x,y,1/2-z
-x,-y,-z
x,-y,1/2+z
loop_
_atom_site_type_symbol
_atom_site_label
_atom_site_fract_x
_atom_site_fract_y
_atom_site_fract_z
Si Si1 0.674360 0.787004 0.239085
Si Si2 0.819365 0.627405 0.551988
Si Si3 0.671602 0.482084 0.232414
Si Si4 0.174691 0.854772 0.455473
Si Si5 0.169776 0.122422 0.566709
Si Si6 0.149026 0.388880 0.089055
O O1 0.500000 0.798846 0.250000
O O2 0.726754 0.633833 0.239687
O O3 0.721330 0.856456 0.138327
O O4 0.752801 0.865377 0.327572
O O5 0.696078 0.574162 0.624017
O O6 0.768991 0.769533 0.509742
O O7 0.831329 0.532117 0.458892
O O8 0.976700 0.637707 0.609992
O O9 0.500000 0.470695 0.250000
O O10 0.761480 0.389083 0.308419
O O11 0.212369 0.723855 0.518369
O O12 0.004665 0.856801 0.418997
O O13 0.210818 0.979973 0.523874
#
# Coordination Sequence:
#
# PCOD8118958 Si02
#       6
#     4   4   4   4   4   4
#     4  11  23  38  59  86 118 156 191 232 292 351
#     4  10  20  36  60  86 111 147 194 240 282 332
#     4  11  23  36  57  88 120 154 191 238 290 341
#     4  10  22  40  62  87 116 151 193 241 288 338
#     4  10  22  40  62  87 116 151 193 241 288 338
#     4  10  20  36  60  86 111 147 194 240 282 332
#
# _framework density 19.348058000000002
#
# number of rings (size 3 to 8) (size 9 to 14) (size 15 to 20)
#    0.000    1.667    3.333    1.000    0.000    5.333 
#    0.000    6.667    0.000    0.000    0.000    0.000 
#    0.000    0.000    0.000    0.000    0.000    0.000 
#
# Total GULP energy -297734.926620 kJ/mol
# GULP energy per Si atom -12405.621942 kJ/mol
# Density = 1.930402 g / cm^3
# Si number density = 19.348058 Si / 1000 Ang^3
#
#
#
# Elastic Constant Matrix: (Units=GPa)
#
#
# Indices 1 2 3 4 5 6 
#
# 1 45.2925 28.4851 35.8276 0.0000 -19.2079 0.0000
# 2 28.4851 97.4783 32.1753 0.0000 0.2984 0.0000
# 3 35.8276 32.1753 93.4349 0.0000 -14.4964 0.0000
# 4 0.0000 0.0000 0.0000 28.8574 0.0000 -0.6964
# 5 -19.2079 0.2984 -14.4964 0.0000 29.4354 0.0000
# 6 0.0000 0.0000 0.0000 -0.6964 0.0000 22.1133
#
#
#
# Elastic Compliance Matrix: (Units=1/GPa)
#
#
# Indices 1 2 3 4 5 6 
#
# 1 0.048639 -0.010713 -0.010849 0.000000 0.026505 0.000000
# 2 -0.010713 0.014074 -0.001998 0.000000 -0.008117 0.000000
# 3 -0.010849 -0.001998 0.015651 0.000000 0.000649 0.000000
# 4 0.000000 0.000000 0.000000 0.034680 0.000000 0.001092
# 5 0.026505 -0.008117 0.000649 0.000000 0.051670 0.000000
# 6 0.000000 0.000000 0.000000 0.001092 0.000000 0.045256
#
#
# Mechanical properties :
#
#
# Convention : Reuss Voigt Hill
#
# Bulk Modulus (GPa) = 32.00690 47.68685 39.84688
# Shear Modulus (GPa) = 18.69131 25.39571 22.04351
#
# Velocity S-wave (km/s) = 3.11152 3.62687 3.37903
# Velocity P-wave (km/s) = 5.43022 6.49918 5.98860
#
# Compressibility (1/GPa) = 0.03124326
#
# Stress axis : x y z
#
# Youngs Moduli (GPa) = 20.55977 71.05499 63.89233
#
# Poissons Ratio (x) = 0.76123 0.69317
# Poissons Ratio (y) = 0.22026 0.12764
# Poissons Ratio (z) = 0.22305 0.14195
#
# Static dielectric constant tensor:
#      x y z
#    x 3.416550 0.000000 -0.002680 
#    y 0.000000 3.575730 0.000000 
#    z -0.002680 0.000000 3.422880 
# 
# 
# High freq. dielectric constant tensor:
#      x y z
#    x 1.742610 0.000000 -0.001750 
#    y 0.000000 1.753310 0.000000 
#    z -0.001750 0.000000 1.758500 
# 
# From -- ./inp_files/29453.got.cif
#   From: 2010.06.25/outbox.cif.g09.slc.cpg/sg13_15_cif.got.tgz:29453.got - 2010.06.28 04:50:58.
