data_PCOD8118360
_publ_section_title
;
Structure prediction by ZEFSAII (Michael W. Deem and Ramdas Pophale) SiO2 
 PCOD8118360
Probable space group: P 2/C
;
_chemical_formula_sum "Si O2"
_cell_formula_units_Z 28
_cell_length_a 9.045800
_cell_length_b 10.903337
_cell_length_c 14.581510
_cell_angle_alpha 90.000000
_cell_angle_beta 75.572905
_cell_angle_gamma 90.000000
_cell_volume 1392.813758
_symmetry_space_group_name_H-M "P 2/C"
_symmetry_group_IT_number 13
_symmetry_cell_setting 'monoclinic'
loop_
_space_group_symop_operation_xyz
x,y,z
-x,y,1/2-z
-x,-y,-z
x,-y,1/2+z
loop_
_atom_site_type_symbol
_atom_site_label
_atom_site_fract_x
_atom_site_fract_y
_atom_site_fract_z
Si Si1 0.959119 0.697795 0.634357
Si Si2 0.000000 0.471730 0.750000
Si Si3 0.524235 0.551596 0.897016
Si Si4 0.273893 0.723411 0.968556
Si Si5 0.521268 0.053208 0.096195
Si Si6 0.694908 0.330480 0.821449
Si Si7 0.250922 0.232051 0.171510
Si Si8 0.500000 0.861164 0.250000
O O1 0.004770 0.559782 0.659438
O O2 0.901407 0.705454 0.537890
O O3 0.818186 0.749117 0.716754
O O4 0.108400 0.784124 0.622882
O O5 0.856171 0.382261 0.764061
O O6 0.367952 0.620716 0.895208
O O7 0.566327 0.436116 0.826809
O O8 0.662105 0.647143 0.875038
O O9 0.500000 0.500000 0.000000
O O10 0.337446 0.854432 0.927706
O O11 0.290342 0.710110 0.074782
O O12 0.362611 0.115676 0.153450
O O13 0.565739 0.944457 0.158205
O O14 0.500000 0.000000 0.000000
O O15 0.642235 0.218036 0.766249
#
# Coordination Sequence:
#
# PCOD8118360 Si02
#       8
#     4   2   4   4   4   4   4   2
#     4  10  19  38  64  96 121 167 199 256 318 375
#     4  10  22  40  58  90 144 158 196 248 322 400
#     4   9  18  34  58  90 124 157 200 262 308 372
#     4  10  22  38  66  93 122 157 216 262 307 369
#     4  11  22  45  64  90 124 163 220 273 297 362
#     4  11  22  42  56  95 130 163 202 254 324 387
#     4   9  19  38  64  89 123 159 213 255 307 370
#     4  12  26  40  68  86 124 172 210 260 320 358
#
# _framework density 20.103189
#
# number of rings (size 3 to 8) (size 9 to 14) (size 15 to 20)
#    0.000    2.000    4.286    0.857    2.000    2.286 
#    2.571    3.571    0.000    0.000    0.000    0.000 
#    0.000    0.000    0.000    0.000    0.000    0.000 
#
# Total GULP energy -346998.416231 kJ/mol
# GULP energy per Si atom -12392.800580 kJ/mol
# Density = 2.005743 g / cm^3
# Si number density = 20.103189 Si / 1000 Ang^3
#
#
#
# Elastic Constant Matrix: (Units=GPa)
#
#
# Indices 1 2 3 4 5 6 
#
# 1 101.6426 39.3523 28.3226 0.0000 23.9351 0.0000
# 2 39.3523 111.0529 32.5313 0.0000 12.5814 0.0000
# 3 28.3226 32.5313 61.1541 0.0000 13.9487 0.0000
# 4 0.0000 0.0000 0.0000 26.5926 0.0000 0.5929
# 5 23.9351 12.5814 13.9487 0.0000 37.2577 0.0000
# 6 0.0000 0.0000 0.0000 0.5929 0.0000 31.1888
#
#
#
# Elastic Compliance Matrix: (Units=1/GPa)
#
#
# Indices 1 2 3 4 5 6 
#
# 1 0.013418 -0.003123 -0.003091 0.000000 -0.006408 0.000000
# 2 -0.003123 0.011484 -0.004631 0.000000 -0.000138 0.000000
# 3 -0.003091 -0.004631 0.021252 0.000000 -0.004407 0.000000
# 4 0.000000 0.000000 0.000000 0.037620 0.000000 -0.000715
# 5 -0.006408 -0.000138 -0.004407 0.000000 0.032653 0.000000
# 6 0.000000 0.000000 0.000000 -0.000715 0.000000 0.032076
#
#
# Mechanical properties :
#
#
# Convention : Reuss Voigt Hill
#
# Bulk Modulus (GPa) = 40.87783 52.69579 46.78681
# Shear Modulus (GPa) = 28.03493 30.58406 29.30949
#
# Velocity S-wave (km/s) = 3.73842 3.90468 3.82246
# Velocity P-wave (km/s) = 6.24600 6.82630 6.54259
#
# Compressibility (1/GPa) = 0.02446314
#
# Stress axis : x y z
#
# Youngs Moduli (GPa) = 74.52713 87.08067 47.05343
#
# Poissons Ratio (x) = 0.27197 0.14546
# Poissons Ratio (y) = 0.23276 0.21790
# Poissons Ratio (z) = 0.23039 0.40326
#
# Static dielectric constant tensor:
#      x y z
#    x 3.740310 0.000000 -0.108920 
#    y 0.000000 3.988910 0.000000 
#    z -0.108920 0.000000 3.514600 
# 
# 
# High freq. dielectric constant tensor:
#      x y z
#    x 1.786470 0.000000 0.004790 
#    y 0.000000 1.781490 0.000000 
#    z 0.004790 0.000000 1.772170 
# 
# From -- ./inp_files/46905.got.cif
#   From: 2010.06.25/outbox.cif.g09.slc.cpg/sg13_24_cif.got.tgz:46905.got - 2010.06.28 04:50:58.
