data_PCOD8118739
_publ_section_title
;
Structure prediction by ZEFSAII (Michael W. Deem and Ramdas Pophale) SiO2 
 PCOD8118739
Probable space group: P 2/C
;
_chemical_formula_sum "Si O2"
_cell_formula_units_Z 30
_cell_length_a 12.042584
_cell_length_b 15.491245
_cell_length_c 8.277930
_cell_angle_alpha 90.000000
_cell_angle_beta 73.981888
_cell_angle_gamma 90.000000
_cell_volume 1484.328423
_symmetry_space_group_name_H-M "P 2/C"
_symmetry_group_IT_number 13
_symmetry_cell_setting 'monoclinic'
loop_
_space_group_symop_operation_xyz
x,y,z
-x,y,1/2-z
-x,-y,-z
x,-y,1/2+z
loop_
_atom_site_type_symbol
_atom_site_label
_atom_site_fract_x
_atom_site_fract_y
_atom_site_fract_z
Si Si1 0.239059 0.744772 0.705654
Si Si2 0.500000 0.080588 0.750000
Si Si3 0.871731 0.392422 0.846997
Si Si4 0.487309 0.807994 0.575510
Si Si5 0.127363 0.091241 0.129039
Si Si6 0.751753 0.054325 0.735321
Si Si7 0.734982 0.769254 0.441969
Si Si8 0.874437 0.572363 0.721838
O O1 0.374228 0.749503 0.612279
O O2 0.162911 0.809105 0.628843
O O3 0.203688 0.647906 0.671029
O O4 0.210061 0.772060 0.901370
O O5 0.516718 0.128553 0.573742
O O6 0.623391 0.032075 0.716080
O O7 0.792612 0.311282 0.826361
O O8 0.823267 0.477165 0.775164
O O9 0.000000 0.365877 0.750000
O O10 0.874995 0.413961 0.032760
O O11 0.500000 0.853591 0.750000
O O12 0.599007 0.747199 0.507874
O O13 0.000000 0.074051 0.250000
O O14 0.219983 0.032536 0.183002
O O15 0.144682 0.067729 0.934653
O O16 0.753703 0.138934 0.848072
O O17 0.000000 0.577712 0.750000
#
# Coordination Sequence:
#
# PCOD8118739 Si02
#       8
#     4   2   4   4   4   4   4   4
#     4  10  20  39  60  83 114 160 196 243 303 352
#     4  10  20  42  62  94 116 154 218 252 308 360
#     4  10  20  35  56  85 117 150 194 242 296 356
#     4   9  18  38  62  86 122 153 200 257 300 360
#     4  12  25  40  58  86 123 160 199 247 304 364
#     4  11  24  41  61  88 120 156 204 251 300 366
#     4   9  21  38  61  85 114 153 194 247 304 353
#     4  10  20  35  56  85 115 152 197 240 292 357
#
# _framework density 20.21116
#
# number of rings (size 3 to 8) (size 9 to 14) (size 15 to 20)
#    0.000    1.867    1.333    3.200    0.000    5.333 
#    3.600    0.667    0.000    0.000    0.000    0.000 
#    0.000    0.000    0.000    0.000    0.000    0.000 
#
# Total GULP energy -371740.925032 kJ/mol
# GULP energy per Si atom -12391.364168 kJ/mol
# Density = 2.016516 g / cm^3
# Si number density = 20.211160 Si / 1000 Ang^3
#
#
#
# Elastic Constant Matrix: (Units=GPa)
#
#
# Indices 1 2 3 4 5 6 
#
# 1 81.5412 36.2098 19.4495 0.0000 -14.2078 0.0000
# 2 36.2098 79.7193 17.0063 0.0000 -14.7868 0.0000
# 3 19.4495 17.0063 78.7992 0.0000 -16.0502 0.0000
# 4 0.0000 0.0000 0.0000 26.8352 0.0000 5.2398
# 5 -14.2078 -14.7868 -16.0502 0.0000 32.6475 0.0000
# 6 0.0000 0.0000 0.0000 5.2398 0.0000 33.2602
#
#
#
# Elastic Compliance Matrix: (Units=1/GPa)
#
#
# Indices 1 2 3 4 5 6 
#
# 1 0.016082 -0.006296 -0.001962 0.000000 0.003182 0.000000
# 2 -0.006296 0.016415 -0.001147 0.000000 0.004131 0.000000
# 3 -0.001962 -0.001147 0.014605 0.000000 0.005807 0.000000
# 4 0.000000 0.000000 0.000000 0.038447 0.000000 -0.006057
# 5 0.003182 0.004131 0.005807 0.000000 0.036741 0.000000
# 6 0.000000 0.000000 0.000000 -0.006057 0.000000 0.031020
#
#
# Mechanical properties :
#
#
# Convention : Reuss Voigt Hill
#
# Bulk Modulus (GPa) = 35.34722 42.82122 39.08422
# Shear Modulus (GPa) = 27.54043 29.70819 28.62431
#
# Velocity S-wave (km/s) = 3.69539 3.83807 3.76741
# Velocity P-wave (km/s) = 5.97786 6.39328 6.18906
#
# Compressibility (1/GPa) = 0.02829077
#
# Stress axis : x y z
#
# Youngs Moduli (GPa) = 62.18090 60.92138 68.46893
#
# Poissons Ratio (x) = 0.38355 0.13437
# Poissons Ratio (y) = 0.39148 0.07855
# Poissons Ratio (z) = 0.12203 0.06989
#
# Static dielectric constant tensor:
#      x y z
#    x 3.929530 0.000000 -0.168020 
#    y 0.000000 3.839890 0.000000 
#    z -0.168020 0.000000 4.015430 
# 
# 
# High freq. dielectric constant tensor:
#      x y z
#    x 1.787380 0.000000 -0.002080 
#    y 0.000000 1.776320 0.000000 
#    z -0.002080 0.000000 1.805890 
# 
# From -- ./inp_files/16751.got.cif
#   From: 2010.06.25/outbox.cif.g09.slc.cpg/sg13_9_cif.got.tgz:16751.got - 2010.06.28 04:50:58.
