data_PCOD8118690
_publ_section_title
;
Structure prediction by ZEFSAII (Michael W. Deem and Ramdas Pophale) SiO2 
 PCOD8118690
Probable space group: P 2/C
;
_chemical_formula_sum "Si O2"
_cell_formula_units_Z 26
_cell_length_a 16.318158
_cell_length_b 13.818571
_cell_length_c 10.844534
_cell_angle_alpha 90.000000
_cell_angle_beta 148.115864
_cell_angle_gamma 90.000000
_cell_volume 1291.654120
_symmetry_space_group_name_H-M "P 2/C"
_symmetry_group_IT_number 13
_symmetry_cell_setting 'monoclinic'
loop_
_space_group_symop_operation_xyz
x,y,z
-x,y,1/2-z
-x,-y,-z
x,-y,1/2+z
loop_
_atom_site_type_symbol
_atom_site_label
_atom_site_fract_x
_atom_site_fract_y
_atom_site_fract_z
Si Si1 0.153803 0.990182 0.114392
Si Si2 0.188871 0.301140 0.843059
Si Si3 0.399686 0.845339 0.501809
Si Si4 0.901704 0.496040 0.250001
Si Si5 0.000000 0.152611 0.250000
Si Si6 0.292572 0.809578 0.719985
Si Si7 0.126566 0.708366 0.706170
O O1 0.297639 0.942988 0.371037
O O2 0.193942 0.093406 0.110341
O O3 0.131447 0.915607 0.974396
O O4 0.000000 0.000000 0.000000
O O5 0.224335 0.416084 0.909082
O O6 0.011046 0.297866 0.571193
O O7 0.295304 0.252754 0.872955
O O8 0.220876 0.243214 0.009129
O O9 0.500000 0.856707 0.750000
O O10 0.523642 0.833043 0.550106
O O11 0.825111 0.389866 0.160159
O O12 0.000000 0.505293 0.250000
O O13 0.000000 0.500000 0.500000
O O14 0.084470 0.214839 0.255470
O O15 0.275142 0.742988 0.818665
#
# Coordination Sequence:
#
# PCOD8118690 Si02
#       7
#     4   4   4   4   2   4   4
#     4  12  25  40  62  93 122 173 218 263 310 383
#     4  10  20  39  62  89 122 164 213 263 308 379
#     4  10  23  41  62  89 132 171 211 264 316 382
#     4  10  20  34  62  93 121 159 213 274 322 370
#     4  12  24  36  64  90 132 154 212 260 324 368
#     4  11  23  39  62  90 125 168 212 256 320 379
#     4  11  21  38  60  93 124 162 208 267 321 372
#
# _framework density 20.129228000000001
#
# number of rings (size 3 to 8) (size 9 to 14) (size 15 to 20)
#    0.000    1.231    3.846    2.769    6.462    0.000 
#    0.000    1.538    0.000    5.538    0.000    0.000 
#    0.000    0.000    0.000    0.000    0.000    0.000 
#
# Total GULP energy -322226.024683 kJ/mol
# GULP energy per Si atom -12393.308642 kJ/mol
# Density = 2.008341 g / cm^3
# Si number density = 20.129228 Si / 1000 Ang^3
#
#
#
# Elastic Constant Matrix: (Units=GPa)
#
#
# Indices 1 2 3 4 5 6 
#
# 1 135.5062 58.2087 24.0692 0.0000 18.7330 0.0000
# 2 58.2087 178.6628 33.7295 0.0000 10.3637 0.0000
# 3 24.0692 33.7295 53.0854 0.0000 12.6168 0.0000
# 4 0.0000 0.0000 0.0000 32.5041 0.0000 -15.1763
# 5 18.7330 10.3637 12.6168 0.0000 31.2784 0.0000
# 6 0.0000 0.0000 0.0000 -15.1763 0.0000 59.5537
#
#
#
# Elastic Compliance Matrix: (Units=1/GPa)
#
#
# Indices 1 2 3 4 5 6 
#
# 1 0.009306 -0.002479 -0.001675 0.000000 -0.004076 0.000000
# 2 -0.002479 0.007028 -0.003474 0.000000 0.000557 0.000000
# 3 -0.001675 -0.003474 0.023550 0.000000 -0.007345 0.000000
# 4 0.000000 0.000000 0.000000 0.034920 0.000000 0.008899
# 5 -0.004076 0.000557 -0.007345 0.000000 0.037190 0.000000
# 6 0.000000 0.000000 0.000000 0.008899 0.000000 0.019059
#
#
# Mechanical properties :
#
#
# Convention : Reuss Voigt Hill
#
# Bulk Modulus (GPa) = 40.60540 66.58546 53.59543
# Shear Modulus (GPa) = 32.35817 41.41705 36.88761
#
# Velocity S-wave (km/s) = 4.01374 4.54095 4.28546
# Velocity P-wave (km/s) = 6.45727 7.78746 7.15335
#
# Compressibility (1/GPa) = 0.02462726
#
# Stress axis : x y z
#
# Youngs Moduli (GPa) = 107.46039 142.28039 42.46239
#
# Poissons Ratio (x) = 0.35273 0.07114
# Poissons Ratio (y) = 0.26641 0.14752
# Poissons Ratio (z) = 0.18003 0.49430
#
# Static dielectric constant tensor:
#      x y z
#    x 4.357000 0.000000 0.338830 
#    y 0.000000 4.358400 0.000000 
#    z 0.338830 0.000000 3.845990 
# 
# 
# High freq. dielectric constant tensor:
#      x y z
#    x 1.794460 0.000000 -0.011160 
#    y 0.000000 1.807470 0.000000 
#    z -0.011160 0.000000 1.753010 
# 
# From -- ./inp_files/39335.got.cif
#   From: 2010.06.25/outbox.cif.g09.slc.cpg/sg13_20_cif.got.tgz:39335.got - 2010.06.28 04:50:58.
