data_PCOD8118696
_publ_section_title
;
Structure prediction by ZEFSAII (Michael W. Deem and Ramdas Pophale) SiO2 
 PCOD8118696
Probable space group: P 2/C
;
_chemical_formula_sum "Si O2"
_cell_formula_units_Z 28
_cell_length_a 8.151774
_cell_length_b 17.026314
_cell_length_c 19.133811
_cell_angle_alpha 90.000000
_cell_angle_beta 150.323871
_cell_angle_gamma 90.000000
_cell_volume 1314.813960
_symmetry_space_group_name_H-M "P 2/C"
_symmetry_group_IT_number 13
_symmetry_cell_setting 'monoclinic'
loop_
_space_group_symop_operation_xyz
x,y,z
-x,y,1/2-z
-x,-y,-z
x,-y,1/2+z
loop_
_atom_site_type_symbol
_atom_site_label
_atom_site_fract_x
_atom_site_fract_y
_atom_site_fract_z
Si Si1 0.887680 0.112317 0.395167
Si Si2 0.774872 0.212998 0.791887
Si Si3 0.220714 0.617567 0.702750
Si Si4 0.695310 0.739318 0.497237
Si Si5 0.861521 0.466834 0.625284
Si Si6 0.865867 0.945092 0.367272
Si Si7 0.616494 0.686989 0.973849
O O1 0.500000 0.134781 0.250000
O O2 0.097189 0.180686 0.435287
O O3 0.967734 0.100034 0.506154
O O4 0.013287 0.031013 0.402516
O O5 0.500000 0.213510 0.750000
O O6 0.637932 0.257267 0.672827
O O7 0.859630 0.121215 0.803980
O O8 0.107160 0.250643 0.946203
O O9 0.500000 0.601718 0.750000
O O10 0.352326 0.670904 0.815304
O O11 0.919400 0.665514 0.555836
O O12 0.104669 0.532243 0.684420
O O13 0.585585 0.721908 0.535664
O O14 0.500000 0.500000 0.500000
O O15 0.830611 0.391636 0.564885
O O16 0.000000 0.437255 0.750000
O O17 0.500000 0.973087 0.250000
#
# Coordination Sequence:
#
# PCOD8118696 Si02
#       7
#     4   4   4   4   4   4   4
#     4  10  20  34  65  96 132 182 227 271 326 393
#     4  11  22  40  64  97 131 171 228 276 320 396
#     4  12  27  45  69  99 131 170 228 282 324 400
#     4  12  22  41  64  97 134 177 217 274 335 398
#     4  12  23  48  70  94 134 179 212 266 339 402
#     4   9  18  38  59  94 135 175 230 274 325 379
#     4  12  27  44  69  95 135 176 217 274 346 399
#
# _framework density 21.295788000000002
#
# number of rings (size 3 to 8) (size 9 to 14) (size 15 to 20)
#    0.000    0.857    5.714    3.000    2.000    1.143 
#    0.000    0.714    0.000    1.714    0.000    0.000 
#    0.000    0.000    0.000    0.000    0.000    0.000 
#
# Total GULP energy -347002.318338 kJ/mol
# GULP energy per Si atom -12392.939941 kJ/mol
# Density = 2.124732 g / cm^3
# Si number density = 21.295788 Si / 1000 Ang^3
#
#
#
# Elastic Constant Matrix: (Units=GPa)
#
#
# Indices 1 2 3 4 5 6 
#
# 1 79.7058 31.5100 16.6730 0.0000 9.5013 0.0000
# 2 31.5100 133.1382 13.7921 0.0000 10.5479 0.0000
# 3 16.6730 13.7921 88.8536 0.0000 -0.3471 0.0000
# 4 0.0000 0.0000 0.0000 43.4166 0.0000 4.0250
# 5 9.5013 10.5479 -0.3471 0.0000 33.3660 0.0000
# 6 0.0000 0.0000 0.0000 4.0250 0.0000 30.4038
#
#
#
# Elastic Compliance Matrix: (Units=1/GPa)
#
#
# Indices 1 2 3 4 5 6 
#
# 1 0.014580 -0.002957 -0.002290 0.000000 -0.003241 0.000000
# 2 -0.002957 0.008435 -0.000762 0.000000 -0.001832 0.000000
# 3 -0.002290 -0.000762 0.011806 0.000000 0.001016 0.000000
# 4 0.000000 0.000000 0.000000 0.023319 0.000000 -0.003087
# 5 -0.003241 -0.001832 0.001016 0.000000 0.031483 0.000000
# 6 0.000000 0.000000 0.000000 -0.003087 0.000000 0.033299
#
#
# Mechanical properties :
#
#
# Convention : Reuss Voigt Hill
#
# Bulk Modulus (GPa) = 43.84925 47.29419 45.57172
# Shear Modulus (GPa) = 35.07765 37.41877 36.24821
#
# Velocity S-wave (km/s) = 4.06293 4.19632 4.13016
# Velocity P-wave (km/s) = 6.53032 6.76279 6.64757
#
# Compressibility (1/GPa) = 0.02280541
#
# Stress axis : x y z
#
# Youngs Moduli (GPa) = 68.58559 118.55569 84.70054
#
# Poissons Ratio (x) = 0.35054 0.19393
# Poissons Ratio (y) = 0.20279 0.06451
# Poissons Ratio (z) = 0.15704 0.09029
#
# Static dielectric constant tensor:
#      x y z
#    x 3.354910 0.000000 0.179760 
#    y 0.000000 -11.787770 0.000000 
#    z 0.179760 0.000000 3.533000 
# 
# 
# High freq. dielectric constant tensor:
#      x y z
#    x 1.792140 0.000000 0.007490 
#    y 0.000000 1.860400 0.000000 
#    z 0.007490 0.000000 1.859290 
# 
# From -- ./inp_files/76776.got.cif
#   From: 2010.06.25/outbox.cif.g09.slc.cpg/sg13_39_cif.got.tgz:76776.got - 2010.06.28 04:50:58.
