data_PCOD8118795
_publ_section_title
;
Structure prediction by ZEFSAII (Michael W. Deem and Ramdas Pophale) SiO2 
 PCOD8118795
Probable space group: P 2/C
;
_chemical_formula_sum "Si O2"
_cell_formula_units_Z 26
_cell_length_a 9.131896
_cell_length_b 20.649078
_cell_length_c 12.131035
_cell_angle_alpha 90.000000
_cell_angle_beta 143.242688
_cell_angle_gamma 90.000000
_cell_volume 1368.896297
_symmetry_space_group_name_H-M "P 2/C"
_symmetry_group_IT_number 13
_symmetry_cell_setting 'monoclinic'
loop_
_space_group_symop_operation_xyz
x,y,z
-x,y,1/2-z
-x,-y,-z
x,-y,1/2+z
loop_
_atom_site_type_symbol
_atom_site_label
_atom_site_fract_x
_atom_site_fract_y
_atom_site_fract_z
Si Si1 0.281377 0.000087 0.959684
Si Si2 0.463618 0.435299 0.546374
Si Si3 0.500000 0.897944 0.750000
Si Si4 0.762308 0.188786 0.235261
Si Si5 0.119956 0.566256 0.037270
Si Si6 0.690810 0.856386 0.458654
Si Si7 0.182601 0.332646 0.258664
O O1 0.000000 0.007842 0.750000
O O2 0.323735 0.058474 0.068992
O O3 0.500000 0.000000 0.000000
O O4 0.292848 0.933784 0.034888
O O5 0.500000 0.500000 0.500000
O O6 0.693702 0.413237 0.756105
O O7 0.235517 0.448485 0.488265
O O8 0.413040 0.375007 0.436449
O O9 0.331030 0.851937 0.719320
O O10 0.718117 0.264993 0.228451
O O11 0.050386 0.176366 0.406567
O O12 0.615985 0.166383 0.036792
O O13 0.000000 0.500000 0.000000
O O14 0.939279 0.627007 0.914669
O O15 0.500000 0.832368 0.250000
O O16 0.000000 0.318102 0.250000
#
# Coordination Sequence:
#
# PCOD8118795 Si02
#       7
#     4   4   2   4   4   4   4
#     4  12  24  41  65  98 130 168 218 267 329 382
#     4  10  20  35  59  88 116 154 202 254 300 357
#     4  12  26  40  70  94 132 164 214 274 322 380
#     4  11  24  44  59  96 130 167 210 258 323 387
#     4  10  20  35  59  89 115 154 204 251 303 354
#     4  11  22  40  68  91 125 166 211 259 312 384
#     4  10  20  39  61  83 124 164 202 249 303 382
#
# _framework density 18.993404000000002
#
# number of rings (size 3 to 8) (size 9 to 14) (size 15 to 20)
#    0.000    1.231    6.923    0.000    2.154    2.462 
#    2.769    0.000    0.000    0.000    0.000    0.000 
#    0.000    0.000    0.000    0.000    0.000    0.000 
#
# Total GULP energy -322326.523905 kJ/mol
# GULP energy per Si atom -12397.173996 kJ/mol
# Density = 1.895017 g / cm^3
# Si number density = 18.993404 Si / 1000 Ang^3
#
#
#
# Elastic Constant Matrix: (Units=GPa)
#
#
# Indices 1 2 3 4 5 6 
#
# 1 70.4482 44.7097 45.6504 0.0000 -8.5274 0.0000
# 2 44.7097 176.0195 60.8527 0.0000 -11.0737 0.0000
# 3 45.6504 60.8527 148.0922 0.0000 -10.8909 0.0000
# 4 0.0000 0.0000 0.0000 26.1893 0.0000 -2.5335
# 5 -8.5274 -11.0737 -10.8909 0.0000 24.6245 0.0000
# 6 0.0000 0.0000 0.0000 -2.5335 0.0000 38.7438
#
#
#
# Elastic Compliance Matrix: (Units=1/GPa)
#
#
# Indices 1 2 3 4 5 6 
#
# 1 0.019522 -0.003209 -0.004453 0.000000 0.003348 0.000000
# 2 -0.003209 0.007230 -0.001886 0.000000 0.001306 0.000000
# 3 -0.004453 -0.001886 0.009018 0.000000 0.001598 0.000000
# 4 0.000000 0.000000 0.000000 0.038427 0.000000 0.002513
# 5 0.003348 0.001306 0.001598 0.000000 0.043064 0.000000
# 6 0.000000 0.000000 0.000000 0.002513 0.000000 0.025975
#
#
# Mechanical properties :
#
#
# Convention : Reuss Voigt Hill
#
# Bulk Modulus (GPa) = 59.97035 77.44283 68.70659
# Shear Modulus (GPa) = 29.78164 34.13465 31.95815
#
# Velocity S-wave (km/s) = 3.96409 4.24392 4.10639
# Velocity P-wave (km/s) = 7.25223 8.05460 7.66392
#
# Compressibility (1/GPa) = 0.01667491
#
# Stress axis : x y z
#
# Youngs Moduli (GPa) = 51.22420 138.30609 110.89248
#
# Poissons Ratio (x) = 0.44376 0.49382
# Poissons Ratio (y) = 0.16435 0.20913
# Poissons Ratio (z) = 0.22811 0.26083
#
# Static dielectric constant tensor:
#      x y z
#    x 3.443000 0.000000 -0.165020 
#    y 0.000000 3.509320 0.000000 
#    z -0.165020 0.000000 3.889200 
# 
# 
# High freq. dielectric constant tensor:
#      x y z
#    x 1.717510 0.000000 -0.008210 
#    y 0.000000 1.748000 0.000000 
#    z -0.008210 0.000000 1.750220 
# 
# From -- ./inp_files/30768.got.cif
#   From: 2010.06.25/outbox.cif.g09.slc.cpg/sg13_16_cif.got.tgz:30768.got - 2010.06.28 04:50:58.
