data_PCOD8118753
_publ_section_title
;
Structure prediction by ZEFSAII (Michael W. Deem and Ramdas Pophale) SiO2 
 PCOD8118753
Probable space group: P 2/C
;
_chemical_formula_sum "Si O2"
_cell_formula_units_Z 24
_cell_length_a 18.054642
_cell_length_b 8.836428
_cell_length_c 15.658468
_cell_angle_alpha 90.000000
_cell_angle_beta 149.770655
_cell_angle_gamma 90.000000
_cell_volume 1257.714450
_symmetry_space_group_name_H-M "P 2/C"
_symmetry_group_IT_number 13
_symmetry_cell_setting 'monoclinic'
loop_
_space_group_symop_operation_xyz
x,y,z
-x,y,1/2-z
-x,-y,-z
x,-y,1/2+z
loop_
_atom_site_type_symbol
_atom_site_label
_atom_site_fract_x
_atom_site_fract_y
_atom_site_fract_z
Si Si1 0.582902 0.818539 0.418039
Si Si2 0.409463 0.174878 0.078075
Si Si3 0.105602 0.317544 0.778898
Si Si4 0.923045 0.340991 0.932021
Si Si5 0.425890 0.338617 0.919005
Si Si6 0.098440 0.324182 0.266991
O O1 0.500000 0.764957 0.250000
O O2 0.499485 0.750964 0.415547
O O3 0.750040 0.764600 0.579573
O O4 0.579502 0.997270 0.425040
O O5 0.500000 0.230361 0.250000
O O6 0.248660 0.225491 0.944232
O O7 0.461654 0.254142 0.043060
O O8 0.046624 0.256181 0.628133
O O9 0.134860 0.497205 0.799973
O O10 0.000000 0.275493 0.750000
O O11 0.747935 0.354830 0.772462
O O12 0.000000 0.500000 0.000000
O O13 0.003300 0.261458 0.091667
O O14 0.500000 0.500000 0.000000
O O15 0.000000 0.283675 0.250000
#
# Coordination Sequence:
#
# PCOD8118753 Si02
#       6
#     4   4   4   4   4   4
#     4  11  23  39  57  83 118 154 190 232 286 348
#     4  10  23  39  56  82 118 153 188 232 286 344
#     4   9  19  35  55  80 109 143 187 233 276 332
#     4   9  18  34  53  82 112 139 182 235 284 330
#     4  11  22  38  62  87 113 150 194 241 286 336
#     4  10  20  35  57  82 111 147 189 237 282 334
#
# _framework density 19.082232999999999
#
# number of rings (size 3 to 8) (size 9 to 14) (size 15 to 20)
#    0.000    2.000    0.000    4.500    0.000    8.667 
#    0.000    3.333    0.000    0.000    0.000    0.000 
#    0.000    0.000    0.000    0.000    0.000    0.000 
#
# Total GULP energy -297479.272081 kJ/mol
# GULP energy per Si atom -12394.969670 kJ/mol
# Density = 1.903880 g / cm^3
# Si number density = 19.082233 Si / 1000 Ang^3
#
#
#
# Elastic Constant Matrix: (Units=GPa)
#
#
# Indices 1 2 3 4 5 6 
#
# 1 176.8021 52.6432 95.4432 0.0000 -15.3031 0.0000
# 2 52.6432 63.8769 49.7218 0.0000 -7.8329 0.0000
# 3 95.4432 49.7218 183.2438 0.0000 -21.4428 0.0000
# 4 0.0000 0.0000 0.0000 247.0180 0.0000 -17.9879
# 5 -15.3031 -7.8329 -21.4428 0.0000 33.7139 0.0000
# 6 0.0000 0.0000 0.0000 -17.9879 0.0000 24.9891
#
#
#
# Elastic Compliance Matrix: (Units=1/GPa)
#
#
# Indices 1 2 3 4 5 6 
#
# 1 0.008882 -0.004680 -0.003254 0.000000 0.000875 0.000000
# 2 -0.004680 0.022364 -0.003535 0.000000 0.000824 0.000000
# 3 -0.003254 -0.003535 0.008473 0.000000 0.003091 0.000000
# 4 0.000000 0.000000 0.000000 0.004272 0.000000 0.003075
# 5 0.000875 0.000824 0.003091 0.000000 0.032215 0.000000
# 6 0.000000 0.000000 0.000000 0.003075 0.000000 0.042231
#
#
# Mechanical properties :
#
#
# Convention : Reuss Voigt Hill
#
# Bulk Modulus (GPa) = 59.58633 91.05988 75.32311
# Shear Modulus (GPa) = 34.02113 76.21852 55.11983
#
# Velocity S-wave (km/s) = 4.22698 6.32684 5.38035
# Velocity P-wave (km/s) = 7.42409 10.05958 8.84059
#
# Compressibility (1/GPa) = 0.01678237
#
# Stress axis : x y z
#
# Youngs Moduli (GPa) = 112.59140 44.71470 118.02530
#
# Poissons Ratio (x) = 0.20925 0.38405
# Poissons Ratio (y) = 0.52688 0.41716
# Poissons Ratio (z) = 0.36636 0.15805
#
# Static dielectric constant tensor:
#      x y z
#    x 3.686810 0.000000 -0.145230 
#    y 0.000000 3.269990 0.000000 
#    z -0.145230 0.000000 3.938970 
# 
# 
# High freq. dielectric constant tensor:
#      x y z
#    x 1.765950 0.000000 -0.009330 
#    y 0.000000 1.721580 0.000000 
#    z -0.009330 0.000000 1.758180 
# 
# From -- ./inp_files/46121.got.cif
#   From: 2010.06.25/outbox.cif.g09.slc.cpg/sg13_24_cif.got.tgz:46121.got - 2010.06.28 04:50:58.
