data_PCOD8118188
_publ_section_title
;
Structure prediction by ZEFSAII (Michael W. Deem and Ramdas Pophale) SiO2 
 PCOD8118188
Probable space group: P 2/C
;
_chemical_formula_sum "Si O2"
_cell_formula_units_Z 32
_cell_length_a 25.491264
_cell_length_b 9.113861
_cell_length_c 19.744722
_cell_angle_alpha 90.000000
_cell_angle_beta 19.733830
_cell_angle_gamma 90.000000
_cell_volume 1548.862788
_symmetry_space_group_name_H-M "P 2/C"
_symmetry_group_IT_number 13
_symmetry_cell_setting 'monoclinic'
loop_
_space_group_symop_operation_xyz
x,y,z
-x,y,1/2-z
-x,-y,-z
x,-y,1/2+z
loop_
_atom_site_type_symbol
_atom_site_label
_atom_site_fract_x
_atom_site_fract_y
_atom_site_fract_z
Si Si1 0.870400 0.678752 0.288810
Si Si2 0.175193 0.566923 0.292368
Si Si3 0.185722 0.102155 0.529909
Si Si4 0.163669 0.873472 0.907366
Si Si5 0.160968 0.203823 0.927973
Si Si6 0.134242 0.651947 0.683268
Si Si7 0.308227 0.277582 0.108471
Si Si8 0.651311 0.806513 0.173213
O O1 0.770092 0.650415 0.342962
O O2 0.781468 0.769126 0.455600
O O3 0.915537 0.518255 0.261364
O O4 0.017215 0.767538 0.083358
O O5 0.190187 0.682409 0.333343
O O6 0.302628 0.438674 0.150344
O O7 0.000000 0.500000 0.500000
O O8 0.245062 0.148378 0.382516
O O9 0.000000 0.068187 0.750000
O O10 0.284720 0.961409 0.434216
O O11 0.268791 0.838241 0.715013
O O12 0.117991 0.043291 0.952396
O O13 0.313770 0.200341 0.789147
O O14 0.019041 0.255457 0.148091
O O15 0.187157 0.708289 0.693507
O O16 0.266087 0.676099 0.467663
O O17 0.470247 0.221940 0.881126
#
# Coordination Sequence:
#
# PCOD8118188 Si02
#       8
#     4   4   4   4   4   4   4   4
#     4  10  19  36  63  89 117 157 204 257 301 358
#     4  11  20  41  61  92 121 155 206 256 299 370
#     4   9  20  37  58  90 127 156 205 262 300 371
#     4  10  20  36  60  92 121 154 205 255 314 358
#     4  11  22  37  64  92 119 156 208 260 295 365
#     4  11  21  39  61  89 118 161 211 248 303 369
#     4  11  23  40  61  85 126 166 195 254 315 372
#     4  11  24  39  58  90 127 163 202 248 316 367
#
# _framework density 20.660321
#
# number of rings (size 3 to 8) (size 9 to 14) (size 15 to 20)
#    0.000    1.500    3.750    3.000    0.000    9.500 
#    0.000    1.250    0.000    4.500    0.000    0.000 
#    0.000    0.000    0.000    0.000    0.000    0.000 
#
# Total GULP energy -396562.528800 kJ/mol
# GULP energy per Si atom -12392.579025 kJ/mol
# Density = 2.061330 g / cm^3
# Si number density = 20.660321 Si / 1000 Ang^3
#
#
#
# Elastic Constant Matrix: (Units=GPa)
#
#
# Indices 1 2 3 4 5 6 
#
# 1 63.7296 41.4479 8.2025 0.0000 14.8687 0.0000
# 2 41.4479 148.5383 43.1540 0.0000 10.6861 0.0000
# 3 8.2025 43.1540 65.1954 0.0000 6.4196 0.0000
# 4 0.0000 0.0000 0.0000 25.7914 0.0000 15.3270
# 5 14.8687 10.6861 6.4196 0.0000 29.2450 0.0000
# 6 0.0000 0.0000 0.0000 15.3270 0.0000 41.1841
#
#
#
# Elastic Compliance Matrix: (Units=1/GPa)
#
#
# Indices 1 2 3 4 5 6 
#
# 1 0.021422 -0.005938 0.002140 0.000000 -0.009192 0.000000
# 2 -0.005938 0.010083 -0.005991 0.000000 0.000650 0.000000
# 3 0.002140 -0.005991 0.019345 0.000000 -0.003145 0.000000
# 4 0.000000 0.000000 0.000000 0.049783 0.000000 -0.018527
# 5 -0.009192 0.000650 -0.003145 0.000000 0.039320 0.000000
# 6 0.000000 0.000000 0.000000 -0.018527 0.000000 0.031176
#
#
# Mechanical properties :
#
#
# Convention : Reuss Voigt Hill
#
# Bulk Modulus (GPa) = 31.97720 51.45245 41.71483
# Shear Modulus (GPa) = 24.85949 31.55469 28.20709
#
# Velocity S-wave (km/s) = 3.47255 3.91232 3.69898
# Velocity P-wave (km/s) = 5.62044 6.73546 6.20305
#
# Compressibility (1/GPa) = 0.03127228
#
# Stress axis : x y z
#
# Youngs Moduli (GPa) = 46.68018 99.17613 51.69423
#
# Poissons Ratio (x) = 0.58893 -0.11065
# Poissons Ratio (y) = 0.27720 0.30970
# Poissons Ratio (z) = -0.09992 0.59417
#
# Static dielectric constant tensor:
#      x y z
#    x 3.869090 0.000000 0.289800 
#    y 0.000000 4.022110 0.000000 
#    z 0.289800 0.000000 3.498760 
# 
# 
# High freq. dielectric constant tensor:
#      x y z
#    x 1.810270 0.000000 0.030900 
#    y 0.000000 1.822480 0.000000 
#    z 0.030900 0.000000 1.774900 
# 
# From -- ./inp_files/82518.got.cif
#   From: 2010.06.25/outbox.cif.g09.slc.cpg/sg13_42_cif.got.tgz:82518.got - 2010.06.28 04:50:58.
