data_PCOD8118611
_publ_section_title
;
Structure prediction by ZEFSAII (Michael W. Deem and Ramdas Pophale) SiO2 
 PCOD8118611
Probable space group: P 2/C
;
_chemical_formula_sum "Si O2"
_cell_formula_units_Z 32
_cell_length_a 18.725115
_cell_length_b 11.241424
_cell_length_c 15.621685
_cell_angle_alpha 90.000000
_cell_angle_beta 29.855384
_cell_angle_gamma 90.000000
_cell_volume 1636.965515
_symmetry_space_group_name_H-M "P 2/C"
_symmetry_group_IT_number 13
_symmetry_cell_setting 'monoclinic'
loop_
_space_group_symop_operation_xyz
x,y,z
-x,y,1/2-z
-x,-y,-z
x,-y,1/2+z
loop_
_atom_site_type_symbol
_atom_site_label
_atom_site_fract_x
_atom_site_fract_y
_atom_site_fract_z
Si Si1 0.244713 0.585825 0.636276
Si Si2 0.137926 0.022775 0.953094
Si Si3 0.751965 0.318735 0.809861
Si Si4 0.661559 0.954290 0.098628
Si Si5 0.688261 0.320433 0.604597
Si Si6 0.495181 0.629055 0.042450
Si Si7 0.162831 0.929805 0.234381
Si Si8 0.942575 0.288219 0.451046
O O1 0.235428 0.443791 0.655297
O O2 0.330517 0.598603 0.458621
O O3 0.336694 0.656212 0.614392
O O4 0.096327 0.653200 0.787035
O O5 0.053414 0.145749 0.058225
O O6 0.265361 0.996604 0.888961
O O7 0.203464 0.024779 0.788490
O O8 0.010564 0.926513 0.095613
O O9 0.593021 0.291395 0.934057
O O10 0.785204 0.206168 0.835608
O O11 0.869079 0.329642 0.614333
O O12 0.500000 0.005475 0.250000
O O13 0.649235 0.813782 0.120452
O O14 0.760608 0.987295 0.914867
O O15 0.584359 0.369541 0.784622
O O16 0.852707 0.333055 0.463427
O O17 0.500000 0.500000 0.000000
#
# Coordination Sequence:
#
# PCOD8118611 Si02
#       8
#     4   4   4   4   4   4   4   4
#     4  11  18  30  56  83 106 137 177 221 273 331
#     4   9  20  38  60  81 108 148 192 235 280 335
#     4   9  20  36  52  75 112 145 175 219 273 334
#     4  11  22  37  59  84 112 146 189 242 284 331
#     4  10  20  34  53  81 109 134 176 229 278 324
#     4   9  19  35  54  77 108 145 178 222 278 332
#     4  10  20  38  58  79 112 153 190 230 284 337
#     4   9  18  34  54  78 104 135 180 228 269 318
#
# _framework density 19.548365
#
# number of rings (size 3 to 8) (size 9 to 14) (size 15 to 20)
#    0.000    2.250    0.000    3.750    0.000    2.500 
#    0.000    8.750    0.000    3.000    0.000    0.000 
#    0.000    0.000    0.000    0.000    0.000    0.000 
#
# Total GULP energy -396440.645754 kJ/mol
# GULP energy per Si atom -12388.770180 kJ/mol
# Density = 1.950387 g / cm^3
# Si number density = 19.548365 Si / 1000 Ang^3
#
#
#
# Elastic Constant Matrix: (Units=GPa)
#
#
# Indices 1 2 3 4 5 6 
#
# 1 133.4277 37.2157 47.3435 0.0000 -20.6536 0.0000
# 2 37.2157 65.1088 25.7879 0.0000 -0.9482 0.0000
# 3 47.3435 25.7879 63.6793 0.0000 -12.1267 0.0000
# 4 0.0000 0.0000 0.0000 27.5354 0.0000 1.2960
# 5 -20.6536 -0.9482 -12.1267 0.0000 43.9861 0.0000
# 6 0.0000 0.0000 0.0000 1.2960 0.0000 25.6307
#
#
#
# Elastic Compliance Matrix: (Units=1/GPa)
#
#
# Indices 1 2 3 4 5 6 
#
# 1 0.011335 -0.003998 -0.006133 0.000000 0.003545 0.000000
# 2 -0.003998 0.019830 -0.005630 0.000000 -0.003002 0.000000
# 3 -0.006133 -0.005630 0.023189 0.000000 0.003392 0.000000
# 4 0.000000 0.000000 0.000000 0.036404 0.000000 -0.001841
# 5 0.003545 -0.003002 0.003392 0.000000 0.025270 0.000000
# 6 0.000000 0.000000 0.000000 -0.001841 0.000000 0.039109
#
#
# Mechanical properties :
#
#
# Convention : Reuss Voigt Hill
#
# Bulk Modulus (GPa) = 43.79683 53.65667 48.72675
# Shear Modulus (GPa) = 25.73763 29.55502 27.64632
#
# Velocity S-wave (km/s) = 3.63245 3.89252 3.76473
# Velocity P-wave (km/s) = 6.32819 6.90725 6.62405
#
# Compressibility (1/GPa) = 0.02283271
#
# Stress axis : x y z
#
# Youngs Moduli (GPa) = 88.22470 50.42784 43.12392
#
# Poissons Ratio (x) = 0.20162 0.26447
# Poissons Ratio (y) = 0.35274 0.24278
# Poissons Ratio (z) = 0.54106 0.28390
#
# Static dielectric constant tensor:
#      x y z
#    x 4.311490 0.000000 -0.413400 
#    y 0.000000 3.411170 0.000000 
#    z -0.413400 0.000000 3.775330 
# 
# 
# High freq. dielectric constant tensor:
#      x y z
#    x 1.779970 0.000000 -0.011450 
#    y 0.000000 1.735320 0.000000 
#    z -0.011450 0.000000 1.759150 
# 
# From -- ./inp_files/55778.got.cif
#   From: 2010.06.25/outbox.cif.g09.slc.cpg/sg13_28_cif.got.tgz:55778.got - 2010.06.28 04:50:58.
