data_PCOD8118758
_publ_section_title
;
Structure prediction by ZEFSAII (Michael W. Deem and Ramdas Pophale) SiO2 
 PCOD8118758
Probable space group: P 2/C
;
_chemical_formula_sum "Si O2"
_cell_formula_units_Z 32
_cell_length_a 26.201602
_cell_length_b 12.197142
_cell_length_c 11.571102
_cell_angle_alpha 90.000000
_cell_angle_beta 155.109381
_cell_angle_gamma 90.000000
_cell_volume 1556.418795
_symmetry_space_group_name_H-M "P 2/C"
_symmetry_group_IT_number 13
_symmetry_cell_setting 'monoclinic'
loop_
_space_group_symop_operation_xyz
x,y,z
-x,y,1/2-z
-x,-y,-z
x,-y,1/2+z
loop_
_atom_site_type_symbol
_atom_site_label
_atom_site_fract_x
_atom_site_fract_y
_atom_site_fract_z
Si Si1 0.875449 0.861982 0.063263
Si Si2 0.617665 0.739384 0.071573
Si Si3 0.181920 0.099742 0.579396
Si Si4 0.280209 0.348808 0.229213
Si Si5 0.275444 0.561642 0.349004
Si Si6 0.091273 0.408801 0.651231
Si Si7 0.537920 0.374244 0.081501
Si Si8 0.949499 0.167912 0.968977
O O1 0.902692 0.885358 0.254139
O O2 0.000000 0.839116 0.250000
O O3 0.806579 0.969587 0.873755
O O4 0.782673 0.761269 0.852709
O O5 0.500000 0.751458 0.750000
O O6 0.569998 0.709179 0.102736
O O7 0.695305 0.851598 0.224431
O O8 0.708690 0.637613 0.231094
O O9 0.154465 0.158288 0.645837
O O10 0.071865 0.112089 0.263304
O O11 0.308114 0.434601 0.389894
O O12 0.408603 0.326685 0.428956
O O13 0.194280 0.408432 0.960315
O O14 0.141135 0.562379 0.126132
O O15 0.360266 0.626230 0.611841
O O16 0.022032 0.294001 0.500473
O O17 0.000000 0.500000 0.500000
O O18 0.500000 0.500000 0.000000
#
# Coordination Sequence:
#
# PCOD8118758 Si02
#       8
#     4   4   4   4   4   4   4   4
#     4  11  24  42  61  89 129 170 197 253 322 365
#     4  10  21  38  64  89 113 156 212 256 302 348
#     4  11  22  40  69  90 114 168 215 258 294 371
#     4  10  23  37  56  85 127 159 197 247 313 374
#     4  10  20  35  57  85 117 157 199 246 299 375
#     4  10  22  33  53  89 127 154 188 255 312 363
#     4  10  20  38  60  86 118 160 201 251 308 367
#     4  10  22  39  61  91 125 156 211 250 310 376
#
# _framework density 20.560020000000002
#
# number of rings (size 3 to 8) (size 9 to 14) (size 15 to 20)
#    0.000    1.750    3.750    0.375    7.000    0.000 
#    0.000    0.625    2.750    0.000    0.000    0.000 
#    0.000    0.000    0.000    0.000    0.000    0.000 
#
# Total GULP energy -396628.697285 kJ/mol
# GULP energy per Si atom -12394.646790 kJ/mol
# Density = 2.051322 g / cm^3
# Si number density = 20.560020 Si / 1000 Ang^3
#
#
#
# Elastic Constant Matrix: (Units=GPa)
#
#
# Indices 1 2 3 4 5 6 
#
# 1 95.2953 46.7873 24.2447 0.0000 34.6853 0.0000
# 2 46.7873 131.2654 23.7732 0.0000 30.9130 0.0000
# 3 24.2447 23.7732 35.8354 0.0000 25.8537 0.0000
# 4 0.0000 0.0000 0.0000 31.1657 0.0000 6.9518
# 5 34.6853 30.9130 25.8537 0.0000 41.0073 0.0000
# 6 0.0000 0.0000 0.0000 6.9518 0.0000 29.5119
#
#
#
# Elastic Compliance Matrix: (Units=1/GPa)
#
#
# Indices 1 2 3 4 5 6 
#
# 1 0.016159 -0.003038 -0.001300 0.000000 -0.010558 0.000000
# 2 -0.003038 0.009915 -0.001805 0.000000 -0.003767 0.000000
# 3 -0.001300 -0.001805 0.051743 0.000000 -0.030162 0.000000
# 4 0.000000 0.000000 0.000000 0.033866 0.000000 -0.007977
# 5 -0.010558 -0.003767 -0.030162 0.000000 0.055173 0.000000
# 6 0.000000 0.000000 0.000000 -0.007977 0.000000 0.035764
#
#
# Mechanical properties :
#
#
# Convention : Reuss Voigt Hill
#
# Bulk Modulus (GPa) = 15.25966 50.22294 32.74130
# Shear Modulus (GPa) = 21.11963 31.50970 26.31466
#
# Velocity S-wave (km/s) = 3.20850 3.91905 3.58144
# Velocity P-wave (km/s) = 4.60045 6.70516 5.74992
#
# Compressibility (1/GPa) = 0.06553226
#
# Stress axis : x y z
#
# Youngs Moduli (GPa) = 61.88600 100.85873 19.32642
#
# Poissons Ratio (x) = 0.30637 0.02512
# Poissons Ratio (y) = 0.18799 0.03487
# Poissons Ratio (z) = 0.08044 0.18200
#
# Static dielectric constant tensor:
#      x y z
#    x 4.150900 0.000000 0.230270 
#    y 0.000000 3.647680 0.000000 
#    z 0.230270 0.000000 3.881900 
# 
# 
# High freq. dielectric constant tensor:
#      x y z
#    x 1.813860 0.000000 0.014010 
#    y 0.000000 1.796570 0.000000 
#    z 0.014010 0.000000 1.776240 
# 
# From -- ./inp_files/41881.got.cif
#   From: 2010.06.25/outbox.cif.g09.slc.cpg/sg13_21_cif.got.tgz:41881.got - 2010.06.28 04:50:58.
