data_PCOD8118146
_publ_section_title
;
Structure prediction by ZEFSAII (Michael W. Deem and Ramdas Pophale) SiO2 
 PCOD8118146
Probable space group: P 2/C
;
_chemical_formula_sum "Si O2"
_cell_formula_units_Z 20
_cell_length_a 11.549824
_cell_length_b 8.544505
_cell_length_c 16.491829
_cell_angle_alpha 90.000000
_cell_angle_beta 138.587029
_cell_angle_gamma 90.000000
_cell_volume 1076.586445
_symmetry_space_group_name_H-M "P 2/C"
_symmetry_group_IT_number 13
_symmetry_cell_setting 'monoclinic'
loop_
_space_group_symop_operation_xyz
x,y,z
-x,y,1/2-z
-x,-y,-z
x,-y,1/2+z
loop_
_atom_site_type_symbol
_atom_site_label
_atom_site_fract_x
_atom_site_fract_y
_atom_site_fract_z
Si Si1 0.358578 0.581172 0.866596
Si Si2 0.762314 0.383588 0.849688
Si Si3 0.000000 0.533191 0.750000
Si Si4 0.552572 0.820361 0.863698
Si Si5 0.873258 0.367943 0.526796
Si Si6 0.500000 0.880576 0.250000
O O1 0.320594 0.460037 0.774054
O O2 0.437005 0.743979 0.874427
O O3 0.174655 0.629177 0.814385
O O4 0.500000 0.500000 0.000000
O O5 0.667933 0.224772 0.824088
O O6 0.963656 0.330440 0.945405
O O7 0.750473 0.501280 0.919672
O O8 0.942843 0.422032 0.648608
O O9 0.500000 0.742333 0.750000
O O10 0.525431 0.008591 0.843323
O O11 0.758290 0.785732 0.984082
#
# Coordination Sequence:
#
# PCOD8118146 Si02
#       6
#     4   4   2   4   4   2
#     4  11  20  36  63  86 120 149 206 254 291 342
#     4  10  20  35  59  88 109 157 200 249 283 358
#     4  10  22  32  60  96 108 154 194 260 292 336
#     4  10  20  37  57  85 116 157 190 243 297 355
#     4  10  19  36  60  84 116 146 211 243 288 337
#     4  10  22  36  60  86 120 152 202 228 318 364
#
# _framework density 18.577235000000002
#
# number of rings (size 3 to 8) (size 9 to 14) (size 15 to 20)
#    0.600    1.200    4.000    1.200    0.000    0.800 
#    0.000    1.000    0.000    2.400    0.000    0.000 
#    0.000    0.000    0.000    0.000    0.000    0.000 
#
# Total GULP energy -247822.270842 kJ/mol
# GULP energy per Si atom -12391.113542 kJ/mol
# Density = 1.853495 g / cm^3
# Si number density = 18.577235 Si / 1000 Ang^3
#
#
#
# Elastic Constant Matrix: (Units=GPa)
#
#
# Indices 1 2 3 4 5 6 
#
# 1 102.5238 53.7059 38.5727 0.0000 20.2001 0.0000
# 2 53.7059 117.4748 40.4324 0.0000 16.6625 0.0000
# 3 38.5727 40.4324 102.2087 0.0000 3.4514 0.0000
# 4 0.0000 0.0000 0.0000 18.3005 0.0000 6.2601
# 5 20.2001 16.6625 3.4514 0.0000 40.1653 0.0000
# 6 0.0000 0.0000 0.0000 6.2601 0.0000 24.1291
#
#
#
# Elastic Compliance Matrix: (Units=1/GPa)
#
#
# Indices 1 2 3 4 5 6 
#
# 1 0.014524 -0.004743 -0.003435 0.000000 -0.005042 0.000000
# 2 -0.004743 0.012005 -0.002880 0.000000 -0.002348 0.000000
# 3 -0.003435 -0.002880 0.012156 0.000000 0.001878 0.000000
# 4 0.000000 0.000000 0.000000 0.059965 0.000000 -0.015557
# 5 -0.005042 -0.002348 0.001878 0.000000 0.028245 0.000000
# 6 0.000000 0.000000 0.000000 -0.015557 0.000000 0.045480
#
#
# Mechanical properties :
#
#
# Convention : Reuss Voigt Hill
#
# Bulk Modulus (GPa) = 60.34950 65.29216 62.82083
# Shear Modulus (GPa) = 24.99840 29.15206 27.07523
#
# Velocity S-wave (km/s) = 3.67229 3.96566 3.82179
# Velocity P-wave (km/s) = 7.10895 7.49608 7.30508
#
# Compressibility (1/GPa) = 0.01657015
#
# Stress axis : x y z
#
# Youngs Moduli (GPa) = 68.85236 83.30022 82.26385
#
# Poissons Ratio (x) = 0.39505 0.28256
# Poissons Ratio (y) = 0.32653 0.23691
# Poissons Ratio (z) = 0.23650 0.23989
#
# Static dielectric constant tensor:
#      x y z
#    x 3.727530 0.000000 0.216740 
#    y 0.000000 3.006470 0.000000 
#    z 0.216740 0.000000 3.634070 
# 
# 
# High freq. dielectric constant tensor:
#      x y z
#    x 1.731610 0.000000 0.011730 
#    y 0.000000 1.679220 0.000000 
#    z 0.011730 0.000000 1.735470 
# 
# From -- ./inp_files/49183.got.cif
#   From: 2010.06.25/outbox.cif.g09.slc.cpg/sg13_25_cif.got.tgz:49183.got - 2010.06.28 04:50:58.
