data_PCOD8118379
_publ_section_title
;
Structure prediction by ZEFSAII (Michael W. Deem and Ramdas Pophale) SiO2 
 PCOD8118379
Probable space group: P 2/C
;
_chemical_formula_sum "Si O2"
_cell_formula_units_Z 22
_cell_length_a 18.134410
_cell_length_b 7.310960
_cell_length_c 14.394690
_cell_angle_alpha 90.000000
_cell_angle_beta 146.776300
_cell_angle_gamma 90.000000
_cell_volume 1045.655980
_symmetry_space_group_name_H-M "P 2/C"
_symmetry_group_IT_number 13
_symmetry_cell_setting 'monoclinic'
loop_
_space_group_symop_operation_xyz
x,y,z
-x,y,1/2-z
-x,-y,-z
x,-y,1/2+z
loop_
_atom_site_type_symbol
_atom_site_label
_atom_site_fract_x
_atom_site_fract_y
_atom_site_fract_z
Si Si1 0.665091 0.095598 0.586434
Si Si2 0.500000 0.216659 0.250000
Si Si3 0.634167 0.503406 0.762156
Si Si4 0.936864 0.482603 0.081434
Si Si5 0.562089 0.734092 0.524972
Si Si6 0.040693 0.210720 0.559476
O O1 0.606287 0.098909 0.420422
O O2 0.555010 0.178864 0.537423
O O3 0.802767 0.206358 0.745096
O O4 0.678639 0.878798 0.621867
O O5 0.400477 0.332055 0.207914
O O6 0.636690 0.570962 0.657321
O O7 0.517471 0.347969 0.648651
O O8 0.782264 0.434961 0.940015
O O9 0.000000 0.471569 0.250000
O O10 0.962342 0.682924 0.060666
O O11 0.987801 0.322591 0.065691
O O12 0.000000 0.000000 0.500000
#
# Coordination Sequence:
#
# PCOD8118379 Si02
#       6
#     4   2   4   4   4   4
#     4  10  19  39  56  90 118 156 203 256 310 379
#     4  10  22  34  62  92 120 152 202 264 316 370
#     4  10  19  39  58  89 118 160 202 254 319 380
#     4  11  24  43  66  94 132 174 215 271 321 388
#     4   9  19  34  64  80 118 156 195 251 319 365
#     4  11  24  43  66  94 128 177 221 262 323 391
#
# _framework density 21.039424
#
# number of rings (size 3 to 8) (size 9 to 14) (size 15 to 20)
#    0.000    1.818    1.818    2.182    0.000    1.455 
#    6.545    0.000    0.000    0.000    0.000    0.000 
#    0.000    0.000    0.000    0.000    0.000    0.000 
#
# Total GULP energy -272580.255143 kJ/mol
# GULP energy per Si atom -12390.011597 kJ/mol
# Density = 2.099154 g / cm^3
# Si number density = 21.039424 Si / 1000 Ang^3
#
#
#
# Elastic Constant Matrix: (Units=GPa)
#
#
# Indices 1 2 3 4 5 6 
#
# 1 54.5852 17.7211 28.0042 0.0000 -14.9356 0.0000
# 2 17.7211 103.1212 19.9247 0.0000 -14.4569 0.0000
# 3 28.0042 19.9247 108.0182 0.0000 -20.5728 0.0000
# 4 0.0000 0.0000 0.0000 31.8572 0.0000 4.7016
# 5 -14.9356 -14.4569 -20.5728 0.0000 35.0190 0.0000
# 6 0.0000 0.0000 0.0000 4.7016 0.0000 13.9324
#
#
#
# Elastic Compliance Matrix: (Units=1/GPa)
#
#
# Indices 1 2 3 4 5 6 
#
# 1 0.023007 -0.002225 -0.004347 0.000000 0.006340 0.000000
# 2 -0.002225 0.010655 -0.000824 0.000000 0.002966 0.000000
# 3 -0.004347 -0.000824 0.011393 0.000000 0.004500 0.000000
# 4 0.000000 0.000000 0.000000 0.033035 0.000000 -0.011148
# 5 0.006340 0.002966 0.004500 0.000000 0.035128 0.000000
# 6 0.000000 0.000000 0.000000 -0.011148 0.000000 0.075537
#
#
# Mechanical properties :
#
#
# Convention : Reuss Voigt Hill
#
# Bulk Modulus (GPa) = 33.04191 44.11384 38.57788
# Shear Modulus (GPa) = 23.40445 29.50002 26.45224
#
# Velocity S-wave (km/s) = 3.33890 3.74857 3.54965
# Velocity P-wave (km/s) = 5.53201 6.30463 5.93092
#
# Compressibility (1/GPa) = 0.03026460
#
# Stress axis : x y z
#
# Youngs Moduli (GPa) = 43.46465 93.85619 87.76942
#
# Poissons Ratio (x) = 0.20883 0.38151
# Poissons Ratio (y) = 0.09671 0.07229
# Poissons Ratio (z) = 0.18893 0.07730
#
# Static dielectric constant tensor:
#      x y z
#    x 3.705760 0.000000 -0.245600 
#    y 0.000000 4.077190 0.000000 
#    z -0.245600 0.000000 4.425110 
# 
# 
# High freq. dielectric constant tensor:
#      x y z
#    x 1.804570 0.000000 -0.004370 
#    y 0.000000 1.828140 0.000000 
#    z -0.004370 0.000000 1.834510 
# 
# From -- ./inp_files/55381.got.cif
#   From: 2010.06.25/outbox.cif.g09.slc.cpg/sg13_28_cif.got.tgz:55381.got - 2010.06.28 04:50:58.
