data_PCOD8118089
_publ_section_title
;
Structure prediction by ZEFSAII (Michael W. Deem and Ramdas Pophale) SiO2 
 PCOD8118089
Probable space group: P 2/C
;
_chemical_formula_sum "Si O2"
_cell_formula_units_Z 26
_cell_length_a 12.855463
_cell_length_b 20.057642
_cell_length_c 9.446194
_cell_angle_alpha 90.000000
_cell_angle_beta 147.746309
_cell_angle_gamma 90.000000
_cell_volume 1299.859559
_symmetry_space_group_name_H-M "P 2/C"
_symmetry_group_IT_number 13
_symmetry_cell_setting 'monoclinic'
loop_
_space_group_symop_operation_xyz
x,y,z
-x,y,1/2-z
-x,-y,-z
x,-y,1/2+z
loop_
_atom_site_type_symbol
_atom_site_label
_atom_site_fract_x
_atom_site_fract_y
_atom_site_fract_z
Si Si1 0.288766 0.864533 0.550795
Si Si2 0.000000 0.898313 0.750000
Si Si3 0.060517 0.817886 0.544106
Si Si4 0.012581 0.327845 0.930116
Si Si5 0.277240 0.569235 0.346593
Si Si6 0.265935 0.554079 0.648868
Si Si7 0.637249 0.987253 0.292150
O O1 0.500000 0.837071 0.750000
O O2 0.241225 0.837205 0.652131
O O3 0.283149 0.944344 0.549062
O O4 0.139672 0.839257 0.261183
O O5 0.913127 0.853339 0.775043
O O6 0.826573 0.942106 0.480416
O O7 0.066193 0.738493 0.577757
O O8 0.814844 0.356848 0.776690
O O9 0.000000 0.307536 0.750000
O O10 0.174586 0.385302 0.132613
O O11 0.192598 0.547697 0.403347
O O12 0.507295 0.571560 0.597395
O O13 0.204589 0.514968 0.150810
O O14 0.500000 0.951280 0.250000
O O15 0.500000 0.000000 0.000000
#
# Coordination Sequence:
#
# PCOD8118089 Si02
#       7
#     4   2   4   4   4   4   4
#     4  10  21  39  64  86 113 152 200 250 289 352
#     4  12  24  40  62  86 134 160 188 260 306 358
#     4  11  23  39  56  88 120 161 202 232 302 365
#     4  10  19  36  54  79 110 148 198 233 273 354
#     4   9  18  33  55  81 108 139 184 237 290 335
#     4   9  18  33  55  81 107 141 183 238 288 335
#     4  11  23  40  64  95 118 153 205 249 307 363
#
# _framework density 20.00216
#
# number of rings (size 3 to 8) (size 9 to 14) (size 15 to 20)
#    0.000    1.846    1.538    4.154    0.000    3.077 
#    2.769    0.000    0.000    0.000    0.000    0.000 
#    0.000    0.000    0.000    0.000    0.000    0.000 
#
# Total GULP energy -322305.161419 kJ/mol
# GULP energy per Si atom -12396.352362 kJ/mol
# Density = 1.995663 g / cm^3
# Si number density = 20.002160 Si / 1000 Ang^3
#
#
#
# Elastic Constant Matrix: (Units=GPa)
#
#
# Indices 1 2 3 4 5 6 
#
# 1 116.9031 39.4939 35.5278 0.0000 6.4219 0.0000
# 2 39.4939 106.7283 23.5755 0.0000 0.8207 0.0000
# 3 35.5278 23.5755 56.9241 0.0000 -6.5459 0.0000
# 4 0.0000 0.0000 0.0000 15.2429 0.0000 -3.1002
# 5 6.4219 0.8207 -6.5459 0.0000 26.1789 0.0000
# 6 0.0000 0.0000 0.0000 -3.1002 0.0000 27.4770
#
#
#
# Elastic Compliance Matrix: (Units=1/GPa)
#
#
# Indices 1 2 3 4 5 6 
#
# 1 0.011799 -0.002852 -0.006698 0.000000 -0.004480 0.000000
# 2 -0.002852 0.011055 -0.002839 0.000000 -0.000357 0.000000
# 3 -0.006698 -0.002839 0.023807 0.000000 0.007685 0.000000
# 4 0.000000 0.000000 0.000000 0.067145 0.000000 0.007576
# 5 -0.004480 -0.000357 0.007685 0.000000 0.041230 0.000000
# 6 0.000000 0.000000 0.000000 0.007576 0.000000 0.037249
#
#
# Mechanical properties :
#
#
# Convention : Reuss Voigt Hill
#
# Bulk Modulus (GPa) = 45.69926 53.08334 49.39130
# Shear Modulus (GPa) = 22.28563 25.91033 24.09798
#
# Velocity S-wave (km/s) = 3.34153 3.60304 3.47474
# Velocity P-wave (km/s) = 6.14691 6.62613 6.39101
#
# Compressibility (1/GPa) = 0.02188219
#
# Stress axis : x y z
#
# Youngs Moduli (GPa) = 84.74995 90.45701 42.00371
#
# Poissons Ratio (x) = 0.25801 0.28135
# Poissons Ratio (y) = 0.24173 0.11926
# Poissons Ratio (z) = 0.56767 0.25684
#
# Static dielectric constant tensor:
#      x y z
#    x 3.894500 0.000000 0.168860 
#    y 0.000000 3.649670 0.000000 
#    z 0.168860 0.000000 3.526970 
# 
# 
# High freq. dielectric constant tensor:
#      x y z
#    x 1.792080 0.000000 0.017540 
#    y 0.000000 1.774240 0.000000 
#    z 0.017540 0.000000 1.765410 
# 
# From -- ./inp_files/17318.got.cif
#   From: 2010.06.25/outbox.cif.g09.slc.cpg/sg13_9_cif.got.tgz:17318.got - 2010.06.28 04:50:58.
