data_PCOD8118101
_publ_section_title
;
Structure prediction by ZEFSAII (Michael W. Deem and Ramdas Pophale) SiO2 
 PCOD8118101
Probable space group: P 2/C
;
_chemical_formula_sum "Si O2"
_cell_formula_units_Z 28
_cell_length_a 26.699442
_cell_length_b 11.191511
_cell_length_c 27.006921
_cell_angle_alpha 90.000000
_cell_angle_beta 169.361897
_cell_angle_gamma 90.000000
_cell_volume 1489.736326
_symmetry_space_group_name_H-M "P 2/C"
_symmetry_group_IT_number 13
_symmetry_cell_setting 'monoclinic'
loop_
_space_group_symop_operation_xyz
x,y,z
-x,y,1/2-z
-x,-y,-z
x,-y,1/2+z
loop_
_atom_site_type_symbol
_atom_site_label
_atom_site_fract_x
_atom_site_fract_y
_atom_site_fract_z
Si Si1 0.712859 0.181167 0.368019
Si Si2 0.216957 0.081068 0.273134
Si Si3 0.229638 0.408333 0.014645
Si Si4 0.349671 0.669690 0.155236
Si Si5 0.293088 0.915829 0.738582
Si Si6 0.834852 0.054586 0.640030
Si Si7 0.194612 0.202051 0.350326
O O1 0.825309 0.306276 0.498155
O O2 0.686188 0.189397 0.282327
O O3 0.950010 0.084337 0.607907
O O4 0.428077 0.140641 0.116060
O O5 0.302318 0.139881 0.303043
O O6 0.155473 0.184573 0.253256
O O7 0.457988 0.003410 0.530127
O O8 0.970780 0.993977 0.024953
O O9 0.500000 0.370675 0.250000
O O10 0.263049 0.531967 0.076842
O O11 0.000000 0.418520 0.750000
O O12 0.500000 0.693910 0.250000
O O13 0.557554 0.705777 0.400873
O O14 0.082437 0.749156 0.896319
O O15 0.000000 0.073869 0.750000
O O16 0.734917 0.919679 0.551645
#
# Coordination Sequence:
#
# PCOD8118101 Si02
#       7
#     4   4   4   4   4   4   4
#     4  12  21  37  57  82 113 146 185 232 275 332
#     4  10  20  35  56  81 112 146 180 224 275 340
#     4  11  23  40  58  78 108 152 197 227 262 323
#     4  11  23  38  56  77 109 153 195 224 262 326
#     4  10  19  36  56  81 112 144 184 222 276 339
#     4  12  23  33  51  85 119 146 172 223 291 337
#     4  12  21  37  56  82 115 146 183 230 278 333
#
# _framework density 18.795272000000001
#
# number of rings (size 3 to 8) (size 9 to 14) (size 15 to 20)
#    0.000    0.857    2.857    7.286    0.000    0.000 
#    0.000    0.000    0.000    1.714    0.000    0.000 
#    0.000    0.000    0.000    0.000    0.000    0.000 
#
# Total GULP energy -347226.491934 kJ/mol
# GULP energy per Si atom -12400.946141 kJ/mol
# Density = 1.875249 g / cm^3
# Si number density = 18.795272 Si / 1000 Ang^3
#
#
#
# Elastic Constant Matrix: (Units=GPa)
#
#
# Indices 1 2 3 4 5 6 
#
# 1 91.7829 58.1716 14.2711 0.0000 -12.4578 0.0000
# 2 58.1716 97.1770 36.6275 0.0000 -7.9654 0.0000
# 3 14.2711 36.6275 122.5131 0.0000 -4.3613 0.0000
# 4 0.0000 0.0000 0.0000 26.6807 0.0000 -7.3147
# 5 -12.4578 -7.9654 -4.3613 0.0000 29.2132 0.0000
# 6 0.0000 0.0000 0.0000 -7.3147 0.0000 23.7477
#
#
#
# Elastic Compliance Matrix: (Units=1/GPa)
#
#
# Indices 1 2 3 4 5 6 
#
# 1 0.018417 -0.011125 0.001360 0.000000 0.005023 0.000000
# 2 -0.011125 0.018527 -0.004255 0.000000 -0.000328 0.000000
# 3 0.001360 -0.004255 0.009305 0.000000 0.000809 0.000000
# 4 0.000000 0.000000 0.000000 0.040937 0.000000 0.012609
# 5 0.005023 -0.000328 0.000809 0.000000 0.036405 0.000000
# 6 0.000000 0.000000 0.000000 0.012609 0.000000 0.045993
#
#
# Mechanical properties :
#
#
# Convention : Reuss Voigt Hill
#
# Bulk Modulus (GPa) = 54.92114 58.84593 56.88353
# Shear Modulus (GPa) = 24.54662 29.42185 26.98423
#
# Velocity S-wave (km/s) = 3.61778 3.96079 3.79316
# Velocity P-wave (km/s) = 6.83632 7.23146 7.03666
#
# Compressibility (1/GPa) = 0.01820793
#
# Stress axis : x y z
#
# Youngs Moduli (GPa) = 54.29807 53.97507 107.47106
#
# Poissons Ratio (x) = 0.60049 -0.14612
# Poissons Ratio (y) = 0.60408 0.45726
# Poissons Ratio (z) = -0.07383 0.22965
#
# Static dielectric constant tensor:
#      x y z
#    x 3.759550 0.000000 -0.077220 
#    y 0.000000 3.241480 0.000000 
#    z -0.077220 0.000000 3.644860 
# 
# 
# High freq. dielectric constant tensor:
#      x y z
#    x 1.730310 0.000000 -0.000310 
#    y 0.000000 1.697390 0.000000 
#    z -0.000310 0.000000 1.757250 
# 
# From -- ./inp_files/94130.got.cif
#   From: 2010.06.25/outbox.cif.g09.slc.cpg/sg13_48_cif.got.tgz:94130.got - 2010.06.28 04:50:58.
