data_PCOD8118608
_publ_section_title
;
Structure prediction by ZEFSAII (Michael W. Deem and Ramdas Pophale) SiO2 
 PCOD8118608
Probable space group: P 2/C
;
_chemical_formula_sum "Si O2"
_cell_formula_units_Z 32
_cell_length_a 21.086060
_cell_length_b 11.288197
_cell_length_c 8.506515
_cell_angle_alpha 90.000000
_cell_angle_beta 127.108688
_cell_angle_gamma 90.000000
_cell_volume 1614.723894
_symmetry_space_group_name_H-M "P 2/C"
_symmetry_group_IT_number 13
_symmetry_cell_setting 'monoclinic'
loop_
_space_group_symop_operation_xyz
x,y,z
-x,y,1/2-z
-x,-y,-z
x,-y,1/2+z
loop_
_atom_site_type_symbol
_atom_site_label
_atom_site_fract_x
_atom_site_fract_y
_atom_site_fract_z
Si Si1 0.686862 0.965164 0.258879
Si Si2 0.968132 0.378887 0.527044
Si Si3 0.215313 0.625872 0.782303
Si Si4 0.588139 0.613962 0.868825
Si Si5 0.784385 0.883174 0.685020
Si Si6 0.966446 0.120918 0.374261
Si Si7 0.586631 0.121776 0.330923
Si Si8 0.689404 0.546333 0.295441
O O1 0.763908 0.023283 0.290225
O O2 0.622284 0.056823 0.232121
O O3 0.719740 0.886749 0.449487
O O4 0.643861 0.885265 0.066608
O O5 0.875796 0.406115 0.374037
O O6 0.990953 0.249520 0.485684
O O7 0.000000 0.370243 0.750000
O O8 0.000000 0.500000 0.500000
O O9 0.226651 0.759643 0.742335
O O10 0.265732 0.543615 0.748117
O O11 0.244178 0.618484 0.007576
O O12 0.500000 0.559592 0.750000
O O13 0.580782 0.741094 0.774295
O O14 0.635274 0.524246 0.833303
O O15 0.632460 0.628641 0.103801
O O16 0.871734 0.896413 0.742071
O O17 0.000000 0.125650 0.250000
O O18 0.000000 0.000000 0.500000
O O19 0.500000 0.070656 0.250000
#
# Coordination Sequence:
#
# PCOD8118608 Si02
#       8
#     4   4   4   4   4   4   4   4
#     4  10  20  35  55  78 107 141 179 222 270 322
#     4  11  23  40  61  87 118 153 194 242 295 353
#     4  10  21  37  56  80 109 142 182 225 274 331
#     4  10  20  34  53  78 107 140 178 220 268 321
#     4  10  21  37  56  80 109 142 182 225 274 331
#     4  11  23  40  61  87 118 153 194 242 295 353
#     4  10  20  34  53  78 107 140 178 220 268 321
#     4  10  20  35  55  78 107 141 179 222 270 322
#
# _framework density 19.817630999999999
#
# number of rings (size 3 to 8) (size 9 to 14) (size 15 to 20)
#    0.000    1.750    0.000    4.500    0.000    2.000 
#    0.000    6.250    0.000   12.000    0.000    0.000 
#    0.000    0.000    0.000    0.000    0.000    0.000 
#
# Total GULP energy -396547.019742 kJ/mol
# GULP energy per Si atom -12392.094367 kJ/mol
# Density = 1.977252 g / cm^3
# Si number density = 19.817631 Si / 1000 Ang^3
#
#
#
# Elastic Constant Matrix: (Units=GPa)
#
#
# Indices 1 2 3 4 5 6 
#
# 1 111.6732 38.7923 39.3856 0.0000 5.0257 0.0000
# 2 38.7923 100.2924 25.5918 0.0000 5.8790 0.0000
# 3 39.3856 25.5918 97.2194 0.0000 9.3589 0.0000
# 4 0.0000 0.0000 0.0000 65.1611 0.0000 77.7405
# 5 5.0257 5.8790 9.3589 0.0000 34.9368 0.0000
# 6 0.0000 0.0000 0.0000 77.7405 0.0000 185.4680
#
#
#
# Elastic Compliance Matrix: (Units=1/GPa)
#
#
# Indices 1 2 3 4 5 6 
#
# 1 0.011484 -0.003487 -0.003728 0.000000 -0.000067 0.000000
# 2 -0.003487 0.011787 -0.001589 0.000000 -0.001056 0.000000
# 3 -0.003728 -0.001589 0.012458 0.000000 -0.002534 0.000000
# 4 0.000000 0.000000 0.000000 0.030698 0.000000 -0.012867
# 5 -0.000067 -0.001056 -0.002534 0.000000 0.029489 0.000000
# 6 0.000000 0.000000 0.000000 -0.012867 0.000000 0.010785
#
#
# Mechanical properties :
#
#
# Convention : Reuss Voigt Hill
#
# Bulk Modulus (GPa) = 55.18029 57.41383 56.29706
# Shear Modulus (GPa) = 38.35875 70.80752 54.58314
#
# Velocity S-wave (km/s) = 4.40430 5.98391 5.25381
# Velocity P-wave (km/s) = 7.33269 8.76224 8.07914
#
# Compressibility (1/GPa) = 0.01812241
#
# Stress axis : x y z
#
# Youngs Moduli (GPa) = 87.08001 84.84136 80.26705
#
# Poissons Ratio (x) = 0.29581 0.29924
# Poissons Ratio (y) = 0.30361 0.12751
# Poissons Ratio (z) = 0.32464 0.13477
#
# Static dielectric constant tensor:
#      x y z
#    x 3.504060 0.000000 0.126540 
#    y 0.000000 3.734230 0.000000 
#    z 0.126540 0.000000 3.911850 
# 
# 
# High freq. dielectric constant tensor:
#      x y z
#    x 1.778560 0.000000 0.005710 
#    y 0.000000 1.779920 0.000000 
#    z 0.005710 0.000000 1.782210 
# 
# From -- ./inp_files/23376.got.cif
#   From: 2010.06.25/outbox.cif.g09.slc.cpg/sg13_12_cif.got.tgz:23376.got - 2010.06.28 04:50:58.
