data_PCOD8118841
_publ_section_title
;
Structure prediction by ZEFSAII (Michael W. Deem and Ramdas Pophale) SiO2 
 PCOD8118841
Probable space group: P 2/C
;
_chemical_formula_sum "Si O2"
_cell_formula_units_Z 30
_cell_length_a 14.315604
_cell_length_b 5.244410
_cell_length_c 21.185974
_cell_angle_alpha 90.000000
_cell_angle_beta 68.594831
_cell_angle_gamma 90.000000
_cell_volume 1480.863773
_symmetry_space_group_name_H-M "P 2/C"
_symmetry_group_IT_number 13
_symmetry_cell_setting 'monoclinic'
loop_
_space_group_symop_operation_xyz
x,y,z
-x,y,1/2-z
-x,-y,-z
x,-y,1/2+z
loop_
_atom_site_type_symbol
_atom_site_label
_atom_site_fract_x
_atom_site_fract_y
_atom_site_fract_z
Si Si1 0.112970 0.569176 0.742831
Si Si2 0.682370 0.047348 0.627568
Si Si3 0.807393 0.059641 0.715655
Si Si4 0.720248 0.531539 0.900944
Si Si5 0.614991 0.174488 0.831712
Si Si6 0.528109 0.184412 0.438201
Si Si7 0.500000 0.810386 0.250000
Si Si8 0.665874 0.554886 0.548051
O O1 0.144285 0.330378 0.777912
O O2 0.178150 0.587800 0.662183
O O3 0.000000 0.530115 0.750000
O O4 0.120821 0.824348 0.783131
O O5 0.781869 0.061089 0.647423
O O6 0.585186 0.015479 0.696084
O O7 0.676439 0.303584 0.587284
O O8 0.695604 0.803132 0.580048
O O9 0.707040 0.016073 0.780600
O O10 0.650722 0.330406 0.882222
O O11 0.645606 0.769111 0.923201
O O12 0.740853 0.450188 0.968615
O O13 0.560408 0.348000 0.789790
O O14 0.527642 0.975231 0.873000
O O15 0.449948 0.420694 0.449718
O O16 0.500000 0.000000 0.500000
#
# Coordination Sequence:
#
# PCOD8118841 Si02
#       8
#     4   4   4   4   4   4   2   4
#     4  11  23  43  72  96 117 154 209 268 326 372
#     4  11  24  39  58  87 124 172 205 246 300 366
#     4  10  22  42  64  91 126 158 199 265 315 367
#     4  11  24  38  60  89 128 159 208 264 313 358
#     4  10  20  36  54  83 123 164 204 248 299 350
#     4  12  21  35  55  86 128 169 205 247 298 362
#     4  10  20  36  52  82 120 166 216 242 280 364
#     4  12  24  37  59  88 128 169 210 240 297 377
#
# _framework density 20.258448000000001
#
# number of rings (size 3 to 8) (size 9 to 14) (size 15 to 20)
#    0.000    1.067    4.000    3.200    0.000    0.533 
#    0.000    0.000    0.000    4.800    0.000    0.000 
#    0.000    0.000    0.000    0.000    0.000    0.000 
#
# Total GULP energy -371661.019549 kJ/mol
# GULP energy per Si atom -12388.700652 kJ/mol
# Density = 2.021234 g / cm^3
# Si number density = 20.258448 Si / 1000 Ang^3
#
#
#
# Elastic Constant Matrix: (Units=GPa)
#
#
# Indices 1 2 3 4 5 6 
#
# 1 94.2454 27.6363 61.1985 0.0000 5.0284 0.0000
# 2 27.6363 111.1165 52.0109 0.0000 10.4602 0.0000
# 3 61.1985 52.0109 117.3285 0.0000 20.5358 0.0000
# 4 0.0000 0.0000 0.0000 27.7615 0.0000 9.5971
# 5 5.0284 10.4602 20.5358 0.0000 30.6379 0.0000
# 6 0.0000 0.0000 0.0000 9.5971 0.0000 24.5150
#
#
#
# Elastic Compliance Matrix: (Units=1/GPa)
#
#
# Indices 1 2 3 4 5 6 
#
# 1 0.016360 -0.000147 -0.009071 0.000000 0.003445 0.000000
# 2 -0.000147 0.011366 -0.004856 0.000000 -0.000601 0.000000
# 3 -0.009071 -0.004856 0.016831 0.000000 -0.008135 0.000000
# 4 0.000000 0.000000 0.000000 0.041659 0.000000 -0.016309
# 5 0.003445 -0.000601 -0.008135 0.000000 0.037732 0.000000
# 6 0.000000 0.000000 0.000000 -0.016309 0.000000 0.047176
#
#
# Mechanical properties :
#
#
# Convention : Reuss Voigt Hill
#
# Bulk Modulus (GPa) = 60.94739 67.15355 64.05047
# Shear Modulus (GPa) = 24.42079 28.70586 26.56333
#
# Velocity S-wave (km/s) = 3.47574 3.76837 3.62501
# Velocity P-wave (km/s) = 6.80132 7.22181 7.01471
#
# Compressibility (1/GPa) = 0.01640759
#
# Stress axis : x y z
#
# Youngs Moduli (GPa) = 61.12284 87.98207 59.41308
#
# Poissons Ratio (x) = 0.01296 0.53896
# Poissons Ratio (y) = 0.00901 0.28853
# Poissons Ratio (z) = 0.55447 0.42727
#
# Static dielectric constant tensor:
#      x y z
#    x 3.647610 0.000000 0.254240 
#    y 0.000000 3.526170 0.000000 
#    z 0.254240 0.000000 3.976710 
# 
# 
# High freq. dielectric constant tensor:
#      x y z
#    x 1.762790 0.000000 0.026300 
#    y 0.000000 1.786020 0.000000 
#    z 0.026300 0.000000 1.805660 
# 
# From -- ./inp_files/67541.got.cif
#   From: 2010.06.25/outbox.cif.g09.slc.cpg/sg13_34_cif.got.tgz:67541.got - 2010.06.28 04:50:58.
