data_PCOD8118633
_publ_section_title
;
Structure prediction by ZEFSAII (Michael W. Deem and Ramdas Pophale) SiO2 
 PCOD8118633
Probable space group: P 2/C
;
_chemical_formula_sum "Si O2"
_cell_formula_units_Z 32
_cell_length_a 11.149555
_cell_length_b 15.077915
_cell_length_c 9.794787
_cell_angle_alpha 90.000000
_cell_angle_beta 95.725243
_cell_angle_gamma 90.000000
_cell_volume 1638.407832
_symmetry_space_group_name_H-M "P 2/C"
_symmetry_group_IT_number 13
_symmetry_cell_setting 'monoclinic'
loop_
_space_group_symop_operation_xyz
x,y,z
-x,y,1/2-z
-x,-y,-z
x,-y,1/2+z
loop_
_atom_site_type_symbol
_atom_site_label
_atom_site_fract_x
_atom_site_fract_y
_atom_site_fract_z
Si Si1 0.496616 0.136297 0.460092
Si Si2 0.305740 0.727252 0.532272
Si Si3 0.363708 0.017149 0.631643
Si Si4 0.796560 0.985688 0.133010
Si Si5 0.310119 0.269587 0.346374
Si Si6 0.082404 0.828755 0.878826
Si Si7 0.495352 0.412432 0.410866
Si Si8 0.921484 0.804431 0.120144
O O1 0.620872 0.186266 0.509570
O O2 0.419380 0.111803 0.588075
O O3 0.415405 0.197020 0.354025
O O4 0.525808 0.050209 0.374104
O O5 0.267849 0.724278 0.685753
O O6 0.389480 0.641498 0.517879
O O7 0.181162 0.732365 0.432566
O O8 0.320594 0.017793 0.782550
O O9 0.249221 0.988609 0.527617
O O10 0.870744 0.897244 0.170915
O O11 0.874679 0.074056 0.166446
O O12 0.195139 0.237367 0.419707
O O13 0.369173 0.358766 0.418022
O O14 0.000000 0.788556 0.750000
O O15 0.007059 0.832369 0.006953
O O16 0.500000 0.433297 0.250000
O O17 0.500000 0.500000 0.500000
O O18 0.000000 0.760185 0.250000
#
# Coordination Sequence:
#
# PCOD8118633 Si02
#       8
#     4   4   4   4   4   4   4   4
#     4  10  20  34  55  84 109 152 202 259 297 350
#     4  10  20  40  62  90 116 159 195 239 294 361
#     4  11  23  33  54  77 118 151 205 259 313 348
#     4  12  23  39  50  79 117 164 217 260 296 340
#     4  10  20  37  67  89 115 151 207 238 288 359
#     4  12  22  39  61  79 113 167 222 250 284 340
#     4   9  20  41  71 102 126 145 178 234 301 374
#     4  12  25  40  54  82 125 162 207 261 296 330
#
# _framework density 19.531157
#
# number of rings (size 3 to 8) (size 9 to 14) (size 15 to 20)
#    0.000    1.250    3.750    4.125    1.750    1.500 
#    2.250    0.000    0.000    1.500    0.000    0.000 
#    0.000    0.000    0.000    0.000    0.000    0.000 
#
# Total GULP energy -396685.692252 kJ/mol
# GULP energy per Si atom -12396.427883 kJ/mol
# Density = 1.948670 g / cm^3
# Si number density = 19.531157 Si / 1000 Ang^3
#
#
#
# Elastic Constant Matrix: (Units=GPa)
#
#
# Indices 1 2 3 4 5 6 
#
# 1 117.4496 44.3372 45.8631 0.0000 10.2732 0.0000
# 2 44.3372 102.3005 32.4510 0.0000 3.2428 0.0000
# 3 45.8631 32.4510 78.8932 0.0000 5.6473 0.0000
# 4 0.0000 0.0000 0.0000 19.2306 0.0000 -0.8085
# 5 10.2732 3.2428 5.6473 0.0000 44.1369 0.0000
# 6 0.0000 0.0000 0.0000 -0.8085 0.0000 10.1787
#
#
#
# Elastic Compliance Matrix: (Units=1/GPa)
#
#
# Indices 1 2 3 4 5 6 
#
# 1 0.012127 -0.003453 -0.005496 0.000000 -0.001866 0.000000
# 2 -0.003453 0.012228 -0.003043 0.000000 0.000295 0.000000
# 3 -0.005496 -0.003043 0.017172 0.000000 -0.000694 0.000000
# 4 0.000000 0.000000 0.000000 0.052175 0.000000 0.004144
# 5 -0.001866 0.000295 -0.000694 0.000000 0.023158 0.000000
# 6 0.000000 0.000000 0.000000 0.004144 0.000000 0.098573
#
#
# Mechanical properties :
#
#
# Convention : Reuss Voigt Hill
#
# Bulk Modulus (GPa) = 57.00663 60.43843 58.72253
# Shear Modulus (GPa) = 20.38607 26.44204 23.41405
#
# Velocity S-wave (km/s) = 3.23425 3.68345 3.46613
# Velocity P-wave (km/s) = 6.57252 7.00729 6.79339
#
# Compressibility (1/GPa) = 0.01754182
#
# Stress axis : x y z
#
# Youngs Moduli (GPa) = 82.45866 81.78056 58.23519
#
# Poissons Ratio (x) = 0.28243 0.32006
# Poissons Ratio (y) = 0.28477 0.17722
# Poissons Ratio (z) = 0.45319 0.24887
#
# Static dielectric constant tensor:
#      x y z
#    x 3.828900 0.000000 0.061680 
#    y 0.000000 3.276800 0.000000 
#    z 0.061680 0.000000 3.501410 
# 
# 
# High freq. dielectric constant tensor:
#      x y z
#    x 1.779620 0.000000 0.005960 
#    y 0.000000 1.713430 0.000000 
#    z 0.005960 0.000000 1.757480 
# 
# From -- ./inp_files/16800.got.cif
#   From: 2010.06.25/outbox.cif.g09.slc.cpg/sg13_9_cif.got.tgz:16800.got - 2010.06.28 04:50:58.
