data_PCOD8118312
_publ_section_title
;
Structure prediction by ZEFSAII (Michael W. Deem and Ramdas Pophale) SiO2 
 PCOD8118312
Probable space group: P 2/C
;
_chemical_formula_sum "Si O2"
_cell_formula_units_Z 30
_cell_length_a 8.315542
_cell_length_b 11.635343
_cell_length_c 28.095232
_cell_angle_alpha 90.000000
_cell_angle_beta 35.197758
_cell_angle_gamma 90.000000
_cell_volume 1566.847047
_symmetry_space_group_name_H-M "P 2/C"
_symmetry_group_IT_number 13
_symmetry_cell_setting 'monoclinic'
loop_
_space_group_symop_operation_xyz
x,y,z
-x,y,1/2-z
-x,-y,-z
x,-y,1/2+z
loop_
_atom_site_type_symbol
_atom_site_label
_atom_site_fract_x
_atom_site_fract_y
_atom_site_fract_z
Si Si1 0.293380 0.674821 0.970360
Si Si2 0.394995 0.836162 0.226030
Si Si3 0.585207 0.101704 0.415801
Si Si4 0.899546 0.697859 0.377385
Si Si5 0.281016 0.524390 0.153778
Si Si6 0.000000 0.979978 0.250000
Si Si7 0.275212 0.708081 0.428139
Si Si8 0.412426 0.857074 0.480598
O O1 0.400505 0.803504 0.933633
O O2 0.546969 0.589806 0.898921
O O3 0.170278 0.664910 0.052492
O O4 0.026507 0.647929 0.001970
O O5 0.500000 0.901070 0.250000
O O6 0.664200 0.792944 0.131176
O O7 0.220086 0.727746 0.288784
O O8 0.212139 0.907017 0.231686
O O9 0.698274 0.155285 0.438491
O O10 0.844373 0.067388 0.321753
O O11 0.391615 0.990420 0.471450
O O12 0.812962 0.582054 0.372127
O O13 0.732610 0.812227 0.400634
O O14 0.478397 0.614656 0.133336
O O15 0.000000 0.492380 0.250000
O O16 0.243087 0.778223 0.485177
#
# Coordination Sequence:
#
# PCOD8118312 Si02
#       8
#     4   4   4   4   4   2   4   4
#     4  11  24  37  57  88 123 163 200 249 314 390
#     4  12  21  36  65  99 123 156 216 271 312 351
#     4  10  21  37  60  85 122 162 203 244 304 390
#     4  10  19  38  59  87 115 150 213 259 299 358
#     4  11  22  38  62  85 115 163 205 251 320 374
#     4  12  22  42  60  92 130 170 202 256 318 368
#     4  11  21  39  61  89 122 153 209 271 309 353
#     4   9  19  36  61  86 115 161 200 250 311 363
#
# _framework density 19.146730999999999
#
# number of rings (size 3 to 8) (size 9 to 14) (size 15 to 20)
#    0.000    1.333    5.333    1.600    0.933    0.533 
#    2.400    0.000    0.000    0.000    0.000    0.000 
#    0.000    0.000    0.000    0.000    0.000    0.000 
#
# Total GULP energy -371769.239452 kJ/mol
# GULP energy per Si atom -12392.307982 kJ/mol
# Density = 1.910315 g / cm^3
# Si number density = 19.146731 Si / 1000 Ang^3
#
#
#
# Elastic Constant Matrix: (Units=GPa)
#
#
# Indices 1 2 3 4 5 6 
#
# 1 101.0642 43.1363 40.4280 0.0000 -4.8017 0.0000
# 2 43.1363 81.7849 50.3800 0.0000 -1.9789 0.0000
# 3 40.4280 50.3800 116.5855 0.0000 -1.2285 0.0000
# 4 0.0000 0.0000 0.0000 31.3168 0.0000 6.9377
# 5 -4.8017 -1.9789 -1.2285 0.0000 24.4523 0.0000
# 6 0.0000 0.0000 0.0000 6.9377 0.0000 13.8466
#
#
#
# Elastic Compliance Matrix: (Units=1/GPa)
#
#
# Indices 1 2 3 4 5 6 
#
# 1 0.013247 -0.005616 -0.002145 0.000000 0.002039 0.000000
# 2 -0.005616 0.019068 -0.006291 0.000000 0.000124 0.000000
# 3 -0.002145 -0.006291 0.012036 0.000000 -0.000326 0.000000
# 4 0.000000 0.000000 0.000000 0.035919 0.000000 -0.017997
# 5 0.002039 0.000124 -0.000326 0.000000 0.041290 0.000000
# 6 0.000000 0.000000 0.000000 -0.017997 0.000000 0.081237
#
#
# Mechanical properties :
#
#
# Convention : Reuss Voigt Hill
#
# Bulk Modulus (GPa) = 61.55213 63.03591 62.29402
# Shear Modulus (GPa) = 21.15812 24.95584 23.05698
#
# Velocity S-wave (km/s) = 3.32784 3.61418 3.47396
# Velocity P-wave (km/s) = 6.85444 7.10003 6.97832
#
# Compressibility (1/GPa) = 0.01624639
#
# Stress axis : x y z
#
# Youngs Moduli (GPa) = 75.49030 52.44525 83.08198
#
# Poissons Ratio (x) = 0.29453 0.17823
# Poissons Ratio (y) = 0.42396 0.52266
# Poissons Ratio (z) = 0.16194 0.32993
#
# Static dielectric constant tensor:
#      x y z
#    x 3.670380 0.000000 0.123820 
#    y 0.000000 3.353320 0.000000 
#    z 0.123820 0.000000 3.524320 
# 
# 
# High freq. dielectric constant tensor:
#      x y z
#    x 1.747590 0.000000 0.011260 
#    y 0.000000 1.725910 0.000000 
#    z 0.011260 0.000000 1.743770 
# 
# From -- ./inp_files/64469.got.cif
#   From: 2010.06.25/outbox.cif.g09.slc.cpg/sg13_33_cif.got.tgz:64469.got - 2010.06.28 04:50:58.
