data_PCOD8118370
_publ_section_title
;
Structure prediction by ZEFSAII (Michael W. Deem and Ramdas Pophale) SiO2 
 PCOD8118370
Probable space group: P 2/C
;
_chemical_formula_sum "Si O2"
_cell_formula_units_Z 20
_cell_length_a 4.960629
_cell_length_b 13.474943
_cell_length_c 13.633760
_cell_angle_alpha 90.000000
_cell_angle_beta 98.065693
_cell_angle_gamma 90.000000
_cell_volume 902.322594
_symmetry_space_group_name_H-M "P 2/C"
_symmetry_group_IT_number 13
_symmetry_cell_setting 'monoclinic'
loop_
_space_group_symop_operation_xyz
x,y,z
-x,y,1/2-z
-x,-y,-z
x,-y,1/2+z
loop_
_atom_site_type_symbol
_atom_site_label
_atom_site_fract_x
_atom_site_fract_y
_atom_site_fract_z
Si Si1 0.258530 0.618212 0.551288
Si Si2 0.290904 0.601514 0.078518
Si Si3 0.582749 0.179071 0.364025
Si Si4 0.765909 0.788356 0.313174
Si Si5 0.118950 0.106067 0.477561
O O1 0.413759 0.611534 0.455547
O O2 0.258966 0.513306 0.609145
O O3 0.419751 0.701788 0.621301
O O4 0.943198 0.639707 0.509378
O O5 0.279423 0.670463 0.173958
O O6 0.500000 0.151325 0.250000
O O7 0.400068 0.113411 0.429959
O O8 0.897096 0.154829 0.396222
O O9 0.500000 0.836447 0.250000
O O10 0.832135 0.836439 0.419923
O O11 0.000000 0.811987 0.250000
O O12 0.000000 0.000000 0.500000
#
# Coordination Sequence:
#
# PCOD8118370 Si02
#       5
#     4   4   4   4   4
#     4  10  19  38  65  95 132 178 217 265 327 400
#     4  10  20  37  64  94 136 178 217 263 328 397
#     4  12  24  44  73 101 132 176 227 279 343 409
#     4  12  24  41  68  98 133 180 227 276 339 408
#     4  12  27  48  68  96 136 176 226 292 346 396
#
# _framework density 22.165023999999999
#
# number of rings (size 3 to 8) (size 9 to 14) (size 15 to 20)
#    0.000    0.800    4.000    3.600    0.000    3.200 
#    0.000    2.000    0.000    0.000    0.000    0.000 
#    0.000    0.000    0.000    0.000    0.000    0.000 
#
# Total GULP energy -247911.369218 kJ/mol
# GULP energy per Si atom -12395.568461 kJ/mol
# Density = 2.211458 g / cm^3
# Si number density = 22.165024 Si / 1000 Ang^3
#
#
#
# Elastic Constant Matrix: (Units=GPa)
#
#
# Indices 1 2 3 4 5 6 
#
# 1 110.7783 13.2195 25.8259 0.0000 1.8174 0.0000
# 2 13.2195 103.8305 28.2986 0.0000 4.1549 0.0000
# 3 25.8259 28.2986 113.8283 0.0000 7.8337 0.0000
# 4 0.0000 0.0000 0.0000 7.1960 0.0000 -10.1371
# 5 1.8174 4.1549 7.8337 0.0000 40.1331 0.0000
# 6 0.0000 0.0000 0.0000 -10.1371 0.0000 34.6319
#
#
#
# Elastic Compliance Matrix: (Units=1/GPa)
#
#
# Indices 1 2 3 4 5 6 
#
# 1 0.009575 -0.000673 -0.002007 0.000000 0.000028 0.000000
# 2 -0.000673 0.010392 -0.002391 0.000000 -0.000579 0.000000
# 3 -0.002007 -0.002391 0.009945 0.000000 -0.001603 0.000000
# 4 0.000000 0.000000 0.000000 0.236475 0.000000 0.069218
# 5 0.000028 -0.000579 -0.001603 0.000000 0.025289 0.000000
# 6 0.000000 0.000000 0.000000 0.069218 0.000000 0.049136
#
#
# Mechanical properties :
#
#
# Convention : Reuss Voigt Hill
#
# Bulk Modulus (GPa) = 50.58271 51.45834 51.02052
# Shear Modulus (GPa) = 13.98434 33.79841 23.89138
#
# Velocity S-wave (km/s) = 2.51454 3.90917 3.28668
# Velocity P-wave (km/s) = 5.59473 6.60620 6.12139
#
# Compressibility (1/GPa) = 0.01976960
#
# Stress axis : x y z
#
# Youngs Moduli (GPa) = 104.44089 96.23192 100.55099
#
# Poissons Ratio (x) = 0.06478 0.20180
# Poissons Ratio (y) = 0.07031 0.24040
# Poissons Ratio (z) = 0.20961 0.23008
#
# Static dielectric constant tensor:
#      x y z
#    x 4.367580 0.000000 -0.241830 
#    y 0.000000 4.350730 0.000000 
#    z -0.241830 0.000000 4.484930 
# 
# 
# High freq. dielectric constant tensor:
#      x y z
#    x 1.893260 0.000000 0.008660 
#    y 0.000000 1.877430 0.000000 
#    z 0.008660 0.000000 1.848460 
# 
# From -- ./inp_files/26102.got.cif
#   From: 2010.06.25/outbox.cif.g09.slc.cpg/sg13_14_cif.got.tgz:26102.got - 2010.06.28 04:50:58.
