data_PCOD8118659
_publ_section_title
;
Structure prediction by ZEFSAII (Michael W. Deem and Ramdas Pophale) SiO2 
 PCOD8118659
Probable space group: P 2/C
;
_chemical_formula_sum "Si O2"
_cell_formula_units_Z 28
_cell_length_a 32.098465
_cell_length_b 8.193631
_cell_length_c 31.769406
_cell_angle_alpha 90.000000
_cell_angle_beta 8.859952
_cell_angle_gamma 90.000000
_cell_volume 1286.904445
_symmetry_space_group_name_H-M "P 2/C"
_symmetry_group_IT_number 13
_symmetry_cell_setting 'monoclinic'
loop_
_space_group_symop_operation_xyz
x,y,z
-x,y,1/2-z
-x,-y,-z
x,-y,1/2+z
loop_
_atom_site_type_symbol
_atom_site_label
_atom_site_fract_x
_atom_site_fract_y
_atom_site_fract_z
Si Si1 0.257568 0.795616 0.224847
Si Si2 0.112053 0.009424 0.536466
Si Si3 0.618153 0.194144 0.510432
Si Si4 0.602968 0.536081 0.750394
Si Si5 0.754549 0.830004 0.780705
Si Si6 0.903849 0.321432 0.699896
Si Si7 0.247193 0.755180 0.974232
O O1 0.168189 0.669433 0.277684
O O2 0.054606 0.783694 0.466778
O O3 0.275691 0.975341 0.186880
O O4 0.550286 0.748821 0.950918
O O5 0.163594 0.087067 0.530548
O O6 0.012917 0.142299 0.601890
O O7 0.388490 0.942945 0.240783
O O8 0.885701 0.869002 0.767416
O O9 0.503243 0.352918 0.648530
O O10 0.697533 0.242874 0.383611
O O11 0.683614 0.600695 0.623969
O O12 0.865578 0.545201 0.518946
O O13 0.366833 0.651562 0.003383
O O14 0.500000 0.807316 0.750000
O O15 0.000000 0.699901 0.250000
#
# Coordination Sequence:
#
# PCOD8118659 Si02
#       7
#     4   4   4   4   4   4   4
#     4  10  20  34  57  88 120 170 223 267 311 349
#     4  11  23  39  70  92 121 161 210 260 304 362
#     4  12  23  42  61  98 131 164 210 262 316 377
#     4  11  25  41  66  92 130 170 200 251 328 384
#     4  10  21  33  56  89 125 165 212 278 315 345
#     4  11  21  41  62  92 122 173 226 256 295 382
#     4  11  23  44  70  96 121 155 204 251 306 387
#
# _framework density 21.757638
#
# number of rings (size 3 to 8) (size 9 to 14) (size 15 to 20)
#    0.000    1.143    1.429    6.857    4.000    0.000 
#    0.000    7.143    0.000    1.714    0.000    0.000 
#    0.000    0.000    0.000    0.000    0.000    0.000 
#
# Total GULP energy -347366.405862 kJ/mol
# GULP energy per Si atom -12405.943066 kJ/mol
# Density = 2.170812 g / cm^3
# Si number density = 21.757638 Si / 1000 Ang^3
#
#
#
# Elastic Constant Matrix: (Units=GPa)
#
#
# Indices 1 2 3 4 5 6 
#
# 1 121.5147 43.5948 51.5759 0.0000 -1.6739 0.0000
# 2 43.5948 63.3271 21.3369 0.0000 5.8005 0.0000
# 3 51.5759 21.3369 133.0061 0.0000 3.6270 0.0000
# 4 0.0000 0.0000 0.0000 40.8410 0.0000 5.0796
# 5 -1.6739 5.8005 3.6270 0.0000 45.8985 0.0000
# 6 0.0000 0.0000 0.0000 5.0796 0.0000 35.7446
#
#
#
# Elastic Compliance Matrix: (Units=1/GPa)
#
#
# Indices 1 2 3 4 5 6 
#
# 1 0.012523 -0.007532 -0.003694 0.000000 0.001701 0.000000
# 2 -0.007532 0.021391 -0.000431 0.000000 -0.002944 0.000000
# 3 -0.003694 -0.000431 0.009042 0.000000 -0.000795 0.000000
# 4 0.000000 0.000000 0.000000 0.024926 0.000000 -0.003542
# 5 0.001701 -0.002944 -0.000795 0.000000 0.022284 0.000000
# 6 0.000000 0.000000 0.000000 -0.003542 0.000000 0.028480
#
#
# Mechanical properties :
#
#
# Convention : Reuss Voigt Hill
#
# Bulk Modulus (GPa) = 50.91102 61.20701 56.05901
# Shear Modulus (GPa) = 33.66872 37.91952 35.79412
#
# Velocity S-wave (km/s) = 3.93802 4.17923 4.06042
# Velocity P-wave (km/s) = 6.64284 7.17498 6.91403
#
# Compressibility (1/GPa) = 0.01964211
#
# Stress axis : x y z
#
# Youngs Moduli (GPa) = 79.85283 46.74894 110.59897
#
# Poissons Ratio (x) = 0.35211 0.40857
# Poissons Ratio (y) = 0.60145 0.04762
# Poissons Ratio (z) = 0.29499 0.02013
#
# Static dielectric constant tensor:
#      x y z
#    x 3.806670 0.000000 -0.167510 
#    y 0.000000 3.632390 0.000000 
#    z -0.167510 0.000000 4.263170 
# 
# 
# High freq. dielectric constant tensor:
#      x y z
#    x 1.846380 0.000000 -0.005180 
#    y 0.000000 1.830710 0.000000 
#    z -0.005180 0.000000 1.883120 
# 
# From -- ./inp_files/98034.got.cif
#   From: 2010.06.25/outbox.cif.g09.slc.cpg/sg13_50_cif.got.tgz:98034.got - 2010.06.28 04:50:58.
