data_PCOD8118427
_publ_section_title
;
Structure prediction by ZEFSAII (Michael W. Deem and Ramdas Pophale) SiO2 
 PCOD8118427
Probable space group: P 2/C
;
_chemical_formula_sum "Si O2"
_cell_formula_units_Z 28
_cell_length_a 26.462199
_cell_length_b 5.835327
_cell_length_c 16.865684
_cell_angle_alpha 90.000000
_cell_angle_beta 148.959738
_cell_angle_gamma 90.000000
_cell_volume 1342.894596
_symmetry_space_group_name_H-M "P 2/C"
_symmetry_group_IT_number 13
_symmetry_cell_setting 'monoclinic'
loop_
_space_group_symop_operation_xyz
x,y,z
-x,y,1/2-z
-x,-y,-z
x,-y,1/2+z
loop_
_atom_site_type_symbol
_atom_site_label
_atom_site_fract_x
_atom_site_fract_y
_atom_site_fract_z
Si Si1 0.501012 0.748995 0.456680
Si Si2 0.146916 0.526662 0.861141
Si Si3 0.357907 0.856380 0.984621
Si Si4 0.367527 0.439249 0.652806
Si Si5 0.861505 0.824363 0.803104
Si Si6 0.000000 0.825332 0.750000
Si Si7 0.012597 0.145205 0.628467
Si Si8 0.500000 0.215661 0.250000
O O1 0.500000 0.500000 0.500000
O O2 0.600042 0.744014 0.538504
O O3 0.407377 0.741634 0.271505
O O4 0.500000 0.000000 0.500000
O O5 0.142678 0.623914 0.766562
O O6 0.079315 0.304805 0.772832
O O7 0.099496 0.689266 0.863520
O O8 0.259880 0.474362 0.035450
O O9 0.245281 0.916726 0.815803
O O10 0.363101 0.675675 0.061719
O O11 0.419783 0.077144 0.092547
O O12 0.443593 0.646880 0.743738
O O13 0.916630 0.043954 0.843167
O O14 0.920990 0.733354 0.960573
O O15 0.032511 0.962234 0.871734
#
# Coordination Sequence:
#
# PCOD8118427 Si02
#       8
#     4   4   4   4   4   2   4   2
#     4  12  26  45  63  98 146 177 222 288 350 409
#     4  10  21  39  63  92 124 165 220 265 334 398
#     4  11  22  41  66  93 124 178 228 282 334 413
#     4  11  23  41  67  95 124 181 234 276 336 417
#     4   9  21  37  64  94 117 161 220 271 329 379
#     4  10  22  38  58  86 132 162 204 256 334 410
#     4  10  19  40  61  90 127 160 209 274 324 402
#     4  12  18  38  72  90 130 168 244 286 328 404
#
# _framework density 20.850482
#
# number of rings (size 3 to 8) (size 9 to 14) (size 15 to 20)
#    0.000    1.429    2.857    2.571    0.000    1.143 
#    5.143    0.000    0.000    0.000    0.000    0.000 
#    0.000    0.000    0.000    0.000    0.000    0.000 
#
# Total GULP energy -346981.341668 kJ/mol
# GULP energy per Si atom -12392.190774 kJ/mol
# Density = 2.080303 g / cm^3
# Si number density = 20.850482 Si / 1000 Ang^3
#
#
#
# Elastic Constant Matrix: (Units=GPa)
#
#
# Indices 1 2 3 4 5 6 
#
# 1 127.6247 45.6605 67.5308 0.0000 15.5803 0.0000
# 2 45.6605 98.2841 37.3883 0.0000 11.0581 0.0000
# 3 67.5308 37.3883 122.6084 0.0000 32.2547 0.0000
# 4 0.0000 0.0000 0.0000 29.0941 0.0000 -4.7328
# 5 15.5803 11.0581 32.2547 0.0000 28.6930 0.0000
# 6 0.0000 0.0000 0.0000 -4.7328 0.0000 14.6193
#
#
#
# Elastic Compliance Matrix: (Units=1/GPa)
#
#
# Indices 1 2 3 4 5 6 
#
# 1 0.012066 -0.003503 -0.005977 0.000000 0.001517 0.000000
# 2 -0.003503 0.012536 -0.001595 0.000000 -0.001137 0.000000
# 3 -0.005977 -0.001595 0.015503 0.000000 -0.013568 0.000000
# 4 0.000000 0.000000 0.000000 0.036282 0.000000 0.011746
# 5 0.001517 -0.001137 -0.013568 0.000000 0.049719 0.000000
# 6 0.000000 0.000000 0.000000 0.011746 0.000000 0.072205
#
#
# Mechanical properties :
#
#
# Convention : Reuss Voigt Hill
#
# Bulk Modulus (GPa) = 55.68471 72.18627 63.93549
# Shear Modulus (GPa) = 22.08040 27.67712 24.87876
#
# Velocity S-wave (km/s) = 3.25774 3.64731 3.45802
# Velocity P-wave (km/s) = 6.39649 7.24108 6.83185
#
# Compressibility (1/GPa) = 0.01795825
#
# Stress axis : x y z
#
# Youngs Moduli (GPa) = 82.87816 79.76818 64.50164
#
# Poissons Ratio (x) = 0.27940 0.38550
# Poissons Ratio (y) = 0.29029 0.10285
# Poissons Ratio (z) = 0.49533 0.12719
#
# Static dielectric constant tensor:
#      x y z
#    x 3.979840 0.000000 0.182870 
#    y 0.000000 3.765320 0.000000 
#    z 0.182870 0.000000 4.067650 
# 
# 
# High freq. dielectric constant tensor:
#      x y z
#    x 1.822240 0.000000 0.007820 
#    y 0.000000 1.808440 0.000000 
#    z 0.007820 0.000000 1.817810 
# 
# From -- ./inp_files/54748.got.cif
#   From: 2010.06.25/outbox.cif.g09.slc.cpg/sg13_28_cif.got.tgz:54748.got - 2010.06.28 04:50:58.
