data_PCOD8118874
_publ_section_title
;
Structure prediction by ZEFSAII (Michael W. Deem and Ramdas Pophale) SiO2 
 PCOD8118874
Probable space group: P 2/C
;
_chemical_formula_sum "Si O2"
_cell_formula_units_Z 28
_cell_length_a 20.036275
_cell_length_b 9.593670
_cell_length_c 15.036573
_cell_angle_alpha 90.000000
_cell_angle_beta 29.376193
_cell_angle_gamma 90.000000
_cell_volume 1417.837862
_symmetry_space_group_name_H-M "P 2/C"
_symmetry_group_IT_number 13
_symmetry_cell_setting 'monoclinic'
loop_
_space_group_symop_operation_xyz
x,y,z
-x,y,1/2-z
-x,-y,-z
x,-y,1/2+z
loop_
_atom_site_type_symbol
_atom_site_label
_atom_site_fract_x
_atom_site_fract_y
_atom_site_fract_z
Si Si1 0.202273 0.456125 0.204646
Si Si2 0.606957 0.685839 0.501028
Si Si3 0.199634 0.795808 0.364702
Si Si4 0.998084 0.699938 0.456611
Si Si5 0.161898 0.584085 0.561730
Si Si6 0.106822 0.076522 0.554440
Si Si7 0.694672 0.295925 0.100508
O O1 0.091421 0.577440 0.307913
O O2 0.220649 0.372016 0.090964
O O3 0.150574 0.360009 0.345137
O O4 0.342272 0.526564 0.075775
O O5 0.671974 0.787947 0.351549
O O6 0.445620 0.693594 0.681771
O O7 0.663905 0.723266 0.532285
O O8 0.062761 0.751560 0.473478
O O9 0.223330 0.693632 0.420543
O O10 0.181365 0.953850 0.415889
O O11 0.981587 0.824857 0.407178
O O12 0.214645 0.429085 0.478400
O O13 0.000000 0.588568 0.750000
O O14 0.227044 0.158621 0.462049
O O15 0.000000 0.014788 0.750000
#
# Coordination Sequence:
#
# PCOD8118874 Si02
#       7
#     4   4   4   4   4   4   4
#     4   9  18  34  60  85 112 144 197 240 291 341
#     4   9  21  42  60  86 113 160 197 239 298 349
#     4  11  23  37  59  86 126 151 191 245 295 348
#     4  10  20  36  56  87 117 153 189 238 293 350
#     4  11  19  35  59  89 116 148 188 252 296 337
#     4  12  24  37  57  91 119 158 196 237 293 357
#     4  10  22  40  65  80 119 154 202 243 285 356
#
# _framework density 19.748380000000001
#
# number of rings (size 3 to 8) (size 9 to 14) (size 15 to 20)
#    0.000    1.714    1.429    4.714    4.000    1.143 
#    0.000    0.000    0.000    1.714    0.000    0.000 
#    0.000    0.000    0.000    0.000    0.000    0.000 
#
# Total GULP energy -347179.553614 kJ/mol
# GULP energy per Si atom -12399.269772 kJ/mol
# Density = 1.970343 g / cm^3
# Si number density = 19.748380 Si / 1000 Ang^3
#
#
#
# Elastic Constant Matrix: (Units=GPa)
#
#
# Indices 1 2 3 4 5 6 
#
# 1 40.6588 16.4557 18.0570 0.0000 10.3196 0.0000
# 2 16.4557 69.9411 30.8971 0.0000 14.6038 0.0000
# 3 18.0570 30.8971 138.5044 0.0000 6.3316 0.0000
# 4 0.0000 0.0000 0.0000 29.8945 0.0000 11.8170
# 5 10.3196 14.6038 6.3316 0.0000 30.3224 0.0000
# 6 0.0000 0.0000 0.0000 11.8170 0.0000 16.4012
#
#
#
# Elastic Compliance Matrix: (Units=1/GPa)
#
#
# Indices 1 2 3 4 5 6 
#
# 1 0.029315 -0.004228 -0.002540 0.000000 -0.007410 0.000000
# 2 -0.004228 0.018076 -0.003179 0.000000 -0.006603 0.000000
# 3 -0.002540 -0.003179 0.008229 0.000000 0.000677 0.000000
# 4 0.000000 0.000000 0.000000 0.046772 0.000000 -0.033699
# 5 -0.007410 -0.006603 0.000677 0.000000 0.038539 0.000000
# 6 0.000000 0.000000 0.000000 -0.033699 0.000000 0.085251
#
#
# Mechanical properties :
#
#
# Convention : Reuss Voigt Hill
#
# Bulk Modulus (GPa) = 27.99103 42.21377 35.10240
# Shear Modulus (GPa) = 19.38098 27.56991 23.47545
#
# Velocity S-wave (km/s) = 3.13612 3.74044 3.45153
# Velocity P-wave (km/s) = 5.22669 6.33062 5.80496
#
# Compressibility (1/GPa) = 0.03572573
#
# Stress axis : x y z
#
# Youngs Moduli (GPa) = 34.11248 55.32327 121.51595
#
# Poissons Ratio (x) = 0.23390 0.30864
# Poissons Ratio (y) = 0.14422 0.38632
# Poissons Ratio (z) = 0.08664 0.17588
#
# Static dielectric constant tensor:
#      x y z
#    x 3.533630 0.000000 0.168480 
#    y 0.000000 3.387460 0.000000 
#    z 0.168480 0.000000 3.829980 
# 
# 
# High freq. dielectric constant tensor:
#      x y z
#    x 1.765880 0.000000 0.020680 
#    y 0.000000 1.744020 0.000000 
#    z 0.020680 0.000000 1.778740 
# 
# From -- ./inp_files/57454.got.cif
#   From: 2010.06.25/outbox.cif.g09.slc.cpg/sg13_29_cif.got.tgz:57454.got - 2010.06.28 04:50:58.
