data_PCOD8118303
_publ_section_title
;
Structure prediction by ZEFSAII (Michael W. Deem and Ramdas Pophale) SiO2 
 PCOD8118303
Probable space group: P 2/C
;
_chemical_formula_sum "Si O2"
_cell_formula_units_Z 20
_cell_length_a 14.837749
_cell_length_b 5.176881
_cell_length_c 13.530739
_cell_angle_alpha 90.000000
_cell_angle_beta 78.593151
_cell_angle_gamma 90.000000
_cell_volume 1018.810659
_symmetry_space_group_name_H-M "P 2/C"
_symmetry_group_IT_number 13
_symmetry_cell_setting 'monoclinic'
loop_
_space_group_symop_operation_xyz
x,y,z
-x,y,1/2-z
-x,-y,-z
x,-y,1/2+z
loop_
_atom_site_type_symbol
_atom_site_label
_atom_site_fract_x
_atom_site_fract_y
_atom_site_fract_z
Si Si1 0.128320 0.215192 0.964029
Si Si2 0.523146 0.254975 0.361080
Si Si3 0.608946 0.759647 0.430885
Si Si4 0.981500 0.943467 0.360590
Si Si5 0.194722 0.724161 0.032327
O O1 0.186432 0.474888 0.963743
O O2 0.044768 0.184945 0.062686
O O3 0.200203 0.977325 0.960718
O O4 0.075998 0.201567 0.871183
O O5 0.500000 0.234841 0.250000
O O6 0.567812 0.531706 0.373184
O O7 0.432515 0.228328 0.449129
O O8 0.593052 0.027021 0.376149
O O9 0.717052 0.708000 0.416942
O O10 0.896146 0.741033 0.378916
O O11 0.000000 0.061536 0.250000
#
# Coordination Sequence:
#
# PCOD8118303 Si02
#       5
#     4   4   4   4   4
#     4   9  20  36  53  74 115 144 179 224 273 311
#     4  10  21  40  60  83 114 150 180 228 292 344
#     4  10  21  38  60  84 116 144 185 236 278 329
#     4   9  20  36  55  78 110 151 182 221 273 322
#     4  10  19  38  54  81 110 144 183 231 264 322
#
# _framework density 19.630731999999998
#
# number of rings (size 3 to 8) (size 9 to 14) (size 15 to 20)
#    1.200    1.200    0.000    2.400    0.000    0.800 
#    7.200    0.000    0.000    0.000    0.000    0.000 
#    0.000    0.000    0.000    0.000    0.000    0.000 
#
# Total GULP energy -247828.817429 kJ/mol
# GULP energy per Si atom -12391.440871 kJ/mol
# Density = 1.958605 g / cm^3
# Si number density = 19.630732 Si / 1000 Ang^3
#
#
#
# Elastic Constant Matrix: (Units=GPa)
#
#
# Indices 1 2 3 4 5 6 
#
# 1 81.6101 15.7865 22.9697 0.0000 25.7005 0.0000
# 2 15.7865 103.6355 15.3545 0.0000 1.5577 0.0000
# 3 22.9697 15.3545 112.2942 0.0000 19.2119 0.0000
# 4 0.0000 0.0000 0.0000 17.5736 0.0000 7.4875
# 5 25.7005 1.5577 19.2119 0.0000 14.4611 0.0000
# 6 0.0000 0.0000 0.0000 7.4875 0.0000 22.5294
#
#
#
# Elastic Compliance Matrix: (Units=1/GPa)
#
#
# Indices 1 2 3 4 5 6 
#
# 1 0.030905 -0.004488 0.004667 0.000000 -0.060642 0.000000
# 2 -0.004488 0.010510 -0.002187 0.000000 0.009749 0.000000
# 3 0.004667 -0.002187 0.012460 0.000000 -0.024613 0.000000
# 4 0.000000 0.000000 0.000000 0.066290 0.000000 -0.022031
# 5 -0.060642 0.009749 -0.024613 0.000000 0.208574 0.000000
# 6 0.000000 0.000000 0.000000 -0.022031 0.000000 0.051708
#
#
# Mechanical properties :
#
#
# Convention : Reuss Voigt Hill
#
# Bulk Modulus (GPa) = 20.05605 45.08459 32.57032
# Shear Modulus (GPa) = 12.46621 27.14142 19.80382
#
# Velocity S-wave (km/s) = 2.52273 3.72237 3.17963
# Velocity P-wave (km/s) = 4.32717 6.44134 5.48704
#
# Compressibility (1/GPa) = 0.04986027
#
# Stress axis : x y z
#
# Youngs Moduli (GPa) = 32.35702 95.14474 80.25387
#
# Poissons Ratio (x) = 0.42698 -0.37454
# Poissons Ratio (y) = 0.14521 0.17552
# Poissons Ratio (z) = -0.15101 0.20809
#
# Static dielectric constant tensor:
#      x y z
#    x 3.408570 0.000000 0.110280 
#    y 0.000000 3.508650 0.000000 
#    z 0.110280 0.000000 3.265270 
# 
# 
# High freq. dielectric constant tensor:
#      x y z
#    x 1.757190 0.000000 0.022470 
#    y 0.000000 1.768510 0.000000 
#    z 0.022470 0.000000 1.737310 
# 
# From -- ./inp_files/35414.got.cif
#   From: 2010.06.25/outbox.cif.g09.slc.cpg/sg13_18_cif.got.tgz:35414.got - 2010.06.28 04:50:58.
