data_PCOD8118431
_publ_section_title
;
Structure prediction by ZEFSAII (Michael W. Deem and Ramdas Pophale) SiO2 
 PCOD8118431
Probable space group: P 2/C
;
_chemical_formula_sum "Si O2"
_cell_formula_units_Z 32
_cell_length_a 18.734048
_cell_length_b 8.386205
_cell_length_c 13.194479
_cell_angle_alpha 90.000000
_cell_angle_beta 45.811307
_cell_angle_gamma 90.000000
_cell_volume 1486.406803
_symmetry_space_group_name_H-M "P 2/C"
_symmetry_group_IT_number 13
_symmetry_cell_setting 'monoclinic'
loop_
_space_group_symop_operation_xyz
x,y,z
-x,y,1/2-z
-x,-y,-z
x,-y,1/2+z
loop_
_atom_site_type_symbol
_atom_site_label
_atom_site_fract_x
_atom_site_fract_y
_atom_site_fract_z
Si Si1 0.718415 0.433525 0.897143
Si Si2 0.382050 0.734730 0.589299
Si Si3 0.748559 0.584039 0.067656
Si Si4 0.287305 0.053454 0.330849
Si Si5 0.888105 0.452175 0.096825
Si Si6 0.385367 0.757374 0.148329
Si Si7 0.246969 0.897112 0.565971
Si Si8 0.892392 0.922132 0.618848
O O1 0.643317 0.558020 0.919071
O O2 0.715298 0.445038 0.021899
O O3 0.829750 0.473743 0.750141
O O4 0.677241 0.264206 0.895489
O O5 0.325015 0.773844 0.752726
O O6 0.498904 0.741757 0.487017
O O7 0.339939 0.860626 0.548080
O O8 0.780164 0.741597 0.973832
O O9 0.843172 0.522099 0.037179
O O10 0.654805 0.624356 0.232336
O O11 0.181595 0.995860 0.388588
O O12 0.370700 0.931499 0.208484
O O13 0.277708 0.044245 0.462136
O O14 0.886465 0.262762 0.097413
O O15 0.000000 0.500000 0.000000
O O16 0.148939 0.948144 0.726246
O O17 0.000000 0.000000 0.500000
#
# Coordination Sequence:
#
# PCOD8118431 Si02
#       8
#     4   4   4   4   4   4   4   4
#     4  10  20  41  61  91 127 163 202 268 312 366
#     4  10  19  40  63  92 128 166 207 255 308 360
#     4   9  20  39  63  90 123 164 210 256 312 379
#     4  10  21  40  61  90 128 165 204 254 309 371
#     4  11  23  41  65  88 122 164 209 263 319 377
#     4  10  21  35  66  93 123 168 211 251 306 378
#     4   9  20  41  65  88 127 170 207 252 312 383
#     4  11  24  43  64  91 128 162 209 268 320 370
#
# _framework density 21.528428000000002
#
# number of rings (size 3 to 8) (size 9 to 14) (size 15 to 20)
#    0.000    2.000    3.750    0.750    5.250    5.500 
#    4.500    1.250    0.000    1.500    0.000    0.000 
#    0.000    0.000    0.000    0.000    0.000    0.000 
#
# Total GULP energy -396689.347829 kJ/mol
# GULP energy per Si atom -12396.542120 kJ/mol
# Density = 2.147943 g / cm^3
# Si number density = 21.528428 Si / 1000 Ang^3
#
#
#
# Elastic Constant Matrix: (Units=GPa)
#
#
# Indices 1 2 3 4 5 6 
#
# 1 102.3334 15.5008 71.2651 0.0000 -1.0133 0.0000
# 2 15.5008 18.5337 12.2027 0.0000 1.6727 0.0000
# 3 71.2651 12.2027 126.1934 0.0000 -10.6602 0.0000
# 4 0.0000 0.0000 0.0000 32.9026 0.0000 2.0326
# 5 -1.0133 1.6727 -10.6602 0.0000 53.7264 0.0000
# 6 0.0000 0.0000 0.0000 2.0326 0.0000 34.9992
#
#
#
# Elastic Compliance Matrix: (Units=1/GPa)
#
#
# Indices 1 2 3 4 5 6 
#
# 1 0.017373 -0.008430 -0.009099 0.000000 -0.001215 0.000000
# 2 -0.008430 0.062178 -0.001453 0.000000 -0.002383 0.000000
# 3 -0.009099 -0.001453 0.013417 0.000000 0.002536 0.000000
# 4 0.000000 0.000000 0.000000 0.030502 0.000000 -0.001771
# 5 -0.001215 -0.002383 0.002536 0.000000 0.019167 0.000000
# 6 0.000000 0.000000 0.000000 -0.001771 0.000000 0.028675
#
#
# Mechanical properties :
#
#
# Convention : Reuss Voigt Hill
#
# Bulk Modulus (GPa) = 18.18012 49.44418 33.81215
# Shear Modulus (GPa) = 21.96724 34.19842 28.08283
#
# Velocity S-wave (km/s) = 3.19781 3.98995 3.61564
# Velocity P-wave (km/s) = 4.70082 6.65155 5.75937
#
# Compressibility (1/GPa) = 0.05500514
#
# Stress axis : x y z
#
# Youngs Moduli (GPa) = 57.56006 16.08282 74.53039
#
# Poissons Ratio (x) = 0.13558 0.67812
# Poissons Ratio (y) = 0.48523 0.10831
# Poissons Ratio (z) = 0.52372 0.02337
#
# Static dielectric constant tensor:
#      x y z
#    x 3.668170 0.000000 0.403720 
#    y 0.000000 3.758680 0.000000 
#    z 0.403720 0.000000 3.956560 
# 
# 
# High freq. dielectric constant tensor:
#      x y z
#    x 1.840110 0.000000 0.007880 
#    y 0.000000 1.843760 0.000000 
#    z 0.007880 0.000000 1.844550 
# 
# From -- ./inp_files/57245.got.cif
#   From: 2010.06.25/outbox.cif.g09.slc.cpg/sg13_29_cif.got.tgz:57245.got - 2010.06.28 04:50:58.
