data_PCOD8118666
_publ_section_title
;
Structure prediction by ZEFSAII (Michael W. Deem and Ramdas Pophale) SiO2 
 PCOD8118666
Probable space group: P 2/C
;
_chemical_formula_sum "Si O2"
_cell_formula_units_Z 30
_cell_length_a 6.321704
_cell_length_b 11.317707
_cell_length_c 25.653929
_cell_angle_alpha 90.000000
_cell_angle_beta 119.923771
_cell_angle_gamma 90.000000
_cell_volume 1590.780313
_symmetry_space_group_name_H-M "P 2/C"
_symmetry_group_IT_number 13
_symmetry_cell_setting 'monoclinic'
loop_
_space_group_symop_operation_xyz
x,y,z
-x,y,1/2-z
-x,-y,-z
x,-y,1/2+z
loop_
_atom_site_type_symbol
_atom_site_label
_atom_site_fract_x
_atom_site_fract_y
_atom_site_fract_z
Si Si1 0.510861 0.252918 0.346763
Si Si2 0.391107 0.299655 0.445389
Si Si3 0.257884 0.950462 0.690481
Si Si4 0.000000 0.825877 0.750000
Si Si5 0.104985 0.907876 0.080512
Si Si6 0.915384 0.655657 0.027867
Si Si7 0.699849 0.919884 0.499551
Si Si8 0.930102 0.581964 0.914248
O O1 0.469430 0.229708 0.402760
O O2 0.679988 0.151533 0.343505
O O3 0.667266 0.374995 0.358923
O O4 0.243218 0.255583 0.286314
O O5 0.625020 0.372242 0.495647
O O6 0.306196 0.209234 0.478158
O O7 0.158916 0.384317 0.404978
O O8 0.500000 0.988041 0.750000
O O9 0.045642 0.908070 0.704514
O O10 0.180925 0.068916 0.649732
O O11 0.959003 0.785043 0.057525
O O12 0.330406 0.905866 0.067055
O O13 0.955717 0.023010 0.045522
O O14 0.071122 0.559911 0.079858
O O15 0.990047 0.646000 0.976604
O O16 0.500000 0.000000 0.500000
#
# Coordination Sequence:
#
# PCOD8118666 Si02
#       8
#     4   4   4   2   4   4   4   4
#     4  10  20  34  58  81 109 142 184 234 278 325
#     4  11  19  34  53  81 116 152 180 223 274 336
#     4  10  22  38  57  81 108 142 183 231 284 334
#     4  10  20  38  58  82 104 138 188 236 286 326
#     4  11  21  34  53  80 115 146 183 226 279 331
#     4  10  21  34  51  80 116 156 186 220 269 332
#     4  11  20  30  51  83 114 145 177 220 277 338
#     4  10  20  35  52  79 116 152 189 222 272 327
#
# _framework density 18.858668999999999
#
# number of rings (size 3 to 8) (size 9 to 14) (size 15 to 20)
#    0.000    1.600    2.667    3.600    3.733    1.067 
#    0.000    0.000    0.000    4.000    0.000    1.867 
#    0.000    0.000    0.000    0.000    0.000    0.000 
#
# Total GULP energy -371747.312735 kJ/mol
# GULP energy per Si atom -12391.577091 kJ/mol
# Density = 1.881575 g / cm^3
# Si number density = 18.858669 Si / 1000 Ang^3
#
#
#
# Elastic Constant Matrix: (Units=GPa)
#
#
# Indices 1 2 3 4 5 6 
#
# 1 115.3594 32.3454 36.4215 0.0000 -4.3314 0.0000
# 2 32.3454 60.7622 33.5048 0.0000 2.7965 0.0000
# 3 36.4215 33.5048 83.2706 0.0000 -3.2676 0.0000
# 4 0.0000 0.0000 0.0000 27.9324 0.0000 2.5626
# 5 -4.3314 2.7965 -3.2676 0.0000 34.8516 0.0000
# 6 0.0000 0.0000 0.0000 2.5626 0.0000 23.8802
#
#
#
# Elastic Compliance Matrix: (Units=1/GPa)
#
#
# Indices 1 2 3 4 5 6 
#
# 1 0.010842 -0.004178 -0.003006 0.000000 0.001401 0.000000
# 2 -0.004178 0.022980 -0.007539 0.000000 -0.003070 0.000000
# 3 -0.003006 -0.007539 0.016427 0.000000 0.001772 0.000000
# 4 0.000000 0.000000 0.000000 0.036157 0.000000 -0.003880
# 5 0.001401 -0.003070 0.001772 0.000000 0.029280 0.000000
# 6 0.000000 0.000000 0.000000 -0.003880 0.000000 0.042292
#
#
# Mechanical properties :
#
#
# Convention : Reuss Voigt Hill
#
# Bulk Modulus (GPa) = 48.07263 51.54841 49.81052
# Shear Modulus (GPa) = 25.72569 27.80754 26.76661
#
# Velocity S-wave (km/s) = 3.69742 3.84412 3.77148
# Velocity P-wave (km/s) = 6.61621 6.86268 6.74057
#
# Compressibility (1/GPa) = 0.02080186
#
# Stress axis : x y z
#
# Youngs Moduli (GPa) = 92.23609 43.51537 60.87621
#
# Poissons Ratio (x) = 0.18182 0.18298
# Poissons Ratio (y) = 0.38540 0.45896
# Poissons Ratio (z) = 0.27725 0.32807
#
# Static dielectric constant tensor:
#      x y z
#    x 3.909080 0.000000 -0.160100 
#    y 0.000000 3.009950 0.000000 
#    z -0.160100 0.000000 3.403980 
# 
# 
# High freq. dielectric constant tensor:
#      x y z
#    x 1.756390 0.000000 -0.008800 
#    y 0.000000 1.705970 0.000000 
#    z -0.008800 0.000000 1.703460 
# 
# From -- ./inp_files/83739.got.cif
#   From: 2010.06.25/outbox.cif.g09.slc.cpg/sg13_42_cif.got.tgz:83739.got - 2010.06.28 04:50:58.
