data_PCOD8118174
_publ_section_title
;
Structure prediction by ZEFSAII (Michael W. Deem and Ramdas Pophale) SiO2 
 PCOD8118174
Probable space group: P 2/C
;
_chemical_formula_sum "Si O2"
_cell_formula_units_Z 28
_cell_length_a 9.248079
_cell_length_b 9.442552
_cell_length_c 29.891383
_cell_angle_alpha 90.000000
_cell_angle_beta 145.841013
_cell_angle_gamma 90.000000
_cell_volume 1465.648674
_symmetry_space_group_name_H-M "P 2/C"
_symmetry_group_IT_number 13
_symmetry_cell_setting 'monoclinic'
loop_
_space_group_symop_operation_xyz
x,y,z
-x,y,1/2-z
-x,-y,-z
x,-y,1/2+z
loop_
_atom_site_type_symbol
_atom_site_label
_atom_site_fract_x
_atom_site_fract_y
_atom_site_fract_z
Si Si1 0.329700 0.760245 0.248289
Si Si2 0.511635 0.783677 0.455797
Si Si3 0.275560 0.671455 0.075521
Si Si4 0.260857 0.744639 0.892775
Si Si5 0.249186 0.388228 0.018771
Si Si6 0.940729 0.973034 0.184928
Si Si7 0.881467 0.445061 0.614806
O O1 0.500000 0.800234 0.250000
O O2 0.493881 0.719984 0.333598
O O3 0.158075 0.624835 0.191735
O O4 0.160664 0.901210 0.211405
O O5 0.712515 0.763829 0.466658
O O6 0.661389 0.811459 0.539781
O O7 0.335215 0.643310 0.414427
O O8 0.339282 0.920135 0.401759
O O9 0.309891 0.505840 0.071852
O O10 0.001994 0.699560 0.029611
O O11 0.511920 0.719609 0.925636
O O12 0.106788 0.599035 0.859975
O O13 0.064829 0.856360 0.820251
O O14 0.192751 0.461009 0.956303
O O15 0.000000 0.924253 0.250000
#
# Coordination Sequence:
#
# PCOD8118174 Si02
#       7
#     4   4   4   4   4   4   4
#     4  11  23  40  61  84 116 157 199 238 290 354
#     4  10  19  38  61  86 112 155 201 231 281 353
#     4  11  19  35  64  90 115 150 198 244 286 346
#     4  11  21  39  58  91 121 149 190 244 295 343
#     4  10  20  35  61  94 119 143 191 253 291 338
#     4  11  24  39  60  83 118 159 199 235 285 349
#     4  10  19  36  62  87 116 151 186 243 294 342
#
# _framework density 19.104168999999999
#
# number of rings (size 3 to 8) (size 9 to 14) (size 15 to 20)
#    0.000    1.429    5.714    1.286    0.000    1.143 
#    0.000    2.857    0.000    0.000    0.000    0.000 
#    0.000    0.000    0.000    0.000    0.000    0.000 
#
# Total GULP energy -347270.809824 kJ/mol
# GULP energy per Si atom -12402.528922 kJ/mol
# Density = 1.906069 g / cm^3
# Si number density = 19.104169 Si / 1000 Ang^3
#
#
#
# Elastic Constant Matrix: (Units=GPa)
#
#
# Indices 1 2 3 4 5 6 
#
# 1 115.4757 44.4005 20.7490 0.0000 11.2210 0.0000
# 2 44.4005 102.4505 26.6442 0.0000 11.3540 0.0000
# 3 20.7490 26.6442 54.4528 0.0000 5.2392 0.0000
# 4 0.0000 0.0000 0.0000 12.5412 0.0000 4.0647
# 5 11.2210 11.3540 5.2392 0.0000 28.1279 0.0000
# 6 0.0000 0.0000 0.0000 4.0647 0.0000 19.9740
#
#
#
# Elastic Compliance Matrix: (Units=1/GPa)
#
#
# Indices 1 2 3 4 5 6 
#
# 1 0.010733 -0.003880 -0.001965 0.000000 -0.002349 0.000000
# 2 -0.003880 0.012948 -0.004585 0.000000 -0.002825 0.000000
# 3 -0.001965 -0.004585 0.021489 0.000000 -0.001368 0.000000
# 4 0.000000 0.000000 0.000000 0.085368 0.000000 -0.017372
# 5 -0.002349 -0.002825 -0.001368 0.000000 0.037884 0.000000
# 6 0.000000 0.000000 0.000000 -0.017372 0.000000 0.053600
#
#
# Mechanical properties :
#
#
# Convention : Reuss Voigt Hill
#
# Bulk Modulus (GPa) = 41.13793 50.66296 45.90045
# Shear Modulus (GPa) = 19.92142 24.16763 22.04453
#
# Velocity S-wave (km/s) = 3.23271 3.56061 3.40061
# Velocity P-wave (km/s) = 5.95937 6.59400 6.28470
#
# Compressibility (1/GPa) = 0.02430846
#
# Stress axis : x y z
#
# Youngs Moduli (GPa) = 93.16924 77.23256 46.53643
#
# Poissons Ratio (x) = 0.29967 0.09145
# Poissons Ratio (y) = 0.36151 0.21338
# Poissons Ratio (z) = 0.18310 0.35413
#
# Static dielectric constant tensor:
#      x y z
#    x 3.630120 0.000000 -0.027470 
#    y 0.000000 3.252440 0.000000 
#    z -0.027470 0.000000 3.429830 
# 
# 
# High freq. dielectric constant tensor:
#      x y z
#    x 1.752180 0.000000 -0.007190 
#    y 0.000000 1.727060 0.000000 
#    z -0.007190 0.000000 1.734870 
# 
# From -- ./inp_files/91464.got.cif
#   From: 2010.06.25/outbox.cif.g09.slc.cpg/sg13_46_cif.got.tgz:91464.got - 2010.06.28 04:50:58.
