data_PCOD8118664
_publ_section_title
;
Structure prediction by ZEFSAII (Michael W. Deem and Ramdas Pophale) SiO2 
 PCOD8118664
Probable space group: P 2/C
;
_chemical_formula_sum "Si O2"
_cell_formula_units_Z 32
_cell_length_a 20.347521
_cell_length_b 8.710142
_cell_length_c 24.830318
_cell_angle_alpha 90.000000
_cell_angle_beta 158.148512
_cell_angle_gamma 90.000000
_cell_volume 1637.939248
_symmetry_space_group_name_H-M "P 2/C"
_symmetry_group_IT_number 13
_symmetry_cell_setting 'monoclinic'
loop_
_space_group_symop_operation_xyz
x,y,z
-x,y,1/2-z
-x,-y,-z
x,-y,1/2+z
loop_
_atom_site_type_symbol
_atom_site_label
_atom_site_fract_x
_atom_site_fract_y
_atom_site_fract_z
Si Si1 0.826591 0.821792 0.022474
Si Si2 0.035323 0.223607 0.521480
Si Si3 0.243068 0.971531 0.635330
Si Si4 0.556971 0.666484 0.022073
Si Si5 0.896558 0.959580 0.720831
Si Si6 0.178308 0.723116 0.746207
Si Si7 0.089146 0.381235 0.665086
Si Si8 0.402593 0.836510 0.551065
O O1 0.902648 0.672916 0.048904
O O2 0.732034 0.943090 0.909778
O O3 0.684085 0.775594 0.959357
O O4 0.995637 0.891272 0.180082
O O5 0.080787 0.373455 0.593012
O O6 0.946140 0.106744 0.495867
O O7 0.893169 0.256955 0.368002
O O8 0.212820 0.150533 0.629136
O O9 0.403443 0.901357 0.790331
O O10 0.738318 0.722811 0.188238
O O11 0.500000 0.500000 0.000000
O O12 0.385718 0.768051 0.906643
O O13 0.584922 0.688381 0.978804
O O14 0.908365 0.835202 0.776889
O O15 0.000000 0.880122 0.750000
O O16 0.703774 0.020668 0.556623
O O17 0.131331 0.546423 0.723275
#
# Coordination Sequence:
#
# PCOD8118664 Si02
#       8
#     4   4   4   4   4   4   4   4
#     4  10  20  39  59  85 115 153 200 239 286 357
#     4  10  20  35  59  85 116 149 188 240 295 350
#     4  10  20  34  57  92 114 144 193 242 292 339
#     4  10  22  37  55  87 117 149 192 247 298 348
#     4  10  22  38  58  86 117 152 197 240 291 357
#     4  11  21  40  58  84 119 154 194 245 292 354
#     4  10  22  37  58  86 116 155 195 240 295 352
#     4  11  21  36  62  85 116 156 196 243 294 352
#
# _framework density 19.536743000000001
#
# number of rings (size 3 to 8) (size 9 to 14) (size 15 to 20)
#    0.000    1.750    3.750    0.750    1.750    0.500 
#    4.500    0.000    0.000    0.000    6.500    0.000 
#    0.000    0.000    0.000    0.000    0.000    0.000 
#
# Total GULP energy -396424.682706 kJ/mol
# GULP energy per Si atom -12388.271335 kJ/mol
# Density = 1.949228 g / cm^3
# Si number density = 19.536743 Si / 1000 Ang^3
#
#
#
# Elastic Constant Matrix: (Units=GPa)
#
#
# Indices 1 2 3 4 5 6 
#
# 1 113.8587 34.2083 20.5406 0.0000 2.1536 0.0000
# 2 34.2083 46.5641 10.5252 0.0000 9.9983 0.0000
# 3 20.5406 10.5252 85.4937 0.0000 -1.8612 0.0000
# 4 0.0000 0.0000 0.0000 23.4445 0.0000 -7.4546
# 5 2.1536 9.9983 -1.8612 0.0000 30.0321 0.0000
# 6 0.0000 0.0000 0.0000 -7.4546 0.0000 27.0638
#
#
#
# Elastic Compliance Matrix: (Units=1/GPa)
#
#
# Indices 1 2 3 4 5 6 
#
# 1 0.011627 -0.008569 -0.001697 0.000000 0.001914 0.000000
# 2 -0.008569 0.030250 -0.001874 0.000000 -0.009573 0.000000
# 3 -0.001697 -0.001874 0.012368 0.000000 0.001512 0.000000
# 4 0.000000 0.000000 0.000000 0.046748 0.000000 0.012877
# 5 0.001914 -0.009573 0.001512 0.000000 0.036441 0.000000
# 6 0.000000 0.000000 0.000000 0.012877 0.000000 0.040496
#
#
# Mechanical properties :
#
#
# Convention : Reuss Voigt Hill
#
# Bulk Modulus (GPa) = 33.37154 41.82941 37.60048
# Shear Modulus (GPa) = 23.56266 28.15091 25.85678
#
# Velocity S-wave (km/s) = 3.47662 3.80007 3.64193
# Velocity P-wave (km/s) = 5.76492 6.38053 6.08052
#
# Compressibility (1/GPa) = 0.02996565
#
# Stress axis : x y z
#
# Youngs Moduli (GPa) = 86.00379 33.05756 80.85344
#
# Poissons Ratio (x) = 0.28329 0.13720
# Poissons Ratio (y) = 0.73701 0.15149
# Poissons Ratio (z) = 0.14594 0.06194
#
# Static dielectric constant tensor:
#      x y z
#    x 3.784020 0.000000 -0.023170 
#    y 0.000000 3.274580 0.000000 
#    z -0.023170 0.000000 3.746470 
# 
# 
# High freq. dielectric constant tensor:
#      x y z
#    x 1.767490 0.000000 -0.010350 
#    y 0.000000 1.723070 0.000000 
#    z -0.010350 0.000000 1.773060 
# 
# From -- ./inp_files/93603.got.cif
#   From: 2010.06.25/outbox.cif.g09.slc.cpg/sg13_47_cif.got.tgz:93603.got - 2010.06.28 04:50:58.
