data_PCOD8118091
_publ_section_title
;
Structure prediction by ZEFSAII (Michael W. Deem and Ramdas Pophale) SiO2 
 PCOD8118091
Probable space group: P 2/C
;
_chemical_formula_sum "Si O2"
_cell_formula_units_Z 20
_cell_length_a 8.945474
_cell_length_b 10.162375
_cell_length_c 12.921927
_cell_angle_alpha 90.000000
_cell_angle_beta 94.478934
_cell_angle_gamma 90.000000
_cell_volume 1171.109604
_symmetry_space_group_name_H-M "P 2/C"
_symmetry_group_IT_number 13
_symmetry_cell_setting 'monoclinic'
loop_
_space_group_symop_operation_xyz
x,y,z
-x,y,1/2-z
-x,-y,-z
x,-y,1/2+z
loop_
_atom_site_type_symbol
_atom_site_label
_atom_site_fract_x
_atom_site_fract_y
_atom_site_fract_z
Si Si1 0.796346 0.169012 0.335574
Si Si2 0.130352 0.173516 0.399623
Si Si3 0.651532 0.335262 0.976484
Si Si4 0.414275 0.407802 0.137659
Si Si5 0.353751 0.049384 0.549216
O O1 0.823750 0.165138 0.216378
O O2 0.718497 0.304197 0.361909
O O3 0.689967 0.045768 0.358659
O O4 0.952829 0.162773 0.405877
O O5 0.191655 0.311362 0.452742
O O6 0.213571 0.051847 0.461069
O O7 0.663010 0.453351 0.895688
O O8 0.614137 0.199860 0.911398
O O9 0.524041 0.361443 0.053871
O O10 0.500000 0.423257 0.250000
O O11 0.500000 0.000000 0.500000
#
# Coordination Sequence:
#
# PCOD8118091 Si02
#       5
#     4   4   4   4   4
#     4  11  19  35  62  76 111 144 180 221 265 327
#     4   9  21  36  54  84 108 144 181 215 273 325
#     4   9  21  36  52  81 110 133 187 220 266 318
#     4  11  19  36  56  79 107 145 178 226 264 315
#     4  10  19  36  54  82 106 143 178 223 266 318
#
# _framework density 17.077821
#
# number of rings (size 3 to 8) (size 9 to 14) (size 15 to 20)
#    1.200    0.800    4.000    0.600    0.000    0.800 
#    3.600    0.000    0.000    2.400    0.000    0.000 
#    0.000    0.000    0.000    0.000    0.000    0.000 
#
# Total GULP energy -247808.314661 kJ/mol
# GULP energy per Si atom -12390.415733 kJ/mol
# Density = 1.703895 g / cm^3
# Si number density = 17.077821 Si / 1000 Ang^3
#
#
#
# Elastic Constant Matrix: (Units=GPa)
#
#
# Indices 1 2 3 4 5 6 
#
# 1 81.2800 44.6337 39.7945 0.0000 3.1487 0.0000
# 2 44.6337 144.5147 51.0104 0.0000 -5.4371 0.0000
# 3 39.7945 51.0104 60.9251 0.0000 0.6629 0.0000
# 4 0.0000 0.0000 0.0000 29.5657 0.0000 15.2497
# 5 3.1487 -5.4371 0.6629 0.0000 26.0105 0.0000
# 6 0.0000 0.0000 0.0000 15.2497 0.0000 24.8327
#
#
#
# Elastic Compliance Matrix: (Units=1/GPa)
#
#
# Indices 1 2 3 4 5 6 
#
# 1 0.018662 -0.002219 -0.010305 0.000000 -0.002460 0.000000
# 2 -0.002219 0.010222 -0.007137 0.000000 0.002587 0.000000
# 3 -0.010305 -0.007137 0.029131 0.000000 -0.000987 0.000000
# 4 0.000000 0.000000 0.000000 0.049503 0.000000 -0.030399
# 5 -0.002460 0.002587 -0.000987 0.000000 0.039310 0.000000
# 6 0.000000 0.000000 0.000000 -0.030399 0.000000 0.058938
#
#
# Mechanical properties :
#
#
# Convention : Reuss Voigt Hill
#
# Bulk Modulus (GPa) = 53.49662 61.95520 57.72591
# Shear Modulus (GPa) = 19.89514 26.16718 23.03116
#
# Velocity S-wave (km/s) = 3.41687 3.91862 3.67631
# Velocity P-wave (km/s) = 6.85273 7.53864 7.20385
#
# Compressibility (1/GPa) = 0.01869277
#
# Stress axis : x y z
#
# Youngs Moduli (GPa) = 53.58397 97.83244 34.32806
#
# Poissons Ratio (x) = 0.21709 0.35375
# Poissons Ratio (y) = 0.11891 0.24500
# Poissons Ratio (z) = 0.55218 0.69822
#
# Static dielectric constant tensor:
#      x y z
#    x 3.286690 0.000000 0.073450 
#    y 0.000000 3.305550 0.000000 
#    z 0.073450 0.000000 3.041210 
# 
# 
# High freq. dielectric constant tensor:
#      x y z
#    x 1.663200 0.000000 -0.000360 
#    y 0.000000 1.657900 0.000000 
#    z -0.000360 0.000000 1.647380 
# 
# From -- ./inp_files/45527.got.cif
#   From: 2010.06.25/outbox.cif.g09.slc.cpg/sg13_23_cif.got.tgz:45527.got - 2010.06.28 04:50:58.
