data_PCOD8118823
_publ_section_title
;
Structure prediction by ZEFSAII (Michael W. Deem and Ramdas Pophale) SiO2 
 PCOD8118823
Probable space group: P 2/C
;
_chemical_formula_sum "Si O2"
_cell_formula_units_Z 26
_cell_length_a 14.632375
_cell_length_b 8.490909
_cell_length_c 14.813406
_cell_angle_alpha 90.000000
_cell_angle_beta 135.932399
_cell_angle_gamma 90.000000
_cell_volume 1280.044875
_symmetry_space_group_name_H-M "P 2/C"
_symmetry_group_IT_number 13
_symmetry_cell_setting 'monoclinic'
loop_
_space_group_symop_operation_xyz
x,y,z
-x,y,1/2-z
-x,-y,-z
x,-y,1/2+z
loop_
_atom_site_type_symbol
_atom_site_label
_atom_site_fract_x
_atom_site_fract_y
_atom_site_fract_z
Si Si1 0.581485 0.370553 0.673725
Si Si2 0.226605 0.106243 0.364082
Si Si3 0.407427 0.828715 0.496668
Si Si4 0.206306 0.313712 0.993629
Si Si5 0.700346 0.650777 0.446345
Si Si6 0.681697 0.281809 0.233991
Si Si7 0.000000 0.877706 0.250000
O O1 0.602136 0.250524 0.607798
O O2 0.427167 0.393587 0.584388
O O3 0.656728 0.302440 0.814469
O O4 0.640199 0.538591 0.687053
O O5 0.222576 0.202846 0.455089
O O6 0.219808 0.227021 0.275541
O O7 0.364118 0.010711 0.456976
O O8 0.105189 0.986560 0.273421
O O9 0.312487 0.740030 0.497243
O O10 0.552133 0.826114 0.641412
O O11 0.200030 0.503146 0.986411
O O12 0.246070 0.254934 0.120697
O O13 0.066137 0.235904 0.871402
#
# Coordination Sequence:
#
# PCOD8118823 Si02
#       7
#     4   4   4   4   4   4   2
#     4  10  20  35  62  96 133 147 198 238 314 374
#     4  11  24  39  62  89 128 159 204 243 314 354
#     4  11  20  35  58  97 130 156 184 247 312 373
#     4  10  22  40  63  81 121 163 213 245 293 347
#     4  10  20  38  61  94 120 165 193 253 295 368
#     4  11  20  36  62  95 118 161 197 250 302 368
#     4  10  26  46  54  84 118 172 208 258 288 356
#
# _framework density 20.311786000000001
#
# number of rings (size 3 to 8) (size 9 to 14) (size 15 to 20)
#    0.000    1.538    3.077    2.308    0.000    3.692 
#    5.538    1.538    0.000   10.154    0.000    0.000 
#    0.000    0.000    0.000    0.000    0.000    0.000 
#
# Total GULP energy -322479.995072 kJ/mol
# GULP energy per Si atom -12403.076734 kJ/mol
# Density = 2.026556 g / cm^3
# Si number density = 20.311786 Si / 1000 Ang^3
#
#
#
# Elastic Constant Matrix: (Units=GPa)
#
#
# Indices 1 2 3 4 5 6 
#
# 1 56.8896 38.5924 51.4862 0.0000 -13.2278 0.0000
# 2 38.5924 104.3407 71.5155 0.0000 -10.0671 0.0000
# 3 51.4862 71.5155 142.6842 0.0000 -9.9989 0.0000
# 4 0.0000 0.0000 0.0000 24.8269 0.0000 7.0325
# 5 -13.2278 -10.0671 -9.9989 0.0000 33.1042 0.0000
# 6 0.0000 0.0000 0.0000 7.0325 0.0000 19.5604
#
#
#
# Elastic Compliance Matrix: (Units=1/GPa)
#
#
# Indices 1 2 3 4 5 6 
#
# 1 0.029785 -0.004965 -0.007694 0.000000 0.008068 0.000000
# 2 -0.004965 0.015597 -0.005959 0.000000 0.000960 0.000000
# 3 -0.007694 -0.005959 0.012698 0.000000 -0.001051 0.000000
# 4 0.000000 0.000000 0.000000 0.044846 0.000000 -0.016123
# 5 0.008068 0.000960 -0.001051 0.000000 0.033406 0.000000
# 6 0.000000 0.000000 0.000000 -0.016123 0.000000 0.056920
#
#
# Mechanical properties :
#
#
# Convention : Reuss Voigt Hill
#
# Bulk Modulus (GPa) = 47.97331 69.67808 58.82569
# Shear Modulus (GPa) = 21.05847 24.98632 23.02240
#
# Velocity S-wave (km/s) = 3.22337 3.51114 3.37033
# Velocity P-wave (km/s) = 6.12562 7.12855 6.64603
#
# Compressibility (1/GPa) = 0.02084492
#
# Stress axis : x y z
#
# Youngs Moduli (GPa) = 33.57426 64.11485 78.75459
#
# Poissons Ratio (x) = 0.31831 0.60592
# Poissons Ratio (y) = 0.16669 0.46928
# Poissons Ratio (z) = 0.25831 0.38204
#
# Static dielectric constant tensor:
#      x y z
#    x 3.603550 0.000000 -0.159550 
#    y 0.000000 3.809940 0.000000 
#    z -0.159550 0.000000 3.780110 
# 
# 
# High freq. dielectric constant tensor:
#      x y z
#    x 1.781000 0.000000 -0.019190 
#    y 0.000000 1.802870 0.000000 
#    z -0.019190 0.000000 1.789240 
# 
# From -- ./inp_files/53387.got.cif
#   From: 2010.06.25/outbox.cif.g09.slc.cpg/sg13_27_cif.got.tgz:53387.got - 2010.06.28 04:50:58.
