data_PCOD8118750
_publ_section_title
;
Structure prediction by ZEFSAII (Michael W. Deem and Ramdas Pophale) SiO2 
 PCOD8118750
Probable space group: P 2/C
;
_chemical_formula_sum "Si O2"
_cell_formula_units_Z 28
_cell_length_a 9.010319
_cell_length_b 16.385850
_cell_length_c 13.995581
_cell_angle_alpha 90.000000
_cell_angle_beta 40.994360
_cell_angle_gamma 90.000000
_cell_volume 1355.482163
_symmetry_space_group_name_H-M "P 2/C"
_symmetry_group_IT_number 13
_symmetry_cell_setting 'monoclinic'
loop_
_space_group_symop_operation_xyz
x,y,z
-x,y,1/2-z
-x,-y,-z
x,-y,1/2+z
loop_
_atom_site_type_symbol
_atom_site_label
_atom_site_fract_x
_atom_site_fract_y
_atom_site_fract_z
Si Si1 0.244426 0.914873 0.360960
Si Si2 0.918973 0.052675 0.189194
Si Si3 0.982681 0.246831 0.543278
Si Si4 0.753960 0.595856 0.121454
Si Si5 0.181936 0.766815 0.740165
Si Si6 0.404138 0.333101 0.403771
Si Si7 0.100636 0.519525 0.097215
O O1 0.500000 0.886674 0.250000
O O2 0.104984 0.841075 0.380083
O O3 0.138976 0.932548 0.516163
O O4 0.243408 0.991761 0.290025
O O5 0.777794 0.134887 0.284461
O O6 0.000000 0.013083 0.250000
O O7 0.772192 0.308601 0.637297
O O8 0.084624 0.248881 0.389804
O O9 0.182551 0.275282 0.516188
O O10 0.500000 0.565853 0.250000
O O11 0.898541 0.550677 0.130513
O O12 0.836247 0.569751 0.975172
O O13 0.410987 0.712504 0.618670
O O14 0.000000 0.738848 0.750000
O O15 0.500000 0.346399 0.250000
O O16 0.320842 0.420011 0.487222
O O17 0.000000 0.507449 0.250000
#
# Coordination Sequence:
#
# PCOD8118750 Si02
#       7
#     4   4   4   4   4   4   4
#     4  10  20  35  57  81 113 152 196 241 285 338
#     4   9  20  37  54  82 116 148 192 239 289 346
#     4   9  19  35  54  81 111 148 190 234 287 339
#     4  10  21  38  58  79 113 151 187 234 287 341
#     4   9  18  33  57  85 111 145 192 237 282 338
#     4   9  18  36  60  80 113 153 188 232 284 341
#     4  10  22  38  57  86 115 145 190 238 287 343
#
# _framework density 20.656856000000001
#
# number of rings (size 3 to 8) (size 9 to 14) (size 15 to 20)
#    0.000    2.571    0.000    0.857    0.000    8.000 
#    0.000   10.000    0.000    0.000    0.000    0.000 
#    0.000    0.000    0.000    0.000    0.000    0.000 
#
# Total GULP energy -346963.771045 kJ/mol
# GULP energy per Si atom -12391.563252 kJ/mol
# Density = 2.060984 g / cm^3
# Si number density = 20.656856 Si / 1000 Ang^3
#
#
#
# Elastic Constant Matrix: (Units=GPa)
#
#
# Indices 1 2 3 4 5 6 
#
# 1 95.2546 56.0450 37.1475 0.0000 -9.6385 0.0000
# 2 56.0450 57.9763 34.4609 0.0000 -7.9557 0.0000
# 3 37.1475 34.4609 75.6210 0.0000 -6.5083 0.0000
# 4 0.0000 0.0000 0.0000 1982.0500 0.0000-2010.4838
# 5 -9.6385 -7.9557 -6.5083 0.0000 38.0588 0.0000
# 6 0.0000 0.0000 0.0000-2010.4838 0.0000 2079.5161
#
#
#
# Elastic Compliance Matrix: (Units=1/GPa)
#
#
# Indices 1 2 3 4 5 6 
#
# 1 0.024558 -0.022582 -0.001669 0.000000 0.001214 0.000000
# 2 -0.022582 0.044798 -0.009143 0.000000 0.002082 0.000000
# 3 -0.001669 -0.009143 0.018278 0.000000 0.000792 0.000000
# 4 0.000000 0.000000 0.000000 0.026105 0.000000 0.025238
# 5 0.001214 0.002082 0.000792 0.000000 0.027153 0.000000
# 6 0.000000 0.000000 0.000000 0.025238 0.000000 0.024881
#
#
# Mechanical properties :
#
#
# Convention : Reuss Voigt Hill
#
# Bulk Modulus (GPa) = 47.96592 53.79543 50.88067
# Shear Modulus (GPa) = 20.87605 826.67156 423.77380
#
# Velocity S-wave (km/s) = 3.18246 20.02651 14.33857
# Velocity P-wave (km/s) = 6.06422 23.68221 17.28615
#
# Compressibility (1/GPa) = 0.02084813
#
# Stress axis : x y z
#
# Youngs Moduli (GPa) = 40.71972 22.32251 54.71039
#
# Poissons Ratio (x) = 0.50408 0.09130
# Poissons Ratio (y) = 0.91952 0.50019
# Poissons Ratio (z) = 0.06795 0.20409
#
# Static dielectric constant tensor:
#      x y z
#    x 3.848220 0.000000 -0.148810 
#    y 0.000000 4.147130 0.000000 
#    z -0.148810 0.000000 3.594870 
# 
# 
# High freq. dielectric constant tensor:
#      x y z
#    x 1.800430 0.000000 -0.007960 
#    y 0.000000 1.812500 0.000000 
#    z -0.007960 0.000000 1.793390 
# 
# From -- ./inp_files/48084.got.cif
#   From: 2010.06.25/outbox.cif.g09.slc.cpg/sg13_25_cif.got.tgz:48084.got - 2010.06.28 04:50:58.
