data_PCOD8118747
_publ_section_title
;
Structure prediction by ZEFSAII (Michael W. Deem and Ramdas Pophale) SiO2 
 PCOD8118747
Probable space group: P 2/C
;
_chemical_formula_sum "Si O2"
_cell_formula_units_Z 32
_cell_length_a 12.166784
_cell_length_b 15.203844
_cell_length_c 19.190291
_cell_angle_alpha 90.000000
_cell_angle_beta 26.616366
_cell_angle_gamma 90.000000
_cell_volume 1590.386976
_symmetry_space_group_name_H-M "P 2/C"
_symmetry_group_IT_number 13
_symmetry_cell_setting 'monoclinic'
loop_
_space_group_symop_operation_xyz
x,y,z
-x,y,1/2-z
-x,-y,-z
x,-y,1/2+z
loop_
_atom_site_type_symbol
_atom_site_label
_atom_site_fract_x
_atom_site_fract_y
_atom_site_fract_z
Si Si1 0.992921 0.578432 0.677678
Si Si2 0.297871 0.092040 0.305748
Si Si3 0.361955 0.176752 0.492313
Si Si4 0.462242 0.538184 0.352149
Si Si5 0.784590 0.395826 0.785590
Si Si6 0.509156 0.372216 0.079878
Si Si7 0.839109 0.805195 0.247428
Si Si8 0.740784 0.885734 0.159569
O O1 0.236565 0.602416 0.497326
O O2 0.000000 0.621708 0.750000
O O3 0.977548 0.471640 0.694751
O O4 0.783868 0.623756 0.750819
O O5 0.500000 0.121663 0.250000
O O6 0.019582 0.132327 0.471497
O O7 0.278353 0.987933 0.313397
O O8 0.411315 0.121299 0.166999
O O9 0.399122 0.277551 0.449734
O O10 0.346299 0.166329 0.585195
O O11 0.101477 0.145718 0.606762
O O12 0.500000 0.534415 0.250000
O O13 0.691631 0.580929 0.261143
O O14 0.394658 0.441036 0.417805
O O15 0.901500 0.298888 0.718861
O O16 0.574269 0.400277 0.963741
O O17 0.712756 0.830505 0.246608
O O18 0.500000 0.857551 0.250000
#
# Coordination Sequence:
#
# PCOD8118747 Si02
#       8
#     4   4   4   4   4   4   4   4
#     4  11  18  35  60  74 106 160 197 238 293 355
#     4  10  20  41  67  92 123 161 202 239 293 374
#     4  10  21  38  62  92 118 155 206 250 295 354
#     4  11  22  35  51  79 113 147 193 250 297 341
#     4  10  20  35  57  80 108 152 201 236 293 359
#     4  10  20  36  56  83 108 152 203 238 291 359
#     4  10  21  38  62  90 123 155 200 255 297 352
#     4  10  22  41  66  92 123 163 197 238 307 370
#
# _framework density 20.120888999999998
#
# number of rings (size 3 to 8) (size 9 to 14) (size 15 to 20)
#    0.000    1.750    3.750    1.500    1.750    3.500 
#    6.750    0.625    0.000    0.000    0.000    0.000 
#    0.000    0.000    0.000    0.000    0.000    0.000 
#
# Total GULP energy -396488.529613 kJ/mol
# GULP energy per Si atom -12390.266550 kJ/mol
# Density = 2.007509 g / cm^3
# Si number density = 20.120889 Si / 1000 Ang^3
#
#
#
# Elastic Constant Matrix: (Units=GPa)
#
#
# Indices 1 2 3 4 5 6 
#
# 1 112.8515 17.5913 62.6409 0.0000 9.6609 0.0000
# 2 17.5913 29.0208 26.8068 0.0000 7.5694 0.0000
# 3 62.6409 26.8068 134.6811 0.0000 2.3425 0.0000
# 4 0.0000 0.0000 0.0000 19.8126 0.0000 13.3170
# 5 9.6609 7.5694 2.3425 0.0000 37.4793 0.0000
# 6 0.0000 0.0000 0.0000 13.3170 0.0000 25.1577
#
#
#
# Elastic Compliance Matrix: (Units=1/GPa)
#
#
# Indices 1 2 3 4 5 6 
#
# 1 0.012314 -0.001928 -0.005301 0.000000 -0.002454 0.000000
# 2 -0.001928 0.045070 -0.007933 0.000000 -0.008110 0.000000
# 3 -0.005301 -0.007933 0.011430 0.000000 0.002254 0.000000
# 4 0.000000 0.000000 0.000000 0.078349 0.000000 -0.041474
# 5 -0.002454 -0.008110 0.002254 0.000000 0.028811 0.000000
# 6 0.000000 0.000000 0.000000 -0.041474 0.000000 0.061703
#
#
# Mechanical properties :
#
#
# Convention : Reuss Voigt Hill
#
# Bulk Modulus (GPa) = 25.98049 54.51461 40.24755
# Shear Modulus (GPa) = 17.80432 27.79087 22.79760
#
# Velocity S-wave (km/s) = 2.97790 3.72048 3.36970
# Velocity P-wave (km/s) = 4.97635 6.75339 5.93179
#
# Compressibility (1/GPa) = 0.03849042
#
# Stress axis : x y z
#
# Youngs Moduli (GPa) = 81.20707 22.18793 87.48735
#
# Poissons Ratio (x) = 0.04278 0.46377
# Poissons Ratio (y) = 0.15656 0.69403
# Poissons Ratio (z) = 0.43048 0.17601
#
# Static dielectric constant tensor:
#      x y z
#    x 3.546020 0.000000 -0.130880 
#    y 0.000000 3.353240 0.000000 
#    z -0.130880 0.000000 3.826540 
# 
# 
# High freq. dielectric constant tensor:
#      x y z
#    x 1.782410 0.000000 -0.009970 
#    y 0.000000 1.752880 0.000000 
#    z -0.009970 0.000000 1.794150 
# 
# From -- ./inp_files/66910.got.cif
#   From: 2010.06.25/outbox.cif.g09.slc.cpg/sg13_34_cif.got.tgz:66910.got - 2010.06.28 04:50:58.
