data_PCOD8118577
_publ_section_title
;
Structure prediction by ZEFSAII (Michael W. Deem and Ramdas Pophale) SiO2 
 PCOD8118577
Probable space group: P 2/C
;
_chemical_formula_sum "Si O2"
_cell_formula_units_Z 32
_cell_length_a 19.414713
_cell_length_b 14.902197
_cell_length_c 9.027790
_cell_angle_alpha 90.000000
_cell_angle_beta 136.582306
_cell_angle_gamma 90.000000
_cell_volume 1795.215379
_symmetry_space_group_name_H-M "P 2/C"
_symmetry_group_IT_number 13
_symmetry_cell_setting 'monoclinic'
loop_
_space_group_symop_operation_xyz
x,y,z
-x,y,1/2-z
-x,-y,-z
x,-y,1/2+z
loop_
_atom_site_type_symbol
_atom_site_label
_atom_site_fract_x
_atom_site_fract_y
_atom_site_fract_z
Si Si1 0.898591 0.118039 0.528775
Si Si2 0.689209 0.206493 0.251818
Si Si3 0.420745 0.570989 0.512854
Si Si4 0.618539 0.249009 0.454562
Si Si5 0.612364 0.047232 0.949951
Si Si6 0.095576 0.067632 0.307104
Si Si7 0.432512 0.621461 0.003813
Si Si8 0.301762 0.894764 0.225092
O O1 0.804788 0.186387 0.387872
O O2 0.915965 0.080780 0.388401
O O3 0.000000 0.166261 0.750000
O O4 0.879807 0.035863 0.613319
O O5 0.677236 0.203718 0.410225
O O6 0.654641 0.304270 0.141930
O O7 0.616308 0.132561 0.065255
O O8 0.348027 0.645494 0.473982
O O9 0.484478 0.628100 0.494433
O O10 0.372777 0.475415 0.389687
O O11 0.500000 0.529511 0.750000
O O12 0.647873 0.197998 0.649544
O O13 0.500000 0.243266 0.250000
O O14 0.500000 0.011923 0.750000
O O15 0.651080 0.070780 0.850682
O O16 0.682354 0.969031 0.122955
O O17 0.186011 0.126626 0.512870
O O18 0.000000 0.101467 0.250000
O O19 0.500000 0.640594 0.250000
#
# Coordination Sequence:
#
# PCOD8118577 Si02
#       8
#     4   4   4   4   4   4   4   4
#     4  11  24  39  60  83 108 146 193 244 292 334
#     4  12  22  36  57  83 115 149 191 232 284 336
#     4   9  18  37  52  84 112 152 188 227 275 331
#     4  11  22  36  55  81 118 155 192 226 274 337
#     4  12  24  37  51  76 116 157 191 219 271 337
#     4  11  22  40  61  80 108 143 197 243 291 327
#     4  10  20  33  60  80 119 147 185 233 278 333
#     4  12  23  38  54  80 110 153 193 229 276 334
#
# _framework density 17.825157999999998
#
# number of rings (size 3 to 8) (size 9 to 14) (size 15 to 20)
#    0.000    1.000    5.000    4.125    5.250    0.000 
#    0.000    0.000    0.000    0.000    0.000    1.750 
#    0.000    0.000    0.000    0.000    0.000    0.000 
#
# Total GULP energy -396486.007349 kJ/mol
# GULP energy per Si atom -12390.187730 kJ/mol
# Density = 1.778459 g / cm^3
# Si number density = 17.825158 Si / 1000 Ang^3
#
#
#
# Elastic Constant Matrix: (Units=GPa)
#
#
# Indices 1 2 3 4 5 6 
#
# 1 92.4168 25.1734 41.3474 0.0000 -2.8726 0.0000
# 2 25.1734 100.1833 39.9006 0.0000 -0.7374 0.0000
# 3 41.3474 39.9006 107.9708 0.0000 2.8639 0.0000
# 4 0.0000 0.0000 0.0000 17.9800 0.0000 -7.2005
# 5 -2.8726 -0.7374 2.8639 0.0000 32.7444 0.0000
# 6 0.0000 0.0000 0.0000 -7.2005 0.0000 21.2899
#
#
#
# Elastic Compliance Matrix: (Units=1/GPa)
#
#
# Indices 1 2 3 4 5 6 
#
# 1 0.013333 -0.001512 -0.004588 0.000000 0.001537 0.000000
# 2 -0.001512 0.011889 -0.003827 0.000000 0.000470 0.000000
# 3 -0.004588 -0.003827 0.012475 0.000000 -0.001580 0.000000
# 4 0.000000 0.000000 0.000000 0.064331 0.000000 0.021757
# 5 0.001537 0.000470 -0.001580 0.000000 0.030823 0.000000
# 6 0.000000 0.000000 0.000000 0.021757 0.000000 0.054329
#
#
# Mechanical properties :
#
#
# Convention : Reuss Voigt Hill
#
# Bulk Modulus (GPa) = 56.04313 57.04597 56.54455
# Shear Modulus (GPa) = 23.47623 27.34616 25.41119
#
# Velocity S-wave (km/s) = 3.63302 3.92105 3.77978
# Velocity P-wave (km/s) = 7.00765 7.25066 7.13019
#
# Compressibility (1/GPa) = 0.01784340
#
# Stress axis : x y z
#
# Youngs Moduli (GPa) = 75.00359 84.10928 80.16046
#
# Poissons Ratio (x) = 0.12714 0.36777
# Poissons Ratio (y) = 0.11337 0.30680
# Poissons Ratio (z) = 0.34411 0.32191
#
# Static dielectric constant tensor:
#      x y z
#    x 3.164710 0.000000 -0.227140 
#    y 0.000000 3.313290 0.000000 
#    z -0.227140 0.000000 3.413990 
# 
# 
# High freq. dielectric constant tensor:
#      x y z
#    x 1.684090 0.000000 -0.030610 
#    y 0.000000 1.675860 0.000000 
#    z -0.030610 0.000000 1.693020 
# 
# From -- ./inp_files/23580.got.cif
#   From: 2010.06.25/outbox.cif.g09.slc.cpg/sg13_12_cif.got.tgz:23580.got - 2010.06.28 04:50:58.
