data_PCOD8118864
_publ_section_title
;
Structure prediction by ZEFSAII (Michael W. Deem and Ramdas Pophale) SiO2 
 PCOD8118864
Probable space group: P 2/C
;
_chemical_formula_sum "Si O2"
_cell_formula_units_Z 32
_cell_length_a 8.630045
_cell_length_b 19.643512
_cell_length_c 13.342003
_cell_angle_alpha 90.000000
_cell_angle_beta 130.303298
_cell_angle_gamma 90.000000
_cell_volume 1724.915170
_symmetry_space_group_name_H-M "P 2/C"
_symmetry_group_IT_number 13
_symmetry_cell_setting 'monoclinic'
loop_
_space_group_symop_operation_xyz
x,y,z
-x,y,1/2-z
-x,-y,-z
x,-y,1/2+z
loop_
_atom_site_type_symbol
_atom_site_label
_atom_site_fract_x
_atom_site_fract_y
_atom_site_fract_z
Si Si1 0.426338 0.800338 0.609729
Si Si2 0.293907 0.053566 0.110739
Si Si3 0.927571 0.053565 0.110739
Si Si4 0.793119 0.800338 0.609729
Si Si5 0.293896 0.704221 0.110646
Si Si6 0.295520 0.451713 0.613274
Si Si7 0.068973 0.451714 0.886726
Si Si8 0.072603 0.704221 0.389353
O O1 0.500000 0.777186 0.750000
O O2 0.323279 0.874234 0.569524
O O3 0.618511 0.802966 0.618511
O O4 0.266355 0.746642 0.502563
O O5 0.500000 0.028274 0.250000
O O6 0.122910 0.061070 0.122910
O O7 0.232497 0.000001 0.999999
O O8 0.815767 0.125765 0.069524
O O9 0.000000 0.028274 0.250000
O O10 0.738773 0.746643 0.502563
O O11 0.000000 0.777187 0.750000
O O12 0.500000 0.729180 0.250000
O O13 0.316312 0.625994 0.085645
O O14 0.108144 0.715576 0.108144
O O15 0.500000 0.478092 0.750000
O O16 0.251790 0.500000 0.500000
O O17 0.120946 0.459204 0.620946
O O18 0.145020 0.374007 0.914351
O O19 0.000000 0.478094 0.750000
O O20 0.000000 0.729181 0.250000
#
# Coordination Sequence:
#
# PCOD8118864 Si02
#       8
#     4   4   4   4   4   4   4   4
#     4  11  22  37  57  80 109 143 180 222 268 318
#     4  10  21  37  57  81 109 140 177 220 265 316
#     4  10  21  37  57  81 109 140 177 220 265 316
#     4  11  22  37  57  80 109 143 180 222 268 318
#     4  10  20  36  56  79 109 142 180 223 268 319
#     4   9  19  35  54  78 107 139 176 219 265 315
#     4   9  19  35  54  78 107 139 176 219 265 315
#     4  10  20  36  56  79 109 142 180 223 268 319
#
# _framework density 18.551636999999999
#
# number of rings (size 3 to 8) (size 9 to 14) (size 15 to 20)
#    0.000    2.000    0.000    5.250    0.000    5.500 
#    0.000    5.000    0.000    0.000    0.000    0.000 
#    0.000    0.000    0.000    0.000    0.000    0.000 
#
# Total GULP energy -396903.259888 kJ/mol
# GULP energy per Si atom -12403.226871 kJ/mol
# Density = 1.850941 g / cm^3
# Si number density = 18.551637 Si / 1000 Ang^3
#
#
#
# Elastic Constant Matrix: (Units=GPa)
#
#
# Indices 1 2 3 4 5 6 
#
# 1 86.8809 43.9413 54.5548 0.0000 2.6834 0.0000
# 2 43.9413 103.9353 105.8019 0.0000 4.0356 0.0000
# 3 54.5548 105.8019 173.6258 0.0000 2.9755 0.0000
# 4 0.0000 0.0000 0.0000 41.8455 0.0000 4.2765
# 5 2.6834 4.0356 2.9755 0.0000 36.7463 0.0000
# 6 0.0000 0.0000 0.0000 4.2765 0.0000 -23.9288
#
#
#
# Elastic Compliance Matrix: (Units=1/GPa)
#
#
# Indices 1 2 3 4 5 6 
#
# 1 0.014969 -0.004031 -0.002239 0.000000 -0.000469 0.000000
# 2 -0.004031 0.026513 -0.014865 0.000000 -0.001414 0.000000
# 3 -0.002239 -0.014865 0.015512 0.000000 0.000540 0.000000
# 4 0.000000 0.000000 0.000000 0.023469 0.000000 0.004194
# 5 -0.000469 -0.001414 0.000540 0.000000 0.027359 0.000000
# 6 0.000000 0.000000 0.000000 0.004194 0.000000 -0.041041
#
#
# Mechanical properties :
#
#
# Convention : Reuss Voigt Hill
#
# Bulk Modulus (GPa) = 67.91911 85.89311 76.90611
# Shear Modulus (GPa) = 43.87543 21.60887 32.74215
#
# Velocity S-wave (km/s) = 4.86845 3.41661 4.20565
# Velocity P-wave (km/s) = 8.26394 7.87174 8.07022
#
# Compressibility (1/GPa) = 0.01472340
#
# Stress axis : x y z
#
# Youngs Moduli (GPa) = 66.80353 37.71803 64.46644
#
# Poissons Ratio (x) = 0.15205 0.14433
# Poissons Ratio (y) = 0.26931 0.95829
# Poissons Ratio (z) = 0.14956 0.56068
#
# Static dielectric constant tensor:
#      x y z
#    x 3.492470 0.000000 -0.021940 
#    y 0.000000 3.499830 0.000000 
#    z -0.021940 0.000000 3.156400 
# 
# 
# High freq. dielectric constant tensor:
#      x y z
#    x 1.732860 0.000000 -0.000200 
#    y 0.000000 1.718900 0.000000 
#    z -0.000200 0.000000 1.729840 
# 
# From -- ./inp_files/30817.got.cif
#   From: 2010.06.25/outbox.cif.g09.slc.cpg/sg13_16_cif.got.tgz:30817.got - 2010.06.28 04:50:58.
