data_PCOD8118278
_publ_section_title
;
Structure prediction by ZEFSAII (Michael W. Deem and Ramdas Pophale) SiO2 
 PCOD8118278
Probable space group: P 2/C
;
_chemical_formula_sum "Si O2"
_cell_formula_units_Z 20
_cell_length_a 9.410312
_cell_length_b 9.908930
_cell_length_c 14.088934
_cell_angle_alpha 90.000000
_cell_angle_beta 44.873318
_cell_angle_gamma 90.000000
_cell_volume 926.897180
_symmetry_space_group_name_H-M "P 2/C"
_symmetry_group_IT_number 13
_symmetry_cell_setting 'monoclinic'
loop_
_space_group_symop_operation_xyz
x,y,z
-x,y,1/2-z
-x,-y,-z
x,-y,1/2+z
loop_
_atom_site_type_symbol
_atom_site_label
_atom_site_fract_x
_atom_site_fract_y
_atom_site_fract_z
Si Si1 0.708032 0.911859 0.471662
Si Si2 0.000000 0.108442 0.250000
Si Si3 0.073650 0.262915 0.873135
Si Si4 0.472824 0.844187 0.125067
Si Si5 0.000000 0.461815 0.750000
Si Si6 0.857085 0.319200 0.455660
O O1 0.569672 0.821925 0.468084
O O2 0.870269 0.824309 0.452987
O O3 0.807914 0.011101 0.344946
O O4 0.574113 0.009487 0.601991
O O5 0.998520 0.202089 0.344255
O O6 0.270802 0.167143 0.784513
O O7 0.122371 0.365247 0.763718
O O8 0.050902 0.344443 0.982828
O O9 0.626180 0.724291 0.077367
O O10 0.141515 0.550525 0.613880
#
# Coordination Sequence:
#
# PCOD8118278 Si02
#       6
#     4   2   4   4   2   4
#     4  10  19  37  64  89 127 165 193 250 322 373
#     4   9  17  38  56  88 129 157 190 246 316 361
#     4  12  21  42  64  92 124 170 206 252 316 364
#     4  10  20  37  62  93 125 158 204 251 310 378
#     4  11  23  44  64  82 125 173 212 262 304 351
#     4  10  24  37  62  92 121 164 215 257 297 365
#
# _framework density 21.577366000000001
#
# number of rings (size 3 to 8) (size 9 to 14) (size 15 to 20)
#    0.000    1.600    4.000    1.200    0.000    4.000 
#    3.600    0.000    0.000    0.000    0.000    0.000 
#    0.000    0.000    0.000    0.000    0.000    0.000 
#
# Total GULP energy -247761.178214 kJ/mol
# GULP energy per Si atom -12388.058911 kJ/mol
# Density = 2.152825 g / cm^3
# Si number density = 21.577366 Si / 1000 Ang^3
#
#
#
# Elastic Constant Matrix: (Units=GPa)
#
#
# Indices 1 2 3 4 5 6 
#
# 1 125.0788 55.5812 64.2328 0.0000 10.6012 0.0000
# 2 55.5812 88.8758 28.3289 0.0000 7.0170 0.0000
# 3 64.2328 28.3289 59.3753 0.0000 19.5689 0.0000
# 4 0.0000 0.0000 0.0000 18.4761 0.0000 0.1933
# 5 10.6012 7.0170 19.5689 0.0000 39.0176 0.0000
# 6 0.0000 0.0000 0.0000 0.1933 0.0000 13.4365
#
#
#
# Elastic Compliance Matrix: (Units=1/GPa)
#
#
# Indices 1 2 3 4 5 6 
#
# 1 0.022530 -0.007246 -0.023156 0.000000 0.006795 0.000000
# 2 -0.007246 0.015629 0.000789 0.000000 -0.001238 0.000000
# 3 -0.023156 0.000789 0.047309 0.000000 -0.017578 0.000000
# 4 0.000000 0.000000 0.000000 0.054132 0.000000 -0.000779
# 5 0.006795 -0.001238 -0.017578 0.000000 0.032822 0.000000
# 6 0.000000 0.000000 0.000000 -0.000779 0.000000 0.074435
#
#
# Mechanical properties :
#
#
# Convention : Reuss Voigt Hill
#
# Bulk Modulus (GPa) = 38.10381 63.29063 50.69722
# Shear Modulus (GPa) = 15.88161 22.53184 19.20672
#
# Velocity S-wave (km/s) = 2.71593 3.23497 2.98675
# Velocity P-wave (km/s) = 5.24715 6.58399 5.95321
#
# Compressibility (1/GPa) = 0.02624409
#
# Stress axis : x y z
#
# Youngs Moduli (GPa) = 44.38491 63.98376 21.13766
#
# Poissons Ratio (x) = 0.46360 0.48946
# Poissons Ratio (y) = 0.32159 -0.01669
# Poissons Ratio (z) = 1.02777 -0.05051
#
# Static dielectric constant tensor:
#      x y z
#    x 3.804490 0.000000 0.006680 
#    y 0.000000 3.958070 0.000000 
#    z 0.006680 0.000000 3.947680 
# 
# 
# High freq. dielectric constant tensor:
#      x y z
#    x 1.843950 0.000000 0.003120 
#    y 0.000000 1.832340 0.000000 
#    z 0.003120 0.000000 1.837760 
# 
# From -- ./inp_files/46501.got.cif
#   From: 2010.06.25/outbox.cif.g09.slc.cpg/sg13_24_cif.got.tgz:46501.got - 2010.06.28 04:50:58.
