data_PCOD8118603
_publ_section_title
;
Structure prediction by ZEFSAII (Michael W. Deem and Ramdas Pophale) SiO2 
 PCOD8118603
Probable space group: P 2/C
;
_chemical_formula_sum "Si O2"
_cell_formula_units_Z 26
_cell_length_a 22.667984
_cell_length_b 11.251617
_cell_length_c 9.861840
_cell_angle_alpha 90.000000
_cell_angle_beta 32.498555
_cell_angle_gamma 90.000000
_cell_volume 1351.403754
_symmetry_space_group_name_H-M "P 2/C"
_symmetry_group_IT_number 13
_symmetry_cell_setting 'monoclinic'
loop_
_space_group_symop_operation_xyz
x,y,z
-x,y,1/2-z
-x,-y,-z
x,-y,1/2+z
loop_
_atom_site_type_symbol
_atom_site_label
_atom_site_fract_x
_atom_site_fract_y
_atom_site_fract_z
Si Si1 0.370237 0.881037 0.516716
Si Si2 0.773249 0.334956 0.203644
Si Si3 0.721227 0.394855 0.786650
Si Si4 0.892911 0.626932 0.739426
Si Si5 0.599738 0.927709 0.748337
Si Si6 0.500000 0.733518 0.750000
Si Si7 0.871248 0.356901 0.745483
O O1 0.500000 0.865565 0.250000
O O2 0.315518 0.759793 0.570761
O O3 0.330618 0.898462 0.750787
O O4 0.333555 0.993091 0.492410
O O5 0.715370 0.462168 0.288806
O O6 0.866567 0.345080 0.135339
O O7 0.829900 0.284339 0.956734
O O8 0.796721 0.330368 0.526748
O O9 0.772724 0.354204 0.829463
O O10 0.597758 0.349061 0.004656
O O11 0.899427 0.486349 0.750449
O O12 0.011533 0.688471 0.542991
O O13 0.550774 0.810775 0.772787
O O14 0.500000 0.000000 0.000000
#
# Coordination Sequence:
#
# PCOD8118603 Si02
#       7
#     4   4   4   4   4   2   4
#     4  10  21  35  57  76 113 139 192 229 270 329
#     4  10  20  34  52  90 113 148 178 223 291 326
#     4  10  22  33  53  85 122 153 174 215 286 338
#     4   9  18  32  57  76 111 152 193 217 256 331
#     4  10  20  38  55  75 100 148 197 232 257 311
#     4  12  22  36  56  82 124 140 184 226 276 340
#     4   9  17  36  51  79 113 150 189 225 256 321
#
# _framework density 19.239255
#
# number of rings (size 3 to 8) (size 9 to 14) (size 15 to 20)
#    0.000    2.154    2.308    1.846    5.385    3.692 
#    0.000    3.077    0.000    0.000    0.000   19.385 
#    0.000    0.000    0.000    0.000    0.000    0.000 
#
# Total GULP energy -322164.051754 kJ/mol
# GULP energy per Si atom -12390.925067 kJ/mol
# Density = 1.919547 g / cm^3
# Si number density = 19.239255 Si / 1000 Ang^3
#
#
#
# Elastic Constant Matrix: (Units=GPa)
#
#
# Indices 1 2 3 4 5 6 
#
# 1 73.9703 33.0060 42.0857 0.0000 13.6365 0.0000
# 2 33.0060 69.7703 33.8697 0.0000 -8.2345 0.0000
# 3 42.0857 33.8697 112.9175 0.0000 -4.8184 0.0000
# 4 0.0000 0.0000 0.0000 12.6919 0.0000 3.1017
# 5 13.6365 -8.2345 -4.8184 0.0000 31.8745 0.0000
# 6 0.0000 0.0000 0.0000 3.1017 0.0000 17.2558
#
#
#
# Elastic Compliance Matrix: (Units=1/GPa)
#
#
# Indices 1 2 3 4 5 6 
#
# 1 0.024323 -0.009908 -0.006690 0.000000 -0.013977 0.000000
# 2 -0.009908 0.021232 -0.002275 0.000000 0.009380 0.000000
# 3 -0.006690 -0.002275 0.012208 0.000000 0.004120 0.000000
# 4 0.000000 0.000000 0.000000 0.082411 0.000000 -0.014813
# 5 -0.013977 0.009380 0.004120 0.000000 0.040399 0.000000
# 6 0.000000 0.000000 0.000000 -0.014813 0.000000 0.060614
#
#
# Mechanical properties :
#
#
# Convention : Reuss Voigt Hill
#
# Bulk Modulus (GPa) = 49.96165 52.73120 51.34643
# Shear Modulus (GPa) = 17.50671 22.21088 19.85879
#
# Velocity S-wave (km/s) = 3.01981 3.40142 3.21628
# Velocity P-wave (km/s) = 6.17932 6.54934 6.36701
#
# Compressibility (1/GPa) = 0.02001535
#
# Stress axis : x y z
#
# Youngs Moduli (GPa) = 41.11334 47.09949 81.91583
#
# Poissons Ratio (x) = 0.46668 0.54800
# Poissons Ratio (y) = 0.40737 0.18637
# Poissons Ratio (z) = 0.27504 0.10716
#
# Static dielectric constant tensor:
#      x y z
#    x 3.723890 0.000000 0.255120 
#    y 0.000000 3.369100 0.000000 
#    z 0.255120 0.000000 3.684330 
# 
# 
# High freq. dielectric constant tensor:
#      x y z
#    x 1.750510 0.000000 0.018940 
#    y 0.000000 1.708440 0.000000 
#    z 0.018940 0.000000 1.748030 
# 
# From -- ./inp_files/23320.got.cif
#   From: 2010.06.25/outbox.cif.g09.slc.cpg/sg13_12_cif.got.tgz:23320.got - 2010.06.28 04:50:58.
