data_PCOD8118113
_publ_section_title
;
Structure prediction by ZEFSAII (Michael W. Deem and Ramdas Pophale) SiO2 
 PCOD8118113
Probable space group: P 2/C
;
_chemical_formula_sum "Si O2"
_cell_formula_units_Z 32
_cell_length_a 20.274016
_cell_length_b 9.704891
_cell_length_c 26.347317
_cell_angle_alpha 90.000000
_cell_angle_beta 18.214763
_cell_angle_gamma 90.000000
_cell_volume 1620.419970
_symmetry_space_group_name_H-M "P 2/C"
_symmetry_group_IT_number 13
_symmetry_cell_setting 'monoclinic'
loop_
_space_group_symop_operation_xyz
x,y,z
-x,y,1/2-z
-x,-y,-z
x,-y,1/2+z
loop_
_atom_site_type_symbol
_atom_site_label
_atom_site_fract_x
_atom_site_fract_y
_atom_site_fract_z
Si Si1 0.714560 0.869913 0.946139
Si Si2 0.376661 0.659311 0.407832
Si Si3 0.480608 0.358232 0.203589
Si Si4 0.106231 0.211601 0.425253
Si Si5 0.738021 0.048150 0.742890
Si Si6 0.041299 0.034626 0.325824
Si Si7 0.830766 0.846058 0.412230
Si Si8 0.802817 0.250858 0.558742
O O1 0.884477 0.870894 0.776178
O O2 0.741827 0.008331 0.958118
O O3 0.752677 0.731836 0.952026
O O4 0.477484 0.867953 0.099344
O O5 0.466948 0.509990 0.355632
O O6 0.230721 0.641061 0.463564
O O7 0.578203 0.761166 0.251408
O O8 0.500000 0.347176 0.250000
O O9 0.247166 0.320405 0.353711
O O10 0.645574 0.259242 0.056229
O O11 0.923745 0.155548 0.595059
O O12 0.993695 0.286086 0.458442
O O13 0.253139 0.082701 0.301520
O O14 0.758811 0.990814 0.784651
O O15 0.853938 0.105835 0.494637
O O16 0.954249 0.884591 0.373454
O O17 0.000000 0.779105 0.250000
#
# Coordination Sequence:
#
# PCOD8118113 Si02
#       8
#     4   4   4   4   4   4   4   4
#     4  11  20  39  62  88 118 155 199 246 301 362
#     4  11  23  40  60  88 119 159 205 248 293 361
#     4  12  24  41  59  89 121 160 206 246 303 361
#     4  10  21  35  62  90 123 156 196 255 309 350
#     4  10  19  36  57  94 119 152 196 248 309 354
#     4  10  21  35  64  90 116 153 204 249 297 357
#     4  10  22  39  57  86 118 155 194 249 302 350
#     4  10  20  40  59  86 119 154 204 246 293 357
#
# _framework density 19.747966999999999
#
# number of rings (size 3 to 8) (size 9 to 14) (size 15 to 20)
#    0.000    1.500    5.000    1.125    0.000    1.500 
#    2.250    0.000    0.000    3.000    0.000    0.000 
#    0.000    0.000    0.000    0.000    0.000    0.000 
#
# Total GULP energy -396573.567733 kJ/mol
# GULP energy per Si atom -12392.923992 kJ/mol
# Density = 1.970302 g / cm^3
# Si number density = 19.747967 Si / 1000 Ang^3
#
#
#
# Elastic Constant Matrix: (Units=GPa)
#
#
# Indices 1 2 3 4 5 6 
#
# 1 104.7398 41.0365 41.3455 0.0000 -4.8065 0.0000
# 2 41.0365 87.5186 45.6146 0.0000 1.7084 0.0000
# 3 41.3455 45.6146 86.9314 0.0000 -6.8845 0.0000
# 4 0.0000 0.0000 0.0000 23.7700 0.0000 -6.3437
# 5 -4.8065 1.7084 -6.8845 0.0000 28.7073 0.0000
# 6 0.0000 0.0000 0.0000 -6.3437 0.0000 21.5638
#
#
#
# Elastic Compliance Matrix: (Units=1/GPa)
#
#
# Indices 1 2 3 4 5 6 
#
# 1 0.012685 -0.003979 -0.003831 0.000000 0.001442 0.000000
# 2 -0.003979 0.017228 -0.007422 0.000000 -0.003472 0.000000
# 3 -0.003831 -0.007422 0.017537 0.000000 0.004006 0.000000
# 4 0.000000 0.000000 0.000000 0.045654 0.000000 0.013431
# 5 0.001442 -0.003472 0.004006 0.000000 0.036243 0.000000
# 6 0.000000 0.000000 0.000000 0.013431 0.000000 0.050325
#
#
# Mechanical properties :
#
#
# Convention : Reuss Voigt Hill
#
# Bulk Modulus (GPa) = 58.87413 59.46478 59.16945
# Shear Modulus (GPa) = 23.16967 24.88778 24.02873
#
# Velocity S-wave (km/s) = 3.42902 3.55388 3.49201
# Velocity P-wave (km/s) = 6.74945 6.85692 6.80339
#
# Compressibility (1/GPa) = 0.01698539
#
# Stress axis : x y z
#
# Youngs Moduli (GPa) = 78.83372 58.04408 57.02156
#
# Poissons Ratio (x) = 0.23098 0.21844
# Poissons Ratio (y) = 0.31371 0.42323
# Poissons Ratio (z) = 0.30200 0.43082
#
# Static dielectric constant tensor:
#      x y z
#    x 4.003070 0.000000 -0.131320 
#    y 0.000000 3.322780 0.000000 
#    z -0.131320 0.000000 3.628640 
# 
# 
# High freq. dielectric constant tensor:
#      x y z
#    x 1.785600 0.000000 -0.006600 
#    y 0.000000 1.731260 0.000000 
#    z -0.006600 0.000000 1.771330 
# 
# From -- ./inp_files/93548.got.cif
#   From: 2010.06.25/outbox.cif.g09.slc.cpg/sg13_47_cif.got.tgz:93548.got - 2010.06.28 04:50:58.
