data_PCOD8118280
_publ_section_title
;
Structure prediction by ZEFSAII (Michael W. Deem and Ramdas Pophale) SiO2 
 PCOD8118280
Probable space group: P 2/C
;
_chemical_formula_sum "Si O2"
_cell_formula_units_Z 24
_cell_length_a 8.383583
_cell_length_b 11.810460
_cell_length_c 11.054880
_cell_angle_alpha 90.000000
_cell_angle_beta 92.859055
_cell_angle_gamma 90.000000
_cell_volume 1093.225095
_symmetry_space_group_name_H-M "P 2/C"
_symmetry_group_IT_number 13
_symmetry_cell_setting 'monoclinic'
loop_
_space_group_symop_operation_xyz
x,y,z
-x,y,1/2-z
-x,-y,-z
x,-y,1/2+z
loop_
_atom_site_type_symbol
_atom_site_label
_atom_site_fract_x
_atom_site_fract_y
_atom_site_fract_z
Si Si1 0.854181 0.437078 0.334186
Si Si2 0.226535 0.680981 0.189959
Si Si3 0.693935 0.101189 0.428966
Si Si4 0.644246 0.155839 0.979301
Si Si5 0.188756 0.782705 0.781967
Si Si6 0.893734 0.715575 0.062739
O O1 0.750290 0.550233 0.350410
O O2 0.750914 0.339871 0.263644
O O3 0.907677 0.387414 0.466793
O O4 0.000000 0.472414 0.250000
O O5 0.363892 0.761309 0.137682
O O6 0.232984 0.686181 0.335839
O O7 0.063680 0.733840 0.130956
O O8 0.528748 0.153650 0.467793
O O9 0.713445 0.120363 0.285645
O O10 0.839549 0.166861 0.499098
O O11 0.705381 0.968372 0.448632
O O12 0.775025 0.207356 0.075826
O O13 0.000000 0.790697 0.750000
#
# Coordination Sequence:
#
# PCOD8118280 Si02
#       6
#     4   4   4   4   4   4
#     4  10  19  37  64  92 127 163 202 258 314 367
#     4  11  22  35  64  97 122 165 206 263 306 365
#     4  10  24  44  61  89 126 170 207 260 311 383
#     4  11  24  41  66  87 127 170 209 252 324 373
#     4  10  22  40  67  94 119 160 211 264 309 370
#     4  10  22  38  61  96 128 158 215 258 306 363
#
# _framework density 21.953392000000001
#
# number of rings (size 3 to 8) (size 9 to 14) (size 15 to 20)
#    0.000    1.667    1.667    4.000    4.667    3.333 
#    0.000    3.333    7.333    0.000    0.000    0.000 
#    0.000    0.000    0.000    0.000    0.000    0.000 
#
# Total GULP energy -297551.954828 kJ/mol
# GULP energy per Si atom -12397.998118 kJ/mol
# Density = 2.190343 g / cm^3
# Si number density = 21.953392 Si / 1000 Ang^3
#
#
#
# Elastic Constant Matrix: (Units=GPa)
#
#
# Indices 1 2 3 4 5 6 
#
# 1 42.6076 37.6903 15.7854 0.0000 -11.2613 0.0000
# 2 37.6903 137.9824 43.3584 0.0000 -17.6284 0.0000
# 3 15.7854 43.3584 129.1366 0.0000 -24.8346 0.0000
# 4 0.0000 0.0000 0.0000 30.5539 0.0000 -9.0583
# 5 -11.2613 -17.6284 -24.8346 0.0000 29.4903 0.0000
# 6 0.0000 0.0000 0.0000 -9.0583 0.0000 24.1402
#
#
#
# Elastic Compliance Matrix: (Units=1/GPa)
#
#
# Indices 1 2 3 4 5 6 
#
# 1 0.032485 -0.007936 0.000199 0.000000 0.007829 0.000000
# 2 -0.007936 0.010277 -0.002245 0.000000 0.001222 0.000000
# 3 0.000199 -0.002245 0.009820 0.000000 0.007004 0.000000
# 4 0.000000 0.000000 0.000000 0.036826 0.000000 0.013819
# 5 0.007829 0.001222 0.007004 0.000000 0.043527 0.000000
# 6 0.000000 0.000000 0.000000 0.013819 0.000000 0.046610
#
#
# Mechanical properties :
#
#
# Convention : Reuss Voigt Hill
#
# Bulk Modulus (GPa) = 30.65792 55.93278 43.29535
# Shear Modulus (GPa) = 23.76624 31.02969 27.39797
#
# Velocity S-wave (km/s) = 3.29382 3.76365 3.53655
# Velocity P-wave (km/s) = 5.33489 6.66483 6.03660
#
# Compressibility (1/GPa) = 0.03261800
#
# Stress axis : x y z
#
# Youngs Moduli (GPa) = 30.78303 97.30761 101.83087
#
# Poissons Ratio (x) = 0.77222 -0.02028
# Poissons Ratio (y) = 0.24429 0.22866
# Poissons Ratio (z) = -0.00613 0.21850
#
# Static dielectric constant tensor:
#      x y z
#    x 3.568540 0.000000 -0.257600 
#    y 0.000000 3.975520 0.000000 
#    z -0.257600 0.000000 4.325740 
# 
# 
# High freq. dielectric constant tensor:
#      x y z
#    x 1.829640 0.000000 -0.016170 
#    y 0.000000 1.866800 0.000000 
#    z -0.016170 0.000000 1.883830 
# 
# From -- ./inp_files/29475.got.cif
#   From: 2010.06.25/outbox.cif.g09.slc.cpg/sg13_15_cif.got.tgz:29475.got - 2010.06.28 04:50:58.
