data_PCOD8118125
_publ_section_title
;
Structure prediction by ZEFSAII (Michael W. Deem and Ramdas Pophale) SiO2 
 PCOD8118125
Probable space group: P 2/C
;
_chemical_formula_sum "Si O2"
_cell_formula_units_Z 32
_cell_length_a 19.940381
_cell_length_b 14.768075
_cell_length_c 14.717871
_cell_angle_alpha 90.000000
_cell_angle_beta 159.674544
_cell_angle_gamma 90.000000
_cell_volume 1505.471466
_symmetry_space_group_name_H-M "P 2/C"
_symmetry_group_IT_number 13
_symmetry_cell_setting 'monoclinic'
loop_
_space_group_symop_operation_xyz
x,y,z
-x,y,1/2-z
-x,-y,-z
x,-y,1/2+z
loop_
_atom_site_type_symbol
_atom_site_label
_atom_site_fract_x
_atom_site_fract_y
_atom_site_fract_z
Si Si1 0.693067 0.353677 0.787172
Si Si2 0.283443 0.885454 0.479904
Si Si3 0.306931 0.853677 0.712826
Si Si4 0.256236 0.819281 0.255833
Si Si5 0.256234 0.319281 0.255831
Si Si6 0.045905 0.016925 0.410593
Si Si7 0.045906 0.483076 0.910594
Si Si8 0.716557 0.614546 0.520095
O O1 0.794398 0.276372 0.854645
O O2 0.463498 0.352777 0.481849
O O3 0.771565 0.449473 0.852562
O O4 0.755594 0.338516 0.972110
O O5 0.244404 0.838516 0.527888
O O6 0.258089 0.810385 0.368015
O O7 0.140721 0.969715 0.281354
O O8 0.500000 0.925578 0.750000
O O9 0.205600 0.776372 0.645352
O O10 0.228433 0.949473 0.647435
O O11 0.536501 0.852777 0.018149
O O12 0.093428 0.892010 0.024409
O O13 0.258089 0.310385 0.368015
O O14 0.093427 0.392010 0.024408
O O15 0.000000 0.044997 0.250000
O O16 0.000000 0.455004 0.750000
O O17 0.859280 0.530286 0.718647
O O18 0.500000 0.574422 0.250000
#
# Coordination Sequence:
#
# PCOD8118125 Si02
#       8
#     4   4   4   4   4   4   4   4
#     4   9  20  36  55  82 113 141 180 231 271 322
#     4   9  19  36  56  82 114 145 183 231 274 320
#     4   9  20  36  55  82 113 141 180 231 271 322
#     4  10  19  36  59  79 108 149 183 219 278 332
#     4  10  19  36  59  79 108 149 183 219 278 332
#     4  10  20  34  55  81 111 145 182 226 272 325
#     4  10  20  34  55  81 111 145 182 226 272 325
#     4   9  19  36  56  82 114 145 183 231 274 320
#
# _framework density 21.255799
#
# number of rings (size 3 to 8) (size 9 to 14) (size 15 to 20)
#    0.000    2.500    0.000    1.500    0.000    4.000 
#    0.000    5.000    0.000   18.000    0.000    0.000 
#    0.000    0.000    0.000    0.000    0.000    0.000 
#
# Total GULP energy -396799.863862 kJ/mol
# GULP energy per Si atom -12399.995746 kJ/mol
# Density = 2.120742 g / cm^3
# Si number density = 21.255799 Si / 1000 Ang^3
#
#
#
# Elastic Constant Matrix: (Units=GPa)
#
#
# Indices 1 2 3 4 5 6 
#
# 1 75.6202 20.1907 17.2245 0.0000 -1.1094 0.0000
# 2 20.1907 72.3864 24.9326 0.0000 -16.6163 0.0000
# 3 17.2245 24.9326 64.2133 0.0000 -6.1668 0.0000
# 4 0.0000 0.0000 0.0000 25.6422 0.0000 -3.5044
# 5 -1.1094 -16.6163 -6.1668 0.0000 22.8733 0.0000
# 6 0.0000 0.0000 0.0000 -3.5044 0.0000 22.7236
#
#
#
# Elastic Compliance Matrix: (Units=1/GPa)
#
#
# Indices 1 2 3 4 5 6 
#
# 1 0.014835 -0.003831 -0.002761 0.000000 -0.002808 0.000000
# 2 -0.003831 0.019637 -0.005384 0.000000 0.012628 0.000000
# 3 -0.002761 -0.005384 0.018495 0.000000 0.000941 0.000000
# 4 0.000000 0.000000 0.000000 0.039838 0.000000 0.006144
# 5 -0.002808 0.012628 0.000941 0.000000 0.053010 0.000000
# 6 0.000000 0.000000 0.000000 0.006144 0.000000 0.044955
#
#
# Mechanical properties :
#
#
# Convention : Reuss Voigt Hill
#
# Bulk Modulus (GPa) = 34.46784 37.43507 35.95146
# Shear Modulus (GPa) = 22.28238 24.23929 23.26083
#
# Velocity S-wave (km/s) = 3.24125 3.38059 3.31165
# Velocity P-wave (km/s) = 5.50078 5.73478 5.61900
#
# Compressibility (1/GPa) = 0.02901255
#
# Stress axis : x y z
#
# Youngs Moduli (GPa) = 67.40939 50.92551 54.06962
#
# Poissons Ratio (x) = 0.19511 0.14930
# Poissons Ratio (y) = 0.25827 0.29111
# Poissons Ratio (z) = 0.18614 0.27418
#
# Static dielectric constant tensor:
#      x y z
#    x 3.967930 0.000000 -0.034210 
#    y 0.000000 3.420140 0.000000 
#    z -0.034210 0.000000 3.957180 
# 
# 
# High freq. dielectric constant tensor:
#      x y z
#    x 1.842010 0.000000 -0.000660 
#    y 0.000000 1.797490 0.000000 
#    z -0.000660 0.000000 1.844250 
# 
# From -- ./inp_files/57878.got.cif
#   From: 2010.06.25/outbox.cif.g09.slc.cpg/sg13_29_cif.got.tgz:57878.got - 2010.06.28 04:50:58.
