data_PCOD8118103
_publ_section_title
;
Structure prediction by ZEFSAII (Michael W. Deem and Ramdas Pophale) SiO2 
 PCOD8118103
Probable space group: P 2/C
;
_chemical_formula_sum "Si O2"
_cell_formula_units_Z 30
_cell_length_a 24.569870
_cell_length_b 10.741792
_cell_length_c 8.000590
_cell_angle_alpha 90.000000
_cell_angle_beta 44.775244
_cell_angle_gamma 90.000000
_cell_volume 1487.223684
_symmetry_space_group_name_H-M "P 2/C"
_symmetry_group_IT_number 13
_symmetry_cell_setting 'monoclinic'
loop_
_space_group_symop_operation_xyz
x,y,z
-x,y,1/2-z
-x,-y,-z
x,-y,1/2+z
loop_
_atom_site_type_symbol
_atom_site_label
_atom_site_fract_x
_atom_site_fract_y
_atom_site_fract_z
Si Si1 0.806966 0.041649 0.891982
Si Si2 0.000000 0.571291 0.250000
Si Si3 0.412216 0.680595 0.460338
Si Si4 0.256042 0.618913 0.430206
Si Si5 0.918455 0.890626 0.874079
Si Si6 0.084232 0.367030 0.263863
Si Si7 0.349813 0.562774 0.920213
Si Si8 0.277762 0.841557 0.624013
O O1 0.851814 0.122372 0.658232
O O2 0.875808 0.955484 0.811960
O O3 0.774061 0.137536 0.099019
O O4 0.734539 0.964261 0.966730
O O5 0.953886 0.490700 0.219180
O O6 0.939014 0.653217 0.490117
O O7 0.500000 0.723134 0.250000
O O8 0.396978 0.651552 0.690526
O O9 0.399145 0.556368 0.377163
O O10 0.363420 0.800503 0.499315
O O11 0.173188 0.606882 0.530763
O O12 0.276700 0.490280 0.477739
O O13 0.247503 0.728503 0.581142
O O14 0.319479 0.643499 0.144502
O O15 0.945106 0.753374 0.767982
O O16 0.000000 0.958016 0.750000
#
# Coordination Sequence:
#
# PCOD8118103 Si02
#       8
#     4   2   4   4   4   4   4   4
#     4  10  23  42  59  81 115 147 198 258 295 334
#     4  10  24  38  50  78 120 154 176 236 280 354
#     4  10  20  37  60  92 124 153 188 231 288 352
#     4  10  19  36  56  85 111 152 193 231 279 349
#     4  11  22  40  61  84 110 150 198 249 301 345
#     4  11  21  38  55  79 114 152 191 225 289 340
#     4   9  20  34  59  89 122 150 185 230 280 345
#     4  10  22  38  61  84 111 155 193 242 295 342
#
# _framework density 20.171814000000001
#
# number of rings (size 3 to 8) (size 9 to 14) (size 15 to 20)
#    0.000    1.867    2.000    1.600    1.867    1.067 
#    3.600    0.667    0.000    0.000    0.000    0.000 
#    0.000    0.000    0.000    0.000    0.000    0.000 
#
# Total GULP energy -371686.702639 kJ/mol
# GULP energy per Si atom -12389.556755 kJ/mol
# Density = 2.012590 g / cm^3
# Si number density = 20.171814 Si / 1000 Ang^3
#
#
#
# Elastic Constant Matrix: (Units=GPa)
#
#
# Indices 1 2 3 4 5 6 
#
# 1 94.1927 29.1763 58.6882 0.0000 -5.2441 0.0000
# 2 29.1763 66.8979 56.8342 0.0000 5.3784 0.0000
# 3 58.6882 56.8342 132.7048 0.0000 6.4844 0.0000
# 4 0.0000 0.0000 0.0000 -23.6160 0.0000 23.4170
# 5 -5.2441 5.3784 6.4844 0.0000 41.8524 0.0000
# 6 0.0000 0.0000 0.0000 23.4170 0.0000 12.8428
#
#
#
# Elastic Compliance Matrix: (Units=1/GPa)
#
#
# Indices 1 2 3 4 5 6 
#
# 1 0.015114 -0.001622 -0.006138 0.000000 0.003053 0.000000
# 2 -0.001622 0.023762 -0.009371 0.000000 -0.001805 0.000000
# 3 -0.006138 -0.009371 0.014351 0.000000 -0.001788 0.000000
# 4 0.000000 0.000000 0.000000 -0.015080 0.000000 0.027496
# 5 0.003053 -0.001805 -0.001788 0.000000 0.024785 0.000000
# 6 0.000000 0.000000 0.000000 0.027496 0.000000 0.027730
#
#
# Mechanical properties :
#
#
# Convention : Reuss Voigt Hill
#
# Bulk Modulus (GPa) = 52.73291 64.79920 58.76606
# Shear Modulus (GPa) = 38.09635 16.15563 27.12599
#
# Velocity S-wave (km/s) = 4.35051 2.83309 3.67106
# Velocity P-wave (km/s) = 7.17179 6.54945 6.86767
#
# Compressibility (1/GPa) = 0.01896349
#
# Stress axis : x y z
#
# Youngs Moduli (GPa) = 66.16552 42.08374 69.68106
#
# Poissons Ratio (x) = 0.06826 0.42774
# Poissons Ratio (y) = 0.10732 0.65300
# Poissons Ratio (z) = 0.40616 0.39438
#
# Static dielectric constant tensor:
#      x y z
#    x 3.880990 0.000000 0.140660 
#    y 0.000000 3.403320 0.000000 
#    z 0.140660 0.000000 3.937630 
# 
# 
# High freq. dielectric constant tensor:
#      x y z
#    x 1.797770 0.000000 0.016140 
#    y 0.000000 1.757110 0.000000 
#    z 0.016140 0.000000 1.789820 
# 
# From -- ./inp_files/24935.got.cif
#   From: 2010.06.25/outbox.cif.g09.slc.cpg/sg13_13_cif.got.tgz:24935.got - 2010.06.28 04:50:58.
