data_PCOD8118910
_publ_section_title
;
Structure prediction by ZEFSAII (Michael W. Deem and Ramdas Pophale) SiO2 
 PCOD8118910
Probable space group: P 2/C
;
_chemical_formula_sum "Si O2"
_cell_formula_units_Z 30
_cell_length_a 27.202605
_cell_length_b 11.211509
_cell_length_c 14.553413
_cell_angle_alpha 90.000000
_cell_angle_beta 20.838400
_cell_angle_gamma 90.000000
_cell_volume 1578.934351
_symmetry_space_group_name_H-M "P 2/C"
_symmetry_group_IT_number 13
_symmetry_cell_setting 'monoclinic'
loop_
_space_group_symop_operation_xyz
x,y,z
-x,y,1/2-z
-x,-y,-z
x,-y,1/2+z
loop_
_atom_site_type_symbol
_atom_site_label
_atom_site_fract_x
_atom_site_fract_y
_atom_site_fract_z
Si Si1 0.684066 0.232945 0.303432
Si Si2 0.500000 0.901463 0.250000
Si Si3 0.655411 0.640892 0.449643
Si Si4 0.651315 0.506497 0.779266
Si Si5 0.092033 0.095692 0.501920
Si Si6 0.721742 0.098652 0.877420
Si Si7 0.159452 0.819197 0.145072
Si Si8 0.149280 0.560019 0.225373
O O1 0.537771 0.181403 0.595667
O O2 0.670679 0.371048 0.302189
O O3 0.791429 0.201078 0.199141
O O4 0.740291 0.159480 0.117494
O O5 0.379319 0.989079 0.431868
O O6 0.680542 0.596203 0.302381
O O7 0.667120 0.784694 0.419979
O O8 0.767053 0.582887 0.325063
O O9 0.500000 0.605234 0.750000
O O10 0.757292 0.485227 0.509780
O O11 0.500000 0.500000 0.000000
O O12 0.000000 0.117597 0.750000
O O13 0.987355 0.112763 0.599799
O O14 0.147999 0.959714 0.402655
O O15 0.751509 0.136920 0.927394
O O16 0.120271 0.681828 0.223699
O O17 0.000000 0.500000 0.500000
#
# Coordination Sequence:
#
# PCOD8118910 Si02
#       8
#     4   2   4   4   4   4   4   4
#     4   9  21  35  58  85 110 152 197 246 300 354
#     4  10  20  36  58  86 112 144 202 244 282 358
#     4  11  22  40  65  85 127 171 196 257 317 368
#     4  11  23  41  64  90 125 163 208 253 312 372
#     4   9  18  37  58  81 115 152 196 246 298 363
#     4  10  20  36  58  84 117 154 195 242 304 356
#     4   9  19  37  58  81 116 155 189 243 307 357
#     4  10  23  41  61  94 125 159 213 252 306 377
#
# _framework density 19.000154999999999
#
# number of rings (size 3 to 8) (size 9 to 14) (size 15 to 20)
#    0.000    2.133    2.000    0.400    2.800    1.067 
#    7.200    2.667    0.000    0.000    0.000    0.000 
#    0.000    0.000    0.000    0.000    0.000    0.000 
#
# Total GULP energy -371678.420490 kJ/mol
# GULP energy per Si atom -12389.280683 kJ/mol
# Density = 1.895691 g / cm^3
# Si number density = 19.000155 Si / 1000 Ang^3
#
#
#
# Elastic Constant Matrix: (Units=GPa)
#
#
# Indices 1 2 3 4 5 6 
#
# 1 77.1993 42.1065 40.6128 0.0000 4.3673 0.0000
# 2 42.1065 81.8779 51.9325 0.0000 5.4526 0.0000
# 3 40.6128 51.9325 121.4332 0.0000 4.4489 0.0000
# 4 0.0000 0.0000 0.0000 33.5631 0.0000 0.6426
# 5 4.3673 5.4526 4.4489 0.0000 20.8040 0.0000
# 6 0.0000 0.0000 0.0000 0.6426 0.0000 24.9480
#
#
#
# Elastic Compliance Matrix: (Units=1/GPa)
#
#
# Indices 1 2 3 4 5 6 
#
# 1 0.018775 -0.007707 -0.002936 0.000000 -0.001294 0.000000
# 2 -0.007707 0.020096 -0.005930 0.000000 -0.002381 0.000000
# 3 -0.002936 -0.005930 0.011765 0.000000 -0.000346 0.000000
# 4 0.000000 0.000000 0.000000 0.029809 0.000000 -0.000768
# 5 -0.001294 -0.002381 -0.000346 0.000000 0.049037 0.000000
# 6 0.000000 0.000000 0.000000 -0.000768 0.000000 0.040103
#
#
# Mechanical properties :
#
#
# Convention : Reuss Voigt Hill
#
# Bulk Modulus (GPa) = 57.16997 61.09046 59.13022
# Shear Modulus (GPa) = 23.97382 25.58693 24.78038
#
# Velocity S-wave (km/s) = 3.55599 3.67368 3.61532
# Velocity P-wave (km/s) = 6.85672 7.08639 6.97250
#
# Compressibility (1/GPa) = 0.01749170
#
# Stress axis : x y z
#
# Youngs Moduli (GPa) = 53.26343 49.76075 84.99506
#
# Poissons Ratio (x) = 0.38350 0.24953
# Poissons Ratio (y) = 0.41049 0.50399
# Poissons Ratio (z) = 0.15637 0.29506
#
# Static dielectric constant tensor:
#      x y z
#    x 3.589800 0.000000 -0.142180 
#    y 0.000000 3.651790 0.000000 
#    z -0.142180 0.000000 4.019830 
# 
# 
# High freq. dielectric constant tensor:
#      x y z
#    x 1.736880 0.000000 -0.005570 
#    y 0.000000 1.733620 0.000000 
#    z -0.005570 0.000000 1.746950 
# 
# From -- ./inp_files/59614.got.cif
#   From: 2010.06.25/outbox.cif.g09.slc.cpg/sg13_30_cif.got.tgz:59614.got - 2010.06.28 04:50:58.
