data_PCOD8118565
_publ_section_title
;
Structure prediction by ZEFSAII (Michael W. Deem and Ramdas Pophale) SiO2 
 PCOD8118565
Probable space group: P 2/C
;
_chemical_formula_sum "Si O2"
_cell_formula_units_Z 22
_cell_length_a 9.083823
_cell_length_b 13.353277
_cell_length_c 16.426888
_cell_angle_alpha 90.000000
_cell_angle_beta 32.285131
_cell_angle_gamma 90.000000
_cell_volume 1064.293005
_symmetry_space_group_name_H-M "P 2/C"
_symmetry_group_IT_number 13
_symmetry_cell_setting 'monoclinic'
loop_
_space_group_symop_operation_xyz
x,y,z
-x,y,1/2-z
-x,-y,-z
x,-y,1/2+z
loop_
_atom_site_type_symbol
_atom_site_label
_atom_site_fract_x
_atom_site_fract_y
_atom_site_fract_z
Si Si1 0.054933 0.126652 0.339027
Si Si2 0.404410 0.193624 0.499653
Si Si3 0.000000 0.953903 0.250000
Si Si4 0.800088 0.409717 0.570894
Si Si5 0.764831 0.320616 0.421099
Si Si6 0.204904 0.766905 0.919786
O O1 0.306621 0.147815 0.161279
O O2 0.144116 0.133651 0.392604
O O3 0.827879 0.211782 0.430883
O O4 0.963274 0.016756 0.351668
O O5 0.265120 0.118715 0.629389
O O6 0.473445 0.301587 0.510071
O O7 0.208643 0.207036 0.512964
O O8 0.500000 0.421707 0.750000
O O9 0.743523 0.404931 0.500349
O O10 0.000000 0.500000 0.500000
O O11 0.956734 0.310328 0.525797
O O12 0.000000 0.358689 0.250000
O O13 0.500000 0.721982 0.750000
#
# Coordination Sequence:
#
# PCOD8118565 Si02
#       6
#     4   4   2   4   4   4
#     4   9  18  35  54  79 115 168 205 249 295 356
#     4  10  20  33  56  83 119 158 203 256 301 348
#     4  12  20  28  56  86 126 156 218 250 296 344
#     4  11  24  42  67  94 124 154 200 255 315 385
#     4   9  19  40  65  84 120 167 200 244 316 362
#     4   9  20  40  61  82 120 165 207 248 316 360
#
# _framework density 20.670998000000001
#
# number of rings (size 3 to 8) (size 9 to 14) (size 15 to 20)
#    0.000    2.182    2.727    2.182    2.545    0.727 
#    0.000    3.636    0.000    0.000    0.000    0.000 
#    0.000    0.000    0.000    0.000    0.000    0.000 
#
# Total GULP energy -272573.695986 kJ/mol
# GULP energy per Si atom -12389.713454 kJ/mol
# Density = 2.062395 g / cm^3
# Si number density = 20.670998 Si / 1000 Ang^3
#
#
#
# Elastic Constant Matrix: (Units=GPa)
#
#
# Indices 1 2 3 4 5 6 
#
# 1 148.3770 49.1763 40.2291 0.0000 14.9928 0.0000
# 2 49.1763 77.4836 47.8483 0.0000 7.2071 0.0000
# 3 40.2291 47.8483 101.7286 0.0000 -0.9546 0.0000
# 4 0.0000 0.0000 0.0000 17.0660 0.0000 2.3589
# 5 14.9928 7.2071 -0.9546 0.0000 28.3963 0.0000
# 6 0.0000 0.0000 0.0000 2.3589 0.0000 25.3124
#
#
#
# Elastic Compliance Matrix: (Units=1/GPa)
#
#
# Indices 1 2 3 4 5 6 
#
# 1 0.008988 -0.004435 -0.001503 0.000000 -0.003670 0.000000
# 2 -0.004435 0.021087 -0.008195 0.000000 -0.003286 0.000000
# 3 -0.001503 -0.008195 0.014311 0.000000 0.003355 0.000000
# 4 0.000000 0.000000 0.000000 0.059361 0.000000 -0.005532
# 5 -0.003670 -0.003286 0.003355 0.000000 0.038101 0.000000
# 6 0.000000 0.000000 0.000000 -0.005532 0.000000 0.040022
#
#
# Mechanical properties :
#
#
# Convention : Reuss Voigt Hill
#
# Bulk Modulus (GPa) = 62.03709 66.89962 64.46836
# Shear Modulus (GPa) = 23.20103 26.84397 25.02250
#
# Velocity S-wave (km/s) = 3.35385 3.60756 3.48302
# Velocity P-wave (km/s) = 6.71376 7.05598 6.88700
#
# Compressibility (1/GPa) = 0.01611939
#
# Stress axis : x y z
#
# Youngs Moduli (GPa) = 111.26289 47.42223 69.87834
#
# Poissons Ratio (x) = 0.21031 0.10501
# Poissons Ratio (y) = 0.49343 0.57268
# Poissons Ratio (z) = 0.16720 0.38865
#
# Static dielectric constant tensor:
#      x y z
#    x 4.352130 0.000000 -0.059060 
#    y 0.000000 3.456510 0.000000 
#    z -0.059060 0.000000 3.581470 
# 
# 
# High freq. dielectric constant tensor:
#      x y z
#    x 1.825710 0.000000 -0.005780 
#    y 0.000000 1.769300 0.000000 
#    z -0.005780 0.000000 1.797030 
# 
# From -- ./inp_files/64596.got.cif
#   From: 2010.06.25/outbox.cif.g09.slc.cpg/sg13_33_cif.got.tgz:64596.got - 2010.06.28 04:50:58.
