data_PCOD8118830
_publ_section_title
;
Structure prediction by ZEFSAII (Michael W. Deem and Ramdas Pophale) SiO2 
 PCOD8118830
Probable space group: P 2/C
;
_chemical_formula_sum "Si O2"
_cell_formula_units_Z 24
_cell_length_a 14.232217
_cell_length_b 8.746857
_cell_length_c 14.499340
_cell_angle_alpha 90.000000
_cell_angle_beta 136.953550
_cell_angle_gamma 90.000000
_cell_volume 1232.064391
_symmetry_space_group_name_H-M "P 2/C"
_symmetry_group_IT_number 13
_symmetry_cell_setting 'monoclinic'
loop_
_space_group_symop_operation_xyz
x,y,z
-x,y,1/2-z
-x,-y,-z
x,-y,1/2+z
loop_
_atom_site_type_symbol
_atom_site_label
_atom_site_fract_x
_atom_site_fract_y
_atom_site_fract_z
Si Si1 0.433576 0.335042 0.439632
Si Si2 0.165106 0.539375 0.712592
Si Si3 0.591703 0.841922 0.901781
Si Si4 0.869250 0.380040 0.996147
Si Si5 0.377619 0.200944 0.597526
Si Si6 0.847021 0.353159 0.616897
O O1 0.500000 0.500000 0.500000
O O2 0.292827 0.351469 0.279974
O O3 0.524669 0.212445 0.449915
O O4 0.395097 0.275241 0.511885
O O5 0.149533 0.404931 0.626306
O O6 0.206335 0.452489 0.835927
O O7 0.032188 0.650679 0.630133
O O8 0.500000 0.779096 0.750000
O O9 0.606997 0.021688 0.904348
O O10 0.747980 0.784014 0.017215
O O11 0.770606 0.245723 0.963672
O O12 0.840880 0.541271 0.023106
O O13 0.500000 0.264373 0.750000
O O14 0.000000 0.290132 0.750000
#
# Coordination Sequence:
#
# PCOD8118830 Si02
#       6
#     4   4   4   4   4   4
#     4  12  21  37  64  89 115 156 209 253 307 351
#     4  10  20  35  64  93 117 151 208 260 300 355
#     4  11  24  41  59  86 129 164 198 253 309 373
#     4  10  20  38  62  87 124 154 202 257 305 359
#     4  11  24  39  59  87 124 164 202 245 307 378
#     4  10  20  39  61  89 119 158 204 256 302 358
#
# _framework density 19.479500999999999
#
# number of rings (size 3 to 8) (size 9 to 14) (size 15 to 20)
#    0.000    1.333    3.333    2.500    0.000    1.333 
#    3.000    0.000    0.000    5.000    0.000    0.000 
#    0.000    0.000    0.000    0.000    0.000    0.000 
#
# Total GULP energy -297473.788463 kJ/mol
# GULP energy per Si atom -12394.741186 kJ/mol
# Density = 1.943517 g / cm^3
# Si number density = 19.479501 Si / 1000 Ang^3
#
#
#
# Elastic Constant Matrix: (Units=GPa)
#
#
# Indices 1 2 3 4 5 6 
#
# 1 108.7634 42.2133 38.8608 0.0000 17.3992 0.0000
# 2 42.2133 69.9603 44.8535 0.0000 23.6049 0.0000
# 3 38.8608 44.8535 111.5012 0.0000 18.3543 0.0000
# 4 0.0000 0.0000 0.0000 24.5168 0.0000 5.3532
# 5 17.3992 23.6049 18.3543 0.0000 34.4918 0.0000
# 6 0.0000 0.0000 0.0000 5.3532 0.0000 32.7571
#
#
#
# Elastic Compliance Matrix: (Units=1/GPa)
#
#
# Indices 1 2 3 4 5 6 
#
# 1 0.012295 -0.005902 -0.001704 0.000000 -0.001256 0.000000
# 2 -0.005902 0.025793 -0.006470 0.000000 -0.011231 0.000000
# 3 -0.001704 -0.006470 0.012379 0.000000 -0.001300 0.000000
# 4 0.000000 0.000000 0.000000 0.042298 0.000000 -0.006912
# 5 -0.001256 -0.011231 -0.001300 0.000000 0.038004 0.000000
# 6 0.000000 0.000000 0.000000 -0.006912 0.000000 0.031657
#
#
# Mechanical properties :
#
#
# Convention : Reuss Voigt Hill
#
# Bulk Modulus (GPa) = 44.81396 60.23113 52.52254
# Shear Modulus (GPa) = 25.25053 29.30630 27.27842
#
# Velocity S-wave (km/s) = 3.60427 3.88296 3.74621
# Velocity P-wave (km/s) = 6.35426 7.14776 6.76266
#
# Compressibility (1/GPa) = 0.02231448
#
# Stress axis : x y z
#
# Youngs Moduli (GPa) = 81.33505 38.77073 80.78232
#
# Poissons Ratio (x) = 0.22884 0.13765
# Poissons Ratio (y) = 0.48007 0.52264
# Poissons Ratio (z) = 0.13859 0.25083
#
# Static dielectric constant tensor:
#      x y z
#    x 3.819260 0.000000 0.137990 
#    y 0.000000 2.575850 0.000000 
#    z 0.137990 0.000000 3.906890 
# 
# 
# High freq. dielectric constant tensor:
#      x y z
#    x 1.777060 0.000000 0.002230 
#    y 0.000000 1.721380 0.000000 
#    z 0.002230 0.000000 1.781750 
# 
# From -- ./inp_files/52905.got.cif
#   From: 2010.06.25/outbox.cif.g09.slc.cpg/sg13_27_cif.got.tgz:52905.got - 2010.06.28 04:50:58.
