data_PCOD8118343
_publ_section_title
;
Structure prediction by ZEFSAII (Michael W. Deem and Ramdas Pophale) SiO2 
 PCOD8118343
Probable space group: P 2/C
;
_chemical_formula_sum "Si O2"
_cell_formula_units_Z 28
_cell_length_a 12.632018
_cell_length_b 14.501604
_cell_length_c 9.362689
_cell_angle_alpha 90.000000
_cell_angle_beta 124.328992
_cell_angle_gamma 90.000000
_cell_volume 1416.351713
_symmetry_space_group_name_H-M "P 2/C"
_symmetry_group_IT_number 13
_symmetry_cell_setting 'monoclinic'
loop_
_space_group_symop_operation_xyz
x,y,z
-x,y,1/2-z
-x,-y,-z
x,-y,1/2+z
loop_
_atom_site_type_symbol
_atom_site_label
_atom_site_fract_x
_atom_site_fract_y
_atom_site_fract_z
Si Si1 0.351362 0.401479 0.396720
Si Si2 0.500000 0.113565 0.250000
Si Si3 0.125621 0.057628 0.625335
Si Si4 0.941256 0.424902 0.356271
Si Si5 0.707435 0.015135 0.008539
Si Si6 0.313831 0.192077 0.330370
Si Si7 0.500000 0.489838 0.250000
Si Si8 0.024448 0.217739 0.100984
O O1 0.209956 0.439707 0.265557
O O2 0.344929 0.291869 0.420396
O O3 0.426809 0.425026 0.308037
O O4 0.407829 0.445660 0.584366
O O5 0.405684 0.179153 0.265756
O O6 0.583302 0.049657 0.418175
O O7 0.244144 0.029545 0.615242
O O8 0.084770 0.164592 0.572699
O O9 0.175692 0.035793 0.821225
O O10 0.000000 0.000000 0.500000
O O11 0.984758 0.324793 0.446022
O O12 0.000000 0.444263 0.250000
O O13 0.000000 0.500000 0.500000
O O14 0.662480 0.113399 0.034889
O O15 0.166197 0.182375 0.167784
O O16 0.000000 0.199508 0.250000
#
# Coordination Sequence:
#
# PCOD8118343 Si02
#       8
#     4   2   4   4   4   4   2   4
#     4  10  22  40  66  90 122 158 205 247 313 361
#     4  12  25  43  54  90 128 166 208 245 311 346
#     4  12  21  39  63  91 118 158 206 253 301 357
#     4  10  21  38  62  90 123 156 190 252 305 363
#     4  12  24  39  63  85 126 166 203 254 298 360
#     4  11  22  39  62  88 121 165 198 255 298 365
#     4  10  21  43  64  92 118 160 202 257 297 370
#     4  10  19  38  62  89 118 155 204 245 303 361
#
# _framework density 19.769100000000002
#
# number of rings (size 3 to 8) (size 9 to 14) (size 15 to 20)
#    0.000    1.143    4.286    2.143    0.000    0.571 
#    0.000    7.143    0.000    0.000    0.000    0.000 
#    0.000    0.000    0.000    0.000    0.000    0.000 
#
# Total GULP energy -347226.659142 kJ/mol
# GULP energy per Si atom -12400.952112 kJ/mol
# Density = 1.972410 g / cm^3
# Si number density = 19.769100 Si / 1000 Ang^3
#
#
#
# Elastic Constant Matrix: (Units=GPa)
#
#
# Indices 1 2 3 4 5 6 
#
# 1 116.9485 28.0907 20.5087 0.0000 7.8637 0.0000
# 2 28.0907 95.9835 45.1854 0.0000 19.2861 0.0000
# 3 20.5087 45.1854 85.2719 0.0000 22.3338 0.0000
# 4 0.0000 0.0000 0.0000 36.2396 0.0000 2.5084
# 5 7.8637 19.2861 22.3338 0.0000 28.2585 0.0000
# 6 0.0000 0.0000 0.0000 2.5084 0.0000 35.0526
#
#
#
# Elastic Compliance Matrix: (Units=1/GPa)
#
#
# Indices 1 2 3 4 5 6 
#
# 1 0.009270 -0.002185 -0.000992 0.000000 -0.000304 0.000000
# 2 -0.002185 0.014891 -0.006132 0.000000 -0.004708 0.000000
# 3 -0.000992 -0.006132 0.017713 0.000000 -0.009539 0.000000
# 4 0.000000 0.000000 0.000000 0.027731 0.000000 -0.001985
# 5 -0.000304 -0.004708 -0.009539 0.000000 0.046224 0.000000
# 6 0.000000 0.000000 0.000000 -0.001985 0.000000 0.028671
#
#
# Mechanical properties :
#
#
# Convention : Reuss Voigt Hill
#
# Bulk Modulus (GPa) = 42.99867 53.97484 48.48675
# Shear Modulus (GPa) = 29.26205 33.53809 31.40007
#
# Velocity S-wave (km/s) = 3.85150 4.12332 3.98972
# Velocity P-wave (km/s) = 6.44798 7.07325 6.76784
#
# Compressibility (1/GPa) = 0.02325654
#
# Stress axis : x y z
#
# Youngs Moduli (GPa) = 107.87492 67.15661 56.45480
#
# Poissons Ratio (x) = 0.14672 0.05601
# Poissons Ratio (y) = 0.23568 0.34617
# Poissons Ratio (z) = 0.10702 0.41179
#
# Static dielectric constant tensor:
#      x y z
#    x 3.877120 0.000000 0.129110 
#    y 0.000000 3.787630 0.000000 
#    z 0.129110 0.000000 3.720080 
# 
# 
# High freq. dielectric constant tensor:
#      x y z
#    x 1.792850 0.000000 0.003430 
#    y 0.000000 1.779540 0.000000 
#    z 0.003430 0.000000 1.751860 
# 
# From -- ./inp_files/16640.got.cif
#   From: 2010.06.25/outbox.cif.g09.slc.cpg/sg13_9_cif.got.tgz:16640.got - 2010.06.28 04:50:58.
