data_PCOD8118972
_publ_section_title
;
Structure prediction by ZEFSAII (Michael W. Deem and Ramdas Pophale) SiO2 
 PCOD8118972
Probable space group: P 2/C
;
_chemical_formula_sum "Si O2"
_cell_formula_units_Z 28
_cell_length_a 8.913717
_cell_length_b 20.124243
_cell_length_c 14.926927
_cell_angle_alpha 90.000000
_cell_angle_beta 151.346022
_cell_angle_gamma 90.000000
_cell_volume 1283.968683
_symmetry_space_group_name_H-M "P 2/C"
_symmetry_group_IT_number 13
_symmetry_cell_setting 'monoclinic'
loop_
_space_group_symop_operation_xyz
x,y,z
-x,y,1/2-z
-x,-y,-z
x,-y,1/2+z
loop_
_atom_site_type_symbol
_atom_site_label
_atom_site_fract_x
_atom_site_fract_y
_atom_site_fract_z
Si Si1 0.586050 0.415280 0.698535
Si Si2 0.276135 0.972120 0.955380
Si Si3 0.643280 0.798680 0.591404
Si Si4 0.622268 0.150305 0.719518
Si Si5 0.308319 0.445156 0.061489
Si Si6 0.693511 0.108183 0.441285
Si Si7 0.361334 0.664285 0.444535
O O1 0.500000 0.384547 0.750000
O O2 0.373305 0.479382 0.566091
O O3 0.520003 0.358697 0.590899
O O4 0.942658 0.438882 0.887433
O O5 0.000000 0.940180 0.750000
O O6 0.438507 0.918444 0.104085
O O7 0.500000 0.000000 0.000000
O O8 0.177679 0.035666 0.962695
O O9 0.446052 0.799488 0.396412
O O10 0.519916 0.855684 0.595034
O O11 0.572756 0.725282 0.592647
O O12 0.000000 0.810261 0.750000
O O13 0.500000 0.178414 0.750000
O O14 0.996022 0.148260 0.919452
O O15 0.500000 0.425370 0.250000
O O16 0.416125 0.396760 0.039319
O O17 0.500000 0.100252 0.250000
O O18 0.000000 0.686251 0.250000
#
# Coordination Sequence:
#
# PCOD8118972 Si02
#       7
#     4   4   4   4   4   4   4
#     4  10  20  36  60  90 124 160 199 251 304 364
#     4  12  23  41  70  97 131 166 204 258 317 371
#     4  12  26  45  66  90 124 166 212 265 313 372
#     4  12  26  43  68  95 128 166 209 259 312 378
#     4  10  20  36  60  90 124 160 199 251 305 363
#     4  12  26  44  67  95 127 167 209 258 316 373
#     4  10  23  41  62  86 122 165 207 251 310 367
#
# _framework density 21.807386999999999
#
# number of rings (size 3 to 8) (size 9 to 14) (size 15 to 20)
#    0.000    0.857    2.857    5.143    2.000    4.571 
#    0.000    2.857    0.000    0.000    0.000    0.000 
#    0.000    0.000    0.000    0.000    0.000    0.000 
#
# Total GULP energy -347159.394858 kJ/mol
# GULP energy per Si atom -12398.549816 kJ/mol
# Density = 2.175775 g / cm^3
# Si number density = 21.807387 Si / 1000 Ang^3
#
#
#
# Elastic Constant Matrix: (Units=GPa)
#
#
# Indices 1 2 3 4 5 6 
#
# 1 124.4589 25.3751 24.3468 0.0000 -2.6031 0.0000
# 2 25.3751 80.8312 5.8888 0.0000 -4.0776 0.0000
# 3 24.3468 5.8888 100.1825 0.0000 2.1643 0.0000
# 4 0.0000 0.0000 0.0000 28.1934 0.0000 4.6808
# 5 -2.6031 -4.0776 2.1643 0.0000 41.6548 0.0000
# 6 0.0000 0.0000 0.0000 4.6808 0.0000 13.5658
#
#
#
# Elastic Compliance Matrix: (Units=1/GPa)
#
#
# Indices 1 2 3 4 5 6 
#
# 1 0.008982 -0.002651 -0.002036 0.000000 0.000408 0.000000
# 2 -0.002651 0.013273 -0.000161 0.000000 0.001142 0.000000
# 3 -0.002036 -0.000161 0.010501 0.000000 -0.000689 0.000000
# 4 0.000000 0.000000 0.000000 0.037625 0.000000 -0.012982
# 5 0.000408 0.001142 -0.000689 0.000000 0.024180 0.000000
# 6 0.000000 0.000000 0.000000 -0.012982 0.000000 0.078194
#
#
# Mechanical properties :
#
#
# Convention : Reuss Voigt Hill
#
# Bulk Modulus (GPa) = 43.36290 46.29935 44.83113
# Shear Modulus (GPa) = 26.29689 33.34025 29.81857
#
# Velocity S-wave (km/s) = 3.47633 3.91429 3.70180
# Velocity P-wave (km/s) = 6.00340 6.45802 6.23486
#
# Compressibility (1/GPa) = 0.02306119
#
# Stress axis : x y z
#
# Youngs Moduli (GPa) = 111.33360 75.34130 95.23026
#
# Poissons Ratio (x) = 0.19972 0.19387
# Poissons Ratio (y) = 0.29513 0.01530
# Poissons Ratio (z) = 0.22666 0.01210
#
# Static dielectric constant tensor:
#      x y z
#    x 4.142950 0.000000 0.015350 
#    y 0.000000 3.795870 0.000000 
#    z 0.015350 0.000000 3.894700 
# 
# 
# High freq. dielectric constant tensor:
#      x y z
#    x 1.871650 0.000000 0.004410 
#    y 0.000000 1.849720 0.000000 
#    z 0.004410 0.000000 1.862150 
# 
# From -- ./inp_files/48255.got.cif
#   From: 2010.06.25/outbox.cif.g09.slc.cpg/sg13_25_cif.got.tgz:48255.got - 2010.06.28 04:50:58.
