data_PCOD8118399
_publ_section_title
;
Structure prediction by ZEFSAII (Michael W. Deem and Ramdas Pophale) SiO2 
 PCOD8118399
Probable space group: P 2/C
;
_chemical_formula_sum "Si O2"
_cell_formula_units_Z 28
_cell_length_a 20.605531
_cell_length_b 11.266350
_cell_length_c 15.837575
_cell_angle_alpha 90.000000
_cell_angle_beta 18.340311
_cell_angle_gamma 90.000000
_cell_volume 1156.905174
_symmetry_space_group_name_H-M "P 2/C"
_symmetry_group_IT_number 13
_symmetry_cell_setting 'monoclinic'
loop_
_space_group_symop_operation_xyz
x,y,z
-x,y,1/2-z
-x,-y,-z
x,-y,1/2+z
loop_
_atom_site_type_symbol
_atom_site_label
_atom_site_fract_x
_atom_site_fract_y
_atom_site_fract_z
Si Si1 0.896263 0.478766 0.505238
Si Si2 0.666404 0.942074 0.432193
Si Si3 0.667823 0.247796 0.796435
Si Si4 0.214217 0.865036 0.036042
Si Si5 0.648158 0.377759 0.191406
Si Si6 0.694427 0.451789 0.423667
Si Si7 0.568037 0.189173 0.575395
O O1 0.859020 0.337423 0.551098
O O2 0.832502 0.541764 0.498342
O O3 0.763236 0.538988 0.742638
O O4 0.137186 0.504766 0.220312
O O5 0.741688 0.866624 0.258514
O O6 0.415704 0.929483 0.748359
O O7 0.798740 0.898305 0.349280
O O8 0.712725 0.082638 0.359697
O O9 0.611276 0.210570 0.771300
O O10 0.479180 0.314640 0.075746
O O11 0.253782 0.723446 0.988163
O O12 0.000000 0.896117 0.250000
O O13 0.509375 0.470127 0.309325
O O14 0.675285 0.312676 0.465460
O O15 0.500000 0.135812 0.750000
#
# Coordination Sequence:
#
# PCOD8118399 Si02
#       7
#     4   4   4   4   4   4   4
#     4  10  19  39  63  96 130 161 217 263 315 388
#     4  10  23  45  64  92 131 173 220 266 322 383
#     4  10  20  41  67  90 128 175 213 265 318 386
#     4  10  22  42  67  94 125 172 218 273 319 378
#     4  10  19  40  64  92 133 160 213 260 329 380
#     4  10  21  38  64  95 131 170 200 268 323 387
#     4  12  22  43  65  91 133 174 214 265 331 378
#
# _framework density 24.202501999999999
#
# number of rings (size 3 to 8) (size 9 to 14) (size 15 to 20)
#    0.000    1.714    4.286    1.286    0.000    5.714 
#   12.857    1.429    0.000    0.000    0.000    0.000 
#    0.000    0.000    0.000    0.000    0.000    0.000 
#
# Total GULP energy -347079.501052 kJ/mol
# GULP energy per Si atom -12395.696466 kJ/mol
# Density = 2.414742 g / cm^3
# Si number density = 24.202502 Si / 1000 Ang^3
#
#
#
# Elastic Constant Matrix: (Units=GPa)
#
#
# Indices 1 2 3 4 5 6 
#
# 1 115.4641 29.3209 24.7742 0.0000 -26.4663 0.0000
# 2 29.3209 149.3041 10.7421 0.0000 -8.7259 0.0000
# 3 24.7742 10.7421 57.5609 0.0000 -25.0055 0.0000
# 4 0.0000 0.0000 0.0000 70.3667 0.0000 -54.3496
# 5 -26.4663 -8.7259 -25.0055 0.0000 30.6949 0.0000
# 6 0.0000 0.0000 0.0000 -54.3496 0.0000 85.6865
#
#
#
# Elastic Compliance Matrix: (Units=1/GPa)
#
#
# Indices 1 2 3 4 5 6 
#
# 1 0.011209 -0.001644 -0.000808 0.000000 0.008539 0.000000
# 2 -0.001644 0.007069 -0.000549 0.000000 0.000145 0.000000
# 3 -0.000808 -0.000549 0.027012 0.000000 0.021153 0.000000
# 4 0.000000 0.000000 0.000000 0.027860 0.000000 0.017671
# 5 0.008539 0.000145 0.021153 0.000000 0.057215 0.000000
# 6 0.000000 0.000000 0.000000 0.017671 0.000000 0.022879
#
#
# Mechanical properties :
#
#
# Convention : Reuss Voigt Hill
#
# Bulk Modulus (GPa) = 25.45270 50.22260 37.83765
# Shear Modulus (GPa) = 29.01228 54.51573 41.76401
#
# Velocity S-wave (km/s) = 3.46603 4.75118 4.15855
# Velocity P-wave (km/s) = 5.15336 7.13403 6.22300
#
# Compressibility (1/GPa) = 0.03928857
#
# Stress axis : x y z
#
# Youngs Moduli (GPa) = 89.21511 141.47180 37.02041
#
# Poissons Ratio (x) = 0.23259 0.02991
# Poissons Ratio (y) = 0.14667 0.02031
# Poissons Ratio (z) = 0.07208 0.07760
#
# Static dielectric constant tensor:
#      x y z
#    x 4.350450 0.000000 -0.159520 
#    y 0.000000 4.555770 0.000000 
#    z -0.159520 0.000000 4.011590 
# 
# 
# High freq. dielectric constant tensor:
#      x y z
#    x 1.975840 0.000000 -0.012590 
#    y 0.000000 1.975570 0.000000 
#    z -0.012590 0.000000 1.924930 
# 
# From -- ./inp_files/70678.got.cif
#   From: 2010.06.25/outbox.cif.g09.slc.cpg/sg13_36_cif.got.tgz:70678.got - 2010.06.28 04:50:58.
