data_PCOD8118799
_publ_section_title
;
Structure prediction by ZEFSAII (Michael W. Deem and Ramdas Pophale) SiO2 
 PCOD8118799
Probable space group: P 2/C
;
_chemical_formula_sum "Si O2"
_cell_formula_units_Z 22
_cell_length_a 9.028563
_cell_length_b 21.864250
_cell_length_c 5.392520
_cell_angle_alpha 90.000000
_cell_angle_beta 107.124058
_cell_angle_gamma 90.000000
_cell_volume 1017.308544
_symmetry_space_group_name_H-M "P 2/C"
_symmetry_group_IT_number 13
_symmetry_cell_setting 'monoclinic'
loop_
_space_group_symop_operation_xyz
x,y,z
-x,y,1/2-z
-x,-y,-z
x,-y,1/2+z
loop_
_atom_site_type_symbol
_atom_site_label
_atom_site_fract_x
_atom_site_fract_y
_atom_site_fract_z
Si Si1 0.000000 0.741329 0.250000
Si Si2 0.140979 0.844034 0.983373
Si Si3 0.178787 0.472819 0.291636
Si Si4 0.164479 0.667898 0.706804
Si Si5 0.598629 0.235414 0.048750
Si Si6 0.173825 0.975521 0.120164
O O1 0.137677 0.697776 0.422820
O O2 0.911304 0.784189 0.397001
O O3 0.285600 0.822730 0.886397
O O4 0.000000 0.868610 0.750000
O O5 0.184768 0.902324 0.173756
O O6 0.254065 0.487945 0.599917
O O7 0.204365 0.403290 0.221814
O O8 0.000000 0.490285 0.250000
O O9 0.305918 0.701165 0.912231
O O10 0.000000 0.680803 0.750000
O O11 0.500000 0.231683 0.250000
O O12 0.500000 0.232386 0.750000
O O13 0.257346 0.006796 0.399787
O O14 0.000000 0.000000 0.000000
#
# Coordination Sequence:
#
# PCOD8118799 Si02
#       6
#     2   4   4   4   4   4
#     4  12  20  36  64 102 124 162 218 274 318 372
#     4  12  23  39  68  96 130 165 217 274 316 384
#     4   9  20  34  57  92 127 157 202 266 329 373
#     4  11  23  39  67  94 126 170 219 271 314 386
#     4  12  27  44  61  94 137 176 211 262 334 391
#     4  10  20  35  59  99 120 154 203 273 312 357
#
# _framework density 21.625691
#
# number of rings (size 3 to 8) (size 9 to 14) (size 15 to 20)
#    0.000    1.091    5.455    2.182    6.364    0.000 
#    0.000    0.000    0.000    6.545    0.000    0.000 
#    0.000    0.000    0.000    0.000    0.000    0.000 
#
# Total GULP energy -272623.510007 kJ/mol
# GULP energy per Si atom -12391.977728 kJ/mol
# Density = 2.157647 g / cm^3
# Si number density = 21.625691 Si / 1000 Ang^3
#
#
#
# Elastic Constant Matrix: (Units=GPa)
#
#
# Indices 1 2 3 4 5 6 
#
# 1 77.7815 32.7003 30.6093 0.0000 -6.8089 0.0000
# 2 32.7003 162.7235 47.7128 0.0000 -14.8113 0.0000
# 3 30.6093 47.7128 140.1412 0.0000 -21.3624 0.0000
# 4 0.0000 0.0000 0.0000 20.7298 0.0000 2.8145
# 5 -6.8089 -14.8113 -21.3624 0.0000 31.7777 0.0000
# 6 0.0000 0.0000 0.0000 2.8145 0.0000 -9.2774
#
#
#
# Elastic Compliance Matrix: (Units=1/GPa)
#
#
# Indices 1 2 3 4 5 6 
#
# 1 0.014777 -0.002221 -0.002392 0.000000 0.000523 0.000000
# 2 -0.002221 0.007255 -0.001718 0.000000 0.001751 0.000000
# 3 -0.002392 -0.001718 0.008961 0.000000 0.004711 0.000000
# 4 0.000000 0.000000 0.000000 0.046332 0.000000 0.014055
# 5 0.000523 0.001751 0.004711 0.000000 0.035563 0.000000
# 6 0.000000 0.000000 0.000000 0.014055 0.000000 -0.103524
#
#
# Mechanical properties :
#
#
# Convention : Reuss Voigt Hill
#
# Bulk Modulus (GPa) = 54.54934 66.96566 60.75750
# Shear Modulus (GPa) = 177.71375 26.62093 102.16734
#
# Velocity S-wave (km/s) = 9.07500 3.51235 6.88085
# Velocity P-wave (km/s) = 11.62267 6.89070 9.55427
#
# Compressibility (1/GPa) = 0.01833203
#
# Stress axis : x y z
#
# Youngs Moduli (GPa) = 67.67202 137.84066 111.59347
#
# Poissons Ratio (x) = 0.30609 0.26691
# Poissons Ratio (y) = 0.15027 0.19173
# Poissons Ratio (z) = 0.16186 0.23682
#
# Static dielectric constant tensor:
#      x y z
#    x 3.732180 0.000000 -0.410630 
#    y 0.000000 3.875930 0.000000 
#    z -0.410630 0.000000 4.934030 
# 
# 
# High freq. dielectric constant tensor:
#      x y z
#    x 1.803010 0.000000 -0.027480 
#    y 0.000000 1.860410 0.000000 
#    z -0.027480 0.000000 1.855550 
# 
# From -- ./inp_files/2170.got.cif
#   From: 2010.06.25/outbox.cif.g09.slc.cpg/sg13_2_cif.got.tgz:2170.got - 2010.06.28 04:50:58.
