data_PCOD8118178
_publ_section_title
;
Structure prediction by ZEFSAII (Michael W. Deem and Ramdas Pophale) SiO2 
 PCOD8118178
Probable space group: P 2/C
;
_chemical_formula_sum "Si O2"
_cell_formula_units_Z 24
_cell_length_a 16.488253
_cell_length_b 9.728358
_cell_length_c 22.450806
_cell_angle_alpha 90.000000
_cell_angle_beta 19.659062
_cell_angle_gamma 90.000000
_cell_volume 1211.521550
_symmetry_space_group_name_H-M "P 2/C"
_symmetry_group_IT_number 13
_symmetry_cell_setting 'monoclinic'
loop_
_space_group_symop_operation_xyz
x,y,z
-x,y,1/2-z
-x,-y,-z
x,-y,1/2+z
loop_
_atom_site_type_symbol
_atom_site_label
_atom_site_fract_x
_atom_site_fract_y
_atom_site_fract_z
Si Si1 0.744833 0.651309 0.800372
Si Si2 0.835310 0.207841 0.921829
Si Si3 0.689021 0.883069 0.745381
Si Si4 0.066423 0.846854 0.383264
Si Si5 0.157337 0.480516 0.081903
Si Si6 0.448802 0.377910 0.617065
O O1 0.772636 0.782182 0.739676
O O2 0.593244 0.535944 0.871240
O O3 0.010259 0.593639 0.631360
O O4 0.599035 0.696173 0.960421
O O5 0.775822 0.364031 0.983203
O O6 0.000000 0.203488 0.750000
O O7 0.977295 0.133521 0.877203
O O8 0.592029 0.126143 0.075523
O O9 0.833923 0.847521 0.585706
O O10 0.744352 0.035597 0.730053
O O11 0.201927 0.701985 0.298858
O O12 0.000000 0.489002 0.250000
O O13 0.394286 0.388055 0.930840
#
# Coordination Sequence:
#
# PCOD8118178 Si02
#       6
#     4   4   4   4   4   4
#     4  10  19  36  62  90 120 154 203 257 299 349
#     4  11  21  40  67  90 116 156 205 253 306 359
#     4  11  25  42  59  87 129 166 199 245 303 364
#     4  11  25  42  59  87 129 166 199 245 303 364
#     4   9  18  34  59  92 122 150 193 259 310 341
#     4  10  19  36  62  90 120 154 203 257 299 349
#
# _framework density 19.809799999999999
#
# number of rings (size 3 to 8) (size 9 to 14) (size 15 to 20)
#    0.000    1.667    3.333    1.500    0.000    4.667 
#    0.000    4.167    0.000    0.000    0.000    0.000 
#    0.000    0.000    0.000    0.000    0.000    0.000 
#
# Total GULP energy -297671.150923 kJ/mol
# GULP energy per Si atom -12402.964622 kJ/mol
# Density = 1.976471 g / cm^3
# Si number density = 19.809800 Si / 1000 Ang^3
#
#
#
# Elastic Constant Matrix: (Units=GPa)
#
#
# Indices 1 2 3 4 5 6 
#
# 1 92.2716 8.3089 44.9261 0.0000 -20.0244 0.0000
# 2 8.3089 49.0817 34.8644 0.0000 1.2958 0.0000
# 3 44.9261 34.8644 93.9088 0.0000 -18.8842 0.0000
# 4 0.0000 0.0000 0.0000 21.9869 0.0000 -1.0861
# 5 -20.0244 1.2958 -18.8842 0.0000 38.6161 0.0000
# 6 0.0000 0.0000 0.0000 -1.0861 0.0000 29.6009
#
#
#
# Elastic Compliance Matrix: (Units=1/GPa)
#
#
# Indices 1 2 3 4 5 6 
#
# 1 0.015073 0.002537 -0.007318 0.000000 0.004153 0.000000
# 2 0.002537 0.029704 -0.013505 0.000000 -0.006286 0.000000
# 3 -0.007318 -0.013505 0.020508 0.000000 0.006688 0.000000
# 4 0.000000 0.000000 0.000000 0.045564 0.000000 0.001672
# 5 0.004153 -0.006286 0.006688 0.000000 0.031531 0.000000
# 6 0.000000 0.000000 0.000000 0.001672 0.000000 0.033844
#
#
# Mechanical properties :
#
#
# Convention : Reuss Voigt Hill
#
# Bulk Modulus (GPa) = 34.82796 45.71787 40.27291
# Shear Modulus (GPa) = 22.48519 27.85162 25.16841
#
# Velocity S-wave (km/s) = 3.37271 3.75367 3.56828
# Velocity P-wave (km/s) = 5.72593 6.47420 6.11153
#
# Compressibility (1/GPa) = 0.02871256
#
# Stress axis : x y z
#
# Youngs Moduli (GPa) = 66.34251 33.66539 48.76068
#
# Poissons Ratio (x) = -0.08540 0.35682
# Poissons Ratio (y) = -0.16829 0.65854
# Poissons Ratio (z) = 0.48548 0.45467
#
# Static dielectric constant tensor:
#      x y z
#    x 3.748010 0.000000 -0.187920 
#    y 0.000000 3.452890 0.000000 
#    z -0.187920 0.000000 3.535310 
# 
# 
# High freq. dielectric constant tensor:
#      x y z
#    x 1.782580 0.000000 -0.018290 
#    y 0.000000 1.759680 0.000000 
#    z -0.018290 0.000000 1.763930 
# 
# From -- ./inp_files/87976.got.cif
#   From: 2010.06.25/outbox.cif.g09.slc.cpg/sg13_44_cif.got.tgz:87976.got - 2010.06.28 04:50:58.
