data_PCOD8118701
_publ_section_title
;
Structure prediction by ZEFSAII (Michael W. Deem and Ramdas Pophale) SiO2 
 PCOD8118701
Probable space group: P 2/C
;
_chemical_formula_sum "Si O2"
_cell_formula_units_Z 28
_cell_length_a 11.196913
_cell_length_b 11.258607
_cell_length_c 21.058384
_cell_angle_alpha 90.000000
_cell_angle_beta 143.579215
_cell_angle_gamma 90.000000
_cell_volume 1576.097136
_symmetry_space_group_name_H-M "P 2/C"
_symmetry_group_IT_number 13
_symmetry_cell_setting 'monoclinic'
loop_
_space_group_symop_operation_xyz
x,y,z
-x,y,1/2-z
-x,-y,-z
x,-y,1/2+z
loop_
_atom_site_type_symbol
_atom_site_label
_atom_site_fract_x
_atom_site_fract_y
_atom_site_fract_z
Si Si1 0.770888 0.422998 0.655817
Si Si2 0.916735 0.239517 0.941837
Si Si3 0.388583 0.065671 0.635430
Si Si4 0.677208 0.758903 0.219929
Si Si5 0.371605 0.570902 0.141819
Si Si6 0.554137 0.597403 0.932906
Si Si7 0.374895 0.203974 0.131999
O O1 0.752541 0.302148 0.688132
O O2 0.656262 0.535388 0.637781
O O3 0.689050 0.385501 0.552372
O O4 0.000000 0.464378 0.750000
O O5 0.822578 0.137530 0.947824
O O6 0.867389 0.211814 0.846672
O O7 0.836930 0.371209 0.925209
O O8 0.153405 0.250868 0.052984
O O9 0.500000 0.072814 0.750000
O O10 0.541074 0.123582 0.648347
O O11 0.351469 0.931197 0.597962
O O12 0.526470 0.676289 0.194242
O O13 0.500000 0.495690 0.250000
O O14 0.322718 0.490008 0.060689
O O15 0.521530 0.721141 0.881144
O O16 0.500000 0.213610 0.250000
#
# Coordination Sequence:
#
# PCOD8118701 Si02
#       7
#     4   4   4   4   4   4   4
#     4  10  20  35  53  67  86 123 166 201 229 263
#     4   9  16  29  51  73  94 123 157 188 223 272
#     4   8  16  31  50  72  96 120 149 191 236 276
#     4   8  15  31  53  71  87 114 161 206 228 255
#     4   8  15  29  49  72  94 119 153 194 232 268
#     4  10  21  33  46  70  99 124 154 192 235 278
#     4  11  21  30  44  71 105 130 146 176 233 295
#
# _framework density 17.765402999999999
#
# number of rings (size 3 to 8) (size 9 to 14) (size 15 to 20)
#    0.000    2.857    0.000    3.429    0.000    1.714 
#    0.000    0.714    0.000    0.857    0.000    0.000 
#    0.000    0.000    0.000    0.000    0.000    0.000 
#
# Total GULP energy -347005.897546 kJ/mol
# GULP energy per Si atom -12393.067769 kJ/mol
# Density = 1.772497 g / cm^3
# Si number density = 17.765403 Si / 1000 Ang^3
#
#
#
# Elastic Constant Matrix: (Units=GPa)
#
#
# Indices 1 2 3 4 5 6 
#
# 1 91.8007 49.4176 54.7196 0.0000 -2.5353 0.0000
# 2 49.4176 88.2699 31.9643 0.0000 -5.1629 0.0000
# 3 54.7196 31.9643 102.4108 0.0000 5.1146 0.0000
# 4 0.0000 0.0000 0.0000 17.7902 0.0000 -2.8110
# 5 -2.5353 -5.1629 5.1146 0.0000 27.7650 0.0000
# 6 0.0000 0.0000 0.0000 -2.8110 0.0000 22.3547
#
#
#
# Elastic Compliance Matrix: (Units=1/GPa)
#
#
# Indices 1 2 3 4 5 6 
#
# 1 0.020417 -0.008271 -0.008421 0.000000 0.001878 0.000000
# 2 -0.008271 0.016400 -0.000821 0.000000 0.002446 0.000000
# 3 -0.008421 -0.000821 0.014702 0.000000 -0.003630 0.000000
# 4 0.000000 0.000000 0.000000 0.057350 0.000000 0.007211
# 5 0.001878 0.002446 -0.003630 0.000000 0.037312 0.000000
# 6 0.000000 0.000000 0.000000 0.007211 0.000000 0.045640
#
#
# Mechanical properties :
#
#
# Convention : Reuss Voigt Hill
#
# Bulk Modulus (GPa) = 60.63877 61.63159 61.13518
# Shear Modulus (GPa) = 21.51963 23.34065 22.43014
#
# Velocity S-wave (km/s) = 3.48418 3.62861 3.55713
# Velocity P-wave (km/s) = 7.09882 7.23346 7.16645
#
# Compressibility (1/GPa) = 0.01649110
#
# Stress axis : x y z
#
# Youngs Moduli (GPa) = 48.97820 60.97562 68.01803
#
# Poissons Ratio (x) = 0.50434 0.57281
# Poissons Ratio (y) = 0.40511 0.05588
# Poissons Ratio (z) = 0.41247 0.05009
#
# Static dielectric constant tensor:
#      x y z
#    x 3.203730 0.000000 0.017700 
#    y 0.000000 3.470450 0.000000 
#    z 0.017700 0.000000 3.158380 
# 
# 
# High freq. dielectric constant tensor:
#      x y z
#    x 1.668560 0.000000 0.006010 
#    y 0.000000 1.681530 0.000000 
#    z 0.006010 0.000000 1.680480 
# 
# From -- ./inp_files/86527.got.cif
#   From: 2010.06.25/outbox.cif.g09.slc.cpg/sg13_44_cif.got.tgz:86527.got - 2010.06.28 04:50:58.
