data_PCOD8118813
_publ_section_title
;
Structure prediction by ZEFSAII (Michael W. Deem and Ramdas Pophale) SiO2 
 PCOD8118813
Probable space group: P 2/C
;
_chemical_formula_sum "Si O2"
_cell_formula_units_Z 32
_cell_length_a 23.533993
_cell_length_b 11.973756
_cell_length_c 18.104429
_cell_angle_alpha 90.000000
_cell_angle_beta 161.041605
_cell_angle_gamma 90.000000
_cell_volume 1657.432378
_symmetry_space_group_name_H-M "P 2/C"
_symmetry_group_IT_number 13
_symmetry_cell_setting 'monoclinic'
loop_
_space_group_symop_operation_xyz
x,y,z
-x,y,1/2-z
-x,-y,-z
x,-y,1/2+z
loop_
_atom_site_type_symbol
_atom_site_label
_atom_site_fract_x
_atom_site_fract_y
_atom_site_fract_z
Si Si1 0.846142 0.954524 0.261161
Si Si2 0.220787 0.267914 0.878913
Si Si3 0.164305 0.337320 0.399294
Si Si4 0.584945 0.266727 0.243512
Si Si5 0.526255 0.502889 0.195293
Si Si6 0.854251 0.489860 0.260008
Si Si7 0.682844 0.904855 0.434362
Si Si8 0.516848 0.956872 0.602606
O O1 0.902120 0.828132 0.307108
O O2 0.812585 0.023458 0.145008
O O3 0.673409 0.958980 0.097044
O O4 0.000000 0.000000 0.500000
O O5 0.141260 0.390934 0.775226
O O6 0.404090 0.254715 0.063836
O O7 0.250173 0.241375 0.001165
O O8 0.335002 0.398473 0.643142
O O9 0.108686 0.390941 0.252526
O O10 0.214263 0.208941 0.453895
O O11 0.000000 0.352295 0.250000
O O12 0.594515 0.397047 0.230470
O O13 0.588130 0.171683 0.184330
O O14 0.500000 0.467907 0.250000
O O15 0.332326 0.537184 0.929569
O O16 0.000000 0.500000 0.500000
O O17 0.500000 0.879004 0.250000
O O18 0.647442 0.968715 0.313479
O O19 0.500000 0.000000 0.500000
#
# Coordination Sequence:
#
# PCOD8118813 Si02
#       8
#     4   4   4   4   4   4   4   4
#     4  10  21  35  58  88 115 150 198 238 279 352
#     4   9  15  31  58  86 105 142 194 230 276 338
#     4  11  23  39  58  82 116 155 199 243 297 347
#     4   9  13  31  61  82 103 142 188 229 280 347
#     4   9  16  35  62  83 109 150 190 230 288 356
#     4  10  20  35  61  91 116 148 193 237 287 357
#     4  10  21  39  61  80 115 166 199 231 292 359
#     4  10  21  37  59  86 117 149 192 242 295 346
#
# _framework density 19.306971999999998
#
# number of rings (size 3 to 8) (size 9 to 14) (size 15 to 20)
#    0.000    2.250    5.000    1.125    1.750    1.000 
#    4.500    1.875    0.000    0.000    0.000    0.000 
#    0.000    0.000    0.000    0.000    0.000    0.000 
#
# Total GULP energy -396472.930519 kJ/mol
# GULP energy per Si atom -12389.779079 kJ/mol
# Density = 1.926303 g / cm^3
# Si number density = 19.306972 Si / 1000 Ang^3
#
#
#
# Elastic Constant Matrix: (Units=GPa)
#
#
# Indices 1 2 3 4 5 6 
#
# 1 61.9631 42.0739 29.3908 0.0000 -14.0376 0.0000
# 2 42.0739 121.8692 35.9550 0.0000 -2.8046 0.0000
# 3 29.3908 35.9550 117.8135 0.0000 -19.6400 0.0000
# 4 0.0000 0.0000 0.0000 24.4098 0.0000 -2.1269
# 5 -14.0376 -2.8046 -19.6400 0.0000 27.1246 0.0000
# 6 0.0000 0.0000 0.0000 -2.1269 0.0000 19.9963
#
#
#
# Elastic Compliance Matrix: (Units=1/GPa)
#
#
# Indices 1 2 3 4 5 6 
#
# 1 0.024714 -0.007679 -0.002072 0.000000 0.010496 0.000000
# 2 -0.007679 0.011438 -0.002321 0.000000 -0.004472 0.000000
# 3 -0.002072 -0.002321 0.010798 0.000000 0.006506 0.000000
# 4 0.000000 0.000000 0.000000 0.041350 0.000000 0.004398
# 5 0.010496 -0.004472 0.006506 0.000000 0.046547 0.000000
# 6 0.000000 0.000000 0.000000 0.004398 0.000000 0.050477
#
#
# Mechanical properties :
#
#
# Convention : Reuss Voigt Hill
#
# Bulk Modulus (GPa) = 43.84810 57.38725 50.61767
# Shear Modulus (GPa) = 23.03408 27.25456 25.14432
#
# Velocity S-wave (km/s) = 3.45780 3.76126 3.61272
# Velocity P-wave (km/s) = 6.22110 6.97502 6.60882
#
# Compressibility (1/GPa) = 0.02280601
#
# Stress axis : x y z
#
# Youngs Moduli (GPa) = 40.46368 87.42473 92.61256
#
# Poissons Ratio (x) = 0.67135 0.19189
# Poissons Ratio (y) = 0.31073 0.21491
# Poissons Ratio (z) = 0.08384 0.20288
#
# Static dielectric constant tensor:
#      x y z
#    x 2.813630 0.000000 0.152130 
#    y 0.000000 4.093210 0.000000 
#    z 0.152130 0.000000 3.964760 
# 
# 
# High freq. dielectric constant tensor:
#      x y z
#    x 1.701440 0.000000 -0.008960 
#    y 0.000000 1.771350 0.000000 
#    z -0.008960 0.000000 1.750810 
# 
# From -- ./inp_files/71481.got.cif
#   From: 2010.06.25/outbox.cif.g09.slc.cpg/sg13_36_cif.got.tgz:71481.got - 2010.06.28 04:50:58.
