data_PCOD8118275
_publ_section_title
;
Structure prediction by ZEFSAII (Michael W. Deem and Ramdas Pophale) SiO2 
 PCOD8118275
Probable space group: P 2/C
;
_chemical_formula_sum "Si O2"
_cell_formula_units_Z 26
_cell_length_a 12.092353
_cell_length_b 10.743651
_cell_length_c 9.540662
_cell_angle_alpha 90.000000
_cell_angle_beta 93.474111
_cell_angle_gamma 90.000000
_cell_volume 1237.207014
_symmetry_space_group_name_H-M "P 2/C"
_symmetry_group_IT_number 13
_symmetry_cell_setting 'monoclinic'
loop_
_space_group_symop_operation_xyz
x,y,z
-x,y,1/2-z
-x,-y,-z
x,-y,1/2+z
loop_
_atom_site_type_symbol
_atom_site_label
_atom_site_fract_x
_atom_site_fract_y
_atom_site_fract_z
Si Si1 0.500000 0.741092 0.750000
Si Si2 0.224502 0.422849 0.352781
Si Si3 0.681627 0.400068 0.423310
Si Si4 0.704632 0.144445 0.121939
Si Si5 0.121344 0.235715 0.017460
Si Si6 0.189065 0.015822 0.626550
Si Si7 0.000000 0.619450 0.750000
Si Si8 0.000000 0.818470 0.250000
O O1 0.437833 0.652689 0.631477
O O2 0.421920 0.826350 0.842213
O O3 0.264190 0.466534 0.204943
O O4 0.310958 0.489822 0.463022
O O5 0.229038 0.273829 0.369683
O O6 0.092608 0.459845 0.346098
O O7 0.753156 0.284453 0.486477
O O8 0.747804 0.048503 0.240790
O O9 0.722085 0.087359 0.967604
O O10 0.125086 0.086542 0.028976
O O11 0.065121 0.293611 0.148343
O O12 0.054615 0.269900 0.871584
O O13 0.096149 0.104595 0.681514
#
# Coordination Sequence:
#
# PCOD8118275 Si02
#       8
#     2   4   4   4   4   4   2   2
#     4  10  22  48  70  92 122 178 210 298 330 372
#     4  10  22  40  62  97 127 172 213 271 312 410
#     4  10  23  41  66  88 130 161 223 267 335 375
#     4  11  24  41  68  93 133 167 231 265 329 376
#     4  11  22  39  58  96 128 173 214 263 315 405
#     4  12  22  41  61  99 131 176 211 267 309 407
#     4  10  19  37  64  84 142 173 205 254 338 370
#     4  12  25  33  68  94 138 175 215 252 330 388
#
# _framework density 21.015076000000001
#
# number of rings (size 3 to 8) (size 9 to 14) (size 15 to 20)
#    0.000    1.231    6.154    1.846    0.000    8.615 
#    0.000    0.000    0.000    8.308    0.000    0.000 
#    0.000    0.000    0.000    0.000    0.000    0.000 
#
# Total GULP energy -322106.943251 kJ/mol
# GULP energy per Si atom -12388.728587 kJ/mol
# Density = 2.096725 g / cm^3
# Si number density = 21.015076 Si / 1000 Ang^3
#
#
#
# Elastic Constant Matrix: (Units=GPa)
#
#
# Indices 1 2 3 4 5 6 
#
# 1 142.4628 35.7866 55.6967 0.0000 10.4119 0.0000
# 2 35.7866 54.4314 54.1739 0.0000 3.2200 0.0000
# 3 55.6967 54.1739 124.3721 0.0000 14.7610 0.0000
# 4 0.0000 0.0000 0.0000 36.2968 0.0000 12.0791
# 5 10.4119 3.2200 14.7610 0.0000 43.4534 0.0000
# 6 0.0000 0.0000 0.0000 12.0791 0.0000 14.1122
#
#
#
# Elastic Compliance Matrix: (Units=1/GPa)
#
#
# Indices 1 2 3 4 5 6 
#
# 1 0.008880 -0.003431 -0.002355 0.000000 -0.001074 0.000000
# 2 -0.003431 0.034019 -0.013629 0.000000 0.002931 0.000000
# 3 -0.002355 -0.013629 0.015468 0.000000 -0.003680 0.000000
# 4 0.000000 0.000000 0.000000 0.038524 0.000000 -0.032974
# 5 -0.001074 0.002931 -0.003680 0.000000 0.024303 0.000000
# 6 0.000000 0.000000 0.000000 -0.032974 0.000000 0.099084
#
#
# Mechanical properties :
#
#
# Convention : Reuss Voigt Hill
#
# Bulk Modulus (GPa) = 51.18479 68.06451 59.62465
# Shear Modulus (GPa) = 18.82371 30.47976 24.65173
#
# Velocity S-wave (km/s) = 2.99611 3.81251 3.42870
# Velocity P-wave (km/s) = 6.03142 7.19993 6.64143
#
# Compressibility (1/GPa) = 0.01953705
#
# Stress axis : x y z
#
# Youngs Moduli (GPa) = 112.60720 29.39518 64.64811
#
# Poissons Ratio (x) = 0.10087 0.15223
# Poissons Ratio (y) = 0.38640 0.88111
# Poissons Ratio (z) = 0.26517 0.40064
#
# Static dielectric constant tensor:
#      x y z
#    x 3.978800 0.000000 0.155160 
#    y 0.000000 3.633940 0.000000 
#    z 0.155160 0.000000 4.124250 
# 
# 
# High freq. dielectric constant tensor:
#      x y z
#    x 1.820740 0.000000 0.006310 
#    y 0.000000 1.810170 0.000000 
#    z 0.006310 0.000000 1.834500 
# 
# From -- ./inp_files/15947.got.cif
#   From: 2010.06.25/outbox.cif.g09.slc.cpg/sg13_8_cif.got.tgz:15947.got - 2010.06.28 04:50:58.
