data_PCOD8118333
_publ_section_title
;
Structure prediction by ZEFSAII (Michael W. Deem and Ramdas Pophale) SiO2 
 PCOD8118333
Probable space group: P 2/C
;
_chemical_formula_sum "Si O2"
_cell_formula_units_Z 28
_cell_length_a 13.295924
_cell_length_b 9.141711
_cell_length_c 15.063279
_cell_angle_alpha 90.000000
_cell_angle_beta 131.335676
_cell_angle_gamma 90.000000
_cell_volume 1374.739682
_symmetry_space_group_name_H-M "P 2/C"
_symmetry_group_IT_number 13
_symmetry_cell_setting 'monoclinic'
loop_
_space_group_symop_operation_xyz
x,y,z
-x,y,1/2-z
-x,-y,-z
x,-y,1/2+z
loop_
_atom_site_type_symbol
_atom_site_label
_atom_site_fract_x
_atom_site_fract_y
_atom_site_fract_z
Si Si1 0.801622 0.254233 0.684201
Si Si2 0.000000 0.018533 0.750000
Si Si3 0.500000 0.546863 0.250000
Si Si4 0.001120 0.347714 0.546935
Si Si5 0.710228 0.681890 0.950445
Si Si6 0.576410 0.180029 0.685082
Si Si7 0.342746 0.989411 0.094067
Si Si8 0.055287 0.099971 0.455035
O O1 0.872039 0.126320 0.668733
O O2 0.742730 0.360394 0.572669
O O3 0.677595 0.181643 0.662891
O O4 0.904769 0.336896 0.810719
O O5 0.036176 0.917166 0.685765
O O6 0.380123 0.446717 0.142788
O O7 0.440936 0.652152 0.292184
O O8 0.849811 0.300047 0.478719
O O9 0.000000 0.500000 0.500000
O O10 0.066028 0.257968 0.503544
O O11 0.630892 0.836194 0.897367
O O12 0.630806 0.069838 0.791512
O O13 0.433716 0.104039 0.576928
O O14 0.190251 0.952823 0.987034
O O15 0.000000 0.000000 0.500000
#
# Coordination Sequence:
#
# PCOD8118333 Si02
#       8
#     4   2   2   4   4   4   4   4
#     4  12  21  42  67  96 129 168 217 277 332 380
#     4  12  22  40  66 104 126 162 224 278 334 390
#     4  10  24  44  58  92 130 180 216 260 334 396
#     4  12  25  42  69  97 131 179 214 268 346 394
#     4  12  23  41  67  94 130 168 226 269 318 403
#     4  10  23  39  66  87 128 169 209 270 328 398
#     4  10  19  38  61  92 115 168 213 255 321 385
#     4  12  20  41  67  92 128 168 214 276 326 383
#
# _framework density 20.367494000000001
#
# number of rings (size 3 to 8) (size 9 to 14) (size 15 to 20)
#    0.000    0.857    7.143    1.714    2.000    1.143 
#    2.571    0.000    0.000    0.000    0.000    0.000 
#    0.000    0.000    0.000    0.000    0.000    0.000 
#
# Total GULP energy -346883.442487 kJ/mol
# GULP energy per Si atom -12388.694375 kJ/mol
# Density = 2.032114 g / cm^3
# Si number density = 20.367494 Si / 1000 Ang^3
#
#
#
# Elastic Constant Matrix: (Units=GPa)
#
#
# Indices 1 2 3 4 5 6 
#
# 1 125.1158 36.6582 33.0281 0.0000 3.9901 0.0000
# 2 36.6582 142.0954 56.3278 0.0000 -1.3450 0.0000
# 3 33.0281 56.3278 111.5527 0.0000 -9.3001 0.0000
# 4 0.0000 0.0000 0.0000 22.9806 0.0000 4.4229
# 5 3.9901 -1.3450 -9.3001 0.0000 34.9360 0.0000
# 6 0.0000 0.0000 0.0000 4.4229 0.0000 23.1874
#
#
#
# Elastic Compliance Matrix: (Units=1/GPa)
#
#
# Indices 1 2 3 4 5 6 
#
# 1 0.009032 -0.001540 -0.002033 0.000000 -0.001632 0.000000
# 2 -0.001540 0.009087 -0.004181 0.000000 -0.000587 0.000000
# 3 -0.002033 -0.004181 0.011949 0.000000 0.003252 0.000000
# 4 0.000000 0.000000 0.000000 0.045173 0.000000 -0.008617
# 5 -0.001632 -0.000587 0.003252 0.000000 0.029653 0.000000
# 6 0.000000 0.000000 0.000000 -0.008617 0.000000 0.044770
#
#
# Mechanical properties :
#
#
# Convention : Reuss Voigt Hill
#
# Bulk Modulus (GPa) = 68.68199 70.08803 69.38501
# Shear Modulus (GPa) = 29.40725 33.07079 31.23902
#
# Velocity S-wave (km/s) = 3.80390 4.03389 3.92058
# Velocity P-wave (km/s) = 7.28611 7.49552 7.39156
#
# Compressibility (1/GPa) = 0.01455986
#
# Stress axis : x y z
#
# Youngs Moduli (GPa) = 110.71214 110.05044 83.69103
#
# Poissons Ratio (x) = 0.16946 0.17013
# Poissons Ratio (y) = 0.17048 0.34994
# Poissons Ratio (z) = 0.22506 0.46016
#
# Static dielectric constant tensor:
#      x y z
#    x 4.152610 0.000000 0.520280 
#    y 0.000000 3.457460 0.000000 
#    z 0.520280 0.000000 3.828450 
# 
# 
# High freq. dielectric constant tensor:
#      x y z
#    x 1.808660 0.000000 0.006400 
#    y 0.000000 1.785340 0.000000 
#    z 0.006400 0.000000 1.794470 
# 
# From -- ./inp_files/53150.got.cif
#   From: 2010.06.25/outbox.cif.g09.slc.cpg/sg13_27_cif.got.tgz:53150.got - 2010.06.28 04:50:58.
