data_PCOD8118589
_publ_section_title
;
Structure prediction by ZEFSAII (Michael W. Deem and Ramdas Pophale) SiO2 
 PCOD8118589
Probable space group: P 2/C
;
_chemical_formula_sum "Si O2"
_cell_formula_units_Z 30
_cell_length_a 23.065383
_cell_length_b 14.629981
_cell_length_c 9.108062
_cell_angle_alpha 90.000000
_cell_angle_beta 149.684397
_cell_angle_gamma 90.000000
_cell_volume 1551.378219
_symmetry_space_group_name_H-M "P 2/C"
_symmetry_group_IT_number 13
_symmetry_cell_setting 'monoclinic'
loop_
_space_group_symop_operation_xyz
x,y,z
-x,y,1/2-z
-x,-y,-z
x,-y,1/2+z
loop_
_atom_site_type_symbol
_atom_site_label
_atom_site_fract_x
_atom_site_fract_y
_atom_site_fract_z
Si Si1 0.500000 0.006953 0.750000
Si Si2 0.717219 0.723389 0.350949
Si Si3 0.938055 0.622686 0.862563
Si Si4 0.630351 0.748640 0.837533
Si Si5 0.201537 0.373695 0.933206
Si Si6 0.431686 0.877886 0.357334
Si Si7 0.843678 0.505867 0.911116
Si Si8 0.464785 0.415022 0.016245
O O1 0.582592 0.069341 0.827847
O O2 0.418111 0.945800 0.466459
O O3 0.854196 0.711090 0.669164
O O4 0.666408 0.799800 0.349754
O O5 0.686432 0.756057 0.120267
O O6 0.668185 0.620124 0.278034
O O7 0.922370 0.568883 0.980098
O O8 0.922467 0.554182 0.692083
O O9 0.068766 0.656779 0.143346
O O10 0.564501 0.841601 0.652856
O O11 0.531167 0.674632 0.614859
O O12 0.724746 0.719127 0.922007
O O13 0.232042 0.438090 0.857498
O O14 0.234864 0.428231 0.156073
O O15 0.500000 0.450413 0.250000
O O16 0.500000 0.500000 0.000000
#
# Coordination Sequence:
#
# PCOD8118589 Si02
#       8
#     2   4   4   4   4   4   4   4
#     4  10  20  36  70  82 104 124 164 198 268 326
#     4  10  20  34  51  71 110 132 169 217 253 302
#     4  11  20  32  49  70  98 143 186 229 262 287
#     4  10  20  34  51  71 110 132 169 217 253 302
#     4  11  20  32  49  70  98 143 186 229 262 287
#     4  10  20  40  57  89 103 130 157 211 258 321
#     4  10  21  32  44  67 100 139 200 236 245 278
#     4   9  20  33  43  62  95 144 173 198 253 295
#
# _framework density 19.337643
#
# number of rings (size 3 to 8) (size 9 to 14) (size 15 to 20)
#    0.000    1.867    2.667    4.000    3.733    1.067 
#    4.800    0.000    0.000    0.000    0.000    5.600 
#    0.000    0.000    0.000    0.000    0.000    0.000 
#
# Total GULP energy -371817.596757 kJ/mol
# GULP energy per Si atom -12393.919892 kJ/mol
# Density = 1.929363 g / cm^3
# Si number density = 19.337643 Si / 1000 Ang^3
#
#
#
# Elastic Constant Matrix: (Units=GPa)
#
#
# Indices 1 2 3 4 5 6 
#
# 1 110.6137 46.7217 35.9763 0.0000 -11.3798 0.0000
# 2 46.7217 82.4367 30.9169 0.0000 -4.0544 0.0000
# 3 35.9763 30.9169 52.8798 0.0000 4.7879 0.0000
# 4 0.0000 0.0000 0.0000 17.7692 0.0000 -10.2924
# 5 -11.3798 -4.0544 4.7879 0.0000 29.0082 0.0000
# 6 0.0000 0.0000 0.0000 -10.2924 0.0000 54.3250
#
#
#
# Elastic Compliance Matrix: (Units=1/GPa)
#
#
# Indices 1 2 3 4 5 6 
#
# 1 0.014125 -0.004995 -0.007236 0.000000 0.006037 0.000000
# 2 -0.004995 0.017711 -0.007110 0.000000 0.001690 0.000000
# 3 -0.007236 -0.007110 0.028768 0.000000 -0.008581 0.000000
# 4 0.000000 0.000000 0.000000 0.063214 0.000000 0.011977
# 5 0.006037 0.001690 -0.008581 0.000000 0.038494 0.000000
# 6 0.000000 0.000000 0.000000 0.011977 0.000000 0.020677
#
#
# Mechanical properties :
#
#
# Convention : Reuss Voigt Hill
#
# Bulk Modulus (GPa) = 45.61605 52.57330 49.09468
# Shear Modulus (GPa) = 21.83631 29.04150 25.43890
#
# Velocity S-wave (km/s) = 3.36402 3.87953 3.63093
# Velocity P-wave (km/s) = 6.22329 6.87849 6.55908
#
# Compressibility (1/GPa) = 0.02192211
#
# Stress axis : x y z
#
# Youngs Moduli (GPa) = 70.79800 56.46280 34.76132
#
# Poissons Ratio (x) = 0.28201 0.25154
# Poissons Ratio (y) = 0.35360 0.24715
# Poissons Ratio (z) = 0.51230 0.40144
#
# Static dielectric constant tensor:
#      x y z
#    x 3.813700 0.000000 -0.111580 
#    y 0.000000 3.369520 0.000000 
#    z -0.111580 0.000000 5.414260 
# 
# 
# High freq. dielectric constant tensor:
#      x y z
#    x 1.768000 0.000000 -0.011160 
#    y 0.000000 1.716930 0.000000 
#    z -0.011160 0.000000 1.732720 
# 
# From -- ./inp_files/24242.got.cif
#   From: 2010.06.25/outbox.cif.g09.slc.cpg/sg13_13_cif.got.tgz:24242.got - 2010.06.28 04:50:58.
