data_PCOD8118645
_publ_section_title
;
Structure prediction by ZEFSAII (Michael W. Deem and Ramdas Pophale) SiO2 
 PCOD8118645
Probable space group: P 2/C
;
_chemical_formula_sum "Si O2"
_cell_formula_units_Z 30
_cell_length_a 11.934955
_cell_length_b 14.452020
_cell_length_c 8.770541
_cell_angle_alpha 90.000000
_cell_angle_beta 90.216471
_cell_angle_gamma 90.000000
_cell_volume 1512.769024
_symmetry_space_group_name_H-M "P 2/C"
_symmetry_group_IT_number 13
_symmetry_cell_setting 'monoclinic'
loop_
_space_group_symop_operation_xyz
x,y,z
-x,y,1/2-z
-x,-y,-z
x,-y,1/2+z
loop_
_atom_site_type_symbol
_atom_site_label
_atom_site_fract_x
_atom_site_fract_y
_atom_site_fract_z
Si Si1 0.122742 0.194791 0.218662
Si Si2 0.000000 0.886732 0.250000
Si Si3 0.370962 0.180259 0.773894
Si Si4 0.877482 0.595634 0.784477
Si Si5 0.197870 0.063162 0.958091
Si Si6 0.254366 0.472426 0.497986
Si Si7 0.195348 0.853890 0.038882
Si Si8 0.625831 0.389914 0.715059
O O1 0.117164 0.299029 0.157907
O O2 0.192466 0.191653 0.374286
O O3 0.000000 0.153665 0.250000
O O4 0.182223 0.134401 0.093283
O O5 0.912516 0.946701 0.149642
O O6 0.918949 0.828452 0.364731
O O7 0.500000 0.150049 0.750000
O O8 0.307505 0.101187 0.871051
O O9 0.306431 0.188449 0.613485
O O10 0.363240 0.283736 0.844325
O O11 0.799071 0.589915 0.634952
O O12 0.000000 0.557470 0.750000
O O13 0.839281 0.535404 0.925991
O O14 0.216176 0.963701 0.030480
O O15 0.305178 0.406448 0.628531
O O16 0.342406 0.542576 0.422750
O O17 0.500000 0.415187 0.750000
#
# Coordination Sequence:
#
# PCOD8118645 Si02
#       8
#     4   2   4   4   4   4   4   4
#     4  11  21  34  55  86 117 142 182 235 283 337
#     4  10  20  34  56  84 112 144 182 230 286 330
#     4  10  23  41  57  78 115 155 193 232 274 331
#     4  10  21  35  54  78 114 149 181 218 273 335
#     4  11  22  36  58  84 114 151 188 231 281 331
#     4  10  20  36  58  82 108 142 184 230 274 338
#     4  11  22  36  58  84 114 151 188 231 281 331
#     4  10  20  37  60  83 108 139 183 236 283 323
#
# _framework density 19.831181999999998
#
# number of rings (size 3 to 8) (size 9 to 14) (size 15 to 20)
#    0.000    1.600    1.333    4.400    1.867    0.533 
#    0.000    0.667    8.800    4.800    0.000    0.000 
#    0.000    0.000    0.000    0.000    0.000    0.000 
#
# Total GULP energy -371917.590906 kJ/mol
# GULP energy per Si atom -12397.253030 kJ/mol
# Density = 1.978604 g / cm^3
# Si number density = 19.831182 Si / 1000 Ang^3
#
#
#
# Elastic Constant Matrix: (Units=GPa)
#
#
# Indices 1 2 3 4 5 6 
#
# 1 122.0479 26.9018 18.6677 0.0000 -10.6013 0.0000
# 2 26.9018 66.0528 6.8411 0.0000 -14.7119 0.0000
# 3 18.6677 6.8411 70.6450 0.0000 -7.8348 0.0000
# 4 0.0000 0.0000 0.0000 -19.0232 0.0000 -79.7722
# 5 -10.6013 -14.7119 -7.8348 0.0000 22.3928 0.0000
# 6 0.0000 0.0000 0.0000 -79.7722 0.0000 -80.5333
#
#
#
# Elastic Compliance Matrix: (Units=1/GPa)
#
#
# Indices 1 2 3 4 5 6 
#
# 1 0.009351 -0.003247 -0.001979 0.000000 0.001601 0.000000
# 2 -0.003247 0.018875 0.000244 0.000000 0.010949 0.000000
# 3 -0.001979 0.000244 0.015157 0.000000 0.004527 0.000000
# 4 0.000000 0.000000 0.000000 0.016668 0.000000 -0.016510
# 5 0.001601 0.010949 0.004527 0.000000 0.054193 0.000000
# 6 0.000000 0.000000 0.000000 -0.016510 0.000000 0.003937
#
#
# Mechanical properties :
#
#
# Convention : Reuss Voigt Hill
#
# Bulk Modulus (GPa) = 29.92213 40.39632 35.15922
# Shear Modulus (GPa) = 35.89811 -1.67704 17.11053
#
# Velocity S-wave (km/s) = 4.25924 -0.92060 2.94055
# Velocity P-wave (km/s) = 6.26972 4.39139 5.41266
#
# Compressibility (1/GPa) = 0.03342008
#
# Stress axis : x y z
#
# Youngs Moduli (GPa) = 106.94101 52.97978 65.97804
#
# Poissons Ratio (x) = 0.17201 0.13057
# Poissons Ratio (y) = 0.34721 -0.01613
# Poissons Ratio (z) = 0.21163 -0.01295
#
# Static dielectric constant tensor:
#      x y z
#    x 3.589110 0.000000 -0.020710 
#    y 0.000000 3.465510 0.000000 
#    z -0.020710 0.000000 3.728090 
# 
# 
# High freq. dielectric constant tensor:
#      x y z
#    x 1.768050 0.000000 0.000040 
#    y 0.000000 1.770150 0.000000 
#    z 0.000040 0.000000 1.782150 
# 
# From -- ./inp_files/16520.got.cif
#   From: 2010.06.25/outbox.cif.g09.slc.cpg/sg13_9_cif.got.tgz:16520.got - 2010.06.28 04:50:58.
