data_PCOD8118662
_publ_section_title
;
Structure prediction by ZEFSAII (Michael W. Deem and Ramdas Pophale) SiO2 
 PCOD8118662
Probable space group: P 2/C
;
_chemical_formula_sum "Si O2"
_cell_formula_units_Z 28
_cell_length_a 18.974728
_cell_length_b 11.296979
_cell_length_c 22.560740
_cell_angle_alpha 90.000000
_cell_angle_beta 17.513096
_cell_angle_gamma 90.000000
_cell_volume 1455.283922
_symmetry_space_group_name_H-M "P 2/C"
_symmetry_group_IT_number 13
_symmetry_cell_setting 'monoclinic'
loop_
_space_group_symop_operation_xyz
x,y,z
-x,y,1/2-z
-x,-y,-z
x,-y,1/2+z
loop_
_atom_site_type_symbol
_atom_site_label
_atom_site_fract_x
_atom_site_fract_y
_atom_site_fract_z
Si Si1 0.021822 0.784701 0.882032
Si Si2 0.197633 0.788554 0.166733
Si Si3 0.244943 0.972458 0.225807
Si Si4 0.513138 0.638977 0.995347
Si Si5 0.379904 0.211587 0.710764
Si Si6 0.285332 0.882110 0.466028
Si Si7 0.704942 0.845290 0.537387
O O1 0.224025 0.687265 0.724041
O O2 0.102101 0.907033 0.848543
O O3 0.800660 0.736984 0.096352
O O4 0.936871 0.809439 0.882268
O O5 0.138453 0.895001 0.258970
O O6 0.926917 0.756728 0.368567
O O7 0.335442 0.684298 0.088094
O O8 0.362409 0.821113 0.977632
O O9 0.259619 0.901355 0.275638
O O10 0.500000 0.000000 0.000000
O O11 0.500000 0.500000 0.000000
O O12 0.427976 0.681241 0.127742
O O13 0.627987 0.170968 0.540709
O O14 0.500000 0.871176 0.250000
O O15 0.212152 0.018720 0.528852
O O16 0.500000 0.818424 0.750000
#
# Coordination Sequence:
#
# PCOD8118662 Si02
#       7
#     4   4   4   4   4   4   4
#     4  11  21  37  60  90 123 158 191 243 299 352
#     4  10  21  35  56  85 121 148 196 233 286 362
#     4  11  18  34  54  93 127 155 184 231 298 363
#     4  11  26  44  59  80 111 159 215 257 291 330
#     4  10  22  37  60  89 123 155 198 240 294 362
#     4   9  19  33  55  92 125 151 183 226 296 372
#     4  10  20  34  57  90 127 155 175 226 298 369
#
# _framework density 19.240233
#
# number of rings (size 3 to 8) (size 9 to 14) (size 15 to 20)
#    0.000    1.714    4.286    1.286    0.000    3.429 
#    0.000    2.857    0.000    1.714    0.000    0.000 
#    0.000    0.000    0.000    0.000    0.000    0.000 
#
# Total GULP energy -346919.490314 kJ/mol
# GULP energy per Si atom -12389.981797 kJ/mol
# Density = 1.919644 g / cm^3
# Si number density = 19.240233 Si / 1000 Ang^3
#
#
#
# Elastic Constant Matrix: (Units=GPa)
#
#
# Indices 1 2 3 4 5 6 
#
# 1 133.2031 60.4974 45.4167 0.0000 -6.0847 0.0000
# 2 60.4974 119.2827 42.9677 0.0000 -9.2096 0.0000
# 3 45.4167 42.9677 108.3485 0.0000 2.1616 0.0000
# 4 0.0000 0.0000 0.0000 13.8583 0.0000 -2.4354
# 5 -6.0847 -9.2096 2.1616 0.0000 34.3556 0.0000
# 6 0.0000 0.0000 0.0000 -2.4354 0.0000 16.3087
#
#
#
# Elastic Compliance Matrix: (Units=1/GPa)
#
#
# Indices 1 2 3 4 5 6 
#
# 1 0.010387 -0.004230 -0.002694 0.000000 0.000875 0.000000
# 2 -0.004230 0.011794 -0.002956 0.000000 0.002598 0.000000
# 3 -0.002694 -0.002956 0.011571 0.000000 -0.001998 0.000000
# 4 0.000000 0.000000 0.000000 0.074104 0.000000 0.011066
# 5 0.000875 0.002598 -0.001998 0.000000 0.030085 0.000000
# 6 0.000000 0.000000 0.000000 0.011066 0.000000 0.062969
#
#
# Mechanical properties :
#
#
# Convention : Reuss Voigt Hill
#
# Bulk Modulus (GPa) = 71.46843 73.17755 72.32299
# Shear Modulus (GPa) = 22.18934 27.03470 24.61202
#
# Velocity S-wave (km/s) = 3.39968 3.75255 3.58046
# Velocity P-wave (km/s) = 7.25509 7.54266 7.40027
#
# Compressibility (1/GPa) = 0.01399219
#
# Stress axis : x y z
#
# Youngs Moduli (GPa) = 96.27406 84.78709 86.42467
#
# Poissons Ratio (x) = 0.35866 0.23282
# Poissons Ratio (y) = 0.40725 0.25547
# Poissons Ratio (z) = 0.25935 0.25063
#
# Static dielectric constant tensor:
#      x y z
#    x 3.886440 0.000000 -0.105320 
#    y 0.000000 2.984120 0.000000 
#    z -0.105320 0.000000 3.483830 
# 
# 
# High freq. dielectric constant tensor:
#      x y z
#    x 1.772830 0.000000 -0.003180 
#    y 0.000000 1.691290 0.000000 
#    z -0.003180 0.000000 1.757740 
# 
# From -- ./inp_files/81047.got.cif
#   From: 2010.06.25/outbox.cif.g09.slc.cpg/sg13_41_cif.got.tgz:81047.got - 2010.06.28 04:50:58.
