data_PCOD8118423
_publ_section_title
;
Structure prediction by ZEFSAII (Michael W. Deem and Ramdas Pophale) SiO2 
 PCOD8118423
Probable space group: P 2/C
;
_chemical_formula_sum "Si O2"
_cell_formula_units_Z 30
_cell_length_a 13.615331
_cell_length_b 6.430973
_cell_length_c 17.497855
_cell_angle_alpha 90.000000
_cell_angle_beta 75.523902
_cell_angle_gamma 90.000000
_cell_volume 1483.467749
_symmetry_space_group_name_H-M "P 2/C"
_symmetry_group_IT_number 13
_symmetry_cell_setting 'monoclinic'
loop_
_space_group_symop_operation_xyz
x,y,z
-x,y,1/2-z
-x,-y,-z
x,-y,1/2+z
loop_
_atom_site_type_symbol
_atom_site_label
_atom_site_fract_x
_atom_site_fract_y
_atom_site_fract_z
Si Si1 0.392381 0.035362 0.432066
Si Si2 0.802482 0.729525 0.858960
Si Si3 0.000000 0.073604 0.250000
Si Si4 0.271014 0.329731 0.354688
Si Si5 0.854643 0.057070 0.661851
Si Si6 0.778564 0.286550 0.540097
Si Si7 0.376118 0.946317 0.106603
Si Si8 0.719521 0.377116 0.779673
O O1 0.359561 0.194492 0.373558
O O2 0.362333 0.121318 0.521280
O O3 0.334764 0.814460 0.431294
O O4 0.512482 0.032337 0.400411
O O5 0.904976 0.794737 0.797228
O O6 0.781006 0.498538 0.833013
O O7 0.709462 0.883455 0.855303
O O8 0.819795 0.717857 0.946293
O O9 0.036203 0.940289 0.316949
O O10 0.223255 0.478230 0.428863
O O11 0.320712 0.464811 0.276963
O O12 0.184588 0.181202 0.335836
O O13 0.858135 0.152774 0.575790
O O14 0.784724 0.199331 0.727710
O O15 0.371025 0.740867 0.159711
#
# Coordination Sequence:
#
# PCOD8118423 Si02
#       8
#     4   4   2   4   4   4   4   4
#     4   9  20  37  63  87 127 162 201 244 304 357
#     4  11  23  40  63  92 120 158 209 253 300 364
#     4  12  22  42  66  88 118 160 202 256 314 358
#     4  10  19  40  59  87 124 161 197 252 297 363
#     4  10  22  41  62  88 126 159 198 254 307 363
#     4   9  21  40  64  90 123 162 199 246 306 362
#     4  10  20  39  60  92 121 163 204 251 296 361
#     4  11  20  38  62  86 126 160 200 253 303 356
#
# _framework density 20.222887
#
# number of rings (size 3 to 8) (size 9 to 14) (size 15 to 20)
#    0.000    1.867    2.667    0.800    0.000    2.133 
#    0.000   20.667    0.000    0.000    0.000    0.000 
#    0.000    0.000    0.000    0.000    0.000    0.000 
#
# Total GULP energy -371861.366458 kJ/mol
# GULP energy per Si atom -12395.378882 kJ/mol
# Density = 2.017686 g / cm^3
# Si number density = 20.222887 Si / 1000 Ang^3
#
#
#
# Elastic Constant Matrix: (Units=GPa)
#
#
# Indices 1 2 3 4 5 6 
#
# 1 101.0878 35.5678 50.7423 0.0000 10.0241 0.0000
# 2 35.5678 105.7495 55.4473 0.0000 5.4948 0.0000
# 3 50.7423 55.4473 118.5233 0.0000 11.6529 0.0000
# 4 0.0000 0.0000 0.0000 33.3973 0.0000 14.0702
# 5 10.0241 5.4948 11.6529 0.0000 38.8939 0.0000
# 6 0.0000 0.0000 0.0000 14.0702 0.0000 16.9405
#
#
#
# Elastic Compliance Matrix: (Units=1/GPa)
#
#
# Indices 1 2 3 4 5 6 
#
# 1 0.012997 -0.001926 -0.004493 0.000000 -0.001731 0.000000
# 2 -0.001926 0.012815 -0.005195 0.000000 0.000242 0.000000
# 3 -0.004493 -0.005195 0.012987 0.000000 -0.001999 0.000000
# 4 0.000000 0.000000 0.000000 0.046060 0.000000 -0.038255
# 5 -0.001731 0.000242 -0.001999 0.000000 0.026722 0.000000
# 6 0.000000 0.000000 0.000000 -0.038255 0.000000 0.090804
#
#
# Mechanical properties :
#
#
# Convention : Reuss Voigt Hill
#
# Bulk Modulus (GPa) = 64.21428 67.65282 65.93355
# Shear Modulus (GPa) = 21.66356 30.08655 25.87505
#
# Velocity S-wave (km/s) = 3.27653 3.86132 3.58088
# Velocity P-wave (km/s) = 6.79238 7.30794 7.05487
#
# Compressibility (1/GPa) = 0.01557286
#
# Stress axis : x y z
#
# Youngs Moduli (GPa) = 76.94053 78.03366 76.99721
#
# Poissons Ratio (x) = 0.15025 0.34597
# Poissons Ratio (y) = 0.14815 0.39996
# Poissons Ratio (z) = 0.34572 0.40535
#
# Static dielectric constant tensor:
#      x y z
#    x 3.580050 0.000000 0.406450 
#    y 0.000000 3.812310 0.000000 
#    z 0.406450 0.000000 3.938760 
# 
# 
# High freq. dielectric constant tensor:
#      x y z
#    x 1.768300 0.000000 0.027600 
#    y 0.000000 1.791530 0.000000 
#    z 0.027600 0.000000 1.807230 
# 
# From -- ./inp_files/67554.got.cif
#   From: 2010.06.25/outbox.cif.g09.slc.cpg/sg13_34_cif.got.tgz:67554.got - 2010.06.28 04:50:58.
