data_PCOD8118905
_publ_section_title
;
Structure prediction by ZEFSAII (Michael W. Deem and Ramdas Pophale) SiO2 
 PCOD8118905
Probable space group: P 2/C
;
_chemical_formula_sum "Si O2"
_cell_formula_units_Z 32
_cell_length_a 8.188594
_cell_length_b 14.857334
_cell_length_c 14.471293
_cell_angle_alpha 90.000000
_cell_angle_beta 116.553125
_cell_angle_gamma 90.000000
_cell_volume 1574.880999
_symmetry_space_group_name_H-M "P 2/C"
_symmetry_group_IT_number 13
_symmetry_cell_setting 'monoclinic'
loop_
_space_group_symop_operation_xyz
x,y,z
-x,y,1/2-z
-x,-y,-z
x,-y,1/2+z
loop_
_atom_site_type_symbol
_atom_site_label
_atom_site_fract_x
_atom_site_fract_y
_atom_site_fract_z
Si Si1 0.164871 0.567828 0.536382
Si Si2 0.816011 0.358786 0.255858
Si Si3 0.812994 0.143062 0.654025
Si Si4 0.546983 0.997477 0.618034
Si Si5 0.460341 0.489399 0.844810
Si Si6 0.180053 0.350594 0.850319
Si Si7 0.831615 0.933307 0.953694
Si Si8 0.695824 0.166371 0.256515
O O1 0.175080 0.624978 0.632349
O O2 0.345588 0.509349 0.558617
O O3 0.134302 0.638362 0.446516
O O4 0.000000 0.500000 0.500000
O O5 0.656859 0.419973 0.174095
O O6 0.772027 0.254593 0.224786
O O7 0.000000 0.386624 0.250000
O O8 0.772600 0.247572 0.658164
O O9 0.814794 0.118261 0.546248
O O10 0.000000 0.114648 0.750000
O O11 0.654599 0.089085 0.668618
O O12 0.352348 0.989924 0.620862
O O13 0.674716 0.911879 0.674582
O O14 0.500000 0.000000 0.500000
O O15 0.500000 0.461763 0.750000
O O16 0.357180 0.407021 0.866455
O O17 0.000000 0.383034 0.750000
O O18 0.844020 0.861811 0.873039
O O19 0.000000 0.000000 0.000000
O O20 0.500000 0.191177 0.250000
#
# Coordination Sequence:
#
# PCOD8118905 Si02
#       8
#     4   4   4   4   4   4   4   4
#     4  11  22  39  62  87 120 160 201 247 303 361
#     4  11  23  38  61  92 121 153 200 253 304 362
#     4  10  21  37  57  82 115 155 195 239 293 353
#     4   9  20  37  57  81 112 148 187 236 292 350
#     4  10  21  39  61  85 117 156 197 248 302 356
#     4  11  22  39  61  86 121 160 198 242 296 359
#     4  10  20  36  58  83 115 154 195 243 297 351
#     4  10  20  37  59  84 116 154 195 246 303 358
#
# _framework density 20.318998000000001
#
# number of rings (size 3 to 8) (size 9 to 14) (size 15 to 20)
#    0.000    1.750    0.000    5.625    0.000    4.500 
#    0.000    6.875    0.000    0.000    0.000    0.000 
#    0.000    0.000    0.000    0.000    0.000    0.000 
#
# Total GULP energy -396805.453722 kJ/mol
# GULP energy per Si atom -12400.170429 kJ/mol
# Density = 2.027275 g / cm^3
# Si number density = 20.318998 Si / 1000 Ang^3
#
#
#
# Elastic Constant Matrix: (Units=GPa)
#
#
# Indices 1 2 3 4 5 6 
#
# 1 108.3285 58.0793 34.3145 0.0000 18.0915 0.0000
# 2 58.0793 122.4223 39.0555 0.0000 14.3530 0.0000
# 3 34.3145 39.0555 93.5606 0.0000 15.6111 0.0000
# 4 0.0000 0.0000 0.0000 22.8410 0.0000 -3.9578
# 5 18.0915 14.3530 15.6111 0.0000 34.5954 0.0000
# 6 0.0000 0.0000 0.0000 -3.9578 0.0000 33.5193
#
#
#
# Elastic Compliance Matrix: (Units=1/GPa)
#
#
# Indices 1 2 3 4 5 6 
#
# 1 0.013325 -0.005208 -0.002067 0.000000 -0.003875 0.000000
# 2 -0.005208 0.011633 -0.002806 0.000000 -0.000836 0.000000
# 3 -0.002067 -0.002806 0.013240 0.000000 -0.003730 0.000000
# 4 0.000000 0.000000 0.000000 0.044695 0.000000 0.005277
# 5 -0.003875 -0.000836 -0.003730 0.000000 0.032962 0.000000
# 6 0.000000 0.000000 0.000000 0.005277 0.000000 0.030457
#
#
# Mechanical properties :
#
#
# Convention : Reuss Voigt Hill
#
# Bulk Modulus (GPa) = 55.44464 65.24554 60.34509
# Shear Modulus (GPa) = 28.98796 31.04861 30.01828
#
# Velocity S-wave (km/s) = 3.78119 3.91328 3.84780
# Velocity P-wave (km/s) = 6.81245 7.25249 7.03591
#
# Compressibility (1/GPa) = 0.01803601
#
# Stress axis : x y z
#
# Youngs Moduli (GPa) = 75.04554 85.96570 75.52934
#
# Poissons Ratio (x) = 0.44772 0.15609
# Poissons Ratio (y) = 0.39085 0.21195
# Poissons Ratio (z) = 0.15509 0.24123
#
# Static dielectric constant tensor:
#      x y z
#    x 3.882130 0.000000 0.165750 
#    y 0.000000 3.695370 0.000000 
#    z 0.165750 0.000000 3.687860 
# 
# 
# High freq. dielectric constant tensor:
#      x y z
#    x 1.789580 0.000000 0.007580 
#    y 0.000000 1.790690 0.000000 
#    z 0.007580 0.000000 1.807700 
# 
# From -- ./inp_files/47712.got.cif
#   From: 2010.06.25/outbox.cif.g09.slc.cpg/sg13_24_cif.got.tgz:47712.got - 2010.06.28 04:50:58.
