data_PCOD8118722
_publ_section_title
;
Structure prediction by ZEFSAII (Michael W. Deem and Ramdas Pophale) SiO2 
 PCOD8118722
Probable space group: P 2/C
;
_chemical_formula_sum "Si O2"
_cell_formula_units_Z 24
_cell_length_a 26.682054
_cell_length_b 6.322769
_cell_length_c 14.182747
_cell_angle_alpha 90.000000
_cell_angle_beta 150.230297
_cell_angle_gamma 90.000000
_cell_volume 1188.007908
_symmetry_space_group_name_H-M "P 2/C"
_symmetry_group_IT_number 13
_symmetry_cell_setting 'monoclinic'
loop_
_space_group_symop_operation_xyz
x,y,z
-x,y,1/2-z
-x,-y,-z
x,-y,1/2+z
loop_
_atom_site_type_symbol
_atom_site_label
_atom_site_fract_x
_atom_site_fract_y
_atom_site_fract_z
Si Si1 0.321310 0.438362 0.087627
Si Si2 0.357550 0.177146 0.765577
Si Si3 0.979091 0.391777 0.818607
Si Si4 0.857550 0.677146 0.765577
Si Si5 0.520910 0.108221 0.181394
Si Si6 0.178690 0.938362 0.412374
O O1 0.352589 0.575904 0.230277
O O2 0.421940 0.333083 0.208993
O O3 0.257033 0.586324 0.910519
O O4 0.250000 0.250000 1.000000
O O5 0.414471 0.056051 0.773724
O O6 0.242968 0.086325 0.589482
O O7 0.414196 0.151651 0.956611
O O8 0.914471 0.556049 0.773727
O O9 0.921940 0.166916 0.708993
O O10 0.000000 0.491572 0.750000
O O11 0.085804 0.348347 0.043389
O O12 0.852588 0.924095 0.730276
O O13 0.500000 0.008428 0.250000
#
# Coordination Sequence:
#
# PCOD8118722 Si02
#       6
#     4   4   4   4   4   4
#     4   9  18  36  56  77 107 147 187 228 283 330
#     4   9  19  37  56  77 115 149 179 235 280 331
#     4  10  20  35  55  85 110 146 191 226 281 336
#     4   9  19  37  56  77 115 149 179 235 280 331
#     4  10  20  35  55  85 110 146 191 226 281 336
#     4   9  18  36  56  77 107 147 187 228 283 330
#
# _framework density 20.201885000000001
#
# number of rings (size 3 to 8) (size 9 to 14) (size 15 to 20)
#    0.000    2.667    0.000    1.000    0.000    1.333 
#   18.000    0.000    0.000    0.000    0.000    0.000 
#    0.000    0.000    0.000    0.000    0.000    0.000 
#
# Total GULP energy -297433.536000 kJ/mol
# GULP energy per Si atom -12393.064000 kJ/mol
# Density = 2.015591 g / cm^3
# Si number density = 20.201885 Si / 1000 Ang^3
#
#
#
# Elastic Constant Matrix: (Units=GPa)
#
#
# Indices 1 2 3 4 5 6 
#
# 1 63.4229 14.2854 43.9558 0.0000 -24.4870 0.0000
# 2 14.2854 90.1602 27.6918 0.0000 -6.1166 0.0000
# 3 43.9558 27.6918 147.3723 0.0000 -16.3861 0.0000
# 4 0.0000 0.0000 0.0000 27.1621 0.0000 4.4708
# 5 -24.4870 -6.1166 -16.3861 0.0000 25.1220 0.0000
# 6 0.0000 0.0000 0.0000 4.4708 0.0000 18.0167
#
#
#
# Elastic Compliance Matrix: (Units=1/GPa)
#
#
# Indices 1 2 3 4 5 6 
#
# 1 0.029688 -0.001219 -0.005867 0.000000 0.024815 0.000000
# 2 -0.001219 0.011876 -0.001810 0.000000 0.000523 0.000000
# 3 -0.005867 -0.001810 0.008831 0.000000 -0.000399 0.000000
# 4 0.000000 0.000000 0.000000 0.038384 0.000000 -0.009525
# 5 0.024815 0.000523 -0.000399 0.000000 0.063860 0.000000
# 6 0.000000 0.000000 0.000000 -0.009525 0.000000 0.057868
#
#
# Mechanical properties :
#
#
# Convention : Reuss Voigt Hill
#
# Bulk Modulus (GPa) = 30.67039 52.53570 41.60305
# Shear Modulus (GPa) = 20.90597 28.39498 24.65048
#
# Velocity S-wave (km/s) = 3.22040 3.75315 3.49694
# Velocity P-wave (km/s) = 5.38915 6.69651 6.07808
#
# Compressibility (1/GPa) = 0.03260473
#
# Stress axis : x y z
#
# Youngs Moduli (GPa) = 33.68310 84.20468 113.23566
#
# Poissons Ratio (x) = 0.10261 0.66434
# Poissons Ratio (y) = 0.04104 0.20494
# Poissons Ratio (z) = 0.19762 0.15240
#
# Static dielectric constant tensor:
#      x y z
#    x 3.224100 0.000000 0.344920 
#    y 0.000000 4.002710 0.000000 
#    z 0.344920 0.000000 4.220730 
# 
# 
# High freq. dielectric constant tensor:
#      x y z
#    x 1.733850 0.000000 0.016500 
#    y 0.000000 1.796710 0.000000 
#    z 0.016500 0.000000 1.813670 
# 
# From -- ./inp_files/59709.got.cif
#   From: 2010.06.25/outbox.cif.g09.slc.cpg/sg13_30_cif.got.tgz:59709.got - 2010.06.28 04:50:58.
