data_PCOD8118526
_publ_section_title
;
Structure prediction by ZEFSAII (Michael W. Deem and Ramdas Pophale) SiO2 
 PCOD8118526
Probable space group: P 2/C
;
_chemical_formula_sum "Si O2"
_cell_formula_units_Z 26
_cell_length_a 15.469829
_cell_length_b 11.428261
_cell_length_c 24.465491
_cell_angle_alpha 90.000000
_cell_angle_beta 160.855900
_cell_angle_gamma 90.000000
_cell_volume 1418.472015
_symmetry_space_group_name_H-M "P 2/C"
_symmetry_group_IT_number 13
_symmetry_cell_setting 'monoclinic'
loop_
_space_group_symop_operation_xyz
x,y,z
-x,y,1/2-z
-x,-y,-z
x,-y,1/2+z
loop_
_atom_site_type_symbol
_atom_site_label
_atom_site_fract_x
_atom_site_fract_y
_atom_site_fract_z
Si Si1 0.734605 0.390376 0.197686
Si Si2 0.500000 0.101329 0.250000
Si Si3 0.166586 0.241382 0.401059
Si Si4 0.647732 0.651881 0.128385
Si Si5 0.949684 0.156649 0.658160
Si Si6 0.923165 0.954496 0.568694
Si Si7 0.360499 0.198842 0.276075
O O1 0.739691 0.529036 0.209022
O O2 0.707595 0.327515 0.240745
O O3 0.003836 0.349810 0.329460
O O4 0.485306 0.358783 0.010596
O O5 0.368387 0.190866 0.214994
O O6 0.711040 0.014936 0.402874
O O7 0.452232 0.286853 0.554162
O O8 0.215153 0.140233 0.474301
O O9 0.000000 0.191841 0.250000
O O10 0.914690 0.723965 0.280143
O O11 0.638341 0.160911 0.465864
O O12 0.000000 0.124343 0.750000
O O13 0.066405 0.052210 0.691119
O O14 0.146069 0.894963 0.666148
#
# Coordination Sequence:
#
# PCOD8118526 Si02
#       7
#     4   2   4   4   4   4   4
#     4   9  19  35  56  81 118 152 186 232 274 342
#     4  10  22  38  62  82 104 152 200 244 286 334
#     4   9  19  35  54  85 116 150 182 228 291 339
#     4  10  20  32  57  85 118 151 185 223 278 353
#     4  11  22  32  55  88 120 149 181 226 289 347
#     4  10  22  38  58  81 114 149 191 240 286 340
#     4  10  21  39  56  83 113 148 193 240 283 329
#
# _framework density 18.329584000000001
#
# number of rings (size 3 to 8) (size 9 to 14) (size 15 to 20)
#    0.000    2.154    1.538    0.923    6.462    1.231 
#    0.000    0.000    0.000    4.615    0.000    0.000 
#    0.000    0.000    0.000    0.000    0.000    0.000 
#
# Total GULP energy -322362.234279 kJ/mol
# GULP energy per Si atom -12398.547472 kJ/mol
# Density = 1.828787 g / cm^3
# Si number density = 18.329584 Si / 1000 Ang^3
#
#
#
# Elastic Constant Matrix: (Units=GPa)
#
#
# Indices 1 2 3 4 5 6 
#
# 1 143.2061 66.4199 48.6916 0.0000 -6.0452 0.0000
# 2 66.4199 119.4196 39.1053 0.0000 -7.6332 0.0000
# 3 48.6916 39.1053 72.4443 0.0000 -1.4918 0.0000
# 4 0.0000 0.0000 0.0000 17.3197 0.0000 -4.7272
# 5 -6.0452 -7.6332 -1.4918 0.0000 23.0477 0.0000
# 6 0.0000 0.0000 0.0000 -4.7272 0.0000 23.4816
#
#
#
# Elastic Compliance Matrix: (Units=1/GPa)
#
#
# Indices 1 2 3 4 5 6 
#
# 1 0.010653 -0.004275 -0.004831 0.000000 0.001066 0.000000
# 2 -0.004275 0.012102 -0.003604 0.000000 0.002653 0.000000
# 3 -0.004831 -0.003604 0.018971 0.000000 -0.001233 0.000000
# 4 0.000000 0.000000 0.000000 0.061095 0.000000 0.012299
# 5 0.001066 0.002653 -0.001233 0.000000 0.044467 0.000000
# 6 0.000000 0.000000 0.000000 0.012299 0.000000 0.045063
#
#
# Mechanical properties :
#
#
# Convention : Reuss Voigt Hill
#
# Bulk Modulus (GPa) = 61.32994 71.50037 66.41515
# Shear Modulus (GPa) = 22.40096 24.82668 23.61382
#
# Velocity S-wave (km/s) = 3.49968 3.68429 3.59317
# Velocity P-wave (km/s) = 7.06134 7.56251 7.31622
#
# Compressibility (1/GPa) = 0.01630525
#
# Stress axis : x y z
#
# Youngs Moduli (GPa) = 93.86775 82.63402 52.71301
#
# Poissons Ratio (x) = 0.35328 0.25464
# Poissons Ratio (y) = 0.40131 0.18999
# Poissons Ratio (z) = 0.45344 0.29783
#
# Static dielectric constant tensor:
#      x y z
#    x 3.614470 0.000000 0.042150 
#    y 0.000000 3.441590 0.000000 
#    z 0.042150 0.000000 3.182050 
# 
# 
# High freq. dielectric constant tensor:
#      x y z
#    x 1.717780 0.000000 0.016540 
#    y 0.000000 1.710180 0.000000 
#    z 0.016540 0.000000 1.694580 
# 
# From -- ./inp_files/39073.got.cif
#   From: 2010.06.25/outbox.cif.g09.slc.cpg/sg13_20_cif.got.tgz:39073.got - 2010.06.28 04:50:58.
