data_PCOD8118376
_publ_section_title
;
Structure prediction by ZEFSAII (Michael W. Deem and Ramdas Pophale) SiO2 
 PCOD8118376
Probable space group: P 2/C
;
_chemical_formula_sum "Si O2"
_cell_formula_units_Z 24
_cell_length_a 13.482650
_cell_length_b 9.285135
_cell_length_c 13.613607
_cell_angle_alpha 90.000000
_cell_angle_beta 136.900092
_cell_angle_gamma 90.000000
_cell_volume 1164.476419
_symmetry_space_group_name_H-M "P 2/C"
_symmetry_group_IT_number 13
_symmetry_cell_setting 'monoclinic'
loop_
_space_group_symop_operation_xyz
x,y,z
-x,y,1/2-z
-x,-y,-z
x,-y,1/2+z
loop_
_atom_site_type_symbol
_atom_site_label
_atom_site_fract_x
_atom_site_fract_y
_atom_site_fract_z
Si Si1 0.201498 0.505087 0.056812
Si Si2 0.335873 0.943255 0.869071
Si Si3 0.879176 0.437859 0.795469
Si Si4 0.833688 0.290506 0.144173
Si Si5 0.837801 0.835659 0.149880
Si Si6 0.339566 0.792159 0.664352
O O1 0.193864 0.594920 0.152758
O O2 0.323021 0.381372 0.154390
O O3 0.231652 0.624576 0.996380
O O4 0.052430 0.418540 0.928235
O O5 0.283737 0.832655 0.916899
O O6 0.305305 0.868230 0.742982
O O7 0.231571 0.079862 0.808263
O O8 0.500000 0.000000 0.000000
O O9 0.839916 0.600778 0.740071
O O10 0.823720 0.332023 0.670186
O O11 0.000000 0.232181 0.250000
O O12 0.000000 0.888921 0.250000
O O13 0.758538 0.864392 0.990124
O O14 0.500000 0.831196 0.750000
#
# Coordination Sequence:
#
# PCOD8118376 Si02
#       6
#     4   4   4   4   4   4
#     4  10  20  39  69 102 135 169 224 285 347 400
#     4  12  27  45  63  96 147 187 222 279 344 418
#     4  10  19  38  70 102 131 168 225 291 335 394
#     4  10  20  39  70 102 133 174 228 285 334 400
#     4  12  24  44  71 100 133 178 233 286 340 415
#     4  12  24  45  68  94 138 186 221 279 357 402
#
# _framework density 20.610122
#
# number of rings (size 3 to 8) (size 9 to 14) (size 15 to 20)
#    0.000    1.000    6.667    1.000    0.000    2.000 
#    3.000    2.500    0.000    0.000    0.000    0.000 
#    0.000    0.000    0.000    0.000    0.000    0.000 
#
# Total GULP energy -297551.065756 kJ/mol
# GULP energy per Si atom -12397.961073 kJ/mol
# Density = 2.056321 g / cm^3
# Si number density = 20.610122 Si / 1000 Ang^3
#
#
#
# Elastic Constant Matrix: (Units=GPa)
#
#
# Indices 1 2 3 4 5 6 
#
# 1 134.4412 56.5000 60.8111 0.0000 -0.5779 0.0000
# 2 56.5000 85.8016 34.8673 0.0000 6.3232 0.0000
# 3 60.8111 34.8673 114.0418 0.0000 -4.4390 0.0000
# 4 0.0000 0.0000 0.0000 170.7788 0.0000 53.3904
# 5 -0.5779 6.3232 -4.4390 0.0000 41.6516 0.0000
# 6 0.0000 0.0000 0.0000 53.3904 0.0000 56.3153
#
#
#
# Elastic Compliance Matrix: (Units=1/GPa)
#
#
# Indices 1 2 3 4 5 6 
#
# 1 0.012080 -0.006157 -0.004535 0.000000 0.000619 0.000000
# 2 -0.006157 0.016704 -0.001934 0.000000 -0.002827 0.000000
# 3 -0.004535 -0.001934 0.011836 0.000000 0.001492 0.000000
# 4 0.000000 0.000000 0.000000 0.008322 0.000000 -0.007890
# 5 0.000619 -0.002827 0.001492 0.000000 0.024606 0.000000
# 6 0.000000 0.000000 0.000000 -0.007890 0.000000 0.025237
#
#
# Mechanical properties :
#
#
# Convention : Reuss Voigt Hill
#
# Bulk Modulus (GPa) = 65.07077 70.96016 68.01547
# Shear Modulus (GPa) = 38.71225 65.88954 52.30089
#
# Velocity S-wave (km/s) = 4.33865 5.66029 5.04296
# Velocity P-wave (km/s) = 7.53255 8.78766 8.18420
#
# Compressibility (1/GPa) = 0.01536788
#
# Stress axis : x y z
#
# Youngs Moduli (GPa) = 82.78396 59.86763 84.48763
#
# Poissons Ratio (x) = 0.36862 0.38312
# Poissons Ratio (y) = 0.50972 0.16338
# Poissons Ratio (z) = 0.37540 0.11577
#
# Static dielectric constant tensor:
#      x y z
#    x 3.846920 0.000000 0.007500 
#    y 0.000000 3.607610 0.000000 
#    z 0.007500 0.000000 3.166600 
# 
# 
# High freq. dielectric constant tensor:
#      x y z
#    x 1.819220 0.000000 -0.015990 
#    y 0.000000 1.799190 0.000000 
#    z -0.015990 0.000000 1.792450 
# 
# From -- ./inp_files/53191.got.cif
#   From: 2010.06.25/outbox.cif.g09.slc.cpg/sg13_27_cif.got.tgz:53191.got - 2010.06.28 04:50:58.
