data_PCOD8118656
_publ_section_title
;
Structure prediction by ZEFSAII (Michael W. Deem and Ramdas Pophale) SiO2 
 PCOD8118656
Probable space group: P 2/C
;
_chemical_formula_sum "Si O2"
_cell_formula_units_Z 24
_cell_length_a 11.653612
_cell_length_b 14.820794
_cell_length_c 18.839671
_cell_angle_alpha 90.000000
_cell_angle_beta 157.073446
_cell_angle_gamma 90.000000
_cell_volume 1267.562786
_symmetry_space_group_name_H-M "P 2/C"
_symmetry_group_IT_number 13
_symmetry_cell_setting 'monoclinic'
loop_
_space_group_symop_operation_xyz
x,y,z
-x,y,1/2-z
-x,-y,-z
x,-y,1/2+z
loop_
_atom_site_type_symbol
_atom_site_label
_atom_site_fract_x
_atom_site_fract_y
_atom_site_fract_z
Si Si1 0.206193 0.247441 0.261812
Si Si2 0.720651 0.385665 0.320545
Si Si3 0.572941 0.261322 0.958464
Si Si4 0.781469 0.089706 0.727474
Si Si5 0.652076 0.586502 0.265957
Si Si6 0.424102 0.077859 0.050880
O O1 0.212403 0.328956 0.210685
O O2 0.381996 0.276767 0.432231
O O3 0.359085 0.161808 0.311983
O O4 0.870004 0.224745 0.090542
O O5 0.500000 0.336760 0.250000
O O6 0.580123 0.480679 0.213960
O O7 0.002144 0.401666 0.529762
O O8 0.321417 0.186511 0.801172
O O9 0.470006 0.357392 0.870009
O O10 0.686355 0.078706 0.592301
O O11 0.614405 0.011561 0.676460
O O12 0.136017 0.081820 0.937524
O O13 0.500000 0.624946 0.250000
#
# Coordination Sequence:
#
# PCOD8118656 Si02
#       6
#     4   4   4   4   4   4
#     4  10  20  35  54  84 111 141 180 228 272 314
#     4  10  22  37  58  79 107 144 185 223 269 328
#     4  10  20  34  57  81 111 142 181 227 271 314
#     4   9  17  30  50  78 108 145 177 219 267 320
#     4  10  20  39  58  78 105 148 187 218 267 331
#     4   9  17  30  50  77 111 141 180 218 266 321
#
# _framework density 18.933975
#
# number of rings (size 3 to 8) (size 9 to 14) (size 15 to 20)
#    0.000    2.333    1.667    1.000    2.333    4.667 
#    0.000    0.000    0.000    2.000    0.000    0.000 
#    0.000    0.000    0.000    0.000    0.000    0.000 
#
# Total GULP energy -297562.462485 kJ/mol
# GULP energy per Si atom -12398.435937 kJ/mol
# Density = 1.889088 g / cm^3
# Si number density = 18.933975 Si / 1000 Ang^3
#
#
#
# Elastic Constant Matrix: (Units=GPa)
#
#
# Indices 1 2 3 4 5 6 
#
# 1 67.3846 29.4440 27.1864 0.0000 16.9493 0.0000
# 2 29.4440 84.7970 32.0736 0.0000 1.5047 0.0000
# 3 27.1864 32.0736 83.4598 0.0000 25.3265 0.0000
# 4 0.0000 0.0000 0.0000 24.8804 0.0000 11.7134
# 5 16.9493 1.5047 25.3265 0.0000 30.4773 0.0000
# 6 0.0000 0.0000 0.0000 11.7134 0.0000 20.1519
#
#
#
# Elastic Compliance Matrix: (Units=1/GPa)
#
#
# Indices 1 2 3 4 5 6 
#
# 1 0.020765 -0.006614 -0.001093 0.000000 -0.010314 0.000000
# 2 -0.006614 0.016495 -0.006758 0.000000 0.008479 0.000000
# 3 -0.001093 -0.006758 0.019589 0.000000 -0.015337 0.000000
# 4 0.000000 0.000000 0.000000 0.055334 0.000000 -0.032163
# 5 -0.010314 0.008479 -0.015337 0.000000 0.050873 0.000000
# 6 0.000000 0.000000 0.000000 -0.032163 0.000000 0.068318
#
#
# Mechanical properties :
#
#
# Convention : Reuss Voigt Hill
#
# Bulk Modulus (GPa) = 35.81617 45.89438 40.85527
# Shear Modulus (GPa) = 18.54528 24.89774 21.72151
#
# Velocity S-wave (km/s) = 3.13305 3.63020 3.39074
# Velocity P-wave (km/s) = 5.66086 6.47015 6.07899
#
# Compressibility (1/GPa) = 0.02792035
#
# Stress axis : x y z
#
# Youngs Moduli (GPa) = 48.15744 60.62440 51.04955
#
# Poissons Ratio (x) = 0.40097 0.05578
# Poissons Ratio (y) = 0.31851 0.34498
# Poissons Ratio (z) = 0.05262 0.40968
#
# Static dielectric constant tensor:
#      x y z
#    x 3.241190 0.000000 0.359450 
#    y 0.000000 3.475720 0.000000 
#    z 0.359450 0.000000 3.539990 
# 
# 
# High freq. dielectric constant tensor:
#      x y z
#    x 1.710720 0.000000 0.031850 
#    y 0.000000 1.734800 0.000000 
#    z 0.031850 0.000000 1.735670 
# 
# From -- ./inp_files/12431.got.cif
#   From: 2010.06.25/outbox.cif.g09.slc.cpg/sg13_7_cif.got.tgz:12431.got - 2010.06.28 04:50:58.
