data_PCOD8118785
_publ_section_title
;
Structure prediction by ZEFSAII (Michael W. Deem and Ramdas Pophale) SiO2 
 PCOD8118785
Probable space group: P 2/C
;
_chemical_formula_sum "Si O2"
_cell_formula_units_Z 28
_cell_length_a 8.675690
_cell_length_b 12.921206
_cell_length_c 14.726459
_cell_angle_alpha 90.000000
_cell_angle_beta 53.061152
_cell_angle_gamma 90.000000
_cell_volume 1319.480352
_symmetry_space_group_name_H-M "P 2/C"
_symmetry_group_IT_number 13
_symmetry_cell_setting 'monoclinic'
loop_
_space_group_symop_operation_xyz
x,y,z
-x,y,1/2-z
-x,-y,-z
x,-y,1/2+z
loop_
_atom_site_type_symbol
_atom_site_label
_atom_site_fract_x
_atom_site_fract_y
_atom_site_fract_z
Si Si1 0.274573 0.193155 0.487809
Si Si2 0.905277 0.875631 0.195396
Si Si3 0.493282 0.813745 0.085009
Si Si4 0.484435 0.597817 0.153451
Si Si5 0.914349 0.494647 0.686262
Si Si6 0.773647 0.588108 0.556945
Si Si7 0.691182 0.015845 0.625371
O O1 0.446190 0.165038 0.496766
O O2 0.321975 0.298641 0.417585
O O3 0.066172 0.209072 0.609979
O O4 0.254313 0.095013 0.431426
O O5 0.701500 0.820773 0.286095
O O6 0.871777 0.956501 0.125929
O O7 0.000000 0.933300 0.250000
O O8 0.562994 0.694241 0.066405
O O9 0.655228 0.894942 0.061550
O O10 0.500000 0.636372 0.250000
O O11 0.262150 0.572778 0.211862
O O12 0.614715 0.497626 0.088733
O O13 0.843054 0.579962 0.637685
O O14 0.000000 0.543331 0.750000
O O15 0.058116 0.422377 0.577257
O O16 0.500000 0.002033 0.750000
#
# Coordination Sequence:
#
# PCOD8118785 Si02
#       7
#     4   4   4   4   4   4   4
#     4  11  21  36  56  81 114 145 177 225 283 336
#     4   9  19  36  58  81 105 140 187 234 275 319
#     4  10  20  35  59  84 105 139 189 234 273 320
#     4  10  20  37  59  82 113 148 186 236 282 327
#     4  10  21  38  58  82 114 151 194 239 279 331
#     4  10  23  38  57  87 117 150 191 232 287 349
#     4  10  21  36  55  80 111 143 181 224 272 333
#
# _framework density 21.220473999999999
#
# number of rings (size 3 to 8) (size 9 to 14) (size 15 to 20)
#    0.000    2.000    0.000    3.857    0.000    7.429 
#    0.000    0.714    0.000    0.000    0.000    0.000 
#    0.000    0.000    0.000    0.000    0.000    0.000 
#
# Total GULP energy -346999.202078 kJ/mol
# GULP energy per Si atom -12392.828646 kJ/mol
# Density = 2.117218 g / cm^3
# Si number density = 21.220474 Si / 1000 Ang^3
#
#
#
# Elastic Constant Matrix: (Units=GPa)
#
#
# Indices 1 2 3 4 5 6 
#
# 1 116.4319 53.1351 30.6395 0.0000 24.7096 0.0000
# 2 53.1351 152.5583 32.4725 0.0000 18.2847 0.0000
# 3 30.6395 32.4725 40.9184 0.0000 17.3058 0.0000
# 4 0.0000 0.0000 0.0000 18.1310 0.0000 2.5004
# 5 24.7096 18.2847 17.3058 0.0000 38.5143 0.0000
# 6 0.0000 0.0000 0.0000 2.5004 0.0000 17.8535
#
#
#
# Elastic Compliance Matrix: (Units=1/GPa)
#
#
# Indices 1 2 3 4 5 6 
#
# 1 0.012014 -0.002582 -0.005192 0.000000 -0.004149 0.000000
# 2 -0.002582 0.008484 -0.004687 0.000000 -0.000265 0.000000
# 3 -0.005192 -0.004687 0.036664 0.000000 -0.010918 0.000000
# 4 0.000000 0.000000 0.000000 0.056240 0.000000 -0.007877
# 5 -0.004149 -0.000265 -0.010918 0.000000 0.033658 0.000000
# 6 0.000000 0.000000 0.000000 -0.007877 0.000000 0.057114
#
#
# Mechanical properties :
#
#
# Convention : Reuss Voigt Hill
#
# Bulk Modulus (GPa) = 31.01831 60.26698 45.64265
# Shear Modulus (GPa) = 20.84700 27.81055 24.32878
#
# Velocity S-wave (km/s) = 3.13773 3.62408 3.38964
# Velocity P-wave (km/s) = 5.27029 6.78041 6.07248
#
# Compressibility (1/GPa) = 0.03223902
#
# Stress axis : x y z
#
# Youngs Moduli (GPa) = 83.23732 117.87509 27.27476
#
# Poissons Ratio (x) = 0.30434 0.14162
# Poissons Ratio (y) = 0.21491 0.12784
# Poissons Ratio (z) = 0.43218 0.55249
#
# Static dielectric constant tensor:
#      x y z
#    x 4.127040 0.000000 0.127890 
#    y 0.000000 3.526100 0.000000 
#    z 0.127890 0.000000 3.797000 
# 
# 
# High freq. dielectric constant tensor:
#      x y z
#    x 1.847310 0.000000 0.010210 
#    y 0.000000 1.810830 0.000000 
#    z 0.010210 0.000000 1.815470 
# 
# From -- ./inp_files/47104.got.cif
#   From: 2010.06.25/outbox.cif.g09.slc.cpg/sg13_24_cif.got.tgz:47104.got - 2010.06.28 04:50:58.
