data_PCOD8118734
_publ_section_title
;
Structure prediction by ZEFSAII (Michael W. Deem and Ramdas Pophale) SiO2 
 PCOD8118734
Probable space group: P 2/C
;
_chemical_formula_sum "Si O2"
_cell_formula_units_Z 24
_cell_length_a 10.278044
_cell_length_b 10.812944
_cell_length_c 17.093154
_cell_angle_alpha 90.000000
_cell_angle_beta 37.340492
_cell_angle_gamma 90.000000
_cell_volume 1152.241580
_symmetry_space_group_name_H-M "P 2/C"
_symmetry_group_IT_number 13
_symmetry_cell_setting 'monoclinic'
loop_
_space_group_symop_operation_xyz
x,y,z
-x,y,1/2-z
-x,-y,-z
x,-y,1/2+z
loop_
_atom_site_type_symbol
_atom_site_label
_atom_site_fract_x
_atom_site_fract_y
_atom_site_fract_z
Si Si1 0.298956 0.444746 0.292650
Si Si2 0.326825 0.005544 0.406195
Si Si3 0.559233 0.883066 0.422113
Si Si4 0.137614 0.080355 0.848175
Si Si5 0.572451 0.263696 0.063909
Si Si6 0.009772 0.342484 0.563286
O O1 0.500000 0.485836 0.250000
O O2 0.381791 0.353200 0.184614
O O3 0.118182 0.377881 0.429802
O O4 0.176528 0.564706 0.316554
O O5 0.426612 0.137551 0.385096
O O6 0.074560 0.998807 0.547363
O O7 0.413399 0.886110 0.413377
O O8 0.329971 0.986834 0.308281
O O9 0.799557 0.901294 0.273072
O O10 0.535447 0.762991 0.488875
O O11 0.500000 0.000000 0.500000
O O12 0.102327 0.213730 0.902872
O O13 0.803924 0.329991 0.960257
#
# Coordination Sequence:
#
# PCOD8118734 Si02
#       6
#     4   4   4   4   4   4
#     4   9  18  35  58  83 110 145 194 239 277 329
#     4   9  20  35  57  86 112 148 188 231 282 338
#     4  10  21  34  53  81 114 149 180 221 285 344
#     4  10  20  35  56  82 114 147 190 234 276 337
#     4   9  19  35  57  84 116 148 180 228 291 346
#     4   9  19  34  57  83 108 147 190 235 279 322
#
# _framework density 20.828963999999999
#
# number of rings (size 3 to 8) (size 9 to 14) (size 15 to 20)
#    0.000    2.667    0.000    0.500    0.000   22.000 
#    0.000    0.833    0.000    4.000    0.000    2.333 
#    0.000    0.000    0.000    0.000    0.000    0.000 
#
# Total GULP energy -297372.006816 kJ/mol
# GULP energy per Si atom -12390.500284 kJ/mol
# Density = 2.078156 g / cm^3
# Si number density = 20.828964 Si / 1000 Ang^3
#
#
#
# Elastic Constant Matrix: (Units=GPa)
#
#
# Indices 1 2 3 4 5 6 
#
# 1 92.3790 47.5754 55.4915 0.0000 11.1566 0.0000
# 2 47.5754 82.6894 42.5285 0.0000 -2.3972 0.0000
# 3 55.4915 42.5285 106.0336 0.0000 14.9925 0.0000
# 4 0.0000 0.0000 0.0000 42.5388 0.0000 -4.4304
# 5 11.1566 -2.3972 14.9925 0.0000 29.1437 0.0000
# 6 0.0000 0.0000 0.0000 -4.4304 0.0000 37.6398
#
#
#
# Elastic Compliance Matrix: (Units=1/GPa)
#
#
# Indices 1 2 3 4 5 6 
#
# 1 0.019262 -0.008054 -0.006162 0.000000 -0.004866 0.000000
# 2 -0.008054 0.019237 -0.004487 0.000000 0.006974 0.000000
# 3 -0.006162 -0.004487 0.015286 0.000000 -0.005874 0.000000
# 4 0.000000 0.000000 0.000000 0.023800 0.000000 0.002801
# 5 -0.004866 0.006974 -0.005874 0.000000 0.039771 0.000000
# 6 0.000000 0.000000 0.000000 0.002801 0.000000 0.026897
#
#
# Mechanical properties :
#
#
# Convention : Reuss Voigt Hill
#
# Bulk Modulus (GPa) = 61.05338 63.58807 62.32072
# Shear Modulus (GPa) = 26.72092 30.89824 28.80958
#
# Velocity S-wave (km/s) = 3.58561 3.85571 3.72311
# Velocity P-wave (km/s) = 6.82037 7.10049 6.96184
#
# Compressibility (1/GPa) = 0.01637911
#
# Stress axis : x y z
#
# Youngs Moduli (GPa) = 51.91508 51.98244 65.41975
#
# Poissons Ratio (x) = 0.41868 0.40312
# Poissons Ratio (y) = 0.41814 0.29352
# Poissons Ratio (z) = 0.31991 0.23323
#
# Static dielectric constant tensor:
#      x y z
#    x 4.443800 0.000000 -0.021380 
#    y 0.000000 3.526650 0.000000 
#    z -0.021380 0.000000 4.157590 
# 
# 
# High freq. dielectric constant tensor:
#      x y z
#    x 1.800070 0.000000 -0.012790 
#    y 0.000000 1.791350 0.000000 
#    z -0.012790 0.000000 1.841650 
# 
# From -- ./inp_files/66559.got.cif
#   From: 2010.06.25/outbox.cif.g09.slc.cpg/sg13_34_cif.got.tgz:66559.got - 2010.06.28 04:50:58.
