data_PCOD8118942
_publ_section_title
;
Structure prediction by ZEFSAII (Michael W. Deem and Ramdas Pophale) SiO2 
 PCOD8118942
Probable space group: P 2/C
;
_chemical_formula_sum "Si O2"
_cell_formula_units_Z 30
_cell_length_a 13.998126
_cell_length_b 8.871016
_cell_length_c 11.489830
_cell_angle_alpha 90.000000
_cell_angle_beta 86.862809
_cell_angle_gamma 90.000000
_cell_volume 1424.641278
_symmetry_space_group_name_H-M "P 2/C"
_symmetry_group_IT_number 13
_symmetry_cell_setting 'monoclinic'
loop_
_space_group_symop_operation_xyz
x,y,z
-x,y,1/2-z
-x,-y,-z
x,-y,1/2+z
loop_
_atom_site_type_symbol
_atom_site_label
_atom_site_fract_x
_atom_site_fract_y
_atom_site_fract_z
Si Si1 0.263318 0.907652 0.168823
Si Si2 0.688216 0.328856 0.011994
Si Si3 0.000000 0.227758 0.250000
Si Si4 0.846483 0.561772 0.658336
Si Si5 0.609262 0.161803 0.238435
Si Si6 0.857962 0.138645 0.445108
Si Si7 0.284797 0.382159 0.117583
Si Si8 0.906508 0.768782 0.178675
O O1 0.324489 0.784287 0.095406
O O2 0.187088 0.817522 0.247676
O O3 0.325671 0.011181 0.253130
O O4 0.214972 0.002457 0.068362
O O5 0.658727 0.494263 0.964440
O O6 0.796429 0.362664 0.048841
O O7 0.626015 0.258279 0.120039
O O8 0.065885 0.328534 0.326237
O O9 0.066663 0.124292 0.165337
O O10 0.769532 0.546314 0.767604
O O11 0.894533 0.400916 0.633514
O O12 0.500000 0.109446 0.250000
O O13 0.632684 0.268281 0.346160
O O14 0.796834 0.294163 0.449548
O O15 0.914009 0.125769 0.563458
O O16 0.000000 0.788775 0.250000
#
# Coordination Sequence:
#
# PCOD8118942 Si02
#       8
#     4   4   2   4   4   4   4   4
#     4  11  25  44  63  92 130 178 216 260 334 395
#     4  11  21  40  71  90 126 173 207 269 329 385
#     4  10  22  36  60  86 128 174 222 268 318 364
#     4  10  20  36  59  92 122 164 218 266 310 369
#     4  10  24  45  67  98 131 162 213 273 334 401
#     4  10  23  40  58  87 131 173 214 269 317 379
#     4   9  19  39  64  92 123 165 207 259 326 379
#     4  12  24  37  62  94 128 173 225 269 310 377
#
# _framework density 21.057932999999998
#
# number of rings (size 3 to 8) (size 9 to 14) (size 15 to 20)
#    0.000    1.600    3.333    1.600    2.800    2.133 
#    0.000    0.667    0.000    0.000    0.000    0.000 
#    0.000    0.000    0.000    0.000    0.000    0.000 
#
# Total GULP energy -371852.954974 kJ/mol
# GULP energy per Si atom -12395.098499 kJ/mol
# Density = 2.101000 g / cm^3
# Si number density = 21.057933 Si / 1000 Ang^3
#
#
#
# Elastic Constant Matrix: (Units=GPa)
#
#
# Indices 1 2 3 4 5 6 
#
# 1 85.6759 16.9508 11.8001 0.0000 5.8213 0.0000
# 2 16.9508 72.6498 15.3216 0.0000 -2.6635 0.0000
# 3 11.8001 15.3216 77.0579 0.0000 4.7523 0.0000
# 4 0.0000 0.0000 0.0000 3493.8710 0.0000-3170.9639
# 5 5.8213 -2.6635 4.7523 0.0000 22.1471 0.0000
# 6 0.0000 0.0000 0.0000-3170.9639 0.0000 2915.2267
#
#
#
# Elastic Compliance Matrix: (Units=1/GPa)
#
#
# Indices 1 2 3 4 5 6 
#
# 1 0.012622 -0.002825 -0.001161 0.000000 -0.003408 0.000000
# 2 -0.002825 0.015124 -0.002769 0.000000 0.003156 0.000000
# 3 -0.001161 -0.002769 0.013891 0.000000 -0.003009 0.000000
# 4 0.000000 0.000000 0.000000 0.022354 0.000000 0.024315
# 5 -0.003408 0.003156 -0.003009 0.000000 0.047074 0.000000
# 6 0.000000 0.000000 0.000000 0.024315 0.000000 0.026791
#
#
# Mechanical properties :
#
#
# Convention : Reuss Voigt Hill
#
# Bulk Modulus (GPa) = 35.55344 35.94762 35.75053
# Shear Modulus (GPa) = 31.10600 1299.00304 665.05452
#
# Velocity S-wave (km/s) = 3.84756 24.86383 17.79064
# Velocity P-wave (km/s) = 6.05463 29.00669 20.95289
#
# Compressibility (1/GPa) = 0.02812667
#
# Stress axis : x y z
#
# Youngs Moduli (GPa) = 79.22466 66.12224 71.98827
#
# Poissons Ratio (x) = 0.18681 0.08358
# Poissons Ratio (y) = 0.22382 0.19934
# Poissons Ratio (z) = 0.09198 0.18309
#
# Static dielectric constant tensor:
#      x y z
#    x 3.471660 0.000000 0.212610 
#    y 0.000000 3.858200 0.000000 
#    z 0.212610 0.000000 3.895310 
# 
# 
# High freq. dielectric constant tensor:
#      x y z
#    x 1.793390 0.000000 0.012880 
#    y 0.000000 1.835450 0.000000 
#    z 0.012880 0.000000 1.827400 
# 
# From -- ./inp_files/36223.got.cif
#   From: 2010.06.25/outbox.cif.g09.slc.cpg/sg13_19_cif.got.tgz:36223.got - 2010.06.28 04:50:58.
