data_PCOD8118627
_publ_section_title
;
Structure prediction by ZEFSAII (Michael W. Deem and Ramdas Pophale) SiO2 
 PCOD8118627
Probable space group: P 2/C
;
_chemical_formula_sum "Si O2"
_cell_formula_units_Z 28
_cell_length_a 6.745752
_cell_length_b 9.101864
_cell_length_c 29.724046
_cell_angle_alpha 90.000000
_cell_angle_beta 132.347988
_cell_angle_gamma 90.000000
_cell_volume 1348.815474
_symmetry_space_group_name_H-M "P 2/C"
_symmetry_group_IT_number 13
_symmetry_cell_setting 'monoclinic'
loop_
_space_group_symop_operation_xyz
x,y,z
-x,y,1/2-z
-x,-y,-z
x,-y,1/2+z
loop_
_atom_site_type_symbol
_atom_site_label
_atom_site_fract_x
_atom_site_fract_y
_atom_site_fract_z
Si Si1 0.090550 0.458047 0.860367
Si Si2 0.072283 0.268209 0.108775
Si Si3 0.000000 0.148253 0.250000
Si Si4 0.500000 0.519091 0.250000
Si Si5 0.209950 0.016552 0.195393
Si Si6 0.756732 0.839760 0.080374
Si Si7 0.598967 0.388716 0.168902
Si Si8 0.784436 0.036619 0.003779
O O1 0.244984 0.335409 0.913265
O O2 0.268171 0.484410 0.842027
O O3 0.092069 0.608061 0.889212
O O4 0.782951 0.398747 0.804431
O O5 0.227351 0.165807 0.168669
O O6 0.291832 0.345703 0.109175
O O7 0.869224 0.172114 0.048555
O O8 0.101693 0.040474 0.228070
O O9 0.222422 0.245325 0.308750
O O10 0.589138 0.426561 0.220272
O O11 0.500000 0.948137 0.250000
O O12 0.029377 0.897178 0.143450
O O13 0.743066 0.886843 0.025873
O O14 0.492731 0.914240 0.062787
O O15 0.000000 0.000000 0.000000
#
# Coordination Sequence:
#
# PCOD8118627 Si02
#       8
#     4   4   2   2   4   4   4   4
#     4  11  22  39  61  92 134 161 203 258 321 379
#     4  10  22  38  65  93 119 163 212 258 315 372
#     4  12  18  32  58  88 126 162 204 240 296 380
#     4  10  20  34  54  92 128 168 192 242 306 372
#     4  11  22  37  60  94 126 162 210 253 304 376
#     4  10  26  44  62  93 125 166 211 264 320 370
#     4  11  19  34  60  91 124 164 202 251 304 368
#     4  10  24  47  69  85 121 167 219 270 312 368
#
# _framework density 20.758956000000001
#
# number of rings (size 3 to 8) (size 9 to 14) (size 15 to 20)
#    0.000    1.429    4.286    0.857    4.000    4.000 
#    2.571    1.429    0.000    0.000    0.000    0.000 
#    0.000    0.000    0.000    0.000    0.000    0.000 
#
# Total GULP energy -346966.549663 kJ/mol
# GULP energy per Si atom -12391.662488 kJ/mol
# Density = 2.071171 g / cm^3
# Si number density = 20.758956 Si / 1000 Ang^3
#
#
#
# Elastic Constant Matrix: (Units=GPa)
#
#
# Indices 1 2 3 4 5 6 
#
# 1 142.8898 33.5286 32.1025 0.0000 1.1799 0.0000
# 2 33.5286 75.3380 30.4418 0.0000 -8.4448 0.0000
# 3 32.1025 30.4418 70.2219 0.0000 6.1098 0.0000
# 4 0.0000 0.0000 0.0000 51.2035 0.0000 -0.8164
# 5 1.1799 -8.4448 6.1098 0.0000 25.2047 0.0000
# 6 0.0000 0.0000 0.0000 -0.8164 0.0000 22.2460
#
#
#
# Elastic Compliance Matrix: (Units=1/GPa)
#
#
# Indices 1 2 3 4 5 6 
#
# 1 0.008206 -0.002712 -0.002516 0.000000 -0.000683 0.000000
# 2 -0.002712 0.018393 -0.007438 0.000000 0.008092 0.000000
# 3 -0.002516 -0.007438 0.019227 0.000000 -0.007035 0.000000
# 4 0.000000 0.000000 0.000000 0.019541 0.000000 0.000717
# 5 -0.000683 0.008092 -0.007035 0.000000 0.044124 0.000000
# 6 0.000000 0.000000 0.000000 0.000717 0.000000 0.044978
#
#
# Mechanical properties :
#
#
# Convention : Reuss Voigt Hill
#
# Bulk Modulus (GPa) = 48.79441 53.39949 51.09695
# Shear Modulus (GPa) = 26.79065 32.55597 29.67331
#
# Velocity S-wave (km/s) = 3.59633 3.96445 3.78487
# Velocity P-wave (km/s) = 6.38757 6.83632 6.61575
#
# Compressibility (1/GPa) = 0.02049415
#
# Stress axis : x y z
#
# Youngs Moduli (GPa) = 121.86733 54.36917 52.00906
#
# Poissons Ratio (x) = 0.14743 0.13087
# Poissons Ratio (y) = 0.33045 0.38684
# Poissons Ratio (z) = 0.30666 0.40439
#
# Static dielectric constant tensor:
#      x y z
#    x 4.104800 0.000000 0.186010 
#    y 0.000000 3.523790 0.000000 
#    z 0.186010 0.000000 3.712620 
# 
# 
# High freq. dielectric constant tensor:
#      x y z
#    x 1.830510 0.000000 0.013230 
#    y 0.000000 1.790920 0.000000 
#    z 0.013230 0.000000 1.799030 
# 
# From -- ./inp_files/95138.got.cif
#   From: 2010.06.25/outbox.cif.g09.slc.cpg/sg13_48_cif.got.tgz:95138.got - 2010.06.28 04:50:58.
