data_PCOD8118044
_publ_section_title
;
Structure prediction by ZEFSAII (Michael W. Deem and Ramdas Pophale) SiO2 
 PCOD8118044
Probable space group: P 2/C
;
_chemical_formula_sum "Si O2"
_cell_formula_units_Z 18
_cell_length_a 23.445628
_cell_length_b 8.218461
_cell_length_c 15.732151
_cell_angle_alpha 90.000000
_cell_angle_beta 17.937254
_cell_angle_gamma 90.000000
_cell_volume 933.590319
_symmetry_space_group_name_H-M "P 2/C"
_symmetry_group_IT_number 13
_symmetry_cell_setting 'monoclinic'
loop_
_space_group_symop_operation_xyz
x,y,z
-x,y,1/2-z
-x,-y,-z
x,-y,1/2+z
loop_
_atom_site_type_symbol
_atom_site_label
_atom_site_fract_x
_atom_site_fract_y
_atom_site_fract_z
Si Si1 0.710595 0.109362 0.269895
Si Si2 0.297759 0.299723 0.055152
Si Si3 0.063813 0.958067 0.815923
Si Si4 0.397088 0.863790 0.761342
Si Si5 0.500000 0.609806 0.750000
O O1 0.761023 0.252251 0.265050
O O2 0.666036 0.193158 0.243037
O O3 0.537536 0.012041 0.552424
O O4 0.883565 0.982613 0.011657
O O5 0.148937 0.225461 0.198407
O O6 0.500000 0.220662 0.750000
O O7 0.315201 0.495449 0.019269
O O8 0.222014 0.083398 0.564716
O O9 0.000000 0.000000 0.000000
O O10 0.493233 0.715018 0.673907
#
# Coordination Sequence:
#
# PCOD8118044 Si02
#       5
#     4   4   4   4   2
#     4  10  21  35  60  83 112 152 197 251 276 333
#     4   9  18  36  55  80 114 151 183 229 297 348
#     4  10  19  35  60  79 110 149 198 238 278 340
#     4  11  20  36  56  87 114 147 201 238 288 340
#     4  10  20  34  60  80 122 160 178 232 300 360
#
# _framework density 19.280407
#
# number of rings (size 3 to 8) (size 9 to 14) (size 15 to 20)
#    0.667    1.333    2.222    3.333    0.000    0.889 
#    0.000   10.000    0.000    8.000    0.000    0.000 
#    0.000    0.000    0.000    0.000    0.000    0.000 
#
# Total GULP energy -223016.545526 kJ/mol
# GULP energy per Si atom -12389.808085 kJ/mol
# Density = 1.923652 g / cm^3
# Si number density = 19.280407 Si / 1000 Ang^3
#
#
#
# Elastic Constant Matrix: (Units=GPa)
#
#
# Indices 1 2 3 4 5 6 
#
# 1 109.1874 52.3442 18.8681 0.0000 2.9485 0.0000
# 2 52.3442 69.6501 15.7386 0.0000 19.9974 0.0000
# 3 18.8681 15.7386 91.6450 0.0000 2.9549 0.0000
# 4 0.0000 0.0000 0.0000 14.1611 0.0000 -0.9374
# 5 2.9485 19.9974 2.9549 0.0000 25.4645 0.0000
# 6 0.0000 0.0000 0.0000 -0.9374 0.0000 24.8496
#
#
#
# Elastic Compliance Matrix: (Units=1/GPa)
#
#
# Indices 1 2 3 4 5 6 
#
# 1 0.016121 -0.014673 -0.001115 0.000000 0.009786 0.000000
# 2 -0.014673 0.032596 -0.001813 0.000000 -0.023688 0.000000
# 3 -0.001115 -0.001813 0.011445 0.000000 0.000225 0.000000
# 4 0.000000 0.000000 0.000000 0.070793 0.000000 0.002671
# 5 0.009786 -0.023688 0.000225 0.000000 0.056714 0.000000
# 6 0.000000 0.000000 0.000000 0.002671 0.000000 0.040343
#
#
# Mechanical properties :
#
#
# Convention : Reuss Voigt Hill
#
# Bulk Modulus (GPa) = 40.06382 49.37606 44.71994
# Shear Modulus (GPa) = 18.41386 25.13046 21.77216
#
# Velocity S-wave (km/s) = 3.09375 3.61421 3.36406
# Velocity P-wave (km/s) = 5.79538 6.56367 6.19145
#
# Compressibility (1/GPa) = 0.02496018
#
# Stress axis : x y z
#
# Youngs Moduli (GPa) = 62.02948 30.67863 87.37219
#
# Poissons Ratio (x) = 0.45016 0.09739
# Poissons Ratio (y) = 0.91019 0.15841
# Poissons Ratio (z) = 0.06914 0.05562
#
# Static dielectric constant tensor:
#      x y z
#    x 3.769480 0.000000 -0.263730 
#    y 0.000000 3.205190 0.000000 
#    z -0.263730 0.000000 3.856640 
# 
# 
# High freq. dielectric constant tensor:
#      x y z
#    x 1.747950 0.000000 0.001530 
#    y 0.000000 1.713940 0.000000 
#    z 0.001530 0.000000 1.758980 
# 
# From -- ./inp_files/49403.got.cif
#   From: 2010.06.25/outbox.cif.g09.slc.cpg/sg13_25_cif.got.tgz:49403.got - 2010.06.28 04:50:58.
