data_PCOD8118635
_publ_section_title
;
Structure prediction by ZEFSAII (Michael W. Deem and Ramdas Pophale) SiO2 
 PCOD8118635
Probable space group: P 2/C
;
_chemical_formula_sum "Si O2"
_cell_formula_units_Z 24
_cell_length_a 9.152122
_cell_length_b 10.321241
_cell_length_c 11.191614
_cell_angle_alpha 90.000000
_cell_angle_beta 92.432276
_cell_angle_gamma 90.000000
_cell_volume 1056.221497
_symmetry_space_group_name_H-M "P 2/C"
_symmetry_group_IT_number 13
_symmetry_cell_setting 'monoclinic'
loop_
_space_group_symop_operation_xyz
x,y,z
-x,y,1/2-z
-x,-y,-z
x,-y,1/2+z
loop_
_atom_site_type_symbol
_atom_site_label
_atom_site_fract_x
_atom_site_fract_y
_atom_site_fract_z
Si Si1 0.855334 0.296858 0.613474
Si Si2 0.653912 0.833333 0.299573
Si Si3 0.368913 0.345570 0.479919
Si Si4 0.943796 0.061297 0.873712
Si Si5 0.853068 0.583883 0.694591
Si Si6 0.332537 0.382899 0.088604
O O1 0.730007 0.239341 0.693279
O O2 0.900998 0.443222 0.647203
O O3 0.789836 0.290719 0.476720
O O4 0.001867 0.210943 0.624930
O O5 0.500000 0.897489 0.250000
O O6 0.613005 0.729183 0.397338
O O7 0.765920 0.939010 0.360898
O O8 0.215269 0.316693 0.405858
O O9 0.508678 0.312834 0.399562
O O10 0.357726 0.499175 0.498608
O O11 0.000000 0.995086 0.750000
O O12 0.000000 0.000000 0.000000
O O13 0.724463 0.567187 0.787032
O O14 0.000000 0.650683 0.750000
#
# Coordination Sequence:
#
# PCOD8118635 Si02
#       6
#     4   4   4   4   4   4
#     4  10  21  38  61  88 128 172 212 262 317 385
#     4  11  20  39  67  94 120 168 215 255 321 395
#     4  10  21  33  56  88 128 173 204 251 301 382
#     4  10  24  47  72  94 124 167 219 287 347 387
#     4  11  22  33  52  87 132 178 213 252 299 375
#     4  10  20  34  55  87 133 170 210 246 304 373
#
# _framework density 22.722505000000002
#
# number of rings (size 3 to 8) (size 9 to 14) (size 15 to 20)
#    0.000    1.667    3.333    2.000    2.333    1.333 
#    3.000    3.333    0.000    0.000    0.000    0.000 
#    0.000    0.000    0.000    0.000    0.000    0.000 
#
# Total GULP energy -297369.732368 kJ/mol
# GULP energy per Si atom -12390.405515 kJ/mol
# Density = 2.267079 g / cm^3
# Si number density = 22.722505 Si / 1000 Ang^3
#
#
#
# Elastic Constant Matrix: (Units=GPa)
#
#
# Indices 1 2 3 4 5 6 
#
# 1 162.1305 21.6096 44.2175 0.0000 32.4434 0.0000
# 2 21.6096 25.7462 28.6148 0.0000 5.6996 0.0000
# 3 44.2175 28.6148 110.2287 0.0000 16.8830 0.0000
# 4 0.0000 0.0000 0.0000 27.8557 0.0000 9.3646
# 5 32.4434 5.6996 16.8830 0.0000 48.9620 0.0000
# 6 0.0000 0.0000 0.0000 9.3646 0.0000 15.6049
#
#
#
# Elastic Compliance Matrix: (Units=1/GPa)
#
#
# Indices 1 2 3 4 5 6 
#
# 1 0.007978 -0.004103 -0.001477 0.000000 -0.004300 0.000000
# 2 -0.004103 0.056813 -0.013203 0.000000 0.000658 0.000000
# 3 -0.001477 -0.013203 0.013415 0.000000 -0.002110 0.000000
# 4 0.000000 0.000000 0.000000 0.044972 0.000000 -0.026988
# 5 -0.004300 0.000658 -0.002110 0.000000 0.023924 0.000000
# 6 0.000000 0.000000 0.000000 -0.026988 0.000000 0.080278
#
#
# Mechanical properties :
#
#
# Convention : Reuss Voigt Hill
#
# Bulk Modulus (GPa) = 24.60613 54.10992 39.35802
# Shear Modulus (GPa) = 17.95374 32.06208 25.00791
#
# Velocity S-wave (km/s) = 2.81398 3.76044 3.32110
# Velocity P-wave (km/s) = 4.62714 6.53602 5.66260
#
# Compressibility (1/GPa) = 0.04064028
#
# Stress axis : x y z
#
# Youngs Moduli (GPa) = 125.34757 17.60150 74.54286
#
# Poissons Ratio (x) = 0.07222 0.11007
# Poissons Ratio (y) = 0.51432 0.98421
# Poissons Ratio (z) = 0.18509 0.23240
#
# Static dielectric constant tensor:
#      x y z
#    x 4.519820 0.000000 0.301710 
#    y 0.000000 3.371340 0.000000 
#    z 0.301710 0.000000 4.254100 
# 
# 
# High freq. dielectric constant tensor:
#      x y z
#    x 1.920060 0.000000 0.014570 
#    y 0.000000 1.818690 0.000000 
#    z 0.014570 0.000000 1.910550 
# 
# From -- ./inp_files/29433.got.cif
#   From: 2010.06.25/outbox.cif.g09.slc.cpg/sg13_15_cif.got.tgz:29433.got - 2010.06.28 04:50:58.
