data_PCOD8118776
_publ_section_title
;
Structure prediction by ZEFSAII (Michael W. Deem and Ramdas Pophale) SiO2 
 PCOD8118776
Probable space group: P 2/C
;
_chemical_formula_sum "Si O2"
_cell_formula_units_Z 28
_cell_length_a 24.411321
_cell_length_b 9.319628
_cell_length_c 9.005855
_cell_angle_alpha 90.000000
_cell_angle_beta 38.793513
_cell_angle_gamma 90.000000
_cell_volume 1283.650158
_symmetry_space_group_name_H-M "P 2/C"
_symmetry_group_IT_number 13
_symmetry_cell_setting 'monoclinic'
loop_
_space_group_symop_operation_xyz
x,y,z
-x,y,1/2-z
-x,-y,-z
x,-y,1/2+z
loop_
_atom_site_type_symbol
_atom_site_label
_atom_site_fract_x
_atom_site_fract_y
_atom_site_fract_z
Si Si1 0.421652 0.086631 0.033254
Si Si2 0.307053 0.620261 0.302488
Si Si3 0.529289 0.784205 0.524265
Si Si4 0.180083 0.828219 0.711603
Si Si5 0.221259 0.886670 0.953219
Si Si6 0.939301 0.422650 0.012930
Si Si7 0.225309 0.379777 0.651945
O O1 0.322859 0.108881 0.186857
O O2 0.419777 0.933506 0.123907
O O3 0.500000 0.095326 0.750000
O O4 0.443853 0.219345 0.099104
O O5 0.410800 0.642749 0.107969
O O6 0.266910 0.738389 0.496337
O O7 0.284280 0.462176 0.406182
O O8 0.277910 0.645450 0.193626
O O9 0.500000 0.807389 0.750000
O O10 0.170040 0.858194 0.908775
O O11 0.099217 0.724620 0.836227
O O12 0.181937 0.968682 0.606135
O O13 0.202367 0.769603 0.120851
O O14 0.861817 0.530255 0.125746
O O15 0.000000 0.378075 0.750000
O O16 0.000000 0.500000 0.000000
#
# Coordination Sequence:
#
# PCOD8118776 Si02
#       7
#     4   4   4   4   4   4   4
#     4  10  21  34  59  91 129 177 224 278 330 372
#     4  11  21  42  61  93 131 177 230 277 321 411
#     4  10  20  35  58  87 124 175 230 275 330 370
#     4  11  24  40  68  98 132 173 218 269 335 399
#     4  12  23  41  64 103 137 177 226 278 326 400
#     4  11  23  46  72  96 129 169 217 269 336 419
#     4  11  24  40  69  97 131 179 222 273 346 398
#
# _framework density 21.812795999999999
#
# number of rings (size 3 to 8) (size 9 to 14) (size 15 to 20)
#    0.000    1.143    1.429    6.857    4.000    0.000 
#    0.000    7.143    0.000    0.000    0.000    0.000 
#    0.000    0.000    0.000    0.000    0.000    0.000 
#
# Total GULP energy -346994.590278 kJ/mol
# GULP energy per Si atom -12392.663938 kJ/mol
# Density = 2.176315 g / cm^3
# Si number density = 21.812796 Si / 1000 Ang^3
#
#
#
# Elastic Constant Matrix: (Units=GPa)
#
#
# Indices 1 2 3 4 5 6 
#
# 1 92.6252 36.9287 39.7809 0.0000 0.2738 0.0000
# 2 36.9287 119.9641 45.1848 0.0000 -3.9771 0.0000
# 3 39.7809 45.1848 84.2213 0.0000 7.3567 0.0000
# 4 0.0000 0.0000 0.0000 47.2169 0.0000 -1.6421
# 5 0.2738 -3.9771 7.3567 0.0000 38.3355 0.0000
# 6 0.0000 0.0000 0.0000 -1.6421 0.0000 35.0817
#
#
#
# Elastic Compliance Matrix: (Units=1/GPa)
#
#
# Indices 1 2 3 4 5 6 
#
# 1 0.014045 -0.002227 -0.005503 0.000000 0.000725 0.000000
# 2 -0.002227 0.010985 -0.005027 0.000000 0.002120 0.000000
# 3 -0.005503 -0.005027 0.017505 0.000000 -0.003841 0.000000
# 4 0.000000 0.000000 0.000000 0.021213 0.000000 0.000993
# 5 0.000725 0.002120 -0.003841 0.000000 0.027037 0.000000
# 6 0.000000 0.000000 0.000000 0.000993 0.000000 0.028551
#
#
# Mechanical properties :
#
#
# Convention : Reuss Voigt Hill
#
# Bulk Modulus (GPa) = 58.74581 60.06660 59.40621
# Shear Modulus (GPa) = 33.21724 35.78791 34.50257
#
# Velocity S-wave (km/s) = 3.90658 4.05493 3.98145
# Velocity P-wave (km/s) = 6.88032 7.03707 6.95914
#
# Compressibility (1/GPa) = 0.01702249
#
# Stress axis : x y z
#
# Youngs Moduli (GPa) = 71.19881 91.03319 57.12656
#
# Poissons Ratio (x) = 0.20273 0.31434
# Poissons Ratio (y) = 0.15856 0.28716
# Poissons Ratio (z) = 0.39178 0.45761
#
# Static dielectric constant tensor:
#      x y z
#    x 3.857930 0.000000 -0.041770 
#    y 0.000000 4.102630 0.000000 
#    z -0.041770 0.000000 3.855640 
# 
# 
# High freq. dielectric constant tensor:
#      x y z
#    x 1.851000 0.000000 0.010200 
#    y 0.000000 1.854920 0.000000 
#    z 0.010200 0.000000 1.860180 
# 
# From -- ./inp_files/24549.got.cif
#   From: 2010.06.25/outbox.cif.g09.slc.cpg/sg13_13_cif.got.tgz:24549.got - 2010.06.28 04:50:58.
