data_PCOD8118391
_publ_section_title
;
Structure prediction by ZEFSAII (Michael W. Deem and Ramdas Pophale) SiO2 
 PCOD8118391
Probable space group: P 2/C
;
_chemical_formula_sum "Si O2"
_cell_formula_units_Z 22
_cell_length_a 15.313354
_cell_length_b 8.426049
_cell_length_c 18.134685
_cell_angle_alpha 90.000000
_cell_angle_beta 152.394051
_cell_angle_gamma 90.000000
_cell_volume 1084.299221
_symmetry_space_group_name_H-M "P 2/C"
_symmetry_group_IT_number 13
_symmetry_cell_setting 'monoclinic'
loop_
_space_group_symop_operation_xyz
x,y,z
-x,y,1/2-z
-x,-y,-z
x,-y,1/2+z
loop_
_atom_site_type_symbol
_atom_site_label
_atom_site_fract_x
_atom_site_fract_y
_atom_site_fract_z
Si Si1 0.747884 0.126854 0.628742
Si Si2 0.000000 0.626835 0.250000
Si Si3 0.545381 0.088379 0.868118
Si Si4 0.389184 0.670456 0.865078
Si Si5 0.193442 0.037201 0.182501
Si Si6 0.347290 0.423468 0.495025
O O1 0.561468 0.215414 0.518685
O O2 0.916174 0.255132 0.749197
O O3 0.699668 0.036606 0.515507
O O4 0.816366 0.995578 0.737619
O O5 0.175079 0.516213 0.406408
O O6 0.500000 0.046745 0.750000
O O7 0.620580 0.267218 0.932861
O O8 0.351021 0.076173 0.766481
O O9 0.239446 0.775581 0.707194
O O10 0.463264 0.531923 0.865908
O O11 0.294081 0.606896 0.869175
O O12 0.000000 0.000000 0.000000
#
# Coordination Sequence:
#
# PCOD8118391 Si02
#       6
#     4   2   4   4   4   4
#     4  10  20  42  62  86 122 161 208 246 303 361
#     4  10  24  34  62  96 116 162 196 256 298 360
#     4  11  23  40  63  91 123 164 202 256 308 363
#     4   9  18  39  66  81 114 170 196 245 304 371
#     4  11  22  39  63  92 119 162 215 249 295 365
#     4  10  19  39  62  87 124 156 205 241 317 362
#
# _framework density 20.289604000000001
#
# number of rings (size 3 to 8) (size 9 to 14) (size 15 to 20)
#    0.000    1.818    3.636    1.091    2.545    2.182 
#    3.273    2.727    0.000    0.000    0.000    0.000 
#    0.000    0.000    0.000    0.000    0.000    0.000 
#
# Total GULP energy -272698.234344 kJ/mol
# GULP energy per Si atom -12395.374288 kJ/mol
# Density = 2.024342 g / cm^3
# Si number density = 20.289604 Si / 1000 Ang^3
#
#
#
# Elastic Constant Matrix: (Units=GPa)
#
#
# Indices 1 2 3 4 5 6 
#
# 1 78.2767 36.8015 48.4128 0.0000 -4.0913 0.0000
# 2 36.8015 131.9798 52.8294 0.0000 3.3356 0.0000
# 3 48.4128 52.8294 101.7891 0.0000 0.0293 0.0000
# 4 0.0000 0.0000 0.0000 35.1908 0.0000 3.5131
# 5 -4.0913 3.3356 0.0293 0.0000 33.5328 0.0000
# 6 0.0000 0.0000 0.0000 3.5131 0.0000 24.2874
#
#
#
# Elastic Compliance Matrix: (Units=1/GPa)
#
#
# Indices 1 2 3 4 5 6 
#
# 1 0.018745 -0.002173 -0.007789 0.000000 0.002510 0.000000
# 2 -0.002173 0.009846 -0.004076 0.000000 -0.001241 0.000000
# 3 -0.007789 -0.004076 0.015644 0.000000 -0.000558 0.000000
# 4 0.000000 0.000000 0.000000 0.028833 0.000000 -0.004171
# 5 0.002510 -0.001241 -0.000558 0.000000 0.030252 0.000000
# 6 0.000000 0.000000 0.000000 -0.004171 0.000000 0.041777
#
#
# Mechanical properties :
#
#
# Convention : Reuss Voigt Hill
#
# Bulk Modulus (GPa) = 61.88091 65.34811 63.61451
# Shear Modulus (GPa) = 28.00206 30.20233 29.10219
#
# Velocity S-wave (km/s) = 3.71902 3.86237 3.79138
# Velocity P-wave (km/s) = 7.00047 7.22275 7.11248
#
# Compressibility (1/GPa) = 0.01616007
#
# Stress axis : x y z
#
# Youngs Moduli (GPa) = 53.34778 101.56619 63.92062
#
# Poissons Ratio (x) = 0.22067 0.49785
# Poissons Ratio (y) = 0.11591 0.26056
# Poissons Ratio (z) = 0.41550 0.41402
#
# Static dielectric constant tensor:
#      x y z
#    x 3.570020 0.000000 0.213400 
#    y 0.000000 3.995170 0.000000 
#    z 0.213400 0.000000 3.477660 
# 
# 
# High freq. dielectric constant tensor:
#      x y z
#    x 1.779070 0.000000 0.018800 
#    y 0.000000 1.812520 0.000000 
#    z 0.018800 0.000000 1.759460 
# 
# From -- ./inp_files/68016.got.cif
#   From: 2010.06.25/outbox.cif.g09.slc.cpg/sg13_35_cif.got.tgz:68016.got - 2010.06.28 04:50:58.
