data_PCOD8118798
_publ_section_title
;
Structure prediction by ZEFSAII (Michael W. Deem and Ramdas Pophale) SiO2 
 PCOD8118798
Probable space group: P 2/C
;
_chemical_formula_sum "Si O2"
_cell_formula_units_Z 26
_cell_length_a 20.565600
_cell_length_b 6.893522
_cell_length_c 10.007605
_cell_angle_alpha 90.000000
_cell_angle_beta 51.054025
_cell_angle_gamma 90.000000
_cell_volume 1103.434579
_symmetry_space_group_name_H-M "P 2/C"
_symmetry_group_IT_number 13
_symmetry_cell_setting 'monoclinic'
loop_
_space_group_symop_operation_xyz
x,y,z
-x,y,1/2-z
-x,-y,-z
x,-y,1/2+z
loop_
_atom_site_type_symbol
_atom_site_label
_atom_site_fract_x
_atom_site_fract_y
_atom_site_fract_z
Si Si1 0.230452 0.364452 0.456126
Si Si2 0.060641 0.293695 0.783862
Si Si3 0.035200 0.248528 0.342332
Si Si4 0.500000 0.500029 0.750000
Si Si5 0.390687 0.146130 0.956650
Si Si6 0.214495 0.287242 0.173922
Si Si7 0.590668 0.175819 0.273631
O O1 0.155339 0.242155 0.621429
O O2 0.210930 0.397750 0.322906
O O3 0.234714 0.570302 0.524574
O O4 0.314779 0.246540 0.369567
O O5 0.048634 0.522410 0.814275
O O6 0.000000 0.208640 0.750000
O O7 0.033366 0.191360 0.957230
O O8 0.128033 0.169086 0.258898
O O9 0.000000 0.160792 0.250000
O O10 0.578484 0.366657 0.607946
O O11 0.471620 0.641706 0.665928
O O12 0.290351 0.134699 0.078974
O O13 0.421751 0.085565 0.063661
O O14 0.430729 0.996389 0.801333
#
# Coordination Sequence:
#
# PCOD8118798 Si02
#       7
#     4   4   4   2   4   4   4
#     4  10  20  35  59  90 128 173 221 269 329 386
#     4   9  15  27  47  82 121 165 214 271 315 376
#     4   9  17  27  47  84 125 166 218 270 319 378
#     4  12  24  48  76 106 128 172 224 274 334 408
#     4  11  26  46  71 102 139 175 220 276 334 401
#     4  10  20  36  58  90 129 173 219 272 325 391
#     4  11  26  46  70 103 139 176 219 274 336 401
#
# _framework density 23.562794
#
# number of rings (size 3 to 8) (size 9 to 14) (size 15 to 20)
#    0.000    1.846    3.077    0.923    6.462    4.923 
#    0.000    0.000    0.000    1.846    0.000    0.000 
#    0.000    0.000    0.000    0.000    0.000    0.000 
#
# Total GULP energy -322313.990119 kJ/mol
# GULP energy per Si atom -12396.691928 kJ/mol
# Density = 2.350916 g / cm^3
# Si number density = 23.562794 Si / 1000 Ang^3
#
#
#
# Elastic Constant Matrix: (Units=GPa)
#
#
# Indices 1 2 3 4 5 6 
#
# 1 150.2823 22.0881 50.7778 0.0000 5.5376 0.0000
# 2 22.0881 74.4830 18.1240 0.0000 8.5688 0.0000
# 3 50.7778 18.1240 118.3381 0.0000 28.1631 0.0000
# 4 0.0000 0.0000 0.0000 17.5188 0.0000 0.1777
# 5 5.5376 8.5688 28.1631 0.0000 37.1465 0.0000
# 6 0.0000 0.0000 0.0000 0.1777 0.0000 1.1401
#
#
#
# Elastic Compliance Matrix: (Units=1/GPa)
#
#
# Indices 1 2 3 4 5 6 
#
# 1 0.008076 -0.001729 -0.003671 0.000000 0.001978 0.000000
# 2 -0.001729 0.014432 -0.000900 0.000000 -0.002389 0.000000
# 3 -0.003671 -0.000900 0.012182 0.000000 -0.008481 0.000000
# 4 0.000000 0.000000 0.000000 0.057172 0.000000 -0.008913
# 5 0.001978 -0.002389 -0.008481 0.000000 0.033607 0.000000
# 6 0.000000 0.000000 0.000000 -0.008913 0.000000 0.878480
#
#
# Mechanical properties :
#
#
# Convention : Reuss Voigt Hill
#
# Bulk Modulus (GPa) = 45.27006 58.34258 51.80632
# Shear Modulus (GPa) = 4.88323 27.96865 16.42594
#
# Velocity S-wave (km/s) = 1.44116 3.44900 2.64316
# Velocity P-wave (km/s) = 4.69292 6.37770 5.59904
#
# Compressibility (1/GPa) = 0.02208965
#
# Stress axis : x y z
#
# Youngs Moduli (GPa) = 123.82588 69.28813 82.08924
#
# Poissons Ratio (x) = 0.11981 0.30137
# Poissons Ratio (y) = 0.21412 0.07387
# Poissons Ratio (z) = 0.45460 0.06235
#
# Static dielectric constant tensor:
#      x y z
#    x 4.639270 0.000000 -0.039860 
#    y 0.000000 3.639070 0.000000 
#    z -0.039860 0.000000 4.412880 
# 
# 
# High freq. dielectric constant tensor:
#      x y z
#    x 1.956010 0.000000 -0.006780 
#    y 0.000000 1.900000 0.000000 
#    z -0.006780 0.000000 1.942650 
# 
# From -- ./inp_files/40041.got.cif
#   From: 2010.06.25/outbox.cif.g09.slc.cpg/sg13_21_cif.got.tgz:40041.got - 2010.06.28 04:50:58.
