data_PCOD8118865
_publ_section_title
;
Structure prediction by ZEFSAII (Michael W. Deem and Ramdas Pophale) SiO2 
 PCOD8118865
Probable space group: P 2/C
;
_chemical_formula_sum "Si O2"
_cell_formula_units_Z 28
_cell_length_a 19.335244
_cell_length_b 12.792797
_cell_length_c 16.056215
_cell_angle_alpha 90.000000
_cell_angle_beta 159.488016
_cell_angle_gamma 90.000000
_cell_volume 1391.638751
_symmetry_space_group_name_H-M "P 2/C"
_symmetry_group_IT_number 13
_symmetry_cell_setting 'monoclinic'
loop_
_space_group_symop_operation_xyz
x,y,z
-x,y,1/2-z
-x,-y,-z
x,-y,1/2+z
loop_
_atom_site_type_symbol
_atom_site_label
_atom_site_fract_x
_atom_site_fract_y
_atom_site_fract_z
Si Si1 0.965703 0.212645 0.613368
Si Si2 0.217644 0.810682 0.897902
Si Si3 0.204300 0.374409 0.779023
Si Si4 0.573201 0.697408 0.598125
Si Si5 0.073186 0.984264 0.925170
Si Si6 0.830988 0.602622 0.752022
Si Si7 0.591905 0.148638 0.721613
O O1 0.744407 0.248853 0.344627
O O2 0.978751 0.094577 0.589298
O O3 0.000000 0.217239 0.750000
O O4 0.134794 0.282577 0.761834
O O5 0.209180 0.690412 0.861717
O O6 0.245134 0.804891 0.028895
O O7 0.395062 0.870940 0.051645
O O8 0.033952 0.880675 0.659224
O O9 0.200512 0.486993 0.822215
O O10 0.056630 0.382891 0.534540
O O11 0.425326 0.355749 0.996290
O O12 0.677946 0.613156 0.656292
O O13 0.445770 0.778062 0.399622
O O14 0.000000 0.002216 0.750000
O O15 0.309246 0.960678 0.197597
#
# Coordination Sequence:
#
# PCOD8118865 Si02
#       7
#     4   4   4   4   4   4   4
#     4  10  23  40  54  77 109 144 189 226 260 323
#     4   9  17  33  55  81 110 137 172 222 273 321
#     4  10  20  37  58  79 110 149 179 218 273 316
#     4  10  20  36  56  80 111 142 180 225 270 323
#     4   9  18  34  55  77 108 143 175 220 273 321
#     4   9  19  36  57  84 113 139 177 221 267 326
#     4   9  18  32  53  82 108 135 176 221 272 326
#
# _framework density 20.120163000000002
#
# number of rings (size 3 to 8) (size 9 to 14) (size 15 to 20)
#    0.000    2.571    0.000    1.286    0.000    2.286 
#    0.000   25.000    0.000    0.000    0.000    0.000 
#    0.000    0.000    0.000    0.000    0.000    0.000 
#
# Total GULP energy -346962.026657 kJ/mol
# GULP energy per Si atom -12391.500952 kJ/mol
# Density = 2.007437 g / cm^3
# Si number density = 20.120163 Si / 1000 Ang^3
#
#
#
# Elastic Constant Matrix: (Units=GPa)
#
#
# Indices 1 2 3 4 5 6 
#
# 1 56.2533 49.1536 25.4395 0.0000 2.9489 0.0000
# 2 49.1536 156.0140 46.9138 0.0000 11.9536 0.0000
# 3 25.4395 46.9138 90.7169 0.0000 9.7386 0.0000
# 4 0.0000 0.0000 0.0000 22.7263 0.0000 6.8326
# 5 2.9489 11.9536 9.7386 0.0000 28.3841 0.0000
# 6 0.0000 0.0000 0.0000 6.8326 0.0000 17.9022
#
#
#
# Elastic Compliance Matrix: (Units=1/GPa)
#
#
# Indices 1 2 3 4 5 6 
#
# 1 0.025523 -0.007056 -0.003678 0.000000 0.001582 0.000000
# 2 -0.007056 0.009643 -0.002752 0.000000 -0.002384 0.000000
# 3 -0.003678 -0.002752 0.013822 0.000000 -0.003201 0.000000
# 4 0.000000 0.000000 0.000000 0.049705 0.000000 -0.018971
# 5 0.001582 -0.002384 -0.003201 0.000000 0.037169 0.000000
# 6 0.000000 0.000000 0.000000 -0.018971 0.000000 0.063099
#
#
# Mechanical properties :
#
#
# Convention : Reuss Voigt Hill
#
# Bulk Modulus (GPa) = 45.42458 60.66643 53.04551
# Shear Modulus (GPa) = 21.43416 25.90101 23.66759
#
# Velocity S-wave (km/s) = 3.26745 3.59181 3.43346
# Velocity P-wave (km/s) = 6.07129 6.88615 6.49152
#
# Compressibility (1/GPa) = 0.02201451
#
# Stress axis : x y z
#
# Youngs Moduli (GPa) = 39.18040 103.70102 72.35054
#
# Poissons Ratio (x) = 0.73176 0.26610
# Poissons Ratio (y) = 0.27648 0.19912
# Poissons Ratio (z) = 0.14410 0.28540
#
# Static dielectric constant tensor:
#      x y z
#    x 3.423120 0.000000 0.117740 
#    y 0.000000 3.867420 0.000000 
#    z 0.117740 0.000000 3.734010 
# 
# 
# High freq. dielectric constant tensor:
#      x y z
#    x 1.763160 0.000000 0.012340 
#    y 0.000000 1.786180 0.000000 
#    z 0.012340 0.000000 1.791810 
# 
# From -- ./inp_files/70730.got.cif
#   From: 2010.06.25/outbox.cif.g09.slc.cpg/sg13_36_cif.got.tgz:70730.got - 2010.06.28 04:50:58.
