data_PCOD8118544
_publ_section_title
;
Structure prediction by ZEFSAII (Michael W. Deem and Ramdas Pophale) SiO2 
 PCOD8118544
Probable space group: P 2/C
;
_chemical_formula_sum "Si O2"
_cell_formula_units_Z 28
_cell_length_a 20.823440
_cell_length_b 14.397005
_cell_length_c 9.018487
_cell_angle_alpha 90.000000
_cell_angle_beta 150.018899
_cell_angle_gamma 90.000000
_cell_volume 1351.077013
_symmetry_space_group_name_H-M "P 2/C"
_symmetry_group_IT_number 13
_symmetry_cell_setting 'monoclinic'
loop_
_space_group_symop_operation_xyz
x,y,z
-x,y,1/2-z
-x,-y,-z
x,-y,1/2+z
loop_
_atom_site_type_symbol
_atom_site_label
_atom_site_fract_x
_atom_site_fract_y
_atom_site_fract_z
Si Si1 0.351949 0.902363 0.279596
Si Si2 0.999992 0.601905 0.424684
Si Si3 0.355250 0.417437 0.799265
Si Si4 0.239159 0.267755 0.402907
Si Si5 0.239186 0.732228 0.553808
Si Si6 0.644752 0.582541 0.878242
Si Si7 0.648040 0.097646 0.371766
O O1 0.325920 0.909748 0.401849
O O2 0.499992 0.872207 0.544257
O O3 0.323112 0.000010 0.146246
O O4 0.247980 0.831878 0.000215
O O5 0.000000 0.584844 0.250000
O O6 0.000000 0.500000 0.500000
O O7 0.119260 0.667522 0.711226
O O8 0.880697 0.667496 0.234094
O O9 0.359408 0.324835 0.708288
O O10 0.281297 0.499981 0.562588
O O11 0.288434 0.402261 0.826884
O O12 0.499998 0.449451 0.117406
O O13 0.246827 0.251893 0.243665
O O14 0.359435 0.675129 0.729465
O O15 0.248007 0.831853 0.491760
#
# Coordination Sequence:
#
# PCOD8118544 Si02
#       7
#     4   4   4   4   4   4   4
#     4  10  21  38  61  90 121 151 186 231 285 344
#     4  10  24  42  59  82 113 152 197 244 288 334
#     4  10  20  33  50  76 109 142 179 226 281 341
#     4  11  22  37  57  81 111 148 191 236 284 338
#     4  11  22  37  57  81 111 148 191 236 284 338
#     4  10  20  33  50  76 109 142 179 226 281 341
#     4  10  21  38  61  90 121 151 186 231 285 344
#
# _framework density 20.724208999999998
#
# number of rings (size 3 to 8) (size 9 to 14) (size 15 to 20)
#    0.000    1.714    0.000    4.286    0.000   11.429 
#    0.000    0.714    0.000    0.000    0.000    0.000 
#    0.000    0.000    0.000    0.000    0.000    0.000 
#
# Total GULP energy -346935.703260 kJ/mol
# GULP energy per Si atom -12390.560831 kJ/mol
# Density = 2.067704 g / cm^3
# Si number density = 20.724209 Si / 1000 Ang^3
#
#
#
# Elastic Constant Matrix: (Units=GPa)
#
#
# Indices 1 2 3 4 5 6 
#
# 1 116.9309 83.1452 55.1258 0.0000 -23.6609 0.0000
# 2 83.1452 183.1835 67.1482 0.0000 -14.4173 0.0000
# 3 55.1258 67.1482 75.1900 0.0000 -14.0151 0.0000
# 4 0.0000 0.0000 0.0000 36.0188 0.0000 -6.6713
# 5 -23.6609 -14.4173 -14.0151 0.0000 26.4980 0.0000
# 6 0.0000 0.0000 0.0000 -6.6713 0.0000 43.4039
#
#
#
# Elastic Compliance Matrix: (Units=1/GPa)
#
#
# Indices 1 2 3 4 5 6 
#
# 1 0.016599 -0.004431 -0.006545 0.000000 0.008949 0.000000
# 2 -0.004431 0.009308 -0.005389 0.000000 -0.001742 0.000000
# 3 -0.006545 -0.005389 0.023602 0.000000 0.003707 0.000000
# 4 0.000000 0.000000 0.000000 0.028577 0.000000 0.004392
# 5 0.008949 -0.001742 0.003707 0.000000 0.046743 0.000000
# 6 0.000000 0.000000 0.000000 0.004392 0.000000 0.023715
#
#
# Mechanical properties :
#
#
# Convention : Reuss Voigt Hill
#
# Bulk Modulus (GPa) = 59.59475 87.34918 73.47197
# Shear Modulus (GPa) = 26.75726 32.50982 29.63354
#
# Velocity S-wave (km/s) = 3.59710 3.96496 3.78550
# Velocity P-wave (km/s) = 6.78754 7.94991 7.39161
#
# Compressibility (1/GPa) = 0.01678000
#
# Stress axis : x y z
#
# Youngs Moduli (GPa) = 60.24527 107.42948 42.37004
#
# Poissons Ratio (x) = 0.47599 0.27729
# Poissons Ratio (y) = 0.26693 0.22834
# Poissons Ratio (z) = 0.39428 0.57896
#
# Static dielectric constant tensor:
#      x y z
#    x 3.966470 0.000000 -0.208510 
#    y 0.000000 3.808520 0.000000 
#    z -0.208510 0.000000 3.735550 
# 
# 
# High freq. dielectric constant tensor:
#      x y z
#    x 1.817060 0.000000 -0.020740 
#    y 0.000000 1.818170 0.000000 
#    z -0.020740 0.000000 1.794070 
# 
# From -- ./inp_files/23628.got.cif
#   From: 2010.06.25/outbox.cif.g09.slc.cpg/sg13_12_cif.got.tgz:23628.got - 2010.06.28 04:50:58.
