data_PCOD8118051
_publ_section_title
;
Structure prediction by ZEFSAII (Michael W. Deem and Ramdas Pophale) SiO2 
 PCOD8118051
Probable space group: P 2/C
;
_chemical_formula_sum "Si O2"
_cell_formula_units_Z 24
_cell_length_a 25.411603
_cell_length_b 9.290289
_cell_length_c 12.509178
_cell_angle_alpha 90.000000
_cell_angle_beta 25.769139
_cell_angle_gamma 90.000000
_cell_volume 1283.883904
_symmetry_space_group_name_H-M "P 2/C"
_symmetry_group_IT_number 13
_symmetry_cell_setting 'monoclinic'
loop_
_space_group_symop_operation_xyz
x,y,z
-x,y,1/2-z
-x,-y,-z
x,-y,1/2+z
loop_
_atom_site_type_symbol
_atom_site_label
_atom_site_fract_x
_atom_site_fract_y
_atom_site_fract_z
Si Si1 0.609822 0.175962 0.967197
Si Si2 0.618881 0.853421 0.961139
Si Si3 0.949086 0.625031 0.668428
Si Si4 0.238236 0.672267 0.654276
Si Si5 0.528338 0.658722 0.410875
Si Si6 0.828145 0.376975 0.610969
O O1 0.572929 0.245258 0.924971
O O2 0.720375 0.263659 0.815725
O O3 0.649902 0.013567 0.863872
O O4 0.500000 0.181754 0.250000
O O5 0.739495 0.801339 0.802958
O O6 0.500000 0.865615 0.250000
O O7 0.590511 0.738455 0.919221
O O8 0.864803 0.721353 0.743470
O O9 0.000000 0.500000 0.500000
O O10 0.064103 0.699282 0.516274
O O11 0.863261 0.579279 0.924992
O O12 0.367481 0.641950 0.366131
O O13 0.203054 0.527395 0.778338
O O14 0.500000 0.500000 0.500000
#
# Coordination Sequence:
#
# PCOD8118051 Si02
#       6
#     4   4   4   4   4   4
#     4  11  21  36  54  83 119 152 185 225 288 343
#     4   9  21  35  52  79 119 155 182 225 280 346
#     4   9  19  35  60  83 112 146 190 240 285 322
#     4  10  19  36  56  82 113 144 190 236 283 325
#     4  11  20  33  56  84 114 149 190 232 277 334
#     4  10  19  35  60  87 110 145 194 234 281 336
#
# _framework density 18.693280999999999
#
# number of rings (size 3 to 8) (size 9 to 14) (size 15 to 20)
#    0.000    2.000    1.667    2.500    0.000    1.333 
#    0.000    0.833    0.000    8.000    0.000    0.000 
#    0.000    0.000    0.000    0.000    0.000    0.000 
#
# Total GULP energy -297329.189960 kJ/mol
# GULP energy per Si atom -12388.716248 kJ/mol
# Density = 1.865073 g / cm^3
# Si number density = 18.693281 Si / 1000 Ang^3
#
#
#
# Elastic Constant Matrix: (Units=GPa)
#
#
# Indices 1 2 3 4 5 6 
#
# 1 162.0341 72.4869 40.4930 0.0000 -26.6744 0.0000
# 2 72.4869 125.7558 34.9124 0.0000 -1.5227 0.0000
# 3 40.4930 34.9124 75.4865 0.0000 -7.0868 0.0000
# 4 0.0000 0.0000 0.0000 18.3206 0.0000 6.1411
# 5 -26.6744 -1.5227 -7.0868 0.0000 24.2648 0.0000
# 6 0.0000 0.0000 0.0000 6.1411 0.0000 21.5948
#
#
#
# Elastic Compliance Matrix: (Units=1/GPa)
#
#
# Indices 1 2 3 4 5 6 
#
# 1 0.011105 -0.005626 -0.002305 0.000000 0.011181 0.000000
# 2 -0.005626 0.011984 -0.003120 0.000000 -0.006344 0.000000
# 3 -0.002305 -0.003120 0.016113 0.000000 0.001976 0.000000
# 4 0.000000 0.000000 0.000000 0.060335 0.000000 -0.017158
# 5 0.011181 -0.006344 0.001976 0.000000 0.053683 0.000000
# 6 0.000000 0.000000 0.000000 -0.017158 0.000000 0.051187
#
#
# Mechanical properties :
#
#
# Convention : Reuss Voigt Hill
#
# Bulk Modulus (GPa) = 58.48336 73.22899 65.85618
# Shear Modulus (GPa) = 21.53233 27.19497 24.36365
#
# Velocity S-wave (km/s) = 3.39761 3.81832 3.61409
# Velocity P-wave (km/s) = 6.83706 7.66149 7.26099
#
# Compressibility (1/GPa) = 0.01709888
#
# Stress axis : x y z
#
# Youngs Moduli (GPa) = 90.04904 83.44410 62.06251
#
# Poissons Ratio (x) = 0.46943 0.14308
# Poissons Ratio (y) = 0.50658 0.19366
# Poissons Ratio (z) = 0.20761 0.26038
#
# Static dielectric constant tensor:
#      x y z
#    x 3.969160 0.000000 -0.374360 
#    y 0.000000 3.533920 0.000000 
#    z -0.374360 0.000000 2.754700 
# 
# 
# High freq. dielectric constant tensor:
#      x y z
#    x 1.754610 0.000000 -0.003630 
#    y 0.000000 1.699830 0.000000 
#    z -0.003630 0.000000 1.717650 
# 
# From -- ./inp_files/41553.got.cif
#   From: 2010.06.25/outbox.cif.g09.slc.cpg/sg13_21_cif.got.tgz:41553.got - 2010.06.28 04:50:58.
