data_PCOD8118802
_publ_section_title
;
Structure prediction by ZEFSAII (Michael W. Deem and Ramdas Pophale) SiO2 
 PCOD8118802
Probable space group: P 2/C
;
_chemical_formula_sum "Si O2"
_cell_formula_units_Z 24
_cell_length_a 10.963711
_cell_length_b 6.518743
_cell_length_c 20.533329
_cell_angle_alpha 90.000000
_cell_angle_beta 52.563471
_cell_angle_gamma 90.000000
_cell_volume 1165.242183
_symmetry_space_group_name_H-M "P 2/C"
_symmetry_group_IT_number 13
_symmetry_cell_setting 'monoclinic'
loop_
_space_group_symop_operation_xyz
x,y,z
-x,y,1/2-z
-x,-y,-z
x,-y,1/2+z
loop_
_atom_site_type_symbol
_atom_site_label
_atom_site_fract_x
_atom_site_fract_y
_atom_site_fract_z
Si Si1 0.431685 0.044953 0.622033
Si Si2 0.411961 0.701080 0.002435
Si Si3 0.375827 0.696959 0.341890
Si Si4 0.186070 0.025590 0.811176
Si Si5 0.856114 0.643902 0.597488
Si Si6 0.925315 0.295707 0.937330
O O1 0.389860 0.137259 0.566753
O O2 0.554874 0.195042 0.616698
O O3 0.499160 0.815126 0.586691
O O4 0.274361 0.040742 0.714277
O O5 0.239939 0.647844 0.037508
O O6 0.500000 0.500000 0.000000
O O7 0.500000 0.620543 0.250000
O O8 0.279693 0.494146 0.390148
O O9 0.269966 0.862553 0.342477
O O10 0.194416 0.788198 0.827338
O O11 0.013399 0.122044 0.865197
O O12 0.918398 0.775558 0.515737
O O13 0.983501 0.508572 0.592053
#
# Coordination Sequence:
#
# PCOD8118802 Si02
#       6
#     4   4   4   4   4   4
#     4  10  23  40  59  86 119 156 200 246 296 356
#     4  11  24  41  61  83 116 162 204 244 294 358
#     4   9  19  35  58  89 119 150 196 247 295 351
#     4  10  21  38  60  87 118 152 190 246 306 351
#     4  10  20  35  60  89 118 154 195 245 302 354
#     4  10  22  37  57  87 119 151 198 247 293 354
#
# _framework density 20.596575999999999
#
# number of rings (size 3 to 8) (size 9 to 14) (size 15 to 20)
#    0.000    2.000    0.000    2.500    0.000   13.333 
#    0.000    0.000    0.000    0.000    0.000    0.000 
#    0.000    0.000    0.000    0.000    0.000    0.000 
#
# Total GULP energy -297440.463314 kJ/mol
# GULP energy per Si atom -12393.352638 kJ/mol
# Density = 2.054970 g / cm^3
# Si number density = 20.596576 Si / 1000 Ang^3
#
#
#
# Elastic Constant Matrix: (Units=GPa)
#
#
# Indices 1 2 3 4 5 6 
#
# 1 96.8960 57.0891 32.2648 0.0000 -17.2242 0.0000
# 2 57.0891 99.9535 63.7144 0.0000 -15.7150 0.0000
# 3 32.2648 63.7144 115.1908 0.0000 -11.2256 0.0000
# 4 0.0000 0.0000 0.0000 28.4706 0.0000 4.5836
# 5 -17.2242 -15.7150 -11.2256 0.0000 29.4416 0.0000
# 6 0.0000 0.0000 0.0000 4.5836 0.0000 15.4222
#
#
#
# Elastic Compliance Matrix: (Units=1/GPa)
#
#
# Indices 1 2 3 4 5 6 
#
# 1 0.016261 -0.009124 0.000981 0.000000 0.005017 0.000000
# 2 -0.009124 0.021373 -0.009010 0.000000 0.002635 0.000000
# 3 0.000981 -0.009010 0.013478 0.000000 0.000904 0.000000
# 4 0.000000 0.000000 0.000000 0.036889 0.000000 -0.010964
# 5 0.005017 0.002635 0.000904 0.000000 0.038652 0.000000
# 6 0.000000 0.000000 0.000000 -0.010964 0.000000 0.068100
#
#
# Mechanical properties :
#
#
# Convention : Reuss Voigt Hill
#
# Bulk Modulus (GPa) = 59.49909 68.68633 64.09271
# Shear Modulus (GPa) = 21.30722 25.26501 23.28612
#
# Velocity S-wave (km/s) = 3.21986 3.50617 3.36606
# Velocity P-wave (km/s) = 6.54017 7.05775 6.80388
#
# Compressibility (1/GPa) = 0.01680698
#
# Stress axis : x y z
#
# Youngs Moduli (GPa) = 61.49534 46.78703 74.19539
#
# Poissons Ratio (x) = 0.42690 -0.07278
# Poissons Ratio (y) = 0.56110 0.66847
# Poissons Ratio (z) = -0.06033 0.42153
#
# Static dielectric constant tensor:
#      x y z
#    x 3.801230 0.000000 -0.374360 
#    y 0.000000 3.787080 0.000000 
#    z -0.374360 0.000000 4.036710 
# 
# 
# High freq. dielectric constant tensor:
#      x y z
#    x 1.799450 0.000000 -0.011150 
#    y 0.000000 1.805190 0.000000 
#    z -0.011150 0.000000 1.811420 
# 
# From -- ./inp_files/77155.got.cif
#   From: 2010.06.25/outbox.cif.g09.slc.cpg/sg13_39_cif.got.tgz:77155.got - 2010.06.28 04:50:58.
