data_PCOD8118446
_publ_section_title
;
Structure prediction by ZEFSAII (Michael W. Deem and Ramdas Pophale) SiO2 
 PCOD8118446
Probable space group: P 2/C
;
_chemical_formula_sum "Si O2"
_cell_formula_units_Z 28
_cell_length_a 14.707705
_cell_length_b 10.722844
_cell_length_c 9.220941
_cell_angle_alpha 90.000000
_cell_angle_beta 67.082764
_cell_angle_gamma 90.000000
_cell_volume 1339.436038
_symmetry_space_group_name_H-M "P 2/C"
_symmetry_group_IT_number 13
_symmetry_cell_setting 'monoclinic'
loop_
_space_group_symop_operation_xyz
x,y,z
-x,y,1/2-z
-x,-y,-z
x,-y,1/2+z
loop_
_atom_site_type_symbol
_atom_site_label
_atom_site_fract_x
_atom_site_fract_y
_atom_site_fract_z
Si Si1 0.111408 0.871816 0.917045
Si Si2 0.813225 0.439404 0.439805
Si Si3 0.242663 0.099235 0.855223
Si Si4 0.827508 0.343803 0.731257
Si Si5 0.278203 0.224540 0.132527
Si Si6 0.000000 0.733902 0.750000
Si Si7 0.000000 0.781682 0.250000
Si Si8 0.432315 0.063180 0.158948
O O1 0.206374 0.787805 0.816856
O O2 0.021088 0.829218 0.869987
O O3 0.145792 0.016159 0.876840
O O4 0.079646 0.858708 0.105490
O O5 0.812224 0.445060 0.613924
O O6 0.805303 0.582131 0.393590
O O7 0.719465 0.365288 0.430719
O O8 0.908223 0.357175 0.335297
O O9 0.240485 0.222650 0.754924
O O10 0.344293 0.028703 0.760236
O O11 0.238415 0.133936 0.027928
O O12 0.941665 0.303572 0.670490
O O13 0.387841 0.188066 0.114384
O O14 0.500000 0.103916 0.250000
O O15 0.500000 0.000000 0.000000
#
# Coordination Sequence:
#
# PCOD8118446 Si02
#       8
#     4   4   4   4   4   2   2   4
#     4  10  23  38  59  86 126 166 210 261 319 371
#     4  10  22  41  59  84 121 170 220 261 300 356
#     4  10  23  43  60  93 132 159 204 258 329 385
#     4  11  25  40  61  87 123 174 217 264 308 358
#     4   9  21  41  61  89 127 161 203 260 315 382
#     4  10  19  41  60  82 122 168 214 272 298 358
#     4  12  25  37  58  94 120 176 224 264 312 366
#     4  11  21  39  71  99 121 159 194 253 329 403
#
# _framework density 20.904320999999999
#
# number of rings (size 3 to 8) (size 9 to 14) (size 15 to 20)
#    0.000    1.714    2.857    0.429    8.000    2.286 
#    0.000    0.000    0.000    1.714    0.000    0.000 
#    0.000    0.000    0.000    0.000    0.000    0.000 
#
# Total GULP energy -347009.476556 kJ/mol
# GULP energy per Si atom -12393.195591 kJ/mol
# Density = 2.085674 g / cm^3
# Si number density = 20.904321 Si / 1000 Ang^3
#
#
#
# Elastic Constant Matrix: (Units=GPa)
#
#
# Indices 1 2 3 4 5 6 
#
# 1 112.2956 43.9257 21.5504 0.0000 20.0342 0.0000
# 2 43.9257 92.5421 20.1236 0.0000 10.5128 0.0000
# 3 21.5504 20.1236 82.9461 0.0000 1.9376 0.0000
# 4 0.0000 0.0000 0.0000 29.8640 0.0000 6.6502
# 5 20.0342 10.5128 1.9376 0.0000 31.3519 0.0000
# 6 0.0000 0.0000 0.0000 6.6502 0.0000 18.1164
#
#
#
# Elastic Compliance Matrix: (Units=1/GPa)
#
#
# Indices 1 2 3 4 5 6 
#
# 1 0.012187 -0.004681 -0.001888 0.000000 -0.006101 0.000000
# 2 -0.004681 0.013641 -0.002059 0.000000 -0.001456 0.000000
# 3 -0.001888 -0.002059 0.013021 0.000000 0.001092 0.000000
# 4 0.000000 0.000000 0.000000 0.036466 0.000000 -0.013386
# 5 -0.006101 -0.001456 0.001092 0.000000 0.036215 0.000000
# 6 0.000000 0.000000 0.000000 -0.013386 0.000000 0.060112
#
#
# Mechanical properties :
#
#
# Convention : Reuss Voigt Hill
#
# Bulk Modulus (GPa) = 46.31384 50.99813 48.65598
# Shear Modulus (GPa) = 25.49774 29.34541 27.42158
#
# Velocity S-wave (km/s) = 3.49626 3.75079 3.62576
# Velocity P-wave (km/s) = 6.20497 6.57319 6.39173
#
# Compressibility (1/GPa) = 0.02159182
#
# Stress axis : x y z
#
# Youngs Moduli (GPa) = 82.05524 73.30915 76.80101
#
# Poissons Ratio (x) = 0.34315 0.14501
# Poissons Ratio (y) = 0.38409 0.15815
# Poissons Ratio (z) = 0.15493 0.15096
#
# Static dielectric constant tensor:
#      x y z
#    x 3.778860 0.000000 0.218470 
#    y 0.000000 3.766790 0.000000 
#    z 0.218470 0.000000 3.832790 
# 
# 
# High freq. dielectric constant tensor:
#      x y z
#    x 1.801090 0.000000 0.025460 
#    y 0.000000 1.806580 0.000000 
#    z 0.025460 0.000000 1.821840 
# 
# From -- ./inp_files/18785.got.cif
#   From: 2010.06.25/outbox.cif.g09.slc.cpg/sg13_10_cif.got.tgz:18785.got - 2010.06.28 04:50:58.
