data_PCOD8118140
_publ_section_title
;
Structure prediction by ZEFSAII (Michael W. Deem and Ramdas Pophale) SiO2 
 PCOD8118140
Probable space group: P 2/C
;
_chemical_formula_sum "Si O2"
_cell_formula_units_Z 26
_cell_length_a 17.494559
_cell_length_b 9.668409
_cell_length_c 17.390421
_cell_angle_alpha 90.000000
_cell_angle_beta 152.052540
_cell_angle_gamma 90.000000
_cell_volume 1378.566048
_symmetry_space_group_name_H-M "P 2/C"
_symmetry_group_IT_number 13
_symmetry_cell_setting 'monoclinic'
loop_
_space_group_symop_operation_xyz
x,y,z
-x,y,1/2-z
-x,-y,-z
x,-y,1/2+z
loop_
_atom_site_type_symbol
_atom_site_label
_atom_site_fract_x
_atom_site_fract_y
_atom_site_fract_z
Si Si1 0.500000 0.974201 0.250000
Si Si2 0.003712 0.154285 0.842461
Si Si3 0.161338 0.358831 0.090725
Si Si4 0.715985 0.877964 0.193290
Si Si5 0.852562 0.882242 0.556164
Si Si6 0.598538 0.880783 0.682294
Si Si7 0.125369 0.667059 0.055122
O O1 0.661307 0.879382 0.412428
O O2 0.475292 0.069350 0.302620
O O3 0.000000 0.188748 0.750000
O O4 0.832301 0.099957 0.723240
O O5 0.132747 0.030551 0.974976
O O6 0.052725 0.296522 0.925876
O O7 0.324750 0.270424 0.241271
O O8 0.204866 0.517135 0.109706
O O9 0.059891 0.350681 0.079960
O O10 0.762872 0.742791 0.283250
O O11 0.726848 0.008374 0.261182
O O12 0.536348 0.857664 0.002420
O O13 0.884841 0.750073 0.532984
O O14 0.000000 0.884345 0.750000
#
# Coordination Sequence:
#
# PCOD8118140 Si02
#       7
#     2   4   4   4   4   4   4
#     4  12  22  38  62  94 126 152 206 266 286 366
#     4  10  19  36  59  89 113 154 200 251 300 358
#     4  10  21  36  62  81 118 158 195 249 299 360
#     4  10  21  36  62  86 118 155 204 245 306 358
#     4  11  22  38  64  88 121 159 197 252 307 349
#     4  11  21  36  59  90 118 159 200 253 301 348
#     4  10  21  41  56  85 119 156 201 244 297 370
#
# _framework density 18.860177
#
# number of rings (size 3 to 8) (size 9 to 14) (size 15 to 20)
#    0.000    1.538    3.077    2.769    0.000    4.923 
#    0.000    0.769    0.000    0.000    0.000    0.000 
#    0.000    0.000    0.000    0.000    0.000    0.000 
#
# Total GULP energy -322296.988683 kJ/mol
# GULP energy per Si atom -12396.038026 kJ/mol
# Density = 1.881725 g / cm^3
# Si number density = 18.860177 Si / 1000 Ang^3
#
#
#
# Elastic Constant Matrix: (Units=GPa)
#
#
# Indices 1 2 3 4 5 6 
#
# 1 109.7583 53.0079 35.1905 0.0000 -1.5698 0.0000
# 2 53.0079 136.2888 36.3785 0.0000 -2.9339 0.0000
# 3 35.1905 36.3785 95.9263 0.0000 3.8175 0.0000
# 4 0.0000 0.0000 0.0000 21.6566 0.0000 4.7278
# 5 -1.5698 -2.9339 3.8175 0.0000 24.8499 0.0000
# 6 0.0000 0.0000 0.0000 4.7278 0.0000 27.4532
#
#
#
# Elastic Compliance Matrix: (Units=1/GPa)
#
#
# Indices 1 2 3 4 5 6 
#
# 1 0.011918 -0.003832 -0.002949 0.000000 0.000753 0.000000
# 2 -0.003832 0.009448 -0.002226 0.000000 0.001215 0.000000
# 3 -0.002949 -0.002226 0.012444 0.000000 -0.002361 0.000000
# 4 0.000000 0.000000 0.000000 0.047979 0.000000 -0.008263
# 5 0.000753 0.001215 -0.002361 0.000000 0.040795 0.000000
# 6 0.000000 0.000000 0.000000 -0.008263 0.000000 0.037849
#
#
# Mechanical properties :
#
#
# Convention : Reuss Voigt Hill
#
# Bulk Modulus (GPa) = 63.30142 65.68080 64.49111
# Shear Modulus (GPa) = 27.21655 29.28504 28.25080
#
# Velocity S-wave (km/s) = 3.80290 3.94476 3.87448
# Velocity P-wave (km/s) = 7.27455 7.45982 7.36777
#
# Compressibility (1/GPa) = 0.01579743
#
# Stress axis : x y z
#
# Youngs Moduli (GPa) = 83.90812 105.84273 80.35734
#
# Poissons Ratio (x) = 0.40559 0.23696
# Poissons Ratio (y) = 0.32153 0.17884
# Poissons Ratio (z) = 0.24743 0.23556
#
# Static dielectric constant tensor:
#      x y z
#    x 3.540880 0.000000 0.083220 
#    y 0.000000 3.464830 0.000000 
#    z 0.083220 0.000000 3.473730 
# 
# 
# High freq. dielectric constant tensor:
#      x y z
#    x 1.736470 0.000000 -0.002130 
#    y 0.000000 1.719800 0.000000 
#    z -0.002130 0.000000 1.739340 
# 
# From -- ./inp_files/69555.got.cif
#   From: 2010.06.25/outbox.cif.g09.slc.cpg/sg13_35_cif.got.tgz:69555.got - 2010.06.28 04:50:58.
