data_PCOD8118703
_publ_section_title
;
Structure prediction by ZEFSAII (Michael W. Deem and Ramdas Pophale) SiO2 
 PCOD8118703
Probable space group: P 2/C
;
_chemical_formula_sum "Si O2"
_cell_formula_units_Z 30
_cell_length_a 12.091619
_cell_length_b 14.387774
_cell_length_c 17.606042
_cell_angle_alpha 90.000000
_cell_angle_beta 150.568308
_cell_angle_gamma 90.000000
_cell_volume 1505.089052
_symmetry_space_group_name_H-M "P 2/C"
_symmetry_group_IT_number 13
_symmetry_cell_setting 'monoclinic'
loop_
_space_group_symop_operation_xyz
x,y,z
-x,y,1/2-z
-x,-y,-z
x,-y,1/2+z
loop_
_atom_site_type_symbol
_atom_site_label
_atom_site_fract_x
_atom_site_fract_y
_atom_site_fract_z
Si Si1 0.336368 0.936506 0.492850
Si Si2 0.472636 0.125769 0.911814
Si Si3 0.296640 0.588253 0.076882
Si Si4 0.180853 0.327365 0.185601
Si Si5 0.206356 0.881744 0.674754
Si Si6 0.500000 0.589162 0.750000
Si Si7 0.257754 0.310963 0.399240
Si Si8 0.024966 0.930003 0.112629
O O1 0.352875 0.913234 0.415245
O O2 0.527217 0.880779 0.652752
O O3 0.093847 0.905182 0.378791
O O4 0.358594 0.048316 0.519704
O O5 0.246277 0.132619 0.724768
O O6 0.588203 0.222963 0.992568
O O7 0.500000 0.633725 0.250000
O O8 0.323995 0.476307 0.098366
O O9 0.318425 0.614632 0.000807
O O10 0.052016 0.615875 0.963528
O O11 0.112091 0.219114 0.141863
O O12 0.357706 0.349104 0.224234
O O13 0.296519 0.350682 0.337033
O O14 0.161637 0.908006 0.561430
O O15 0.089833 0.960716 0.656512
O O16 0.000000 0.279040 0.250000
#
# Coordination Sequence:
#
# PCOD8118703 Si02
#       8
#     4   4   4   4   4   2   4   4
#     4  10  20  35  53  77 124 162 201 248 298 350
#     4  10  21  34  54  85 113 160 207 246 300 343
#     4   9  23  43  65  95 119 156 202 260 324 383
#     4  11  22  41  68  93 125 161 210 253 317 391
#     4  10  22  37  53  90 115 164 210 240 297 357
#     4  10  24  42  70  92 126 158 198 264 334 388
#     4  10  22  39  64  93 123 158 209 260 307 381
#     4  10  22  35  53  79 127 165 201 253 286 350
#
# _framework density 19.932375
#
# number of rings (size 3 to 8) (size 9 to 14) (size 15 to 20)
#    0.400    1.600    1.333    1.200    7.467    0.533 
#    0.000    0.000    0.000    0.000    0.000    0.000 
#    0.000    0.000    0.000    0.000    0.000    0.000 
#
# Total GULP energy -371744.695957 kJ/mol
# GULP energy per Si atom -12391.489865 kJ/mol
# Density = 1.988701 g / cm^3
# Si number density = 19.932375 Si / 1000 Ang^3
#
#
#
# Elastic Constant Matrix: (Units=GPa)
#
#
# Indices 1 2 3 4 5 6 
#
# 1 100.0763 20.5825 28.5378 0.0000 2.8509 0.0000
# 2 20.5825 67.2945 27.2535 0.0000 -2.5579 0.0000
# 3 28.5378 27.2535 72.8514 0.0000 -2.5457 0.0000
# 4 0.0000 0.0000 0.0000 26.7186 0.0000 -2.1676
# 5 2.8509 -2.5579 -2.5457 0.0000 22.1270 0.0000
# 6 0.0000 0.0000 0.0000 -2.1676 0.0000 17.5104
#
#
#
# Elastic Compliance Matrix: (Units=1/GPa)
#
#
# Indices 1 2 3 4 5 6 
#
# 1 0.011574 -0.002069 -0.003835 0.000000 -0.002172 0.000000
# 2 -0.002069 0.017919 -0.005835 0.000000 0.001667 0.000000
# 3 -0.003835 -0.005835 0.017476 0.000000 0.001830 0.000000
# 4 0.000000 0.000000 0.000000 0.037807 0.000000 0.004680
# 5 -0.002172 0.001667 0.001830 0.000000 0.045877 0.000000
# 6 0.000000 0.000000 0.000000 0.004680 0.000000 0.057688
#
#
# Mechanical properties :
#
#
# Convention : Reuss Voigt Hill
#
# Bulk Modulus (GPa) = 42.57158 43.66329 43.11743
# Shear Modulus (GPa) = 22.76360 24.19444 23.47902
#
# Velocity S-wave (km/s) = 3.38308 3.48778 3.43583
# Velocity P-wave (km/s) = 6.05513 6.17841 6.11708
#
# Compressibility (1/GPa) = 0.02348985
#
# Stress axis : x y z
#
# Youngs Moduli (GPa) = 86.40422 55.80587 57.22207
#
# Poissons Ratio (x) = 0.11547 0.21948
# Poissons Ratio (y) = 0.17877 0.33388
# Poissons Ratio (z) = 0.33140 0.32562
#
# Static dielectric constant tensor:
#      x y z
#    x 3.544110 0.000000 -0.146770 
#    y 0.000000 3.329150 0.000000 
#    z -0.146770 0.000000 3.846440 
# 
# 
# High freq. dielectric constant tensor:
#      x y z
#    x 1.777950 0.000000 -0.003610 
#    y 0.000000 1.746900 0.000000 
#    z -0.003610 0.000000 1.792300 
# 
# From -- ./inp_files/66865.got.cif
#   From: 2010.06.25/outbox.cif.g09.slc.cpg/sg13_34_cif.got.tgz:66865.got - 2010.06.28 04:50:58.
