data_PCOD8118682
_publ_section_title
;
Structure prediction by ZEFSAII (Michael W. Deem and Ramdas Pophale) SiO2 
 PCOD8118682
Probable space group: P 2/C
;
_chemical_formula_sum "Si O2"
_cell_formula_units_Z 30
_cell_length_a 11.866218
_cell_length_b 11.981817
_cell_length_c 16.702721
_cell_angle_alpha 90.000000
_cell_angle_beta 142.952651
_cell_angle_gamma 90.000000
_cell_volume 1430.741330
_symmetry_space_group_name_H-M "P 2/C"
_symmetry_group_IT_number 13
_symmetry_cell_setting 'monoclinic'
loop_
_space_group_symop_operation_xyz
x,y,z
-x,y,1/2-z
-x,-y,-z
x,-y,1/2+z
loop_
_atom_site_type_symbol
_atom_site_label
_atom_site_fract_x
_atom_site_fract_y
_atom_site_fract_z
Si Si1 0.121590 0.267041 0.244872
Si Si2 0.637901 0.208385 0.394550
Si Si3 0.770215 0.462515 0.293205
Si Si4 0.779325 0.000718 0.876626
Si Si5 0.969803 0.350585 0.555227
Si Si6 0.500000 0.588105 0.250000
Si Si7 0.599512 0.917079 0.617981
Si Si8 0.194467 0.234715 0.561945
O O1 0.258264 0.366462 0.289872
O O2 0.247263 0.159948 0.340603
O O3 0.000000 0.310502 0.250000
O O4 0.977291 0.228199 0.095906
O O5 0.500000 0.266848 0.250000
O O6 0.712207 0.099339 0.392949
O O7 0.804535 0.293879 0.513437
O O8 0.543324 0.171582 0.423437
O O9 0.880084 0.410094 0.428567
O O10 0.576746 0.513664 0.218994
O O11 0.903245 0.557521 0.327092
O O12 0.697048 0.991525 0.740977
O O13 0.704627 0.114649 0.875690
O O14 0.000000 0.000000 0.000000
O O15 0.110438 0.255573 0.602932
O O16 0.662049 0.666261 0.379721
O O17 0.500000 0.000000 0.500000
#
# Coordination Sequence:
#
# PCOD8118682 Si02
#       8
#     4   4   4   4   4   2   4   4
#     4  11  24  43  64  82 130 177 214 255 339 403
#     4  10  20  34  60  93 123 166 207 265 317 385
#     4   9  19  36  59  94 120 163 208 267 322 376
#     4  11  19  37  65  87 127 165 212 257 319 389
#     4   9  17  34  60  87 122 151 215 259 315 378
#     4  10  22  32  66 100 128 146 220 294 308 376
#     4  11  26  40  59  98 129 166 214 270 324 387
#     4  10  20  37  60  97 117 167 213 266 324 373
#
# _framework density 20.968150000000001
#
# number of rings (size 3 to 8) (size 9 to 14) (size 15 to 20)
#    0.000    1.867    2.667    3.200    7.467    0.000 
#    0.000    0.667    5.867    0.000    0.000    0.000 
#    0.000    0.000    0.000    0.000    0.000    0.000 
#
# Total GULP energy -371757.906212 kJ/mol
# GULP energy per Si atom -12391.930207 kJ/mol
# Density = 2.092043 g / cm^3
# Si number density = 20.968150 Si / 1000 Ang^3
#
#
#
# Elastic Constant Matrix: (Units=GPa)
#
#
# Indices 1 2 3 4 5 6 
#
# 1 103.3320 47.1828 36.2786 0.0000 15.9906 0.0000
# 2 47.1828 121.1209 47.2170 0.0000 8.7930 0.0000
# 3 36.2786 47.2170 73.1991 0.0000 14.9534 0.0000
# 4 0.0000 0.0000 0.0000 36.7222 0.0000 17.0391
# 5 15.9906 8.7930 14.9534 0.0000 28.3510 0.0000
# 6 0.0000 0.0000 0.0000 17.0391 0.0000 20.8771
#
#
#
# Elastic Compliance Matrix: (Units=1/GPa)
#
#
# Indices 1 2 3 4 5 6 
#
# 1 0.013149 -0.003492 -0.003329 0.000000 -0.004577 0.000000
# 2 -0.003492 0.011961 -0.006309 0.000000 0.001588 0.000000
# 3 -0.003329 -0.006309 0.020843 0.000000 -0.007159 0.000000
# 4 0.000000 0.000000 0.000000 0.043830 0.000000 -0.035772
# 5 -0.004577 0.001588 -0.007159 0.000000 0.041138 0.000000
# 6 0.000000 0.000000 0.000000 -0.035772 0.000000 0.077095
#
#
# Mechanical properties :
#
#
# Convention : Reuss Voigt Hill
#
# Bulk Modulus (GPa) = 50.77956 62.11206 56.44581
# Shear Modulus (GPa) = 20.76058 28.32163 24.54110
#
# Velocity S-wave (km/s) = 3.15000 3.67917 3.42482
# Velocity P-wave (km/s) = 6.12373 6.90904 6.52820
#
# Compressibility (1/GPa) = 0.01969296
#
# Stress axis : x y z
#
# Youngs Moduli (GPa) = 76.04936 83.60702 47.97681
#
# Poissons Ratio (x) = 0.29197 0.15973
# Poissons Ratio (y) = 0.26558 0.30268
# Poissons Ratio (z) = 0.25319 0.52746
#
# Static dielectric constant tensor:
#      x y z
#    x 3.559630 0.000000 0.008610 
#    y 0.000000 4.340090 0.000000 
#    z 0.008610 0.000000 3.105810 
# 
# 
# High freq. dielectric constant tensor:
#      x y z
#    x 1.805950 0.000000 0.041490 
#    y 0.000000 1.841750 0.000000 
#    z 0.041490 0.000000 1.786330 
# 
# From -- ./inp_files/66657.got.cif
#   From: 2010.06.25/outbox.cif.g09.slc.cpg/sg13_34_cif.got.tgz:66657.got - 2010.06.28 04:50:58.
