data_PCOD8118161
_publ_section_title
;
Structure prediction by ZEFSAII (Michael W. Deem and Ramdas Pophale) SiO2 
 PCOD8118161
Probable space group: P 2/C
;
_chemical_formula_sum "Si O2"
_cell_formula_units_Z 32
_cell_length_a 17.348485
_cell_length_b 6.080620
_cell_length_c 29.115207
_cell_angle_alpha 90.000000
_cell_angle_beta 151.069502
_cell_angle_gamma 90.000000
_cell_volume 1485.760360
_symmetry_space_group_name_H-M "P 2/C"
_symmetry_group_IT_number 13
_symmetry_cell_setting 'monoclinic'
loop_
_space_group_symop_operation_xyz
x,y,z
-x,y,1/2-z
-x,-y,-z
x,-y,1/2+z
loop_
_atom_site_type_symbol
_atom_site_label
_atom_site_fract_x
_atom_site_fract_y
_atom_site_fract_z
Si Si1 0.037922 0.033459 0.656831
Si Si2 0.296288 0.084087 0.854398
Si Si3 0.824135 0.927975 0.922879
Si Si4 0.951151 0.421706 0.551961
Si Si5 0.769634 0.286075 0.306711
Si Si6 0.536747 0.399574 0.631877
Si Si7 0.746670 0.195190 0.969095
Si Si8 0.463109 0.690006 0.516162
O O1 0.160149 0.861827 0.697315
O O2 0.852595 0.962722 0.557420
O O3 0.107455 0.051547 0.745030
O O4 0.050646 0.266076 0.638032
O O5 0.355735 0.258835 0.846873
O O6 0.388226 0.853251 0.898951
O O7 0.315502 0.175129 0.916594
O O8 0.716285 0.874544 0.821375
O O9 0.840151 0.702990 0.958581
O O10 0.743532 0.108594 0.914534
O O11 0.000000 0.000000 0.000000
O O12 0.084290 0.570506 0.596365
O O13 0.827795 0.568606 0.515867
O O14 0.631939 0.448721 0.217701
O O15 0.431257 0.220167 0.604280
O O16 0.425613 0.571374 0.545023
O O17 0.500000 0.500000 0.500000
#
# Coordination Sequence:
#
# PCOD8118161 Si02
#       8
#     4   4   4   4   4   4   4   4
#     4  10  19  36  62  93 110 164 219 257 300 393
#     4  10  19  37  67  92 118 160 216 258 309 394
#     4  11  20  36  62  85 117 159 222 261 303 370
#     4  10  19  36  61  84 114 161 209 263 310 366
#     4  11  20  34  63  87 112 162 217 261 302 386
#     4  11  22  39  61  92 131 163 206 266 334 375
#     4  10  24  37  59  90 129 166 201 270 328 369
#     4   9  20  35  62  95 122 155 203 263 322 383
#
# _framework density 21.537794999999999
#
# number of rings (size 3 to 8) (size 9 to 14) (size 15 to 20)
#    0.000    1.750    6.250    0.375    0.000    2.000 
#    0.000    0.625    2.750   18.000    0.000    0.000 
#    0.000    0.000    0.000    0.000    0.000    0.000 
#
# Total GULP energy -396418.775417 kJ/mol
# GULP energy per Si atom -12388.086732 kJ/mol
# Density = 2.148877 g / cm^3
# Si number density = 21.537795 Si / 1000 Ang^3
#
#
#
# Elastic Constant Matrix: (Units=GPa)
#
#
# Indices 1 2 3 4 5 6 
#
# 1 54.3654 16.9379 26.6590 0.0000 -5.5007 0.0000
# 2 16.9379 92.1530 25.2032 0.0000 -8.0155 0.0000
# 3 26.6590 25.2032 98.2362 0.0000 -20.8206 0.0000
# 4 0.0000 0.0000 0.0000 40.2916 0.0000 -7.3499
# 5 -5.5007 -8.0155 -20.8206 0.0000 25.2883 0.0000
# 6 0.0000 0.0000 0.0000 -7.3499 0.0000 30.9184
#
#
#
# Elastic Compliance Matrix: (Units=1/GPa)
#
#
# Indices 1 2 3 4 5 6 
#
# 1 0.021772 -0.002581 -0.005349 0.000000 -0.000487 0.000000
# 2 -0.002581 0.012023 -0.002054 0.000000 0.001558 0.000000
# 3 -0.005349 -0.002054 0.014262 0.000000 0.009928 0.000000
# 4 0.000000 0.000000 0.000000 0.025944 0.000000 0.006167
# 5 -0.000487 0.001558 0.009928 0.000000 0.048106 0.000000
# 6 0.000000 0.000000 0.000000 0.006167 0.000000 0.033809
#
#
# Mechanical properties :
#
#
# Convention : Reuss Voigt Hill
#
# Bulk Modulus (GPa) = 35.60107 42.48387 39.04247
# Shear Modulus (GPa) = 26.99074 31.02998 29.01036
#
# Velocity S-wave (km/s) = 3.54387 3.79980 3.67407
# Velocity P-wave (km/s) = 5.77155 6.24655 6.01374
#
# Compressibility (1/GPa) = 0.02808904
#
# Stress axis : x y z
#
# Youngs Moduli (GPa) = 45.93033 83.17251 70.11465
#
# Poissons Ratio (x) = 0.21467 0.37507
# Poissons Ratio (y) = 0.11855 0.14401
# Poissons Ratio (z) = 0.24570 0.17083
#
# Static dielectric constant tensor:
#      x y z
#    x 3.547130 0.000000 -0.485440 
#    y 0.000000 4.302330 0.000000 
#    z -0.485440 0.000000 4.020240 
# 
# 
# High freq. dielectric constant tensor:
#      x y z
#    x 1.795670 0.000000 -0.030470 
#    y 0.000000 1.871010 0.000000 
#    z -0.030470 0.000000 1.840700 
# 
# From -- ./inp_files/97256.got.cif
#   From: 2010.06.25/outbox.cif.g09.slc.cpg/sg13_49_cif.got.tgz:97256.got - 2010.06.28 04:50:58.
