data_PCOD8118532
_publ_section_title
;
Structure prediction by ZEFSAII (Michael W. Deem and Ramdas Pophale) SiO2 
 PCOD8118532
Probable space group: P 2/C
;
_chemical_formula_sum "Si O2"
_cell_formula_units_Z 28
_cell_length_a 23.662232
_cell_length_b 14.281307
_cell_length_c 20.911607
_cell_angle_alpha 90.000000
_cell_angle_beta 169.481914
_cell_angle_gamma 90.000000
_cell_volume 1289.980464
_symmetry_space_group_name_H-M "P 2/C"
_symmetry_group_IT_number 13
_symmetry_cell_setting 'monoclinic'
loop_
_space_group_symop_operation_xyz
x,y,z
-x,y,1/2-z
-x,-y,-z
x,-y,1/2+z
loop_
_atom_site_type_symbol
_atom_site_label
_atom_site_fract_x
_atom_site_fract_y
_atom_site_fract_z
Si Si1 0.500000 0.588180 0.250000
Si Si2 0.238754 0.970198 0.319691
Si Si3 0.252907 0.149336 0.173561
Si Si4 0.195642 0.594181 0.217407
Si Si5 0.000000 0.532804 0.250000
Si Si6 0.874396 0.643957 0.986389
Si Si7 0.028237 0.286813 0.148140
Si Si8 0.526223 0.836051 0.436136
O O1 0.772174 0.649742 0.582880
O O2 0.680676 0.528039 0.396425
O O3 0.450804 0.885632 0.534289
O O4 0.464420 0.059083 0.584524
O O5 0.030622 0.926684 0.146002
O O6 0.000000 0.000000 0.000000
O O7 0.179544 0.247226 0.057595
O O8 0.358734 0.165424 0.363601
O O9 0.565492 0.582378 0.629939
O O10 0.000000 0.500000 0.000000
O O11 0.094519 0.647553 0.169154
O O12 0.146983 0.648133 0.097105
O O13 0.966981 0.596032 0.276463
O O14 0.238453 0.218886 0.343698
O O15 0.799152 0.218181 0.932713
#
# Coordination Sequence:
#
# PCOD8118532 Si02
#       8
#     2   4   4   4   2   4   4   4
#     4  12  28  46  64  88 126 174 218 262 316 392
#     4  10  20  32  58  92 132 163 193 252 314 376
#     4  11  19  36  57  95 127 161 204 252 314 369
#     4  12  23  39  62  92 121 159 208 271 321 358
#     4  12  26  48  62  90 124 172 218 254 328 388
#     4  12  24  40  65  90 127 162 208 265 310 382
#     4  12  22  40  62  90 126 163 213 262 311 378
#     4  11  20  36  60  93 127 163 204 255 316 372
#
# _framework density 21.705755
#
# number of rings (size 3 to 8) (size 9 to 14) (size 15 to 20)
#    0.000    0.571    2.857    9.000    0.000    0.000 
#    0.000    0.000    0.000    3.429    0.000    0.000 
#    0.000    0.000    0.000    0.000    0.000    0.000 
#
# Total GULP energy -347029.095719 kJ/mol
# GULP energy per Si atom -12393.896276 kJ/mol
# Density = 2.165635 g / cm^3
# Si number density = 21.705755 Si / 1000 Ang^3
#
#
#
# Elastic Constant Matrix: (Units=GPa)
#
#
# Indices 1 2 3 4 5 6 
#
# 1 108.3661 37.8697 38.4674 0.0000 21.9931 0.0000
# 2 37.8697 134.7421 38.1595 0.0000 7.7789 0.0000
# 3 38.4674 38.1595 99.2694 0.0000 17.8549 0.0000
# 4 0.0000 0.0000 0.0000 44.6399 0.0000 17.3178
# 5 21.9931 7.7789 17.8549 0.0000 45.5971 0.0000
# 6 0.0000 0.0000 0.0000 17.3178 0.0000 34.5650
#
#
#
# Elastic Compliance Matrix: (Units=1/GPa)
#
#
# Indices 1 2 3 4 5 6 
#
# 1 0.011935 -0.002262 -0.003001 0.000000 -0.004196 0.000000
# 2 -0.002262 0.008758 -0.002601 0.000000 0.000615 0.000000
# 3 -0.003001 -0.002601 0.012797 0.000000 -0.003120 0.000000
# 4 0.000000 0.000000 0.000000 0.027806 0.000000 -0.013931
# 5 -0.004196 0.000615 -0.003120 0.000000 0.025072 0.000000
# 6 0.000000 0.000000 0.000000 -0.013931 0.000000 0.035911
#
#
# Mechanical properties :
#
#
# Convention : Reuss Voigt Hill
#
# Bulk Modulus (GPa) = 56.29552 63.48565 59.89058
# Shear Modulus (GPa) = 34.73941 40.15247 37.44594
#
# Velocity S-wave (km/s) = 4.00493 4.30566 4.15801
# Velocity P-wave (km/s) = 6.88317 7.35051 7.12068
#
# Compressibility (1/GPa) = 0.01776340
#
# Stress axis : x y z
#
# Youngs Moduli (GPa) = 83.78494 114.17522 78.14148
#
# Poissons Ratio (x) = 0.25831 0.23447
# Poissons Ratio (y) = 0.18956 0.20323
# Poissons Ratio (z) = 0.25141 0.29694
#
# Static dielectric constant tensor:
#      x y z
#    x 3.752840 0.000000 0.257080 
#    y 0.000000 4.656880 0.000000 
#    z 0.257080 0.000000 3.286300 
# 
# 
# High freq. dielectric constant tensor:
#      x y z
#    x 1.831560 0.000000 0.041670 
#    y 0.000000 1.874350 0.000000 
#    z 0.041670 0.000000 1.848670 
# 
# From -- ./inp_files/82295.got.cif
#   From: 2010.06.25/outbox.cif.g09.slc.cpg/sg13_42_cif.got.tgz:82295.got - 2010.06.28 04:50:58.
