data_PCOD8118281
_publ_section_title
;
Structure prediction by ZEFSAII (Michael W. Deem and Ramdas Pophale) SiO2 
 PCOD8118281
Probable space group: P 2/C
;
_chemical_formula_sum "Si O2"
_cell_formula_units_Z 32
_cell_length_a 11.549312
_cell_length_b 13.766109
_cell_length_c 17.751123
_cell_angle_alpha 90.000000
_cell_angle_beta 148.705827
_cell_angle_gamma 90.000000
_cell_volume 1465.959689
_symmetry_space_group_name_H-M "P 2/C"
_symmetry_group_IT_number 13
_symmetry_cell_setting 'monoclinic'
loop_
_space_group_symop_operation_xyz
x,y,z
-x,y,1/2-z
-x,-y,-z
x,-y,1/2+z
loop_
_atom_site_type_symbol
_atom_site_label
_atom_site_fract_x
_atom_site_fract_y
_atom_site_fract_z
Si Si1 0.456847 0.855038 0.434422
Si Si2 0.830899 0.564765 0.358062
Si Si3 0.246798 0.234799 0.600980
Si Si4 0.219977 0.022527 0.921473
Si Si5 0.003492 0.849009 0.092893
Si Si6 0.901272 0.335955 0.615138
Si Si7 0.215858 0.700519 0.920099
Si Si8 0.570967 0.498586 0.453788
O O1 0.377836 0.894660 0.471735
O O2 0.244110 0.842417 0.264661
O O3 0.574844 0.749797 0.507694
O O4 0.634890 0.925691 0.492029
O O5 0.761240 0.660151 0.364469
O O6 0.614897 0.503221 0.214785
O O7 0.000000 0.500000 0.500000
O O8 0.928353 0.592364 0.331215
O O9 0.500000 0.195023 0.750000
O O10 0.063876 0.161228 0.537847
O O11 0.174675 0.241544 0.474564
O O12 0.000000 0.002775 0.750000
O O13 0.136479 0.055754 0.958976
O O14 0.855629 0.758476 0.039075
O O15 0.673827 0.393465 0.497608
O O16 0.000000 0.302054 0.750000
O O17 0.000000 0.711958 0.750000
O O18 0.259866 0.588289 0.963540
O O19 0.500000 0.500000 0.500000
#
# Coordination Sequence:
#
# PCOD8118281 Si02
#       8
#     4   4   4   4   4   4   4   4
#     4  10  19  37  64  94 129 169 208 266 320 389
#     4  11  24  39  60  85 123 170 214 267 316 369
#     4  11  21  42  64  86 124 172 218 255 326 395
#     4   9  19  35  62  98 130 162 215 263 326 385
#     4  10  21  38  65  92 124 171 215 264 320 390
#     4  11  21  37  58  88 122 164 215 259 308 378
#     4  12  25  40  64  94 127 167 217 271 319 382
#     4  12  25  38  60  92 126 165 217 267 312 378
#
# _framework density 21.828703999999998
#
# number of rings (size 3 to 8) (size 9 to 14) (size 15 to 20)
#    0.000    1.250    3.750    3.375    3.500    0.000 
#    0.000    0.625    0.000    0.750    0.000    0.000 
#    0.000    0.000    0.000    0.000    0.000    0.000 
#
# Total GULP energy -396688.638264 kJ/mol
# GULP energy per Si atom -12396.519946 kJ/mol
# Density = 2.177902 g / cm^3
# Si number density = 21.828704 Si / 1000 Ang^3
#
#
#
# Elastic Constant Matrix: (Units=GPa)
#
#
# Indices 1 2 3 4 5 6 
#
# 1 111.3377 23.3536 28.1750 0.0000 -1.7152 0.0000
# 2 23.3536 59.5550 14.4979 0.0000 12.0720 0.0000
# 3 28.1750 14.4979 102.3389 0.0000 -2.3379 0.0000
# 4 0.0000 0.0000 0.0000 28.5873 0.0000 13.5278
# 5 -1.7152 12.0720 -2.3379 0.0000 34.2211 0.0000
# 6 0.0000 0.0000 0.0000 13.5278 0.0000 40.4046
#
#
#
# Elastic Compliance Matrix: (Units=1/GPa)
#
#
# Indices 1 2 3 4 5 6 
#
# 1 0.010396 -0.003874 -0.002274 0.000000 0.001733 0.000000
# 2 -0.003874 0.020312 -0.001982 0.000000 -0.007495 0.000000
# 3 -0.002274 -0.001982 0.010708 0.000000 0.001317 0.000000
# 4 0.000000 0.000000 0.000000 0.041566 0.000000 -0.013917
# 5 0.001733 -0.007495 0.001317 0.000000 0.032042 0.000000
# 6 0.000000 0.000000 0.000000 -0.013917 0.000000 0.029409
#
#
# Mechanical properties :
#
#
# Convention : Reuss Voigt Hill
#
# Bulk Modulus (GPa) = 39.75136 45.03162 42.39149
# Shear Modulus (GPa) = 29.57163 34.45627 32.01395
#
# Velocity S-wave (km/s) = 3.68464 3.97732 3.83377
# Velocity P-wave (km/s) = 6.02928 6.46270 6.24975
#
# Compressibility (1/GPa) = 0.02515637
#
# Stress axis : x y z
#
# Youngs Moduli (GPa) = 96.18652 49.23122 93.38519
#
# Poissons Ratio (x) = 0.19075 0.21234
# Poissons Ratio (y) = 0.37267 0.18510
# Poissons Ratio (z) = 0.21871 0.09758
#
# Static dielectric constant tensor:
#      x y z
#    x 4.361030 0.000000 0.161160 
#    y 0.000000 4.105180 0.000000 
#    z 0.161160 0.000000 3.656220 
# 
# 
# High freq. dielectric constant tensor:
#      x y z
#    x 1.877110 0.000000 0.011800 
#    y 0.000000 1.853690 0.000000 
#    z 0.011800 0.000000 1.830150 
# 
# From -- ./inp_files/66960.got.cif
#   From: 2010.06.25/outbox.cif.g09.slc.cpg/sg13_34_cif.got.tgz:66960.got - 2010.06.28 04:50:58.
