data_PCOD8118709
_publ_section_title
;
Structure prediction by ZEFSAII (Michael W. Deem and Ramdas Pophale) SiO2 
 PCOD8118709
Probable space group: P 2/C
;
_chemical_formula_sum "Si O2"
_cell_formula_units_Z 32
_cell_length_a 26.984988
_cell_length_b 9.868473
_cell_length_c 21.743620
_cell_angle_alpha 90.000000
_cell_angle_beta 161.964102
_cell_angle_gamma 90.000000
_cell_volume 1792.763299
_symmetry_space_group_name_H-M "P 2/C"
_symmetry_group_IT_number 13
_symmetry_cell_setting 'monoclinic'
loop_
_space_group_symop_operation_xyz
x,y,z
-x,y,1/2-z
-x,-y,-z
x,-y,1/2+z
loop_
_atom_site_type_symbol
_atom_site_label
_atom_site_fract_x
_atom_site_fract_y
_atom_site_fract_z
Si Si1 0.402732 0.448716 0.975125
Si Si2 0.148421 0.323024 0.467914
Si Si3 0.736491 0.112101 0.141712
Si Si4 0.110732 0.185583 0.053714
Si Si5 0.258248 0.448123 0.185819
Si Si6 0.509696 0.677567 0.190216
Si Si7 0.775745 0.186115 0.718724
Si Si8 0.073480 0.112683 0.478703
O O1 0.567939 0.421977 0.136106
O O2 0.418603 0.557494 0.047728
O O3 0.270190 0.500505 0.770188
O O4 0.348054 0.306698 0.939739
O O5 0.160467 0.443038 0.531405
O O6 0.307763 0.307796 0.615663
O O7 0.115676 0.182122 0.464111
O O8 0.000000 0.359657 0.250000
O O9 0.763285 0.166848 0.242236
O O10 0.890941 0.144222 0.282166
O O11 0.703653 0.951374 0.105104
O O12 0.580541 0.181465 0.929038
O O13 0.165629 0.305801 0.073896
O O14 0.939879 0.224312 0.879432
O O15 0.099261 0.047987 0.000702
O O16 0.500000 0.641104 0.250000
O O17 0.805930 0.167575 0.827002
#
# Coordination Sequence:
#
# PCOD8118709 Si02
#       8
#     4   4   4   4   4   4   4   4
#     4  10  20  35  54  81 113 143 183 231 275 324
#     4  11  23  38  56  79 110 148 185 226 276 331
#     4   9  18  34  54  81 112 141 178 222 269 325
#     4   9  18  32  55  84 111 139 177 225 271 319
#     4  10  20  35  54  81 113 143 183 231 275 324
#     4  11  23  38  56  79 110 148 185 226 276 331
#     4   9  18  32  55  84 111 139 177 225 271 319
#     4   9  18  34  54  81 112 141 178 222 269 325
#
# _framework density 17.849540000000001
#
# number of rings (size 3 to 8) (size 9 to 14) (size 15 to 20)
#    0.000    2.250    2.500    2.250    0.000    3.500 
#    0.000    3.750    0.000    3.000    0.000    0.000 
#    0.000    0.000    0.000    0.000    0.000    0.000 
#
# Total GULP energy -396885.012268 kJ/mol
# GULP energy per Si atom -12402.656633 kJ/mol
# Density = 1.780891 g / cm^3
# Si number density = 17.849540 Si / 1000 Ang^3
#
#
#
# Elastic Constant Matrix: (Units=GPa)
#
#
# Indices 1 2 3 4 5 6 
#
# 1 95.6514 57.2480 47.0061 0.0000 -9.6497 0.0000
# 2 57.2480 126.1111 57.4971 0.0000 2.5691 0.0000
# 3 47.0061 57.4971 99.0161 0.0000 -8.4141 0.0000
# 4 0.0000 0.0000 0.0000 28.7244 0.0000 5.5588
# 5 -9.6497 2.5691 -8.4141 0.0000 16.8839 0.0000
# 6 0.0000 0.0000 0.0000 5.5588 0.0000 29.4607
#
#
#
# Elastic Compliance Matrix: (Units=1/GPa)
#
#
# Indices 1 2 3 4 5 6 
#
# 1 0.016811 -0.006130 -0.003681 0.000000 0.008707 0.000000
# 2 -0.006130 0.013436 -0.005600 0.000000 -0.008339 0.000000
# 3 -0.003681 -0.005600 0.015655 0.000000 0.006550 0.000000
# 4 0.000000 0.000000 0.000000 0.036133 0.000000 -0.006818
# 5 0.008707 -0.008339 0.006550 0.000000 0.068737 0.000000
# 6 0.000000 0.000000 0.000000 -0.006818 0.000000 0.035230
#
#
# Mechanical properties :
#
#
# Convention : Reuss Voigt Hill
#
# Bulk Modulus (GPa) = 66.31832 71.58678 68.95255
# Shear Modulus (GPa) = 22.53758 25.61563 24.07660
#
# Velocity S-wave (km/s) = 3.55722 3.79236 3.67667
# Velocity P-wave (km/s) = 7.35571 7.70511 7.53244
#
# Compressibility (1/GPa) = 0.01507879
#
# Stress axis : x y z
#
# Youngs Moduli (GPa) = 59.48450 74.42945 63.87575
#
# Poissons Ratio (x) = 0.45629 0.23513
# Poissons Ratio (y) = 0.36467 0.35771
# Poissons Ratio (z) = 0.21897 0.41681
#
# Static dielectric constant tensor:
#      x y z
#    x 3.163570 0.000000 0.038340 
#    y 0.000000 3.318780 0.000000 
#    z 0.038340 0.000000 3.156580 
# 
# 
# High freq. dielectric constant tensor:
#      x y z
#    x 1.679670 0.000000 0.011170 
#    y 0.000000 1.699540 0.000000 
#    z 0.011170 0.000000 1.677940 
# 
# From -- ./inp_files/82532.got.cif
#   From: 2010.06.25/outbox.cif.g09.slc.cpg/sg13_42_cif.got.tgz:82532.got - 2010.06.28 04:50:58.
