data_PCOD8118479
_publ_section_title
;
Structure prediction by ZEFSAII (Michael W. Deem and Ramdas Pophale) SiO2 
 PCOD8118479
Probable space group: P 2/C
;
_chemical_formula_sum "Si O2"
_cell_formula_units_Z 24
_cell_length_a 21.055066
_cell_length_b 12.254126
_cell_length_c 23.520127
_cell_angle_alpha 90.000000
_cell_angle_beta 10.809661
_cell_angle_gamma 90.000000
_cell_volume 1138.121421
_symmetry_space_group_name_H-M "P 2/C"
_symmetry_group_IT_number 13
_symmetry_cell_setting 'monoclinic'
loop_
_space_group_symop_operation_xyz
x,y,z
-x,y,1/2-z
-x,-y,-z
x,-y,1/2+z
loop_
_atom_site_type_symbol
_atom_site_label
_atom_site_fract_x
_atom_site_fract_y
_atom_site_fract_z
Si Si1 0.809943 0.990249 0.607574
Si Si2 0.314304 0.361762 0.231967
Si Si3 0.150963 0.448273 0.949389
Si Si4 0.188807 0.217016 0.768648
Si Si5 0.157965 0.347631 0.171746
Si Si6 0.754611 0.877155 0.850616
O O1 0.911746 0.872742 0.490185
O O2 0.000000 0.000000 0.500000
O O3 0.910900 0.081407 0.473794
O O4 0.415201 0.020335 0.965759
O O5 0.328479 0.435065 0.277308
O O6 0.194069 0.434506 0.284050
O O7 0.008816 0.278259 0.508154
O O8 0.669863 0.299264 0.905300
O O9 0.437656 0.359641 0.684421
O O10 0.024119 0.434063 0.125577
O O11 0.511717 0.161882 0.513313
O O12 0.107094 0.221528 0.232836
O O13 0.000000 0.373005 0.250000
#
# Coordination Sequence:
#
# PCOD8118479 Si02
#       6
#     4   4   4   4   4   4
#     4  10  20  30  51  79 114 147 175 215 279 335
#     4  11  20  33  58  80 116 148 180 234 300 344
#     4  11  22  38  53  83 112 150 191 237 287 340
#     4  11  18  32  52  84 113 147 177 221 289 353
#     4  12  24  39  58  79 113 157 196 233 277 339
#     4  11  19  34  50  78 116 147 182 226 270 341
#
# _framework density 21.087382000000002
#
# number of rings (size 3 to 8) (size 9 to 14) (size 15 to 20)
#    0.000    1.000    3.333    7.500    0.000    2.667 
#    0.000    0.000    0.000    0.000    0.000   17.500 
#    0.000    0.000    0.000    0.000    0.000    0.000 
#
# Total GULP energy -297313.409457 kJ/mol
# GULP energy per Si atom -12388.058727 kJ/mol
# Density = 2.103939 g / cm^3
# Si number density = 21.087382 Si / 1000 Ang^3
#
#
#
# Elastic Constant Matrix: (Units=GPa)
#
#
# Indices 1 2 3 4 5 6 
#
# 1 95.8723 42.5823 31.5186 0.0000 23.3993 0.0000
# 2 42.5823 86.4407 22.0112 0.0000 8.2817 0.0000
# 3 31.5186 22.0112 79.1021 0.0000 32.3929 0.0000
# 4 0.0000 0.0000 0.0000 41.3623 0.0000 20.7624
# 5 23.3993 8.2817 32.3929 0.0000 27.4745 0.0000
# 6 0.0000 0.0000 0.0000 20.7624 0.0000 21.0725
#
#
#
# Elastic Compliance Matrix: (Units=1/GPa)
#
#
# Indices 1 2 3 4 5 6 
#
# 1 0.016430 -0.007030 0.000526 0.000000 -0.012494 0.000000
# 2 -0.007030 0.015465 -0.003954 0.000000 0.005988 0.000000
# 3 0.000526 -0.003954 0.025577 0.000000 -0.029412 0.000000
# 4 0.000000 0.000000 0.000000 0.047835 0.000000 -0.047131
# 5 -0.012494 0.005988 -0.029412 0.000000 0.079910 0.000000
# 6 0.000000 0.000000 0.000000 -0.047131 0.000000 0.093893
#
#
# Mechanical properties :
#
#
# Convention : Reuss Voigt Hill
#
# Bulk Modulus (GPa) = 27.35635 50.40437 38.88036
# Shear Modulus (GPa) = 16.01482 29.00205 22.50843
#
# Velocity S-wave (km/s) = 2.75880 3.71256 3.27064
# Velocity P-wave (km/s) = 4.81134 6.50631 5.72193
#
# Compressibility (1/GPa) = 0.03655458
#
# Stress axis : x y z
#
# Youngs Moduli (GPa) = 60.86611 64.66141 39.09779
#
# Poissons Ratio (x) = 0.45460 -0.02057
# Poissons Ratio (y) = 0.42792 0.15460
# Poissons Ratio (z) = -0.03203 0.25569
#
# Static dielectric constant tensor:
#      x y z
#    x 3.411990 0.000000 0.505240 
#    y 0.000000 4.252130 0.000000 
#    z 0.505240 0.000000 3.948890 
# 
# 
# High freq. dielectric constant tensor:
#      x y z
#    x 1.766500 0.000000 0.056570 
#    y 0.000000 1.834840 0.000000 
#    z 0.056570 0.000000 1.827400 
# 
# From -- ./inp_files/93858.got.cif
#   From: 2010.06.25/outbox.cif.g09.slc.cpg/sg13_47_cif.got.tgz:93858.got - 2010.06.28 04:50:58.
