data_PCOD8118480
_publ_section_title
;
Structure prediction by ZEFSAII (Michael W. Deem and Ramdas Pophale) SiO2 
 PCOD8118480
Probable space group: P 2/C
;
_chemical_formula_sum "Si O2"
_cell_formula_units_Z 30
_cell_length_a 11.425843
_cell_length_b 6.472080
_cell_length_c 22.650012
_cell_angle_alpha 90.000000
_cell_angle_beta 65.946372
_cell_angle_gamma 90.000000
_cell_volume 1529.500128
_symmetry_space_group_name_H-M "P 2/C"
_symmetry_group_IT_number 13
_symmetry_cell_setting 'monoclinic'
loop_
_space_group_symop_operation_xyz
x,y,z
-x,y,1/2-z
-x,-y,-z
x,-y,1/2+z
loop_
_atom_site_type_symbol
_atom_site_label
_atom_site_fract_x
_atom_site_fract_y
_atom_site_fract_z
Si Si1 0.798837 0.147416 0.344286
Si Si2 0.000000 0.851465 0.250000
Si Si3 0.788655 0.460021 0.766806
Si Si4 0.162492 0.342407 0.365057
Si Si5 0.923488 0.906690 0.931959
Si Si6 0.095588 0.747072 0.434883
Si Si7 0.609847 0.097177 0.807692
Si Si8 0.671381 0.018709 0.661451
O O1 0.816438 0.378502 0.314345
O O2 0.799131 0.136192 0.415851
O O3 0.920488 0.999617 0.308598
O O4 0.669206 0.051118 0.345335
O O5 0.903270 0.703857 0.234433
O O6 0.776263 0.571961 0.707235
O O7 0.657365 0.333750 0.806917
O O8 0.098026 0.501346 0.424467
O O9 0.045710 0.191170 0.373223
O O10 0.276752 0.206072 0.371119
O O11 0.888557 0.796460 0.999968
O O12 0.964964 0.145891 0.936507
O O13 0.222587 0.812035 0.373756
O O14 0.651294 0.010726 0.735763
O O15 0.457206 0.083670 0.846453
#
# Coordination Sequence:
#
# PCOD8118480 Si02
#       8
#     4   2   4   4   4   4   4   4
#     4  11  21  35  53  84 116 146 185 232 292 340
#     4  10  20  30  52  80 122 144 172 230 282 360
#     4  11  20  33  55  86 113 151 185 227 304 343
#     4  11  19  34  59  85 110 148 192 235 285 340
#     4  10  22  36  58  84 122 148 188 236 275 351
#     4  10  21  39  58  85 112 158 192 227 285 337
#     4  10  22  38  55  83 114 147 191 243 289 343
#     4  10  21  39  57  80 113 146 197 241 283 335
#
# _framework density 19.614252
#
# number of rings (size 3 to 8) (size 9 to 14) (size 15 to 20)
#    0.000    1.600    2.667    3.200    3.733    2.133 
#    0.000    0.667    0.000    1.600    0.000    0.000 
#    0.000    0.000    0.000    0.000    0.000    0.000 
#
# Total GULP energy -371817.708821 kJ/mol
# GULP energy per Si atom -12393.923627 kJ/mol
# Density = 1.956961 g / cm^3
# Si number density = 19.614252 Si / 1000 Ang^3
#
#
#
# Elastic Constant Matrix: (Units=GPa)
#
#
# Indices 1 2 3 4 5 6 
#
# 1 104.4951 17.2284 13.7981 0.0000 13.8610 0.0000
# 2 17.2284 80.5205 -5.9382 0.0000 6.3636 0.0000
# 3 13.7981 -5.9382 36.6020 0.0000 15.8652 0.0000
# 4 0.0000 0.0000 0.0000 14.3047 0.0000 6.7332
# 5 13.8610 6.3636 15.8652 0.0000 28.9425 0.0000
# 6 0.0000 0.0000 0.0000 6.7332 0.0000 18.8346
#
#
#
# Elastic Compliance Matrix: (Units=1/GPa)
#
#
# Indices 1 2 3 4 5 6 
#
# 1 0.010754 -0.002305 -0.003168 0.000000 -0.002907 0.000000
# 2 -0.002305 0.013663 0.005127 0.000000 -0.004711 0.000000
# 3 -0.003168 0.005127 0.038271 0.000000 -0.020589 0.000000
# 4 0.000000 0.000000 0.000000 0.084050 0.000000 -0.030047
# 5 -0.002907 -0.004711 -0.020589 0.000000 0.048265 0.000000
# 6 0.000000 0.000000 0.000000 -0.030047 0.000000 0.063835
#
#
# Mechanical properties :
#
#
# Convention : Reuss Voigt Hill
#
# Bulk Modulus (GPa) = 16.12967 30.19936 23.16451
# Shear Modulus (GPa) = 17.84471 25.51832 21.68152
#
# Velocity S-wave (km/s) = 3.01953 3.61086 3.32836
# Velocity P-wave (km/s) = 4.51642 5.72840 5.15813
#
# Compressibility (1/GPa) = 0.06199756
#
# Stress axis : x y z
#
# Youngs Moduli (GPa) = 92.99115 73.19153 26.12912
#
# Poissons Ratio (x) = 0.16869 0.08277
# Poissons Ratio (y) = 0.21432 -0.13398
# Poissons Ratio (z) = 0.29458 -0.37528
#
# Static dielectric constant tensor:
#      x y z
#    x 3.543460 0.000000 0.054940 
#    y 0.000000 3.863460 0.000000 
#    z 0.054940 0.000000 3.319120 
# 
# 
# High freq. dielectric constant tensor:
#      x y z
#    x 1.748240 0.000000 0.009660 
#    y 0.000000 1.778670 0.000000 
#    z 0.009660 0.000000 1.738580 
# 
# From -- ./inp_files/85806.got.cif
#   From: 2010.06.25/outbox.cif.g09.slc.cpg/sg13_43_cif.got.tgz:85806.got - 2010.06.28 04:50:58.
