data_PCOD8118787
_publ_section_title
;
Structure prediction by ZEFSAII (Michael W. Deem and Ramdas Pophale) SiO2 
 PCOD8118787
Probable space group: P 2/C
;
_chemical_formula_sum "Si O2"
_cell_formula_units_Z 32
_cell_length_a 17.153782
_cell_length_b 12.006071
_cell_length_c 23.115623
_cell_angle_alpha 90.000000
_cell_angle_beta 20.196736
_cell_angle_gamma 90.000000
_cell_volume 1643.589888
_symmetry_space_group_name_H-M "P 2/C"
_symmetry_group_IT_number 13
_symmetry_cell_setting 'monoclinic'
loop_
_space_group_symop_operation_xyz
x,y,z
-x,y,1/2-z
-x,-y,-z
x,-y,1/2+z
loop_
_atom_site_type_symbol
_atom_site_label
_atom_site_fract_x
_atom_site_fract_y
_atom_site_fract_z
Si Si1 0.802968 0.625133 0.433599
Si Si2 0.622238 0.885143 0.930873
Si Si3 0.521968 0.788502 0.121538
Si Si4 0.322117 0.837148 0.924726
Si Si5 0.704478 0.596917 0.065142
Si Si6 0.416619 0.757804 0.659267
Si Si7 0.884798 0.068021 0.432183
Si Si8 0.079279 0.761846 0.498709
O O1 0.830430 0.725751 0.461023
O O2 0.815529 0.512799 0.461762
O O3 0.564192 0.644147 0.565424
O O4 0.000000 0.626718 0.250000
O O5 0.595422 0.796545 0.898283
O O6 0.884599 0.910130 0.764289
O O7 0.513986 0.821161 0.060304
O O8 0.500000 0.000000 0.000000
O O9 0.637596 0.670397 0.055595
O O10 0.264023 0.773752 0.320459
O O11 0.658347 0.883073 0.061345
O O12 0.500000 0.821148 0.750000
O O13 0.466836 0.855066 0.883233
O O14 0.149949 0.937168 0.034806
O O15 0.500000 0.565050 0.250000
O O16 0.878911 0.666378 0.982498
O O17 0.164217 0.735647 0.859412
O O18 0.922869 0.118183 0.468979
#
# Coordination Sequence:
#
# PCOD8118787 Si02
#       8
#     4   4   4   4   4   4   4   4
#     4  10  23  39  61  84 119 156 195 237 303 367
#     4  11  23  35  54  86 127 162 192 243 295 355
#     4  10  20  36  62  87 113 156 198 243 298 348
#     4  10  21  38  62  82 116 161 204 238 296 362
#     4   9  19  40  66  87 111 151 208 248 290 358
#     4   9  23  39  54  87 123 151 193 247 297 348
#     4  10  20  35  59  85 117 155 200 242 292 356
#     4   9  19  40  62  90 115 145 202 260 292 339
#
# _framework density 19.469577999999998
#
# number of rings (size 3 to 8) (size 9 to 14) (size 15 to 20)
#    0.750    1.500    0.000    3.375    1.750    4.000 
#    0.000    8.125    0.000    0.000    0.000    0.000 
#    0.000    0.000    0.000    0.000    0.000    0.000 
#
# Total GULP energy -396560.854088 kJ/mol
# GULP energy per Si atom -12392.526690 kJ/mol
# Density = 1.942526 g / cm^3
# Si number density = 19.469578 Si / 1000 Ang^3
#
#
#
# Elastic Constant Matrix: (Units=GPa)
#
#
# Indices 1 2 3 4 5 6 
#
# 1 74.0776 36.0893 41.4283 0.0000 12.2268 0.0000
# 2 36.0893 131.3649 59.2434 0.0000 13.7479 0.0000
# 3 41.4283 59.2434 125.0799 0.0000 3.9995 0.0000
# 4 0.0000 0.0000 0.0000 20.5810 0.0000 7.3378
# 5 12.2268 13.7479 3.9995 0.0000 35.5754 0.0000
# 6 0.0000 0.0000 0.0000 7.3378 0.0000 17.5118
#
#
#
# Elastic Compliance Matrix: (Units=1/GPa)
#
#
# Indices 1 2 3 4 5 6 
#
# 1 0.018067 -0.002332 -0.004727 0.000000 -0.004777 0.000000
# 2 -0.002332 0.010367 -0.004050 0.000000 -0.002750 0.000000
# 3 -0.004727 -0.004050 0.011418 0.000000 0.001906 0.000000
# 4 0.000000 0.000000 0.000000 0.057122 0.000000 -0.023935
# 5 -0.004777 -0.002750 0.001906 0.000000 0.030599 0.000000
# 6 0.000000 0.000000 0.000000 -0.023935 0.000000 0.067134
#
#
# Mechanical properties :
#
#
# Convention : Reuss Voigt Hill
#
# Bulk Modulus (GPa) = 56.70645 67.11603 61.91124
# Shear Modulus (GPa) = 22.44123 27.65106 25.04614
#
# Velocity S-wave (km/s) = 3.39872 3.77267 3.59057
# Velocity P-wave (km/s) = 6.67762 7.31604 7.00411
#
# Compressibility (1/GPa) = 0.01763468
#
# Stress axis : x y z
#
# Youngs Moduli (GPa) = 55.34816 96.45699 87.58162
#
# Poissons Ratio (x) = 0.22492 0.41400
# Poissons Ratio (y) = 0.12906 0.35472
# Poissons Ratio (z) = 0.26163 0.39067
#
# Static dielectric constant tensor:
#      x y z
#    x 3.398840 0.000000 -0.034470 
#    y 0.000000 3.422150 0.000000 
#    z -0.034470 0.000000 3.647400 
# 
# 
# High freq. dielectric constant tensor:
#      x y z
#    x 1.744720 0.000000 0.004690 
#    y 0.000000 1.747530 0.000000 
#    z 0.004690 0.000000 1.766870 
# 
# From -- ./inp_files/88167.got.cif
#   From: 2010.06.25/outbox.cif.g09.slc.cpg/sg13_45_cif.got.tgz:88167.got - 2010.06.28 04:50:58.
