data_PCOD8118516
_publ_section_title
;
Structure prediction by ZEFSAII (Michael W. Deem and Ramdas Pophale) SiO2 
 PCOD8118516
Probable space group: P 2/C
;
_chemical_formula_sum "Si O2"
_cell_formula_units_Z 30
_cell_length_a 11.868818
_cell_length_b 30.408579
_cell_length_c 5.270582
_cell_angle_alpha 90.000000
_cell_angle_beta 125.810684
_cell_angle_gamma 90.000000
_cell_volume 1542.619371
_symmetry_space_group_name_H-M "P 2/C"
_symmetry_group_IT_number 13
_symmetry_cell_setting 'monoclinic'
loop_
_space_group_symop_operation_xyz
x,y,z
-x,y,1/2-z
-x,-y,-z
x,-y,1/2+z
loop_
_atom_site_type_symbol
_atom_site_label
_atom_site_fract_x
_atom_site_fract_y
_atom_site_fract_z
Si Si1 0.706207 0.882167 0.386218
Si Si2 0.665509 0.524311 0.461308
Si Si3 0.335346 0.328351 0.043125
Si Si4 0.345904 0.981797 0.254178
Si Si5 0.500000 0.185140 0.750000
Si Si6 0.665736 0.623967 0.460270
Si Si7 0.160503 0.850121 0.413332
Si Si8 0.346445 0.770527 0.655899
O O1 0.645905 0.930911 0.307265
O O2 0.579555 0.847998 0.159743
O O3 0.818928 0.880607 0.307453
O O4 0.769080 0.871230 0.745878
O O5 0.500000 0.523303 0.250000
O O6 0.723213 0.502436 0.795155
O O7 0.719844 0.574125 0.510676
O O8 0.500000 0.332060 0.250000
O O9 0.274905 0.355551 0.201428
O O10 0.290200 0.277968 0.022309
O O11 0.275584 0.348347 0.702277
O O12 0.500000 0.000000 0.500000
O O13 0.268779 0.992222 0.420414
O O14 0.378219 0.218024 0.491537
O O15 0.500000 0.625445 0.250000
O O16 0.226806 0.803649 0.411980
O O17 0.000000 0.842332 0.250000
O O18 0.500000 0.779605 0.750000
#
# Coordination Sequence:
#
# PCOD8118516 Si02
#       8
#     4   4   4   4   2   4   4   4
#     4  11  22  38  61  86 117 144 182 226 272 315
#     4   9  15  22  34  47  69 106 157 207 244 293
#     4   9  18  25  41  58  90 120 152 204 262 308
#     4  10  20  34  56  88 118 140 172 221 270 313
#     4  10  20  32  54  84 110 136 172 232 274 304
#     4   9  16  26  34  55  81 116 157 202 260 312
#     4  11  24  41  60  83 116 154 186 221 270 328
#     4  10  20  33  53  79 107 135 180 226 267 310
#
# _framework density 19.447443
#
# number of rings (size 3 to 8) (size 9 to 14) (size 15 to 20)
#    0.000    2.133    1.333    2.800    4.667    6.400 
#    0.000    0.000    0.000    8.000    0.000    0.000 
#    0.000    0.000    0.000    0.000    0.000   13.333 
#
# Total GULP energy -371667.850134 kJ/mol
# GULP energy per Si atom -12388.928338 kJ/mol
# Density = 1.940318 g / cm^3
# Si number density = 19.447443 Si / 1000 Ang^3
#
#
#
# Elastic Constant Matrix: (Units=GPa)
#
#
# Indices 1 2 3 4 5 6 
#
# 1 71.2488 46.1679 39.9595 0.0000 -18.5829 0.0000
# 2 46.1679 177.9366 61.9531 0.0000 -23.8501 0.0000
# 3 39.9595 61.9531 87.7168 0.0000 -41.4669 0.0000
# 4 0.0000 0.0000 0.0000 19.8293 0.0000 -11.4482
# 5 -18.5829 -23.8501 -41.4669 0.0000 41.0768 0.0000
# 6 0.0000 0.0000 0.0000 -11.4482 0.0000 16.1067
#
#
#
# Elastic Compliance Matrix: (Units=1/GPa)
#
#
# Indices 1 2 3 4 5 6 
#
# 1 0.019748 -0.002657 -0.006935 0.000000 0.000390 0.000000
# 2 -0.002657 0.007887 -0.005287 0.000000 -0.001959 0.000000
# 3 -0.006935 -0.005287 0.029380 0.000000 0.023452 0.000000
# 4 0.000000 0.000000 0.000000 0.085527 0.000000 0.060791
# 5 0.000390 -0.001959 0.023452 0.000000 0.047059 0.000000
# 6 0.000000 0.000000 0.000000 0.060791 0.000000 0.105295
#
#
# Mechanical properties :
#
#
# Convention : Reuss Voigt Hill
#
# Bulk Modulus (GPa) = 36.68608 70.34037 53.51322
# Shear Modulus (GPa) = 14.98167 27.99066 21.48617
#
# Velocity S-wave (km/s) = 2.77856 3.79792 3.32751
# Velocity P-wave (km/s) = 5.40361 7.44851 6.50689
#
# Compressibility (1/GPa) = 0.02725830
#
# Stress axis : x y z
#
# Youngs Moduli (GPa) = 50.63695 126.78446 34.03629
#
# Poissons Ratio (x) = 0.33686 0.23606
# Poissons Ratio (y) = 0.13454 0.17993
# Poissons Ratio (z) = 0.35119 0.67025
#
# Static dielectric constant tensor:
#      x y z
#    x 2.666240 0.000000 0.217180 
#    y 0.000000 3.633070 0.000000 
#    z 0.217180 0.000000 2.625640 
# 
# 
# High freq. dielectric constant tensor:
#      x y z
#    x 1.711900 0.000000 -0.055030 
#    y 0.000000 1.768580 0.000000 
#    z -0.055030 0.000000 1.738790 
# 
# From -- ./inp_files/4489.got.cif
#   From: 2010.06.25/outbox.cif.g09.slc.cpg/sg13_3_cif.got.tgz:4489.got - 2010.06.28 04:50:58.
