data_PCOD8118935
_publ_section_title
;
Structure prediction by ZEFSAII (Michael W. Deem and Ramdas Pophale) SiO2 
 PCOD8118935
Probable space group: P 2/C
;
_chemical_formula_sum "Si O2"
_cell_formula_units_Z 28
_cell_length_a 11.747477
_cell_length_b 5.132975
_cell_length_c 23.727635
_cell_angle_alpha 90.000000
_cell_angle_beta 109.235508
_cell_angle_gamma 90.000000
_cell_volume 1350.888477
_symmetry_space_group_name_H-M "P 2/C"
_symmetry_group_IT_number 13
_symmetry_cell_setting 'monoclinic'
loop_
_space_group_symop_operation_xyz
x,y,z
-x,y,1/2-z
-x,-y,-z
x,-y,1/2+z
loop_
_atom_site_type_symbol
_atom_site_label
_atom_site_fract_x
_atom_site_fract_y
_atom_site_fract_z
Si Si1 0.160671 0.912937 0.077220
Si Si2 0.094612 0.779534 0.467038
Si Si3 0.742239 0.746875 0.687370
Si Si4 0.100236 0.698634 0.895681
Si Si5 0.157665 0.754113 0.679405
Si Si6 0.617546 0.765291 0.202018
Si Si7 0.347709 0.346944 0.670191
O O1 0.142485 0.986604 0.140028
O O2 0.286565 0.760066 0.102428
O O3 0.169694 0.162838 0.036853
O O4 0.047407 0.729835 0.039923
O O5 0.151393 0.535792 0.443346
O O6 0.096024 0.042842 0.431541
O O7 0.809106 0.763405 0.639410
O O8 0.832847 0.822488 0.753094
O O9 0.703626 0.449577 0.688785
O O10 0.633314 0.961424 0.670887
O O11 0.969475 0.602036 0.851227
O O12 0.278739 0.611119 0.676523
O O13 0.653486 0.830644 0.272994
O O14 0.487068 0.627930 0.175954
#
# Coordination Sequence:
#
# PCOD8118935 Si02
#       7
#     4   4   4   4   4   4   4
#     4  10  20  36  60  86 123 140 199 245 298 339
#     4  10  23  36  59  88 115 160 186 241 295 342
#     4  11  22  39  57  85 121 159 190 233 284 365
#     4  11  22  39  58  84 124 154 195 230 290 356
#     4  10  21  35  60  92 114 150 189 247 306 341
#     4  10  23  36  59  86 117 155 192 233 301 338
#     4  10  20  36  59  87 120 144 192 252 292 347
#
# _framework density 20.727101000000001
#
# number of rings (size 3 to 8) (size 9 to 14) (size 15 to 20)
#    0.000    1.714    2.857    1.286    4.000    2.857 
#    0.000    2.857    0.000    5.143    0.000    0.000 
#    0.000    0.000    0.000    0.000    0.000    0.000 
#
# Total GULP energy -346899.207628 kJ/mol
# GULP energy per Si atom -12389.257415 kJ/mol
# Density = 2.067992 g / cm^3
# Si number density = 20.727101 Si / 1000 Ang^3
#
#
#
# Elastic Constant Matrix: (Units=GPa)
#
#
# Indices 1 2 3 4 5 6 
#
# 1 73.5375 5.0565 22.3511 0.0000 0.1228 0.0000
# 2 5.0565 55.0845 -15.4528 0.0000 0.1644 0.0000
# 3 22.3511 -15.4528 47.8832 0.0000 5.8339 0.0000
# 4 0.0000 0.0000 0.0000 25.2758 0.0000 -4.5723
# 5 0.1228 0.1644 5.8339 0.0000 28.6180 0.0000
# 6 0.0000 0.0000 0.0000 -4.5723 0.0000 21.6128
#
#
#
# Elastic Compliance Matrix: (Units=1/GPa)
#
#
# Indices 1 2 3 4 5 6 
#
# 1 0.016735 -0.004175 -0.009386 0.000000 0.001866 0.000000
# 2 -0.004175 0.021063 0.008982 0.000000 -0.001934 0.000000
# 3 -0.009386 0.008982 0.028883 0.000000 -0.005899 0.000000
# 4 0.000000 0.000000 0.000000 0.041138 0.000000 0.008703
# 5 0.001866 -0.001934 -0.005899 0.000000 0.036149 0.000000
# 6 0.000000 0.000000 0.000000 0.008703 0.000000 0.048110
#
#
# Mechanical properties :
#
#
# Convention : Reuss Voigt Hill
#
# Bulk Modulus (GPa) = 17.38478 22.26829 19.82654
# Shear Modulus (GPa) = 22.68491 26.07134 24.37812
#
# Velocity S-wave (km/s) = 3.31185 3.55045 3.43322
# Velocity P-wave (km/s) = 4.79897 5.25114 5.03014
#
# Compressibility (1/GPa) = 0.05752157
#
# Stress axis : x y z
#
# Youngs Moduli (GPa) = 59.75356 47.47751 34.62251
#
# Poissons Ratio (x) = 0.19822 0.32498
# Poissons Ratio (y) = 0.24947 -0.31097
# Poissons Ratio (z) = 0.56087 -0.42643
#
# Static dielectric constant tensor:
#      x y z
#    x 3.657100 0.000000 0.205850 
#    y 0.000000 3.533740 0.000000 
#    z 0.205850 0.000000 4.068680 
# 
# 
# High freq. dielectric constant tensor:
#      x y z
#    x 1.781200 0.000000 0.005480 
#    y 0.000000 1.809150 0.000000 
#    z 0.005480 0.000000 1.809620 
# 
# From -- ./inp_files/77548.got.cif
#   From: 2010.06.25/outbox.cif.g09.slc.cpg/sg13_39_cif.got.tgz:77548.got - 2010.06.28 04:50:58.
