data_PCOD8118638
_publ_section_title
;
Structure prediction by ZEFSAII (Michael W. Deem and Ramdas Pophale) SiO2 
 PCOD8118638
Probable space group: P 2/C
;
_chemical_formula_sum "Si O2"
_cell_formula_units_Z 32
_cell_length_a 18.090082
_cell_length_b 24.021531
_cell_length_c 12.331570
_cell_angle_alpha 90.000000
_cell_angle_beta 19.362037
_cell_angle_gamma 90.000000
_cell_volume 1776.603097
_symmetry_space_group_name_H-M "P 2/C"
_symmetry_group_IT_number 13
_symmetry_cell_setting 'monoclinic'
loop_
_space_group_symop_operation_xyz
x,y,z
-x,y,1/2-z
-x,-y,-z
x,-y,1/2+z
loop_
_atom_site_type_symbol
_atom_site_label
_atom_site_fract_x
_atom_site_fract_y
_atom_site_fract_z
Si Si1 0.144552 0.950028 0.256302
Si Si2 0.469438 0.828879 0.616190
Si Si3 0.835323 0.748515 0.579352
Si Si4 0.446263 0.950028 0.652891
Si Si5 0.659913 0.361948 0.430169
Si Si6 0.040890 0.447739 0.367791
Si Si7 0.859317 0.828881 0.226309
Si Si8 0.358260 0.447739 0.733051
O O1 0.022415 0.890062 0.440335
O O2 0.208595 0.960896 0.041405
O O3 0.368879 0.945737 0.012240
O O4 0.000000 0.000000 0.500000
O O5 0.387334 0.781898 0.646786
O O6 0.447931 0.890062 0.589318
O O7 0.723316 0.815710 0.303373
O O8 0.311430 0.830103 0.938570
O O9 0.760306 0.690056 0.729401
O O10 0.955567 0.781899 0.510312
O O11 0.000000 0.739665 0.250000
O O12 0.500000 0.000000 0.500000
O O13 0.869570 0.396804 0.184704
O O14 0.521878 0.396801 0.532393
O O15 0.500000 0.343164 0.750000
O O16 0.000000 0.500000 0.500000
O O17 0.811868 0.429109 0.626267
O O18 0.225576 0.465644 0.024422
O O19 0.500000 0.500000 0.500000
#
# Coordination Sequence:
#
# PCOD8118638 Si02
#       8
#     4   4   4   4   4   4   4   4
#     4   9  18  31  48  73 102 131 166 212 264 317
#     4   8  16  32  51  72 100 131 170 220 264 303
#     4  10  20  34  56  78  96 136 187 218 251 308
#     4   9  18  31  48  73 102 131 166 212 264 317
#     4  10  22  38  52  78 116 144 169 214 269 310
#     4  10  20  35  57  82 110 144 178 213 259 311
#     4   8  16  32  51  72 100 131 170 220 264 303
#     4  10  20  35  57  82 110 144 178 213 259 311
#
# _framework density 18.011901000000002
#
# number of rings (size 3 to 8) (size 9 to 14) (size 15 to 20)
#    0.000    2.750    1.250    1.500    1.750    2.500 
#    0.000    1.250    0.000    1.500    0.000    0.000 
#    0.000    0.000    0.000    0.000    0.000    0.000 
#
# Total GULP energy -396621.442409 kJ/mol
# GULP energy per Si atom -12394.420075 kJ/mol
# Density = 1.797090 g / cm^3
# Si number density = 18.011901 Si / 1000 Ang^3
#
#
#
# Elastic Constant Matrix: (Units=GPa)
#
#
# Indices 1 2 3 4 5 6 
#
# 1 103.2272 77.9870 45.2597 0.0000 -17.6838 0.0000
# 2 77.9870 165.9548 72.4314 0.0000 -4.9091 0.0000
# 3 45.2597 72.4314 70.9566 0.0000 -10.8198 0.0000
# 4 0.0000 0.0000 0.0000 35.2992 0.0000 1.8901
# 5 -17.6838 -4.9091 -10.8198 0.0000 25.0355 0.0000
# 6 0.0000 0.0000 0.0000 1.8901 0.0000 33.1619
#
#
#
# Elastic Compliance Matrix: (Units=1/GPa)
#
#
# Indices 1 2 3 4 5 6 
#
# 1 0.017815 -0.006821 -0.002875 0.000000 0.010003 0.000000
# 2 -0.006821 0.013673 -0.010633 0.000000 -0.006732 0.000000
# 3 -0.002875 -0.010633 0.027998 0.000000 0.007984 0.000000
# 4 0.000000 0.000000 0.000000 0.028416 0.000000 -0.001620
# 5 0.010003 -0.006732 0.007984 0.000000 0.049140 0.000000
# 6 0.000000 0.000000 0.000000 -0.001620 0.000000 0.030247
#
#
# Mechanical properties :
#
#
# Convention : Reuss Voigt Hill
#
# Bulk Modulus (GPa) = 53.11180 81.27723 67.19452
# Shear Modulus (GPa) = 23.34031 28.33002 25.83516
#
# Velocity S-wave (km/s) = 3.60367 3.97022 3.79137
# Velocity P-wave (km/s) = 6.84589 8.13874 7.52015
#
# Compressibility (1/GPa) = 0.01882821
#
# Stress axis : x y z
#
# Youngs Moduli (GPa) = 56.13327 73.13925 35.71675
#
# Poissons Ratio (x) = 0.49888 0.10269
# Poissons Ratio (y) = 0.38288 0.37976
# Poissons Ratio (z) = 0.16139 0.77766
#
# Static dielectric constant tensor:
#      x y z
#    x 3.548570 0.000000 -0.319050 
#    y 0.000000 15.585030 0.000000 
#    z -0.319050 0.000000 3.187290 
# 
# 
# High freq. dielectric constant tensor:
#      x y z
#    x 1.700060 0.000000 -0.020370 
#    y 0.000000 1.695130 0.000000 
#    z -0.020370 0.000000 1.676990 
# 
# From -- ./inp_files/39531.got.cif
#   From: 2010.06.25/outbox.cif.g09.slc.cpg/sg13_20_cif.got.tgz:39531.got - 2010.06.28 04:50:58.
