data_PCOD8118737
_publ_section_title
;
Structure prediction by ZEFSAII (Michael W. Deem and Ramdas Pophale) SiO2 
 PCOD8118737
Probable space group: P 2/C
;
_chemical_formula_sum "Si O2"
_cell_formula_units_Z 30
_cell_length_a 9.941291
_cell_length_b 30.688989
_cell_length_c 5.197473
_cell_angle_alpha 90.000000
_cell_angle_beta 68.441737
_cell_angle_gamma 90.000000
_cell_volume 1474.759803
_symmetry_space_group_name_H-M "P 2/C"
_symmetry_group_IT_number 13
_symmetry_cell_setting 'monoclinic'
loop_
_space_group_symop_operation_xyz
x,y,z
-x,y,1/2-z
-x,-y,-z
x,-y,1/2+z
loop_
_atom_site_type_symbol
_atom_site_label
_atom_site_fract_x
_atom_site_fract_y
_atom_site_fract_z
Si Si1 0.328294 0.174533 0.869224
Si Si2 0.749492 0.621723 0.510802
Si Si3 0.672632 0.025017 0.134591
Si Si4 0.653779 0.334560 0.552212
Si Si5 0.000000 0.677008 0.250000
Si Si6 0.850355 0.260490 0.484291
Si Si7 0.329167 0.877413 0.870599
Si Si8 0.331098 0.526704 0.865409
O O1 0.500000 0.183707 0.750000
O O2 0.241976 0.218580 0.876002
O O3 0.279375 0.142529 0.675732
O O4 0.276649 0.152942 0.172734
O O5 0.716410 0.636343 0.242035
O O6 0.762389 0.569728 0.512029
O O7 0.901995 0.644320 0.492186
O O8 0.633663 0.635846 0.811528
O O9 0.500000 0.025806 0.250000
O O10 0.735639 0.074013 0.109616
O O11 0.731383 0.997834 0.335741
O O12 0.500000 0.315931 0.750000
O O13 0.749357 0.292947 0.390067
O O14 0.113570 0.709496 0.299743
O O15 0.000000 0.245749 0.250000
O O16 0.500000 0.880893 0.750000
O O17 0.500000 0.539072 0.750000
O O18 0.290643 0.507902 0.614855
#
# Coordination Sequence:
#
# PCOD8118737 Si02
#       8
#     4   4   4   4   2   4   4   4
#     4  10  21  35  55  78 111 151 187 231 279 333
#     4  11  22  39  61  85 119 151 188 229 287 333
#     4   9  15  24  43  70 105 146 181 219 274 338
#     4  11  22  37  61  88 113 146 194 239 281 338
#     4  10  24  42  60  84 114 154 188 238 286 344
#     4  11  23  40  58  81 113 148 189 235 290 336
#     4   9  18  32  48  76 112 148 187 229 280 335
#     4  10  20  35  56  84 115 146 183 228 277 330
#
# _framework density 20.342293999999999
#
# number of rings (size 3 to 8) (size 9 to 14) (size 15 to 20)
#    0.000    1.867    1.333    3.200    1.867    4.267 
#    0.000    3.333    0.000    0.000    0.000    0.000 
#    0.000   10.667    0.000    0.000    0.000    0.000 
#
# Total GULP energy -371811.779374 kJ/mol
# GULP energy per Si atom -12393.725979 kJ/mol
# Density = 2.029599 g / cm^3
# Si number density = 20.342294 Si / 1000 Ang^3
#
#
#
# Elastic Constant Matrix: (Units=GPa)
#
#
# Indices 1 2 3 4 5 6 
#
# 1 50.3084 45.8898 28.0576 0.0000 1.1825 0.0000
# 2 45.8898 161.5934 47.9222 0.0000 0.9056 0.0000
# 3 28.0576 47.9222 105.8826 0.0000 18.7154 0.0000
# 4 0.0000 0.0000 0.0000 2.6969 0.0000 38.4517
# 5 1.1825 0.9056 18.7154 0.0000 27.5610 0.0000
# 6 0.0000 0.0000 0.0000 38.4517 0.0000 -20.9995
#
#
#
# Elastic Compliance Matrix: (Units=1/GPa)
#
#
# Indices 1 2 3 4 5 6 
#
# 1 0.028707 -0.006681 -0.005005 0.000000 0.002386 0.000000
# 2 -0.006681 0.008825 -0.002527 0.000000 0.001712 0.000000
# 3 -0.005005 -0.002527 0.013479 0.000000 -0.008855 0.000000
# 4 0.000000 0.000000 0.000000 0.013679 0.000000 0.025047
# 5 0.002386 0.001712 -0.008855 0.000000 0.042138 0.000000
# 6 0.000000 0.000000 0.000000 0.025047 0.000000 -0.001757
#
#
# Mechanical properties :
#
#
# Convention : Reuss Voigt Hill
#
# Bulk Modulus (GPa) = 44.27454 62.39150 53.33302
# Shear Modulus (GPa) = 35.45430 14.91267 25.18349
#
# Velocity S-wave (km/s) = 4.17932 2.71050 3.52232
# Velocity P-wave (km/s) = 6.71572 6.36656 6.54347
#
# Compressibility (1/GPa) = 0.02258634
#
# Stress axis : x y z
#
# Youngs Moduli (GPa) = 34.83446 113.30829 74.18725
#
# Poissons Ratio (x) = 0.75707 0.37130
# Poissons Ratio (y) = 0.23275 0.18744
# Poissons Ratio (z) = 0.17434 0.28628
#
# Static dielectric constant tensor:
#      x y z
#    x 3.607160 0.000000 0.075080 
#    y 0.000000 3.751930 0.000000 
#    z 0.075080 0.000000 3.729790 
# 
# 
# High freq. dielectric constant tensor:
#      x y z
#    x 1.757040 0.000000 0.014940 
#    y 0.000000 1.803600 0.000000 
#    z 0.014940 0.000000 1.796690 
# 
# From -- ./inp_files/4474.got.cif
#   From: 2010.06.25/outbox.cif.g09.slc.cpg/sg13_3_cif.got.tgz:4474.got - 2010.06.28 04:50:58.
