data_PCOD8118014
_publ_section_title
;
Structure prediction by ZEFSAII (Michael W. Deem and Ramdas Pophale) SiO2 
 PCOD8118014
Probable space group: P 2/C
;
_chemical_formula_sum "Si O2"
_cell_formula_units_Z 24
_cell_length_a 9.267282
_cell_length_b 13.235062
_cell_length_c 22.364838
_cell_angle_alpha 90.000000
_cell_angle_beta 152.687886
_cell_angle_gamma 90.000000
_cell_volume 1258.644111
_symmetry_space_group_name_H-M "P 2/C"
_symmetry_group_IT_number 13
_symmetry_cell_setting 'monoclinic'
loop_
_space_group_symop_operation_xyz
x,y,z
-x,y,1/2-z
-x,-y,-z
x,-y,1/2+z
loop_
_atom_site_type_symbol
_atom_site_label
_atom_site_fract_x
_atom_site_fract_y
_atom_site_fract_z
Si Si1 0.890394 0.586254 0.274651
Si Si2 0.280344 0.530568 0.527722
Si Si3 0.923174 0.859068 0.519093
Si Si4 0.825998 0.357946 0.398136
Si Si5 0.861536 0.934608 0.369680
Si Si6 0.206370 0.191752 0.765468
O O1 0.643525 0.494408 0.176473
O O2 0.750657 0.693946 0.244592
O O3 0.000000 0.613749 0.250000
O O4 0.190935 0.557594 0.426542
O O5 0.184001 0.625814 0.533690
O O6 0.097299 0.428929 0.474122
O O7 0.024085 0.889232 0.488696
O O8 0.557282 0.851377 0.401930
O O9 0.102340 0.754730 0.597165
O O10 0.056283 0.947525 0.610712
O O11 0.500000 0.395254 0.250000
O O12 0.500000 0.918727 0.250000
O O13 0.968977 0.873663 0.350276
O O14 0.000000 0.181919 0.750000
#
# Coordination Sequence:
#
# PCOD8118014 Si02
#       6
#     4   4   4   4   4   4
#     4  11  22  39  59  82 118 157 195 236 287 349
#     4  11  22  37  56  86 112 152 194 235 291 338
#     4  10  19  35  58  79 111 146 188 235 291 340
#     4  11  21  34  57  83 114 143 187 247 284 341
#     4   9  19  35  56  83 107 145 186 236 289 344
#     4  10  21  36  56  82 112 149 190 236 288 347
#
# _framework density 19.068137
#
# number of rings (size 3 to 8) (size 9 to 14) (size 15 to 20)
#    0.000    1.667    3.333    2.000    0.000    0.667 
#    0.000    0.000    0.000    1.000    0.000    0.000 
#    0.000    0.000    0.000    0.000    0.000    0.000 
#
# Total GULP energy -297401.095898 kJ/mol
# GULP energy per Si atom -12391.712329 kJ/mol
# Density = 1.902474 g / cm^3
# Si number density = 19.068137 Si / 1000 Ang^3
#
#
#
# Elastic Constant Matrix: (Units=GPa)
#
#
# Indices 1 2 3 4 5 6 
#
# 1 85.2018 37.7983 23.6539 0.0000 -14.1071 0.0000
# 2 37.7983 98.8365 16.5823 0.0000 -10.4675 0.0000
# 3 23.6539 16.5823 56.2244 0.0000 -17.2800 0.0000
# 4 0.0000 0.0000 0.0000 29.8998 0.0000 -10.4924
# 5 -14.1071 -10.4675 -17.2800 0.0000 29.4261 0.0000
# 6 0.0000 0.0000 0.0000 -10.4924 0.0000 -4.1337
#
#
#
# Elastic Compliance Matrix: (Units=1/GPa)
#
#
# Indices 1 2 3 4 5 6 
#
# 1 0.015611 -0.004932 -0.004090 0.000000 0.003328 0.000000
# 2 -0.004932 0.012340 -0.001150 0.000000 0.001350 0.000000
# 3 -0.004090 -0.001150 0.023328 0.000000 0.011329 0.000000
# 4 0.000000 0.000000 0.000000 0.017689 0.000000 -0.044899
# 5 0.003328 0.001350 0.011329 0.000000 0.042712 0.000000
# 6 0.000000 0.000000 0.000000 -0.044899 0.000000 -0.127948
#
#
# Mechanical properties :
#
#
# Convention : Reuss Voigt Hill
#
# Bulk Modulus (GPa) = 32.32576 44.03684 38.18130
# Shear Modulus (GPa) = 347.55576 21.85367 184.70471
#
# Velocity S-wave (km/s) = 13.51540 3.38906 9.85271
# Velocity P-wave (km/s) = 16.14139 6.20152 12.22709
#
# Compressibility (1/GPa) = 0.03093508
#
# Stress axis : x y z
#
# Youngs Moduli (GPa) = 64.05644 81.04020 42.86766
#
# Poissons Ratio (x) = 0.39965 0.17535
# Poissons Ratio (y) = 0.31590 0.04928
# Poissons Ratio (z) = 0.26202 0.09317
#
# Static dielectric constant tensor:
#      x y z
#    x 3.438120 0.000000 -0.155560 
#    y 0.000000 3.559670 0.000000 
#    z -0.155560 0.000000 3.653550 
# 
# 
# High freq. dielectric constant tensor:
#      x y z
#    x 1.724690 0.000000 -0.007320 
#    y 0.000000 1.749970 0.000000 
#    z -0.007320 0.000000 1.737850 
# 
# From -- ./inp_files/29449.got.cif
#   From: 2010.06.25/outbox.cif.g09.slc.cpg/sg13_15_cif.got.tgz:29449.got - 2010.06.28 04:50:58.
