data_PCOD8118833
_publ_section_title
;
Structure prediction by ZEFSAII (Michael W. Deem and Ramdas Pophale) SiO2 
 PCOD8118833
Probable space group: P 2/C
;
_chemical_formula_sum "Si O2"
_cell_formula_units_Z 28
_cell_length_a 11.329418
_cell_length_b 8.648158
_cell_length_c 19.504506
_cell_angle_alpha 90.000000
_cell_angle_beta 132.278160
_cell_angle_gamma 90.000000
_cell_volume 1413.943020
_symmetry_space_group_name_H-M "P 2/C"
_symmetry_group_IT_number 13
_symmetry_cell_setting 'monoclinic'
loop_
_space_group_symop_operation_xyz
x,y,z
-x,y,1/2-z
-x,-y,-z
x,-y,1/2+z
loop_
_atom_site_type_symbol
_atom_site_label
_atom_site_fract_x
_atom_site_fract_y
_atom_site_fract_z
Si Si1 0.733090 0.616698 0.119576
Si Si2 0.055141 0.243231 0.523197
Si Si3 0.519307 0.586879 0.909504
Si Si4 0.000000 0.618954 0.750000
Si Si5 0.756413 0.268104 0.255988
Si Si6 0.000000 0.862005 0.250000
Si Si7 0.948768 0.014800 0.371314
Si Si8 0.240407 0.547808 0.610631
O O1 0.583314 0.566061 0.109226
O O2 0.834417 0.762427 0.188029
O O3 0.859524 0.479680 0.160574
O O4 0.656649 0.642506 0.015004
O O5 0.064102 0.133658 0.458846
O O6 0.886916 0.328937 0.467190
O O7 0.191548 0.371828 0.576096
O O8 0.081153 0.142354 0.600611
O O9 0.394160 0.729293 0.853741
O O10 0.593863 0.564629 0.863946
O O11 0.924855 0.719320 0.781480
O O12 0.775376 0.101199 0.299161
O O13 0.737196 0.414466 0.300048
O O14 0.015511 0.970776 0.322592
#
# Coordination Sequence:
#
# PCOD8118833 Si02
#       8
#     4   4   4   2   4   2   4   4
#     4   9  21  35  59  88 115 152 196 249 298 346
#     4   9  21  37  60  92 114 152 207 254 297 351
#     4  10  20  37  57  88 124 149 194 256 301 357
#     4   9  19  34  58  86 114 146 204 252 286 344
#     4  10  21  36  58  89 117 160 196 248 305 358
#     4  11  21  38  66  84 118 164 206 244 296 368
#     4  10  21  37  57  86 124 150 197 250 301 359
#     4  10  20  35  66  86 114 155 207 251 295 354
#
# _framework density 19.802778
#
# number of rings (size 3 to 8) (size 9 to 14) (size 15 to 20)
#    0.000    2.286    0.000    1.714   12.000    0.000 
#    2.571    0.714   15.714    0.000    0.000    0.000 
#    0.000    0.000    0.000    0.000    0.000    0.000 
#
# Total GULP energy -346921.757451 kJ/mol
# GULP energy per Si atom -12390.062766 kJ/mol
# Density = 1.975771 g / cm^3
# Si number density = 19.802778 Si / 1000 Ang^3
#
#
#
# Elastic Constant Matrix: (Units=GPa)
#
#
# Indices 1 2 3 4 5 6 
#
# 1 114.3723 27.8472 34.3120 0.0000 -11.3351 0.0000
# 2 27.8472 104.0860 41.7877 0.0000 -5.9043 0.0000
# 3 34.3120 41.7877 111.6989 0.0000 -4.2510 0.0000
# 4 0.0000 0.0000 0.0000 28.5003 0.0000 -7.0872
# 5 -11.3351 -5.9043 -4.2510 0.0000 35.1685 0.0000
# 6 0.0000 0.0000 0.0000 -7.0872 0.0000 16.0315
#
#
#
# Elastic Compliance Matrix: (Units=1/GPa)
#
#
# Indices 1 2 3 4 5 6 
#
# 1 0.010121 -0.001586 -0.002413 0.000000 0.002704 0.000000
# 2 -0.001586 0.011622 -0.003824 0.000000 0.000978 0.000000
# 3 -0.002413 -0.003824 0.011121 0.000000 -0.000075 0.000000
# 4 0.000000 0.000000 0.000000 0.039421 0.000000 0.017427
# 5 0.002704 0.000978 -0.000075 0.000000 0.029461 0.000000
# 6 0.000000 0.000000 0.000000 0.017427 0.000000 0.070081
#
#
# Mechanical properties :
#
#
# Convention : Reuss Voigt Hill
#
# Bulk Modulus (GPa) = 58.07076 59.78343 58.92710
# Shear Modulus (GPa) = 25.87810 31.02074 28.44942
#
# Velocity S-wave (km/s) = 3.61888 3.96218 3.79441
# Velocity P-wave (km/s) = 6.84470 7.15449 7.00131
#
# Compressibility (1/GPa) = 0.01722037
#
# Stress axis : x y z
#
# Youngs Moduli (GPa) = 98.80080 86.04180 89.91624
#
# Poissons Ratio (x) = 0.13644 0.21696
# Poissons Ratio (y) = 0.15667 0.34381
# Poissons Ratio (z) = 0.23840 0.32900
#
# Static dielectric constant tensor:
#      x y z
#    x 3.545630 0.000000 -0.036950 
#    y 0.000000 3.609500 0.000000 
#    z -0.036950 0.000000 3.760910 
# 
# 
# High freq. dielectric constant tensor:
#      x y z
#    x 1.758900 0.000000 -0.010650 
#    y 0.000000 1.759230 0.000000 
#    z -0.010650 0.000000 1.785400 
# 
# From -- ./inp_files/78121.got.cif
#   From: 2010.06.25/outbox.cif.g09.slc.cpg/sg13_40_cif.got.tgz:78121.got - 2010.06.28 04:50:58.
