data_PCOD8118134
_publ_section_title
;
Structure prediction by ZEFSAII (Michael W. Deem and Ramdas Pophale) SiO2 
 PCOD8118134
Probable space group: P 2/C
;
_chemical_formula_sum "Si O2"
_cell_formula_units_Z 28
_cell_length_a 11.563282
_cell_length_b 11.107084
_cell_length_c 14.417542
_cell_angle_alpha 90.000000
_cell_angle_beta 50.319612
_cell_angle_gamma 90.000000
_cell_volume 1425.107755
_symmetry_space_group_name_H-M "P 2/C"
_symmetry_group_IT_number 13
_symmetry_cell_setting 'monoclinic'
loop_
_space_group_symop_operation_xyz
x,y,z
-x,y,1/2-z
-x,-y,-z
x,-y,1/2+z
loop_
_atom_site_type_symbol
_atom_site_label
_atom_site_fract_x
_atom_site_fract_y
_atom_site_fract_z
Si Si1 0.039061 0.340656 0.914318
Si Si2 0.074931 0.597572 0.838728
Si Si3 0.103727 0.101163 0.578083
Si Si4 0.799616 0.719324 0.878959
Si Si5 0.338954 0.269056 0.865237
Si Si6 0.335730 0.006563 0.318846
Si Si7 0.818509 0.017406 0.287155
O O1 0.044249 0.455360 0.843204
O O2 0.205123 0.325700 0.872872
O O3 0.982915 0.227867 0.883836
O O4 0.915135 0.367550 0.058029
O O5 0.222646 0.635886 0.702422
O O6 0.948516 0.681024 0.857934
O O7 0.209335 0.085912 0.434755
O O8 0.196837 0.089220 0.627173
O O9 0.976166 0.996758 0.650167
O O10 0.809681 0.857325 0.844394
O O11 0.667939 0.699040 0.021560
O O12 0.500000 0.319264 0.750000
O O13 0.328136 0.126036 0.863859
O O14 0.500000 0.064057 0.250000
O O15 0.313851 0.005273 0.219338
#
# Coordination Sequence:
#
# PCOD8118134 Si02
#       7
#     4   4   4   4   4   4   4
#     4  10  20  36  60  88 120 153 203 255 304 342
#     4   9  19  34  59  86 112 154 200 249 295 355
#     4  11  21  35  59  90 119 148 194 258 297 358
#     4  10  19  36  59  84 117 153 199 241 299 366
#     4  10  21  39  58  84 124 167 197 241 305 370
#     4  11  23  39  57  86 128 164 194 240 305 368
#     4  11  22  34  60  90 114 154 200 243 306 363
#
# _framework density 19.647637
#
# number of rings (size 3 to 8) (size 9 to 14) (size 15 to 20)
#    0.000    1.714    2.857    3.000    2.000    2.857 
#    0.000    0.714    0.000   13.714    0.000    0.000 
#    0.000    0.000    0.000    0.000    0.000    0.000 
#
# Total GULP energy -346961.514429 kJ/mol
# GULP energy per Si atom -12391.482658 kJ/mol
# Density = 1.960292 g / cm^3
# Si number density = 19.647637 Si / 1000 Ang^3
#
#
#
# Elastic Constant Matrix: (Units=GPa)
#
#
# Indices 1 2 3 4 5 6 
#
# 1 100.3620 35.8209 47.8417 0.0000 15.1501 0.0000
# 2 35.8209 84.6874 58.8504 0.0000 16.3918 0.0000
# 3 47.8417 58.8504 138.9089 0.0000 13.3051 0.0000
# 4 0.0000 0.0000 0.0000 26.9906 0.0000 13.3231
# 5 15.1501 16.3918 13.3051 0.0000 23.8101 0.0000
# 6 0.0000 0.0000 0.0000 13.3231 0.0000 20.2071
#
#
#
# Elastic Compliance Matrix: (Units=1/GPa)
#
#
# Indices 1 2 3 4 5 6 
#
# 1 0.013003 -0.002502 -0.002949 0.000000 -0.004904 0.000000
# 2 -0.002502 0.018789 -0.006352 0.000000 -0.007794 0.000000
# 3 -0.002949 -0.006352 0.010890 0.000000 0.000164 0.000000
# 4 0.000000 0.000000 0.000000 0.054926 0.000000 -0.036214
# 5 -0.004904 -0.007794 0.000164 0.000000 0.050393 0.000000
# 6 0.000000 0.000000 0.000000 -0.036214 0.000000 0.073365
#
#
# Mechanical properties :
#
#
# Convention : Reuss Voigt Hill
#
# Bulk Modulus (GPa) = 52.41993 67.66493 60.04243
# Shear Modulus (GPa) = 19.89425 26.29790 23.09608
#
# Velocity S-wave (km/s) = 3.18551 3.66249 3.43230
# Velocity P-wave (km/s) = 6.34570 7.23872 6.80687
#
# Compressibility (1/GPa) = 0.01907671
#
# Stress axis : x y z
#
# Youngs Moduli (GPa) = 76.90741 53.22286 91.82762
#
# Poissons Ratio (x) = 0.13314 0.27078
# Poissons Ratio (y) = 0.19239 0.58330
# Poissons Ratio (z) = 0.22678 0.33808
#
# Static dielectric constant tensor:
#      x y z
#    x 3.526160 0.000000 0.293080 
#    y 0.000000 3.480280 0.000000 
#    z 0.293080 0.000000 4.410320 
# 
# 
# High freq. dielectric constant tensor:
#      x y z
#    x 1.734260 0.000000 0.026700 
#    y 0.000000 1.752760 0.000000 
#    z 0.026700 0.000000 1.777390 
# 
# From -- ./inp_files/50838.got.cif
#   From: 2010.06.25/outbox.cif.g09.slc.cpg/sg13_26_cif.got.tgz:50838.got - 2010.06.28 04:50:58.
