data_PCOD8118007
_publ_section_title
;
Structure prediction by ZEFSAII (Michael W. Deem and Ramdas Pophale) SiO2 
 PCOD8118007
Probable space group: P 2/C
;
_chemical_formula_sum "Si O2"
_cell_formula_units_Z 28
_cell_length_a 22.226718
_cell_length_b 13.846704
_cell_length_c 22.770512
_cell_angle_alpha 90.000000
_cell_angle_beta 166.941228
_cell_angle_gamma 90.000000
_cell_volume 1583.462119
_symmetry_space_group_name_H-M "P 2/C"
_symmetry_group_IT_number 13
_symmetry_cell_setting 'monoclinic'
loop_
_space_group_symop_operation_xyz
x,y,z
-x,y,1/2-z
-x,-y,-z
x,-y,1/2+z
loop_
_atom_site_type_symbol
_atom_site_label
_atom_site_fract_x
_atom_site_fract_y
_atom_site_fract_z
Si Si1 0.317713 0.125257 0.252644
Si Si2 0.794449 0.402988 0.745271
Si Si3 0.500000 0.008572 0.250000
Si Si4 0.127527 0.777091 0.249434
Si Si5 0.000000 0.141920 0.750000
Si Si6 0.207529 0.821874 0.781150
Si Si7 0.220042 0.383402 0.251054
Si Si8 0.340157 0.919062 0.218502
O O1 0.598507 0.169995 0.503247
O O2 0.255638 0.138402 0.261730
O O3 0.323237 0.012356 0.243822
O O4 0.091558 0.175776 0.000104
O O5 0.853840 0.337590 0.744905
O O6 0.510326 0.371785 0.499770
O O7 0.802767 0.515836 0.734777
O O8 0.010061 0.379855 0.999327
O O9 0.443802 0.941686 0.252252
O O10 0.749578 0.075405 0.500008
O O11 0.050148 0.787561 0.243304
O O12 0.166298 0.706187 0.743064
O O13 0.949464 0.872025 0.563111
O O14 0.460521 0.843775 0.062043
#
# Coordination Sequence:
#
# PCOD8118007 Si02
#       8
#     4   4   2   4   2   4   4   4
#     4  12  22  37  55  87 120 148 180 234 294 344
#     4  10  19  35  57  84 113 147 179 229 289 337
#     4  12  24  44  56  78 110 158 206 234 262 336
#     4  12  20  36  59  84 115 152 183 236 286 344
#     4  12  22  38  60  78 114 150 200 232 280 332
#     4  12  22  37  57  87 117 152 185 234 286 345
#     4  10  20  35  57  83 115 146 183 227 282 348
#     4  12  24  38  57  79 116 156 193 233 280 330
#
# _framework density 17.682773000000001
#
# number of rings (size 3 to 8) (size 9 to 14) (size 15 to 20)
#    0.000    0.571    5.714    4.286    0.000    0.000 
#    0.000    0.000    0.000    1.714    0.000    0.000 
#    0.000    0.000    0.000    0.000    0.000    0.000 
#
# Total GULP energy -347318.528371 kJ/mol
# GULP energy per Si atom -12404.233156 kJ/mol
# Density = 1.764253 g / cm^3
# Si number density = 17.682773 Si / 1000 Ang^3
#
#
#
# Elastic Constant Matrix: (Units=GPa)
#
#
# Indices 1 2 3 4 5 6 
#
# 1 113.9851 40.8664 27.6522 0.0000 5.3102 0.0000
# 2 40.8664 134.0239 24.6212 0.0000 4.5293 0.0000
# 3 27.6522 24.6212 122.3376 0.0000 7.9328 0.0000
# 4 0.0000 0.0000 0.0000 27.1756 0.0000 -0.2063
# 5 5.3102 4.5293 7.9328 0.0000 26.3810 0.0000
# 6 0.0000 0.0000 0.0000 -0.2063 0.0000 18.4310
#
#
#
# Elastic Compliance Matrix: (Units=1/GPa)
#
#
# Indices 1 2 3 4 5 6 
#
# 1 0.010226 -0.002772 -0.001684 0.000000 -0.001076 0.000000
# 2 -0.002772 0.008519 -0.001050 0.000000 -0.000589 0.000000
# 3 -0.001684 -0.001050 0.008906 0.000000 -0.002159 0.000000
# 4 0.000000 0.000000 0.000000 0.036801 0.000000 0.000412
# 5 -0.001076 -0.000589 -0.002159 0.000000 0.038873 0.000000
# 6 0.000000 0.000000 0.000000 0.000412 0.000000 0.054261
#
#
# Mechanical properties :
#
#
# Convention : Reuss Voigt Hill
#
# Bulk Modulus (GPa) = 60.09763 61.84736 60.97250
# Shear Modulus (GPa) = 28.71194 32.87798 30.79496
#
# Velocity S-wave (km/s) = 4.03392 4.31666 4.17768
# Velocity P-wave (km/s) = 7.46706 7.73930 7.60440
#
# Compressibility (1/GPa) = 0.01663959
#
# Stress axis : x y z
#
# Youngs Moduli (GPa) = 97.79398 117.37862 112.28499
#
# Poissons Ratio (x) = 0.32541 0.18904
# Poissons Ratio (y) = 0.27112 0.11787
# Poissons Ratio (z) = 0.16464 0.12322
#
# Static dielectric constant tensor:
#      x y z
#    x 3.378140 0.000000 0.031420 
#    y 0.000000 3.560420 0.000000 
#    z 0.031420 0.000000 3.580050 
# 
# 
# High freq. dielectric constant tensor:
#      x y z
#    x 1.660410 0.000000 0.003170 
#    y 0.000000 1.688920 0.000000 
#    z 0.003170 0.000000 1.716150 
# 
# From -- ./inp_files/89233.got.cif
#   From: 2010.06.25/outbox.cif.g09.slc.cpg/sg13_45_cif.got.tgz:89233.got - 2010.06.28 04:50:58.
