data_PCOD8118749
_publ_section_title
;
Structure prediction by ZEFSAII (Michael W. Deem and Ramdas Pophale) SiO2 
 PCOD8118749
Probable space group: P 2/C
;
_chemical_formula_sum "Si O2"
_cell_formula_units_Z 28
_cell_length_a 15.149771
_cell_length_b 6.852953
_cell_length_c 13.904327
_cell_angle_alpha 90.000000
_cell_angle_beta 65.361425
_cell_angle_gamma 90.000000
_cell_volume 1312.128842
_symmetry_space_group_name_H-M "P 2/C"
_symmetry_group_IT_number 13
_symmetry_cell_setting 'monoclinic'
loop_
_space_group_symop_operation_xyz
x,y,z
-x,y,1/2-z
-x,-y,-z
x,-y,1/2+z
loop_
_atom_site_type_symbol
_atom_site_label
_atom_site_fract_x
_atom_site_fract_y
_atom_site_fract_z
Si Si1 0.204810 0.552199 0.314990
Si Si2 0.544295 0.214996 0.551764
Si Si3 0.725467 0.873911 0.094931
Si Si4 0.880973 0.836051 0.563119
Si Si5 0.422020 0.954176 0.711448
Si Si6 0.589989 0.449207 0.340160
Si Si7 0.961365 0.833517 0.160026
O O1 0.227927 0.663366 0.404761
O O2 0.170394 0.339059 0.358842
O O3 0.301853 0.538655 0.205057
O O4 0.123398 0.671619 0.293235
O O5 0.647233 0.143567 0.546408
O O6 0.566797 0.311869 0.441191
O O7 0.490938 0.385518 0.639532
O O8 0.465253 0.032922 0.588462
O O9 0.807528 0.032533 0.031670
O O10 0.680536 0.947387 0.217424
O O11 0.957624 0.751836 0.451055
O O12 0.926121 0.963532 0.629335
O O13 0.500000 0.045089 0.750000
O O14 0.414715 0.722128 0.737134
O O15 0.000000 0.872688 0.250000
#
# Coordination Sequence:
#
# PCOD8118749 Si02
#       7
#     4   4   4   4   4   4   4
#     4  11  22  38  64  89 121 158 206 258 309 379
#     4  10  23  37  54  87 130 161 205 253 289 354
#     4  10  21  38  59  88 119 161 207 249 295 367
#     4  10  22  43  66  92 122 163 207 256 325 384
#     4  10  20  35  57  80 117 168 203 240 291 351
#     4  11  22  36  57  88 122 165 205 248 301 353
#     4  10  24  44  66  93 123 155 203 271 326 383
#
# _framework density 21.339365999999998
#
# number of rings (size 3 to 8) (size 9 to 14) (size 15 to 20)
#    0.000    1.714    2.857    0.857    2.000    2.857 
#    0.000    1.429    0.000    0.000    0.000    0.000 
#    0.000    0.000    0.000    0.000    0.000    0.000 
#
# Total GULP energy -346918.035805 kJ/mol
# GULP energy per Si atom -12389.929850 kJ/mol
# Density = 2.129080 g / cm^3
# Si number density = 21.339366 Si / 1000 Ang^3
#
#
#
# Elastic Constant Matrix: (Units=GPa)
#
#
# Indices 1 2 3 4 5 6 
#
# 1 101.3330 28.7680 18.4958 0.0000 -8.1223 0.0000
# 2 28.7680 101.5457 8.4528 0.0000 -11.4500 0.0000
# 3 18.4958 8.4528 56.0130 0.0000 -13.7611 0.0000
# 4 0.0000 0.0000 0.0000 21.5842 0.0000 -15.8614
# 5 -8.1223 -11.4500 -13.7611 0.0000 25.8626 0.0000
# 6 0.0000 0.0000 0.0000 -15.8614 0.0000 27.7855
#
#
#
# Elastic Compliance Matrix: (Units=1/GPa)
#
#
# Indices 1 2 3 4 5 6 
#
# 1 0.011308 -0.002873 -0.003152 0.000000 0.000602 0.000000
# 2 -0.002873 0.011108 0.000298 0.000000 0.004174 0.000000
# 3 -0.003152 0.000298 0.021441 0.000000 0.010550 0.000000
# 4 0.000000 0.000000 0.000000 0.079811 0.000000 0.045560
# 5 0.000602 0.004174 0.010550 0.000000 0.046316 0.000000
# 6 0.000000 0.000000 0.000000 0.045560 0.000000 0.061998
#
#
# Mechanical properties :
#
#
# Convention : Reuss Voigt Hill
#
# Bulk Modulus (GPa) = 30.86339 41.14722 36.00530
# Shear Modulus (GPa) = 19.66668 28.59146 24.12907
#
# Velocity S-wave (km/s) = 3.03910 3.66436 3.36628
# Velocity P-wave (km/s) = 5.17778 6.10144 5.65849
#
# Compressibility (1/GPa) = 0.03240085
#
# Stress axis : x y z
#
# Youngs Moduli (GPa) = 88.43453 90.02843 46.63973
#
# Poissons Ratio (x) = 0.25867 0.14703
# Poissons Ratio (y) = 0.25409 -0.01390
# Poissons Ratio (z) = 0.27878 -0.02682
#
# Static dielectric constant tensor:
#      x y z
#    x 3.775330 0.000000 -0.376780 
#    y 0.000000 4.196050 0.000000 
#    z -0.376780 0.000000 3.789040 
# 
# 
# High freq. dielectric constant tensor:
#      x y z
#    x 1.828290 0.000000 -0.024900 
#    y 0.000000 1.859780 0.000000 
#    z -0.024900 0.000000 1.825470 
# 
# From -- ./inp_files/54581.got.cif
#   From: 2010.06.25/outbox.cif.g09.slc.cpg/sg13_28_cif.got.tgz:54581.got - 2010.06.28 04:50:58.
