data_PCOD8118004
_publ_section_title
;
Structure prediction by ZEFSAII (Michael W. Deem and Ramdas Pophale) SiO2 
 PCOD8118004
Probable space group: P 2/C
;
_chemical_formula_sum "Si O2"
_cell_formula_units_Z 20
_cell_length_a 11.385910
_cell_length_b 17.727984
_cell_length_c 8.472200
_cell_angle_alpha 90.000000
_cell_angle_beta 38.529705
_cell_angle_gamma 90.000000
_cell_volume 1065.260389
_symmetry_space_group_name_H-M "P 2/C"
_symmetry_group_IT_number 13
_symmetry_cell_setting 'monoclinic'
loop_
_space_group_symop_operation_xyz
x,y,z
-x,y,1/2-z
-x,-y,-z
x,-y,1/2+z
loop_
_atom_site_type_symbol
_atom_site_label
_atom_site_fract_x
_atom_site_fract_y
_atom_site_fract_z
Si Si1 0.791899 0.595820 0.507508
Si Si2 0.500000 0.717682 0.750000
Si Si3 0.500000 0.026606 0.250000
Si Si4 0.225162 0.108409 0.032987
Si Si5 0.632515 0.457994 0.482286
Si Si6 0.489590 0.154631 0.010758
O O1 0.677183 0.663133 0.549129
O O2 0.750782 0.517070 0.462330
O O3 0.763110 0.593019 0.730335
O O4 0.000000 0.619931 0.250000
O O5 0.516562 0.768757 0.886304
O O6 0.513317 0.078558 0.084050
O O7 0.311021 0.976021 0.438505
O O8 0.290549 0.147882 0.127336
O O9 0.000000 0.107017 0.250000
O O10 0.323958 0.158307 0.793502
O O11 0.500000 0.500000 0.500000
O O12 0.500000 0.412697 0.750000
#
# Coordination Sequence:
#
# PCOD8118004 Si02
#       6
#     4   2   2   4   4   4
#     4  11  21  36  60  87 111 143 188 231 279 333
#     4  11  22  40  56  74 115 156 184 220 277 338
#     4   9  18  34  56  84 109 142 180 230 283 326
#     4  10  19  35  57  81 107 140 189 236 277 321
#     4   9  17  36  59  83 114 142 174 230 285 320
#     4   9  21  37  53  78 115 148 181 225 276 332
#
# _framework density 18.774751999999999
#
# number of rings (size 3 to 8) (size 9 to 14) (size 15 to 20)
#    0.000    2.400    3.000    3.000    0.000    4.800 
#    3.600    4.000    0.000    1.200    0.000    0.000 
#    0.000    0.000    0.000    0.000    0.000    0.000 
#
# Total GULP energy -247771.401354 kJ/mol
# GULP energy per Si atom -12388.570068 kJ/mol
# Density = 1.873202 g / cm^3
# Si number density = 18.774752 Si / 1000 Ang^3
#
#
#
# Elastic Constant Matrix: (Units=GPa)
#
#
# Indices 1 2 3 4 5 6 
#
# 1 106.8930 32.2711 67.6767 0.0000 -11.4884 0.0000
# 2 32.2711 79.5184 29.8669 0.0000 -5.2377 0.0000
# 3 67.6767 29.8669 129.2237 0.0000 -16.6090 0.0000
# 4 0.0000 0.0000 0.0000 14.2787 0.0000 -2.3859
# 5 -11.4884 -5.2377 -16.6090 0.0000 45.6891 0.0000
# 6 0.0000 0.0000 0.0000 -2.3859 0.0000 27.9352
#
#
#
# Elastic Compliance Matrix: (Units=1/GPa)
#
#
# Indices 1 2 3 4 5 6 
#
# 1 0.014815 -0.003376 -0.006870 0.000000 0.000841 0.000000
# 2 -0.003376 0.014549 -0.001562 0.000000 0.000251 0.000000
# 3 -0.006870 -0.001562 0.012014 0.000000 0.002461 0.000000
# 4 0.000000 0.000000 0.000000 0.071049 0.000000 0.006068
# 5 0.000841 0.000251 0.002461 0.000000 0.023022 0.000000
# 6 0.000000 0.000000 0.000000 0.006068 0.000000 0.036315
#
#
# Mechanical properties :
#
#
# Convention : Reuss Voigt Hill
#
# Bulk Modulus (GPa) = 56.30596 63.91828 60.11212
# Shear Modulus (GPa) = 24.83842 29.96860 27.40351
#
# Velocity S-wave (km/s) = 3.64121 3.99960 3.82461
# Velocity P-wave (km/s) = 6.90893 7.44633 7.18266
#
# Compressibility (1/GPa) = 0.01776011
#
# Stress axis : x y z
#
# Youngs Moduli (GPa) = 67.50115 68.73217 83.23679
#
# Poissons Ratio (x) = 0.23207 0.57186
# Poissons Ratio (y) = 0.22791 0.13003
# Poissons Ratio (z) = 0.46375 0.10737
#
# Static dielectric constant tensor:
#      x y z
#    x 4.114420 0.000000 0.694360 
#    y 0.000000 3.169130 0.000000 
#    z 0.694360 0.000000 3.965020 
# 
# 
# High freq. dielectric constant tensor:
#      x y z
#    x 1.736620 0.000000 0.017870 
#    y 0.000000 1.706320 0.000000 
#    z 0.017870 0.000000 1.733020 
# 
# From -- ./inp_files/17023.got.cif
#   From: 2010.06.25/outbox.cif.g09.slc.cpg/sg13_9_cif.got.tgz:17023.got - 2010.06.28 04:50:58.
