data_PCOD8118786
_publ_section_title
;
Structure prediction by ZEFSAII (Michael W. Deem and Ramdas Pophale) SiO2 
 PCOD8118786
Probable space group: P 2/C
;
_chemical_formula_sum "Si O2"
_cell_formula_units_Z 30
_cell_length_a 14.085683
_cell_length_b 6.147131
_cell_length_c 17.295070
_cell_angle_alpha 90.000000
_cell_angle_beta 76.592050
_cell_angle_gamma 90.000000
_cell_volume 1456.703405
_symmetry_space_group_name_H-M "P 2/C"
_symmetry_group_IT_number 13
_symmetry_cell_setting 'monoclinic'
loop_
_space_group_symop_operation_xyz
x,y,z
-x,y,1/2-z
-x,-y,-z
x,-y,1/2+z
loop_
_atom_site_type_symbol
_atom_site_label
_atom_site_fract_x
_atom_site_fract_y
_atom_site_fract_z
Si Si1 0.931965 0.099993 0.694459
Si Si2 0.460804 0.146676 0.895040
Si Si3 0.232971 0.762442 0.164554
Si Si4 0.362737 0.092187 0.061567
Si Si5 0.919708 0.582051 0.418417
Si Si6 0.961123 0.194204 0.058001
Si Si7 0.410400 0.527269 0.656744
Si Si8 0.500000 0.849630 0.750000
O O1 0.832616 0.187599 0.749067
O O2 0.000000 0.006112 0.750000
O O3 0.990399 0.288569 0.637920
O O4 0.901911 0.905591 0.641634
O O5 0.485722 0.399276 0.870166
O O6 0.553289 0.069951 0.926868
O O7 0.444361 0.003443 0.821621
O O8 0.364986 0.116192 0.967361
O O9 0.177293 0.604705 0.114696
O O10 0.324522 0.644494 0.187015
O O11 0.262557 0.983945 0.112425
O O12 0.382763 0.336890 0.086024
O O13 0.897050 0.660768 0.511076
O O14 0.949661 0.330479 0.420789
O O15 0.000000 0.000000 0.000000
O O16 0.418267 0.699513 0.725254
#
# Coordination Sequence:
#
# PCOD8118786 Si02
#       8
#     4   4   4   4   4   4   4   2
#     4   9  19  34  56  81 110 150 190 232 287 346
#     4   9  18  36  56  78 106 141 186 228 280 343
#     4  10  21  36  54  87 119 146 193 241 285 340
#     4   9  19  35  57  79 105 142 184 233 280 337
#     4   9  19  36  56  80 113 152 193 236 284 336
#     4   9  18  35  57  78 104 149 197 236 281 335
#     4  10  20  35  59  84 112 150 188 234 288 343
#     4  10  20  36  58  82 112 150 188 232 288 346
#
# _framework density 20.594446000000001
#
# number of rings (size 3 to 8) (size 9 to 14) (size 15 to 20)
#    0.000    2.667    0.000    0.800    0.000    6.933 
#    0.000    9.333    0.000    0.000    0.000    0.000 
#    0.000    0.000    0.000    0.000    0.000    0.000 
#
# Total GULP energy -371756.307860 kJ/mol
# GULP energy per Si atom -12391.876929 kJ/mol
# Density = 2.054757 g / cm^3
# Si number density = 20.594446 Si / 1000 Ang^3
#
#
#
# Elastic Constant Matrix: (Units=GPa)
#
#
# Indices 1 2 3 4 5 6 
#
# 1 50.1774 27.4629 37.9865 0.0000 -0.9260 0.0000
# 2 27.4629 113.3902 57.9113 0.0000 2.5947 0.0000
# 3 37.9865 57.9113 152.9529 0.0000 5.3407 0.0000
# 4 0.0000 0.0000 0.0000 25.3818 0.0000 12.2692
# 5 -0.9260 2.5947 5.3407 0.0000 24.1168 0.0000
# 6 0.0000 0.0000 0.0000 12.2692 0.0000 28.5558
#
#
#
# Elastic Compliance Matrix: (Units=1/GPa)
#
#
# Indices 1 2 3 4 5 6 
#
# 1 0.025877 -0.003716 -0.005108 0.000000 0.002524 0.000000
# 2 -0.003716 0.011469 -0.003398 0.000000 -0.000624 0.000000
# 3 -0.005108 -0.003398 0.009158 0.000000 -0.001859 0.000000
# 4 0.000000 0.000000 0.000000 0.049726 0.000000 -0.021365
# 5 0.002524 -0.000624 -0.001859 0.000000 0.042041 0.000000
# 6 0.000000 0.000000 0.000000 -0.021365 0.000000 0.044199
#
#
# Mechanical properties :
#
#
# Convention : Reuss Voigt Hill
#
# Bulk Modulus (GPa) = 45.33102 62.58244 53.95673
# Shear Modulus (GPa) = 23.33561 28.48819 25.91190
#
# Velocity S-wave (km/s) = 3.36981 3.72330 3.55096
# Velocity P-wave (km/s) = 6.09917 6.99557 6.56269
#
# Compressibility (1/GPa) = 0.02205995
#
# Stress axis : x y z
#
# Youngs Moduli (GPa) = 38.64489 87.19377 109.19751
#
# Poissons Ratio (x) = 0.32405 0.55774
# Poissons Ratio (y) = 0.14362 0.37100
# Poissons Ratio (z) = 0.19738 0.29624
#
# Static dielectric constant tensor:
#      x y z
#    x 3.357170 0.000000 0.119620 
#    y 0.000000 3.942170 0.000000 
#    z 0.119620 0.000000 4.183830 
# 
# 
# High freq. dielectric constant tensor:
#      x y z
#    x 1.759410 0.000000 0.013980 
#    y 0.000000 1.814050 0.000000 
#    z 0.013980 0.000000 1.815580 
# 
# From -- ./inp_files/67503.got.cif
#   From: 2010.06.25/outbox.cif.g09.slc.cpg/sg13_34_cif.got.tgz:67503.got - 2010.06.28 04:50:58.
