data_PCOD8118133
_publ_section_title
;
Structure prediction by ZEFSAII (Michael W. Deem and Ramdas Pophale) SiO2 
 PCOD8118133
Probable space group: P 2/C
;
_chemical_formula_sum "Si O2"
_cell_formula_units_Z 20
_cell_length_a 14.996983
_cell_length_b 7.072103
_cell_length_c 20.762443
_cell_angle_alpha 90.000000
_cell_angle_beta 154.542969
_cell_angle_gamma 90.000000
_cell_volume 946.524320
_symmetry_space_group_name_H-M "P 2/C"
_symmetry_group_IT_number 13
_symmetry_cell_setting 'monoclinic'
loop_
_space_group_symop_operation_xyz
x,y,z
-x,y,1/2-z
-x,-y,-z
x,-y,1/2+z
loop_
_atom_site_type_symbol
_atom_site_label
_atom_site_fract_x
_atom_site_fract_y
_atom_site_fract_z
Si Si1 0.107373 0.193212 0.586624
Si Si2 0.808251 0.528824 0.941257
Si Si3 0.456194 0.227389 0.904925
Si Si4 0.754248 0.107104 0.604961
Si Si5 0.545291 0.585171 0.888225
O O1 0.112400 0.320150 0.525469
O O2 0.335994 0.150464 0.763193
O O3 0.989623 0.315787 0.564831
O O4 0.000000 0.000000 0.500000
O O5 0.711254 0.496810 0.947480
O O6 0.662890 0.611660 0.789092
O O7 0.300291 0.211611 0.863764
O O8 0.516699 0.445764 0.930737
O O9 0.666792 0.106898 0.051812
O O10 0.628586 0.214116 0.466851
O O11 0.000000 0.105668 0.750000
#
# Coordination Sequence:
#
# PCOD8118133 Si02
#       5
#     4   4   4   4   4
#     4  10  19  36  59  84 117 149 183 238 290 333
#     4   9  20  34  57  88 110 144 194 230 283 353
#     4  10  23  39  57  86 117 149 195 238 281 344
#     4  11  23  39  59  83 114 155 197 234 282 344
#     4  10  20  38  57  80 116 149 186 240 286 329
#
# _framework density 21.129939
#
# number of rings (size 3 to 8) (size 9 to 14) (size 15 to 20)
#    0.000    2.000    0.000    3.000    0.000    4.000 
#    0.000   10.000    0.000    0.000    0.000    0.000 
#    0.000    0.000    0.000    0.000    0.000    0.000 
#
# Total GULP energy -247917.408497 kJ/mol
# GULP energy per Si atom -12395.870425 kJ/mol
# Density = 2.108185 g / cm^3
# Si number density = 21.129939 Si / 1000 Ang^3
#
#
#
# Elastic Constant Matrix: (Units=GPa)
#
#
# Indices 1 2 3 4 5 6 
#
# 1 113.9074 21.0761 16.7808 0.0000 19.1136 0.0000
# 2 21.0761 64.6858 28.1696 0.0000 3.0918 0.0000
# 3 16.7808 28.1696 61.8246 0.0000 11.4489 0.0000
# 4 0.0000 0.0000 0.0000 35.0391 0.0000 2.7352
# 5 19.1136 3.0918 11.4489 0.0000 32.0621 0.0000
# 6 0.0000 0.0000 0.0000 2.7352 0.0000 16.1468
#
#
#
# Elastic Compliance Matrix: (Units=1/GPa)
#
#
# Indices 1 2 3 4 5 6 
#
# 1 0.010342 -0.002914 -0.000417 0.000000 -0.005735 0.000000
# 2 -0.002914 0.020163 -0.008950 0.000000 0.002988 0.000000
# 3 -0.000417 -0.008950 0.021588 0.000000 -0.006597 0.000000
# 4 0.000000 0.000000 0.000000 0.028922 0.000000 -0.004899
# 5 -0.005735 0.002988 -0.006597 0.000000 0.036676 0.000000
# 6 0.000000 0.000000 0.000000 -0.004899 0.000000 0.062762
#
#
# Mechanical properties :
#
#
# Convention : Reuss Voigt Hill
#
# Bulk Modulus (GPa) = 36.32249 41.38567 38.85408
# Shear Modulus (GPa) = 23.34361 28.27568 25.80965
#
# Velocity S-wave (km/s) = 3.32741 3.66208 3.49875
# Velocity P-wave (km/s) = 5.65593 6.12454 5.89489
#
# Compressibility (1/GPa) = 0.02753116
#
# Stress axis : x y z
#
# Youngs Moduli (GPa) = 96.69240 49.59492 46.32298
#
# Poissons Ratio (x) = 0.14451 0.01933
# Poissons Ratio (y) = 0.28174 0.41458
# Poissons Ratio (z) = 0.04036 0.44386
#
# Static dielectric constant tensor:
#      x y z
#    x 3.885210 0.000000 0.136850 
#    y 0.000000 3.592710 0.000000 
#    z 0.136850 0.000000 3.850940 
# 
# 
# High freq. dielectric constant tensor:
#      x y z
#    x 1.829980 0.000000 0.008860 
#    y 0.000000 1.820890 0.000000 
#    z 0.008860 0.000000 1.826810 
# 
# From -- ./inp_files/79432.got.cif
#   From: 2010.06.25/outbox.cif.g09.slc.cpg/sg13_40_cif.got.tgz:79432.got - 2010.06.28 04:50:58.
