data_PCOD8118184
_publ_section_title
;
Structure prediction by ZEFSAII (Michael W. Deem and Ramdas Pophale) SiO2 
 PCOD8118184
Probable space group: P 2/C
;
_chemical_formula_sum "Si O2"
_cell_formula_units_Z 28
_cell_length_a 14.433256
_cell_length_b 11.054366
_cell_length_c 8.942940
_cell_angle_alpha 90.000000
_cell_angle_beta 104.122286
_cell_angle_gamma 90.000000
_cell_volume 1383.727059
_symmetry_space_group_name_H-M "P 2/C"
_symmetry_group_IT_number 13
_symmetry_cell_setting 'monoclinic'
loop_
_space_group_symop_operation_xyz
x,y,z
-x,y,1/2-z
-x,-y,-z
x,-y,1/2+z
loop_
_atom_site_type_symbol
_atom_site_label
_atom_site_fract_x
_atom_site_fract_y
_atom_site_fract_z
Si Si1 0.878602 0.921094 0.589420
Si Si2 0.662295 0.103886 0.955280
Si Si3 0.926690 0.853971 0.930972
Si Si4 0.226966 0.665972 0.610343
Si Si5 0.290132 0.502774 0.884371
Si Si6 0.606661 0.642188 0.328322
Si Si7 0.390537 0.142281 0.224198
O O1 0.776511 0.887325 0.482080
O O2 0.875214 0.913462 0.766774
O O3 0.960349 0.831849 0.553694
O O4 0.909940 0.057443 0.563657
O O5 0.619573 0.213646 0.842611
O O6 0.622595 0.978535 0.877311
O O7 0.630935 0.112924 0.113490
O O8 0.874980 0.729340 0.947437
O O9 0.226581 0.600966 0.771398
O O10 0.226648 0.569568 0.477249
O O11 0.318716 0.755066 0.633691
O O12 0.331429 0.408125 0.783027
O O13 0.370251 0.578336 0.004967
O O14 0.500000 0.607665 0.250000
O O15 0.500000 0.188414 0.250000
#
# Coordination Sequence:
#
# PCOD8118184 Si02
#       7
#     4   4   4   4   4   4   4
#     4  10  19  36  62  95 123 159 197 246 314 376
#     4  12  23  41  60  92 130 164 200 255 320 383
#     4  10  20  36  64  92 126 157 198 254 310 365
#     4  11  22  43  63  91 126 164 212 265 309 368
#     4  10  24  40  63  86 120 167 216 258 306 358
#     4  11  23  39  61  86 117 161 215 258 304 362
#     4  12  26  39  61  91 132 166 205 253 325 376
#
# _framework density 20.235204
#
# number of rings (size 3 to 8) (size 9 to 14) (size 15 to 20)
#    0.000    1.143    4.286    1.286    4.000    3.429 
#    0.000    0.000    0.000   15.429    0.000    0.000 
#    0.000    0.000    0.000    0.000    0.000    0.000 
#
# Total GULP energy -347253.314635 kJ/mol
# GULP energy per Si atom -12401.904094 kJ/mol
# Density = 2.018915 g / cm^3
# Si number density = 20.235204 Si / 1000 Ang^3
#
#
#
# Elastic Constant Matrix: (Units=GPa)
#
#
# Indices 1 2 3 4 5 6 
#
# 1 108.0461 23.8329 12.4224 0.0000 8.4001 0.0000
# 2 23.8329 94.2672 16.9124 0.0000 -4.2302 0.0000
# 3 12.4224 16.9124 51.2032 0.0000 -8.4873 0.0000
# 4 0.0000 0.0000 0.0000 35.7772 0.0000 1.9194
# 5 8.4001 -4.2302 -8.4873 0.0000 24.4802 0.0000
# 6 0.0000 0.0000 0.0000 1.9194 0.0000 19.8803
#
#
#
# Elastic Compliance Matrix: (Units=1/GPa)
#
#
# Indices 1 2 3 4 5 6 
#
# 1 0.010460 -0.002406 -0.002554 0.000000 -0.004890 0.000000
# 2 -0.002406 0.011841 -0.003025 0.000000 0.001823 0.000000
# 3 -0.002554 -0.003025 0.022500 0.000000 0.008154 0.000000
# 4 0.000000 0.000000 0.000000 0.028096 0.000000 -0.002713
# 5 -0.004890 0.001823 0.008154 0.000000 0.045669 0.000000
# 6 0.000000 0.000000 0.000000 -0.002713 0.000000 0.050563
#
#
# Mechanical properties :
#
#
# Convention : Reuss Voigt Hill
#
# Bulk Modulus (GPa) = 34.68380 39.98355 37.33367
# Shear Modulus (GPa) = 25.67925 29.38413 27.53169
#
# Velocity S-wave (km/s) = 3.56622 3.81482 3.69261
# Velocity P-wave (km/s) = 5.84250 6.26147 6.05561
#
# Compressibility (1/GPa) = 0.02883190
#
# Stress axis : x y z
#
# Youngs Moduli (GPa) = 95.60446 84.45278 44.44352
#
# Poissons Ratio (x) = 0.20317 0.11349
# Poissons Ratio (y) = 0.23000 0.13445
# Poissons Ratio (z) = 0.24414 0.25549
#
# Static dielectric constant tensor:
#      x y z
#    x 3.762920 0.000000 -0.006380 
#    y 0.000000 3.733620 0.000000 
#    z -0.006380 0.000000 3.841060 
# 
# 
# High freq. dielectric constant tensor:
#      x y z
#    x 1.787570 0.000000 -0.005400 
#    y 0.000000 1.786730 0.000000 
#    z -0.005400 0.000000 1.799670 
# 
# From -- ./inp_files/18850.got.cif
#   From: 2010.06.25/outbox.cif.g09.slc.cpg/sg13_10_cif.got.tgz:18850.got - 2010.06.28 04:50:58.
