data_PCOD8118009
_publ_section_title
;
Structure prediction by ZEFSAII (Michael W. Deem and Ramdas Pophale) SiO2 
 PCOD8118009
Probable space group: P 2/C
;
_chemical_formula_sum "Si O2"
_cell_formula_units_Z 30
_cell_length_a 13.296374
_cell_length_b 10.911650
_cell_length_c 11.264203
_cell_angle_alpha 90.000000
_cell_angle_beta 76.216484
_cell_angle_gamma 90.000000
_cell_volume 1587.208839
_symmetry_space_group_name_H-M "P 2/C"
_symmetry_group_IT_number 13
_symmetry_cell_setting 'monoclinic'
loop_
_space_group_symop_operation_xyz
x,y,z
-x,y,1/2-z
-x,-y,-z
x,-y,1/2+z
loop_
_atom_site_type_symbol
_atom_site_label
_atom_site_fract_x
_atom_site_fract_y
_atom_site_fract_z
Si Si1 0.887665 0.679854 0.268158
Si Si2 0.734906 0.843040 0.202071
Si Si3 0.403737 0.167678 0.536422
Si Si4 0.229882 0.714371 0.957049
Si Si5 0.633541 0.886189 0.983931
Si Si6 0.799005 0.892081 0.745075
Si Si7 0.077526 0.555418 0.881422
Si Si8 0.000000 0.233243 0.250000
O O1 0.820689 0.736238 0.180543
O O2 0.833500 0.715687 0.404579
O O3 0.901132 0.535082 0.235127
O O4 0.000000 0.740670 0.250000
O O5 0.639535 0.818479 0.318203
O O6 0.797166 0.963851 0.223010
O O7 0.692848 0.840145 0.082147
O O8 0.350535 0.268219 0.462276
O O9 0.526483 0.188833 0.502525
O O10 0.382350 0.031087 0.494160
O O11 0.201310 0.829066 0.882962
O O12 0.192615 0.589765 0.901183
O O13 0.698221 0.852520 0.848578
O O14 0.900086 0.854436 0.793452
O O15 0.019938 0.679482 0.857400
O O16 0.000000 0.500000 0.000000
#
# Coordination Sequence:
#
# PCOD8118009 Si02
#       8
#     4   4   4   4   4   4   4   2
#     4  11  22  37  57  86 111 157 190 236 292 338
#     4  10  21  35  55  86 121 149 191 234 292 353
#     4   9  19  35  58  84 115 154 187 246 282 342
#     4  10  20  38  57  85 119 140 199 244 284 341
#     4  10  19  35  57  85 118 150 199 225 292 352
#     4  10  22  35  54  88 118 158 183 237 291 351
#     4  11  20  37  60  82 106 153 203 237 280 346
#     4  10  22  36  52  80 118 148 190 238 288 342
#
# _framework density 18.901102999999999
#
# number of rings (size 3 to 8) (size 9 to 14) (size 15 to 20)
#    0.000    1.867    3.333    0.400    2.800    0.533 
#    0.000    1.333    0.000    0.800   13.867    0.000 
#    0.000    0.000    0.000    0.000    0.000    0.000 
#
# Total GULP energy -371754.965746 kJ/mol
# GULP energy per Si atom -12391.832192 kJ/mol
# Density = 1.885808 g / cm^3
# Si number density = 18.901103 Si / 1000 Ang^3
#
#
#
# Elastic Constant Matrix: (Units=GPa)
#
#
# Indices 1 2 3 4 5 6 
#
# 1 154.9393 53.9521 45.1482 0.0000 5.2503 0.0000
# 2 53.9521 59.1645 27.3170 0.0000 -1.8711 0.0000
# 3 45.1482 27.3170 74.9947 0.0000 10.1223 0.0000
# 4 0.0000 0.0000 0.0000 26.0588 0.0000 7.6190
# 5 5.2503 -1.8711 10.1223 0.0000 29.4279 0.0000
# 6 0.0000 0.0000 0.0000 7.6190 0.0000 34.3167
#
#
#
# Elastic Compliance Matrix: (Units=1/GPa)
#
#
# Indices 1 2 3 4 5 6 
#
# 1 0.010126 -0.007859 -0.003065 0.000000 -0.001252 0.000000
# 2 -0.007859 0.026883 -0.005748 0.000000 0.005089 0.000000
# 3 -0.003065 -0.005748 0.018088 0.000000 -0.006041 0.000000
# 4 0.000000 0.000000 0.000000 0.041039 0.000000 -0.009111
# 5 -0.001252 0.005089 -0.006041 0.000000 0.036606 0.000000
# 6 0.000000 0.000000 0.000000 -0.009111 0.000000 0.031163
#
#
# Mechanical properties :
#
#
# Convention : Reuss Voigt Hill
#
# Bulk Modulus (GPa) = 45.96628 60.21477 53.09052
# Shear Modulus (GPa) = 24.44993 28.80609 26.62801
#
# Velocity S-wave (km/s) = 3.60053 3.90813 3.75748
# Velocity P-wave (km/s) = 6.45424 7.23130 6.85379
#
# Compressibility (1/GPa) = 0.02175508
#
# Stress axis : x y z
#
# Youngs Moduli (GPa) = 98.75530 37.19797 55.28457
#
# Poissons Ratio (x) = 0.29232 0.16942
# Poissons Ratio (y) = 0.77608 0.31778
# Poissons Ratio (z) = 0.30264 0.21382
#
# Static dielectric constant tensor:
#      x y z
#    x 3.847040 0.000000 0.147280 
#    y 0.000000 3.542560 0.000000 
#    z 0.147280 0.000000 3.438180 
# 
# 
# High freq. dielectric constant tensor:
#      x y z
#    x 1.742190 0.000000 0.013860 
#    y 0.000000 1.708470 0.000000 
#    z 0.013860 0.000000 1.737660 
# 
# From -- ./inp_files/33837.got.cif
#   From: 2010.06.25/outbox.cif.g09.slc.cpg/sg13_17_cif.got.tgz:33837.got - 2010.06.28 04:50:58.
