data_PCOD8118657
_publ_section_title
;
Structure prediction by ZEFSAII (Michael W. Deem and Ramdas Pophale) SiO2 
 PCOD8118657
Probable space group: P 2/C
;
_chemical_formula_sum "Si O2"
_cell_formula_units_Z 24
_cell_length_a 19.445659
_cell_length_b 8.778678
_cell_length_c 19.934979
_cell_angle_alpha 90.000000
_cell_angle_beta 20.286108
_cell_angle_gamma 90.000000
_cell_volume 1179.863404
_symmetry_space_group_name_H-M "P 2/C"
_symmetry_group_IT_number 13
_symmetry_cell_setting 'monoclinic'
loop_
_space_group_symop_operation_xyz
x,y,z
-x,y,1/2-z
-x,-y,-z
x,-y,1/2+z
loop_
_atom_site_type_symbol
_atom_site_label
_atom_site_fract_x
_atom_site_fract_y
_atom_site_fract_z
Si Si1 0.930215 0.930634 0.711136
Si Si2 0.858537 0.326920 0.185586
Si Si3 0.049832 0.736974 0.278451
Si Si4 0.344604 0.475719 0.005682
Si Si5 0.716705 0.194931 0.524506
Si Si6 0.790509 0.454009 0.110352
O O1 0.124391 0.845107 0.563473
O O2 0.880691 0.849970 0.685847
O O3 0.945719 0.109931 0.680887
O O4 0.751565 0.911989 0.927935
O O5 0.704857 0.406128 0.376693
O O6 0.770925 0.337345 0.190813
O O7 0.074216 0.404928 0.991042
O O8 0.000000 0.794106 0.250000
O O9 0.881218 0.628502 0.462660
O O10 0.256461 0.646005 0.084767
O O11 0.258992 0.370807 0.023277
O O12 0.579701 0.481337 0.781094
O O13 0.500000 0.158671 0.750000
#
# Coordination Sequence:
#
# PCOD8118657 Si02
#       6
#     4   4   4   4   4   4
#     4  10  21  40  54  82 120 152 189 239 286 348
#     4   9  20  39  64  84 117 150 199 241 285 341
#     4  11  24  38  54  84 124 152 185 241 293 345
#     4  10  22  35  61  87 114 147 196 244 289 339
#     4  10  20  34  57  82 107 149 193 234 287 339
#     4  10  21  39  61  90 113 154 194 242 290 340
#
# _framework density 20.341338
#
# number of rings (size 3 to 8) (size 9 to 14) (size 15 to 20)
#    0.000    2.000    1.667    1.500    9.333    2.000 
#    0.000    0.833    0.000    0.000    0.000    0.000 
#    0.000    0.000    0.000    0.000    0.000    0.000 
#
# Total GULP energy -297583.519056 kJ/mol
# GULP energy per Si atom -12399.313294 kJ/mol
# Density = 2.029504 g / cm^3
# Si number density = 20.341338 Si / 1000 Ang^3
#
#
#
# Elastic Constant Matrix: (Units=GPa)
#
#
# Indices 1 2 3 4 5 6 
#
# 1 32.5924 13.7368 7.4095 0.0000 1.6795 0.0000
# 2 13.7368 96.1565 18.3754 0.0000 -16.6416 0.0000
# 3 7.4095 18.3754 120.9669 0.0000 -7.4711 0.0000
# 4 0.0000 0.0000 0.0000 13.2101 0.0000 0.0265
# 5 1.6795 -16.6416 -7.4711 0.0000 23.0110 0.0000
# 6 0.0000 0.0000 0.0000 0.0265 0.0000 24.4193
#
#
#
# Elastic Compliance Matrix: (Units=1/GPa)
#
#
# Indices 1 2 3 4 5 6 
#
# 1 0.033854 -0.005764 -0.001641 0.000000 -0.007172 0.000000
# 2 -0.005764 0.013073 -0.001044 0.000000 0.009536 0.000000
# 3 -0.001641 -0.001044 0.008660 0.000000 0.002177 0.000000
# 4 0.000000 0.000000 0.000000 0.075700 0.000000 -0.000082
# 5 -0.007172 0.009536 0.002177 0.000000 0.051584 0.000000
# 6 0.000000 0.000000 0.000000 -0.000082 0.000000 0.040951
#
#
# Mechanical properties :
#
#
# Convention : Reuss Voigt Hill
#
# Bulk Modulus (GPa) = 25.84676 36.52878 31.18777
# Shear Modulus (GPa) = 19.71477 26.14103 22.92790
#
# Velocity S-wave (km/s) = 3.11657 3.58874 3.36096
# Velocity P-wave (km/s) = 5.06802 5.93035 5.51606
#
# Compressibility (1/GPa) = 0.03868957
#
# Stress axis : x y z
#
# Youngs Moduli (GPa) = 29.53858 76.49326 115.47032
#
# Poissons Ratio (x) = 0.44091 0.18949
# Poissons Ratio (y) = 0.17026 0.12053
# Poissons Ratio (z) = 0.04847 0.07985
#
# Static dielectric constant tensor:
#      x y z
#    x 3.526540 0.000000 0.181970 
#    y 0.000000 3.565110 0.000000 
#    z 0.181970 0.000000 3.706460 
# 
# 
# High freq. dielectric constant tensor:
#      x y z
#    x 1.778730 0.000000 0.015050 
#    y 0.000000 1.787400 0.000000 
#    z 0.015050 0.000000 1.798050 
# 
# From -- ./inp_files/81620.got.cif
#   From: 2010.06.25/outbox.cif.g09.slc.cpg/sg13_41_cif.got.tgz:81620.got - 2010.06.28 04:50:58.
