data_PCOD8118452
_publ_section_title
;
Structure prediction by ZEFSAII (Michael W. Deem and Ramdas Pophale) SiO2 
 PCOD8118452
Probable space group: P 2/C
;
_chemical_formula_sum "Si O2"
_cell_formula_units_Z 24
_cell_length_a 9.683925
_cell_length_b 14.303982
_cell_length_c 13.728817
_cell_angle_alpha 90.000000
_cell_angle_beta 145.571906
_cell_angle_gamma 90.000000
_cell_volume 1075.165728
_symmetry_space_group_name_H-M "P 2/C"
_symmetry_group_IT_number 13
_symmetry_cell_setting 'monoclinic'
loop_
_space_group_symop_operation_xyz
x,y,z
-x,y,1/2-z
-x,-y,-z
x,-y,1/2+z
loop_
_atom_site_type_symbol
_atom_site_label
_atom_site_fract_x
_atom_site_fract_y
_atom_site_fract_z
Si Si1 0.087962 0.454492 0.412346
Si Si2 0.095990 0.756816 0.914402
Si Si3 0.407419 0.242193 0.304739
Si Si4 0.263748 0.902326 0.394899
Si Si5 0.443073 0.546793 0.864471
Si Si6 0.568407 0.928865 0.393807
O O1 0.180226 0.349032 0.484763
O O2 0.840081 0.480411 0.332045
O O3 0.000000 0.467084 0.250000
O O4 0.332270 0.517063 0.577676
O O5 0.878672 0.782721 0.862551
O O6 0.000000 0.767483 0.750000
O O7 0.316326 0.827587 0.059807
O O8 0.500000 0.244125 0.250000
O O9 0.535865 0.164214 0.443026
O O10 0.451606 0.341712 0.382386
O O11 0.325359 0.918313 0.317536
O O12 0.000000 0.854210 0.250000
O O13 0.249987 0.000924 0.444488
O O14 0.500000 0.500000 0.000000
O O15 0.500000 0.973848 0.250000
#
# Coordination Sequence:
#
# PCOD8118452 Si02
#       6
#     4   4   4   4   4   4
#     4   8  16  31  58  86 114 163 212 255 316 376
#     4  10  19  41  68  88 126 176 218 259 324 395
#     4  11  24  42  65  97 134 173 216 272 333 384
#     4  11  26  43  65  98 129 170 214 270 333 382
#     4   9  18  35  60  89 122 170 211 261 321 382
#     4  11  25  43  67  96 128 168 219 269 321 396
#
# _framework density 22.322139
#
# number of rings (size 3 to 8) (size 9 to 14) (size 15 to 20)
#    0.000    2.000    1.667    2.000    4.667    2.667 
#    0.000    4.167    0.000    0.000    0.000    0.000 
#    0.000    0.000    0.000    0.000    0.000    0.000 
#
# Total GULP energy -297491.198481 kJ/mol
# GULP energy per Si atom -12395.466603 kJ/mol
# Density = 2.227133 g / cm^3
# Si number density = 22.322139 Si / 1000 Ang^3
#
#
#
# Elastic Constant Matrix: (Units=GPa)
#
#
# Indices 1 2 3 4 5 6 
#
# 1 142.6339 26.7487 45.5095 0.0000 21.6224 0.0000
# 2 26.7487 97.5150 34.4163 0.0000 25.0669 0.0000
# 3 45.5095 34.4163 78.6480 0.0000 30.0511 0.0000
# 4 0.0000 0.0000 0.0000 -85.2234 0.0000 -19.0279
# 5 21.6224 25.0669 30.0511 0.0000 44.3200 0.0000
# 6 0.0000 0.0000 0.0000 -19.0279 0.0000 4.9996
#
#
#
# Elastic Compliance Matrix: (Units=1/GPa)
#
#
# Indices 1 2 3 4 5 6 
#
# 1 0.008666 -0.000588 -0.004412 0.000000 -0.000904 0.000000
# 2 -0.000588 0.012839 -0.003527 0.000000 -0.004583 0.000000
# 3 -0.004412 -0.003527 0.020551 0.000000 -0.009787 0.000000
# 4 0.000000 0.000000 0.000000 -0.006343 0.000000 -0.024143
# 5 -0.000904 -0.004583 -0.009787 0.000000 0.032233 0.000000
# 6 0.000000 0.000000 0.000000 -0.024143 0.000000 0.108132
#
#
# Mechanical properties :
#
#
# Convention : Reuss Voigt Hill
#
# Bulk Modulus (GPa) = 39.99568 59.12732 49.56150
# Shear Modulus (GPa) = 24.81832 6.96074 15.88953
#
# Velocity S-wave (km/s) = 3.33802 1.76779 2.67091
# Velocity P-wave (km/s) = 5.72826 5.54188 5.63584
#
# Compressibility (1/GPa) = 0.02500270
#
# Stress axis : x y z
#
# Youngs Moduli (GPa) = 115.39499 77.88759 48.65969
#
# Poissons Ratio (x) = 0.04577 0.21468
# Poissons Ratio (y) = 0.06780 0.17162
# Poissons Ratio (z) = 0.50912 0.27471
#
# Static dielectric constant tensor:
#      x y z
#    x 4.597880 0.000000 0.537250 
#    y 0.000000 4.155670 0.000000 
#    z 0.537250 0.000000 4.006100 
# 
# 
# High freq. dielectric constant tensor:
#      x y z
#    x 1.899030 0.000000 0.019980 
#    y 0.000000 1.874930 0.000000 
#    z 0.019980 0.000000 1.859120 
# 
# From -- ./inp_files/47777.got.cif
#   From: 2010.06.25/outbox.cif.g09.slc.cpg/sg13_24_cif.got.tgz:47777.got - 2010.06.28 04:50:58.
