data_PCOD8118617
_publ_section_title
;
Structure prediction by ZEFSAII (Michael W. Deem and Ramdas Pophale) SiO2 
 PCOD8118617
Probable space group: P 2/C
;
_chemical_formula_sum "Si O2"
_cell_formula_units_Z 32
_cell_length_a 20.046660
_cell_length_b 9.002079
_cell_length_c 11.215053
_cell_angle_alpha 90.000000
_cell_angle_beta 123.667573
_cell_angle_gamma 90.000000
_cell_volume 1684.416067
_symmetry_space_group_name_H-M "P 2/C"
_symmetry_group_IT_number 13
_symmetry_cell_setting 'monoclinic'
loop_
_space_group_symop_operation_xyz
x,y,z
-x,y,1/2-z
-x,-y,-z
x,-y,1/2+z
loop_
_atom_site_type_symbol
_atom_site_label
_atom_site_fract_x
_atom_site_fract_y
_atom_site_fract_z
Si Si1 0.485383 0.103403 0.601423
Si Si2 0.262790 0.497069 0.265823
Si Si3 0.312177 0.231832 0.466665
Si Si4 0.812178 0.731833 0.966663
Si Si5 0.852746 0.734315 0.269270
Si Si6 0.647252 0.234316 0.730728
Si Si7 0.014617 0.603404 0.398577
Si Si8 0.237212 0.002930 0.234178
O O1 0.500000 0.028610 0.750000
O O2 0.400058 0.183374 0.507776
O O3 0.552425 0.231442 0.657183
O O4 0.500000 0.000000 0.500000
O O5 0.287867 0.396886 0.402446
O O6 0.252785 0.387289 0.143733
O O7 0.178611 0.585779 0.195597
O O8 0.334133 0.615141 0.321235
O O9 0.303386 0.236330 0.598347
O O10 0.247215 0.112709 0.356268
O O11 0.787866 0.896887 0.902445
O O12 0.803385 0.736329 0.098344
O O13 0.900059 0.683378 0.007776
O O14 0.947574 0.731441 0.342816
O O15 0.834130 0.884856 0.321233
O O16 0.678609 0.085780 0.695595
O O17 0.000000 0.528612 0.250000
O O18 0.000000 0.500000 0.500000
#
# Coordination Sequence:
#
# PCOD8118617 Si02
#       8
#     4   4   4   4   4   4   4   4
#     4  10  20  37  56  80 112 146 184 225 276 328
#     4  10  20  34  54  80 108 138 184 222 272 328
#     4  10  20  35  55  78 109 143 180 227 273 323
#     4  10  20  35  55  78 109 143 180 227 273 323
#     4  10  20  35  55  78 109 143 180 227 273 323
#     4  10  20  35  55  78 109 143 180 227 273 323
#     4  10  20  37  56  80 112 146 184 225 276 328
#     4  10  20  34  54  80 108 138 184 222 272 328
#
# _framework density 18.997682000000001
#
# number of rings (size 3 to 8) (size 9 to 14) (size 15 to 20)
#    0.000    2.000    2.500    1.500    0.000    1.000 
#    0.000    2.500    0.000    0.000    0.000    0.000 
#    0.000    0.000    0.000    0.000    0.000    0.000 
#
# Total GULP energy -396537.324741 kJ/mol
# GULP energy per Si atom -12391.791398 kJ/mol
# Density = 1.895444 g / cm^3
# Si number density = 18.997682 Si / 1000 Ang^3
#
#
#
# Elastic Constant Matrix: (Units=GPa)
#
#
# Indices 1 2 3 4 5 6 
#
# 1 55.8235 19.6697 -4.8810 0.0000 -0.3249 0.0000
# 2 19.6697 114.6859 22.6230 0.0000 -7.8902 0.0000
# 3 -4.8810 22.6230 48.0833 0.0000 -8.4883 0.0000
# 4 0.0000 0.0000 0.0000 21.8144 0.0000 0.7901
# 5 -0.3249 -7.8902 -8.4883 0.0000 32.8453 0.0000
# 6 0.0000 0.0000 0.0000 0.7901 0.0000 -49.0558
#
#
#
# Elastic Compliance Matrix: (Units=1/GPa)
#
#
# Indices 1 2 3 4 5 6 
#
# 1 0.019729 -0.004157 0.003999 0.000000 0.000230 0.000000
# 2 -0.004157 0.010532 -0.005174 0.000000 0.001152 0.000000
# 3 0.003999 -0.005174 0.024545 0.000000 0.005140 0.000000
# 4 0.000000 0.000000 0.000000 0.045814 0.000000 0.000738
# 5 0.000230 0.001152 0.005140 0.000000 0.032053 0.000000
# 6 0.000000 0.000000 0.000000 0.000738 0.000000 -0.020373
#
#
# Mechanical properties :
#
#
# Convention : Reuss Voigt Hill
#
# Bulk Modulus (GPa) = 22.65360 32.60179 27.62769
# Shear Modulus (GPa) = 36.31644 13.19952 24.75798
#
# Velocity S-wave (km/s) = 4.37696 2.63876 3.61392
# Velocity P-wave (km/s) = 6.12323 5.14609 5.65580
#
# Compressibility (1/GPa) = 0.04414309
#
# Stress axis : x y z
#
# Youngs Moduli (GPa) = 50.68612 94.94631 40.74162
#
# Poissons Ratio (x) = 0.39467 -0.16293
# Poissons Ratio (y) = 0.21069 0.21080
# Poissons Ratio (z) = -0.20270 0.49125
#
# Static dielectric constant tensor:
#      x y z
#    x 3.478580 0.000000 -0.093770 
#    y 0.000000 3.338570 0.000000 
#    z -0.093770 0.000000 3.603330 
# 
# 
# High freq. dielectric constant tensor:
#      x y z
#    x 1.737810 0.000000 -0.005070 
#    y 0.000000 1.727750 0.000000 
#    z -0.005070 0.000000 1.744290 
# 
# From -- ./inp_files/40504.got.cif
#   From: 2010.06.25/outbox.cif.g09.slc.cpg/sg13_21_cif.got.tgz:40504.got - 2010.06.28 04:50:58.
