data_PCOD8118235
_publ_section_title
;
Structure prediction by ZEFSAII (Michael W. Deem and Ramdas Pophale) SiO2 
 PCOD8118235
Probable space group: P 2/C
;
_chemical_formula_sum "Si O2"
_cell_formula_units_Z 28
_cell_length_a 24.815518
_cell_length_b 9.375194
_cell_length_c 8.763989
_cell_angle_alpha 90.000000
_cell_angle_beta 43.104456
_cell_angle_gamma 90.000000
_cell_volume 1393.273171
_symmetry_space_group_name_H-M "P 2/C"
_symmetry_group_IT_number 13
_symmetry_cell_setting 'monoclinic'
loop_
_space_group_symop_operation_xyz
x,y,z
-x,y,1/2-z
-x,-y,-z
x,-y,1/2+z
loop_
_atom_site_type_symbol
_atom_site_label
_atom_site_fract_x
_atom_site_fract_y
_atom_site_fract_z
Si Si1 0.943084 0.045226 0.984884
Si Si2 0.628171 0.167934 0.714413
Si Si3 0.303523 0.343116 0.394896
Si Si4 0.483144 0.648209 0.457425
Si Si5 0.846905 0.865751 0.954130
Si Si6 0.699950 0.931819 0.750091
Si Si7 0.735127 0.624491 0.183829
O O1 0.873704 0.126466 0.219208
O O2 0.911164 0.911333 0.948632
O O3 0.000000 0.136580 0.750000
O O4 0.000000 0.000000 0.000000
O O5 0.538247 0.222913 0.903836
O O6 0.660486 0.138089 0.479117
O O7 0.682000 0.291217 0.674017
O O8 0.632589 0.023746 0.804082
O O9 0.263354 0.191530 0.436067
O O10 0.257731 0.464167 0.393640
O O11 0.305230 0.381133 0.568306
O O12 0.392817 0.311720 0.162389
O O13 0.500000 0.618122 0.250000
O O14 0.500000 0.500000 0.500000
O O15 0.820551 0.700709 0.027912
O O16 0.772481 0.966595 0.141007
#
# Coordination Sequence:
#
# PCOD8118235 Si02
#       7
#     4   4   4   4   4   4   4
#     4   9  18  33  60  98 130 156 191 235 294 367
#     4  11  23  41  59  85 116 160 206 271 326 382
#     4  12  23  39  59  86 116 159 213 266 309 382
#     4  12  24  42  61  81 114 162 215 265 332 374
#     4  10  19  37  60  91 126 161 192 248 307 361
#     4  11  22  39  61  88 125 156 210 262 319 372
#     4  11  23  38  61  87 118 161 213 257 315 372
#
# _framework density 20.096561999999999
#
# number of rings (size 3 to 8) (size 9 to 14) (size 15 to 20)
#    0.000    1.143    2.857    6.000    0.000    0.571 
#    0.000    0.000    0.000    0.000    0.000   63.000 
#    0.000    0.000    0.000    0.000    0.000    0.000 
#
# Total GULP energy -346983.789806 kJ/mol
# GULP energy per Si atom -12392.278207 kJ/mol
# Density = 2.005082 g / cm^3
# Si number density = 20.096562 Si / 1000 Ang^3
#
#
#
# Elastic Constant Matrix: (Units=GPa)
#
#
# Indices 1 2 3 4 5 6 
#
# 1 106.5258 49.7221 37.1417 0.0000 12.6976 0.0000
# 2 49.7221 123.7746 29.9901 0.0000 3.8553 0.0000
# 3 37.1417 29.9901 117.8792 0.0000 14.0964 0.0000
# 4 0.0000 0.0000 0.0000 -10.3814 0.0000 31.3927
# 5 12.6976 3.8553 14.0964 0.0000 37.7409 0.0000
# 6 0.0000 0.0000 0.0000 31.3927 0.0000 21.1887
#
#
#
# Elastic Compliance Matrix: (Units=1/GPa)
#
#
# Indices 1 2 3 4 5 6 
#
# 1 0.012657 -0.004382 -0.002530 0.000000 -0.002865 0.000000
# 2 -0.004382 0.010127 -0.001307 0.000000 0.000928 0.000000
# 3 -0.002530 -0.001307 0.009939 0.000000 -0.002728 0.000000
# 4 0.000000 0.000000 0.000000 -0.017577 0.000000 0.026042
# 5 -0.002865 0.000928 -0.002728 0.000000 0.028384 0.000000
# 6 0.000000 0.000000 0.000000 0.026042 0.000000 0.008612
#
#
# Mechanical properties :
#
#
# Convention : Reuss Voigt Hill
#
# Bulk Modulus (GPa) = 61.40731 64.65415 63.03073
# Shear Modulus (GPa) = 67.55969 25.13135 46.34552
#
# Velocity S-wave (km/s) = 5.80435 3.54012 4.80744
# Velocity P-wave (km/s) = 8.69156 6.99654 7.88970
#
# Compressibility (1/GPa) = 0.01628471
#
# Stress axis : x y z
#
# Youngs Moduli (GPa) = 79.01060 98.74375 100.61209
#
# Poissons Ratio (x) = 0.43269 0.25459
# Poissons Ratio (y) = 0.34622 0.13148
# Poissons Ratio (z) = 0.19993 0.12904
#
# Static dielectric constant tensor:
#      x y z
#    x 3.888680 0.000000 0.102590 
#    y 0.000000 4.064880 0.000000 
#    z 0.102590 0.000000 4.897750 
# 
# 
# High freq. dielectric constant tensor:
#      x y z
#    x 1.792920 0.000000 0.020700 
#    y 0.000000 1.768930 0.000000 
#    z 0.020700 0.000000 1.791950 
# 
# From -- ./inp_files/24541.got.cif
#   From: 2010.06.25/outbox.cif.g09.slc.cpg/sg13_13_cif.got.tgz:24541.got - 2010.06.28 04:50:58.
