data_PCOD8118302
_publ_section_title
;
Structure prediction by ZEFSAII (Michael W. Deem and Ramdas Pophale) SiO2 
 PCOD8118302
Probable space group: P 2/C
;
_chemical_formula_sum "Si O2"
_cell_formula_units_Z 24
_cell_length_a 18.032989
_cell_length_b 5.833252
_cell_length_c 12.089144
_cell_angle_alpha 90.000000
_cell_angle_beta 132.391585
_cell_angle_gamma 90.000000
_cell_volume 939.196526
_symmetry_space_group_name_H-M "P 2/C"
_symmetry_group_IT_number 13
_symmetry_cell_setting 'monoclinic'
loop_
_space_group_symop_operation_xyz
x,y,z
-x,y,1/2-z
-x,-y,-z
x,-y,1/2+z
loop_
_atom_site_type_symbol
_atom_site_label
_atom_site_fract_x
_atom_site_fract_y
_atom_site_fract_z
Si Si1 0.752215 0.249993 0.887781
Si Si2 0.115229 0.929157 0.604823
Si Si3 0.885591 0.617209 0.106181
Si Si4 0.465718 0.117354 0.087709
Si Si5 0.463107 0.615240 0.340532
Si Si6 0.754804 0.038719 0.589848
O O1 0.657177 0.411622 0.767197
O O2 0.812159 0.150795 0.843570
O O3 0.836637 0.372536 0.045005
O O4 0.714080 0.049053 0.930732
O O5 0.126027 0.741377 0.522984
O O6 0.171910 0.849925 0.774503
O O7 0.000000 0.000000 0.500000
O O8 0.828570 0.746859 0.146292
O O9 0.000000 0.583093 0.250000
O O10 0.500000 0.133093 0.250000
O O11 0.494506 0.372930 0.063083
O O12 0.509876 0.873367 0.079925
O O13 0.346286 0.106487 0.947278
O O14 0.500000 0.625717 0.250000
#
# Coordination Sequence:
#
# PCOD8118302 Si02
#       6
#     4   4   4   4   4   4
#     4  11  25  41  70 100 134 187 234 287 355 426
#     4  11  26  46  64 101 142 176 236 296 353 422
#     4  11  24  42  71  97 132 181 234 292 356 423
#     4  10  19  37  69 100 137 181 230 282 351 419
#     4  10  19  38  67 100 137 181 232 290 344 424
#     4  11  23  44  69  97 139 184 227 288 359 421
#
# _framework density 25.55376
#
# number of rings (size 3 to 8) (size 9 to 14) (size 15 to 20)
#    0.000    1.333    5.000    2.000    4.667    2.000 
#    0.000    1.667    0.000    0.000    0.000    0.000 
#    0.000    0.000    0.000    0.000    0.000    0.000 
#
# Total GULP energy -297406.554780 kJ/mol
# GULP energy per Si atom -12391.939783 kJ/mol
# Density = 2.549560 g / cm^3
# Si number density = 25.553760 Si / 1000 Ang^3
#
#
#
# Elastic Constant Matrix: (Units=GPa)
#
#
# Indices 1 2 3 4 5 6 
#
# 1 112.2219 51.2005 33.6429 0.0000 34.6110 0.0000
# 2 51.2005 137.0766 45.7976 0.0000 2.6763 0.0000
# 3 33.6429 45.7976 126.6523 0.0000 40.0456 0.0000
# 4 0.0000 0.0000 0.0000 49.7024 0.0000 2.2001
# 5 34.6110 2.6763 40.0456 0.0000 58.3596 0.0000
# 6 0.0000 0.0000 0.0000 2.2001 0.0000 16.2000
#
#
#
# Elastic Compliance Matrix: (Units=1/GPa)
#
#
# Indices 1 2 3 4 5 6 
#
# 1 0.013644 -0.005253 0.000968 0.000000 -0.008515 0.000000
# 2 -0.005253 0.010536 -0.004146 0.000000 0.005477 0.000000
# 3 0.000968 -0.004146 0.011825 0.000000 -0.008498 0.000000
# 4 0.000000 0.000000 0.000000 0.020241 0.000000 -0.002749
# 5 -0.008515 0.005477 -0.008498 0.000000 0.027765 0.000000
# 6 0.000000 0.000000 0.000000 -0.002749 0.000000 0.062102
#
#
# Mechanical properties :
#
#
# Convention : Reuss Voigt Hill
#
# Bulk Modulus (GPa) = 52.24539 70.80362 61.52450
# Shear Modulus (GPa) = 29.52375 41.20640 35.36508
#
# Velocity S-wave (km/s) = 3.40274 4.02000 3.72418
# Velocity P-wave (km/s) = 5.99399 7.02247 6.52851
#
# Compressibility (1/GPa) = 0.01914044
#
# Stress axis : x y z
#
# Youngs Moduli (GPa) = 73.29448 94.91608 84.56877
#
# Poissons Ratio (x) = 0.49861 -0.08182
# Poissons Ratio (y) = 0.38503 0.35063
# Poissons Ratio (z) = -0.07092 0.39354
#
# Static dielectric constant tensor:
#      x y z
#    x 4.904310 0.000000 -0.263140 
#    y 0.000000 4.880780 0.000000 
#    z -0.263140 0.000000 4.815900 
# 
# 
# High freq. dielectric constant tensor:
#      x y z
#    x 2.044270 0.000000 -0.016730 
#    y 0.000000 2.020510 0.000000 
#    z -0.016730 0.000000 2.050450 
# 
# From -- ./inp_files/56648.got.cif
#   From: 2010.06.25/outbox.cif.g09.slc.cpg/sg13_29_cif.got.tgz:56648.got - 2010.06.28 04:50:58.
