data_PCOD8118598
_publ_section_title
;
Structure prediction by ZEFSAII (Michael W. Deem and Ramdas Pophale) SiO2 
 PCOD8118598
Probable space group: P 2/C
;
_chemical_formula_sum "Si O2"
_cell_formula_units_Z 26
_cell_length_a 21.078132
_cell_length_b 11.129160
_cell_length_c 8.051615
_cell_angle_alpha 90.000000
_cell_angle_beta 44.944957
_cell_angle_gamma 90.000000
_cell_volume 1334.273586
_symmetry_space_group_name_H-M "P 2/C"
_symmetry_group_IT_number 13
_symmetry_cell_setting 'monoclinic'
loop_
_space_group_symop_operation_xyz
x,y,z
-x,y,1/2-z
-x,-y,-z
x,-y,1/2+z
loop_
_atom_site_type_symbol
_atom_site_label
_atom_site_fract_x
_atom_site_fract_y
_atom_site_fract_z
Si Si1 0.799311 0.568238 0.928075
Si Si2 0.695857 0.026555 0.435600
Si Si3 0.894355 0.351659 0.933115
Si Si4 0.692850 0.621585 0.438977
Si Si5 0.500000 0.307410 0.250000
Si Si6 0.569425 0.096681 0.934699
Si Si7 0.227087 0.169895 0.506875
O O1 0.867025 0.473140 0.887757
O O2 0.853381 0.651856 0.696676
O O3 0.722354 0.502610 0.965992
O O4 0.749726 0.645337 0.163549
O O5 0.654943 0.110176 0.655394
O O6 0.728238 0.119056 0.240320
O O7 0.612920 0.943233 0.529570
O O8 0.778083 0.941799 0.352945
O O9 0.000000 0.346633 0.750000
O O10 0.865295 0.234701 0.877401
O O11 0.586337 0.607981 0.612114
O O12 0.707999 0.730840 0.535913
O O13 0.479916 0.223556 0.447901
O O14 0.500000 0.000000 0.000000
#
# Coordination Sequence:
#
# PCOD8118598 Si02
#       7
#     4   4   4   4   2   4   4
#     4   9  21  39  61  82 116 143 184 236 299 335
#     4  10  20  34  52  77 115 153 187 226 290 322
#     4  10  20  38  64  90 109 139 188 239 289 350
#     4  10  21  38  56  82 112 154 189 234 276 338
#     4  12  20  30  54  78 116 144 202 224 266 316
#     4  11  18  31  50  78 107 149 200 245 258 311
#     4  10  21  36  57  83 114 153 187 229 290 341
#
# _framework density 19.486260000000001
#
# number of rings (size 3 to 8) (size 9 to 14) (size 15 to 20)
#    0.000    1.846    3.077    1.385    2.154    0.615 
#    0.000    0.769    0.000    0.000    0.000    0.000 
#    0.000    0.000    0.000    0.000    0.000    0.000 
#
# Total GULP energy -322192.525499 kJ/mol
# GULP energy per Si atom -12392.020212 kJ/mol
# Density = 1.944191 g / cm^3
# Si number density = 19.486260 Si / 1000 Ang^3
#
#
#
# Elastic Constant Matrix: (Units=GPa)
#
#
# Indices 1 2 3 4 5 6 
#
# 1 117.0163 39.7360 69.8962 0.0000 -11.9814 0.0000
# 2 39.7360 62.5772 49.3943 0.0000 -1.6673 0.0000
# 3 69.8962 49.3943 104.5540 0.0000 -6.3451 0.0000
# 4 0.0000 0.0000 0.0000 26.6555 0.0000 7.6920
# 5 -11.9814 -1.6673 -6.3451 0.0000 40.9849 0.0000
# 6 0.0000 0.0000 0.0000 7.6920 0.0000 31.2890
#
#
#
# Elastic Compliance Matrix: (Units=1/GPa)
#
#
# Indices 1 2 3 4 5 6 
#
# 1 0.014798 -0.002631 -0.008474 0.000000 0.002907 0.000000
# 2 -0.002631 0.025979 -0.010597 0.000000 -0.001353 0.000000
# 3 -0.008474 -0.010597 0.020249 0.000000 0.000227 0.000000
# 4 0.000000 0.000000 0.000000 0.040380 0.000000 -0.009927
# 5 0.002907 -0.001353 0.000227 0.000000 0.025229 0.000000
# 6 0.000000 0.000000 0.000000 -0.009927 0.000000 0.034401
#
#
# Mechanical properties :
#
#
# Convention : Reuss Voigt Hill
#
# Bulk Modulus (GPa) = 56.73964 66.91115 61.82539
# Shear Modulus (GPa) = 23.77405 28.12728 25.95066
#
# Velocity S-wave (km/s) = 3.49670 3.80339 3.65326
# Velocity P-wave (km/s) = 6.74415 7.32802 7.04214
#
# Compressibility (1/GPa) = 0.01762436
#
# Stress axis : x y z
#
# Youngs Moduli (GPa) = 67.57514 38.49267 49.38493
#
# Poissons Ratio (x) = 0.10127 0.41847
# Poissons Ratio (y) = 0.17778 0.52331
# Poissons Ratio (z) = 0.57261 0.40789
#
# Static dielectric constant tensor:
#      x y z
#    x 3.859700 0.000000 0.246920 
#    y 0.000000 3.472050 0.000000 
#    z 0.246920 0.000000 3.501080 
# 
# 
# High freq. dielectric constant tensor:
#      x y z
#    x 1.767610 0.000000 0.018130 
#    y 0.000000 1.738140 0.000000 
#    z 0.018130 0.000000 1.747510 
# 
# From -- ./inp_files/23323.got.cif
#   From: 2010.06.25/outbox.cif.g09.slc.cpg/sg13_12_cif.got.tgz:23323.got - 2010.06.28 04:50:58.
