data_PCOD8118837
_publ_section_title
;
Structure prediction by ZEFSAII (Michael W. Deem and Ramdas Pophale) SiO2 
 PCOD8118837
Probable space group: P 2/C
;
_chemical_formula_sum "Si O2"
_cell_formula_units_Z 28
_cell_length_a 12.962201
_cell_length_b 7.794518
_cell_length_c 15.706362
_cell_angle_alpha 90.000000
_cell_angle_beta 53.699535
_cell_angle_gamma 90.000000
_cell_volume 1278.902470
_symmetry_space_group_name_H-M "P 2/C"
_symmetry_group_IT_number 13
_symmetry_cell_setting 'monoclinic'
loop_
_space_group_symop_operation_xyz
x,y,z
-x,y,1/2-z
-x,-y,-z
x,-y,1/2+z
loop_
_atom_site_type_symbol
_atom_site_label
_atom_site_fract_x
_atom_site_fract_y
_atom_site_fract_z
Si Si1 0.027296 0.972550 0.889401
Si Si2 0.809661 0.282586 0.756530
Si Si3 0.767641 0.916445 0.435483
Si Si4 0.366576 0.238686 0.067683
Si Si5 0.533960 0.755788 0.326853
Si Si6 0.109797 0.641238 0.762839
Si Si7 0.527144 0.853062 0.645275
O O1 0.094077 0.787339 0.842599
O O2 0.126223 0.116832 0.814848
O O3 0.895618 0.985791 0.901099
O O4 0.000000 0.000000 0.000000
O O5 0.800347 0.249733 0.862768
O O6 0.672476 0.316712 0.782127
O O7 0.898156 0.449371 0.694521
O O8 0.681411 0.861293 0.558342
O O9 0.680370 0.042505 0.420471
O O10 0.245868 0.356316 0.148253
O O11 0.466600 0.253214 0.096797
O O12 0.431965 0.305954 0.948352
O O13 0.500000 0.681258 0.250000
O O14 0.538408 0.961039 0.321578
O O15 0.000000 0.677198 0.750000
O O16 0.500000 0.763205 0.750000
#
# Coordination Sequence:
#
# PCOD8118837 Si02
#       7
#     4   4   4   4   4   4   4
#     4  12  27  43  70 100 137 181 229 284 344 407
#     4  12  24  45  69  99 135 179 235 279 340 413
#     4  11  20  41  67  98 135 178 226 281 337 405
#     4  11  20  41  68  96 137 177 227 275 339 410
#     4  10  21  38  66 100 135 178 223 283 344 403
#     4  12  25  44  72  97 134 185 229 276 345 412
#     4  10  20  35  69 104 136 176 229 280 341 408
#
# _framework density 21.893772999999999
#
# number of rings (size 3 to 8) (size 9 to 14) (size 15 to 20)
#    0.000    0.857    5.714    2.143    8.000    1.143 
#    0.000    2.143    0.000    0.000    0.000    0.000 
#    0.000    0.000    0.000    0.000    0.000    0.000 
#
# Total GULP energy -347247.772929 kJ/mol
# GULP energy per Si atom -12401.706176 kJ/mol
# Density = 2.184394 g / cm^3
# Si number density = 21.893773 Si / 1000 Ang^3
#
#
#
# Elastic Constant Matrix: (Units=GPa)
#
#
# Indices 1 2 3 4 5 6 
#
# 1 102.9405 16.6892 50.5524 0.0000 1.2367 0.0000
# 2 16.6892 102.9716 35.4103 0.0000 0.7689 0.0000
# 3 50.5524 35.4103 146.4661 0.0000 11.1329 0.0000
# 4 0.0000 0.0000 0.0000 8.2803 0.0000 -7.1539
# 5 1.2367 0.7689 11.1329 0.0000 42.2305 0.0000
# 6 0.0000 0.0000 0.0000 -7.1539 0.0000 16.8680
#
#
#
# Elastic Compliance Matrix: (Units=1/GPa)
#
#
# Indices 1 2 3 4 5 6 
#
# 1 0.011747 -0.000541 -0.003978 0.000000 0.000714 0.000000
# 2 -0.000541 0.010627 -0.002417 0.000000 0.000460 0.000000
# 3 -0.003978 -0.002417 0.008952 0.000000 -0.002199 0.000000
# 4 0.000000 0.000000 0.000000 0.190611 0.000000 0.080840
# 5 0.000714 0.000460 -0.002199 0.000000 0.024230 0.000000
# 6 0.000000 0.000000 0.000000 0.080840 0.000000 0.093568
#
#
# Mechanical properties :
#
#
# Convention : Reuss Voigt Hill
#
# Bulk Modulus (GPa) = 57.29666 61.96466 59.63066
# Shear Modulus (GPa) = 13.91106 30.12419 22.01763
#
# Velocity S-wave (km/s) = 2.52343 3.71337 3.17465
# Velocity P-wave (km/s) = 5.89214 6.83735 6.38227
#
# Compressibility (1/GPa) = 0.01745302
#
# Stress axis : x y z
#
# Youngs Moduli (GPa) = 85.12809 94.09997 111.70588
#
# Poissons Ratio (x) = 0.05094 0.44435
# Poissons Ratio (y) = 0.04608 0.27003
# Poissons Ratio (z) = 0.33863 0.22747
#
# Static dielectric constant tensor:
#      x y z
#    x 4.029650 0.000000 -0.017640 
#    y 0.000000 3.610810 0.000000 
#    z -0.017640 0.000000 4.217390 
# 
# 
# High freq. dielectric constant tensor:
#      x y z
#    x 1.864870 0.000000 -0.010110 
#    y 0.000000 1.835220 0.000000 
#    z -0.010110 0.000000 1.866080 
# 
# From -- ./inp_files/50238.got.cif
#   From: 2010.06.25/outbox.cif.g09.slc.cpg/sg13_26_cif.got.tgz:50238.got - 2010.06.28 04:50:58.
