data_PCOD8118915
_publ_section_title
;
Structure prediction by ZEFSAII (Michael W. Deem and Ramdas Pophale) SiO2 
 PCOD8118915
Probable space group: P 2/C
;
_chemical_formula_sum "Si O2"
_cell_formula_units_Z 30
_cell_length_a 23.438766
_cell_length_b 9.572743
_cell_length_c 8.723512
_cell_angle_alpha 90.000000
_cell_angle_beta 130.510295
_cell_angle_gamma 90.000000
_cell_volume 1488.131675
_symmetry_space_group_name_H-M "P 2/C"
_symmetry_group_IT_number 13
_symmetry_cell_setting 'monoclinic'
loop_
_space_group_symop_operation_xyz
x,y,z
-x,y,1/2-z
-x,-y,-z
x,-y,1/2+z
loop_
_atom_site_type_symbol
_atom_site_label
_atom_site_fract_x
_atom_site_fract_y
_atom_site_fract_z
Si Si1 0.705325 0.360184 0.887612
Si Si2 0.062427 0.673378 0.639873
Si Si3 0.260300 0.645184 0.405491
Si Si4 0.261996 0.919207 0.577587
Si Si5 0.906224 0.608703 0.461334
Si Si6 0.400264 0.119286 0.811062
Si Si7 0.500000 0.034025 0.250000
Si Si8 0.187691 0.849016 0.763988
O O1 0.716390 0.363256 0.727426
O O2 0.629058 0.273083 0.784680
O O3 0.699973 0.517824 0.937418
O O4 0.772981 0.284792 0.091653
O O5 0.073030 0.552054 0.532856
O O6 0.099558 0.812516 0.629816
O O7 0.974068 0.703608 0.512559
O O8 0.101792 0.631234 0.870262
O O9 0.292285 0.787462 0.534343
O O10 0.170000 0.646851 0.260630
O O11 0.216663 0.861840 0.642752
O O12 0.332125 0.017310 0.744103
O O13 0.202897 0.006190 0.375036
O O14 0.439290 0.063386 0.726503
O O15 0.458616 0.131044 0.053195
#
# Coordination Sequence:
#
# PCOD8118915 Si02
#       8
#     4   4   4   4   4   4   2   4
#     4  11  22  36  62  89 127 146 218 243 313 345
#     4  10  21  36  58  82 123 155 215 261 312 363
#     4  12  21  37  60  91 118 168 195 269 302 367
#     4  11  24  37  64  87 130 152 215 245 323 352
#     4  10  20  36  58  86 115 162 208 256 313 368
#     4  10  21  41  62  97 114 166 190 252 285 382
#     4  10  20  38  72  88 128 152 204 224 312 368
#     4  11  21  39  56  88 116 167 198 274 297 373
#
# _framework density 20.159506
#
# number of rings (size 3 to 8) (size 9 to 14) (size 15 to 20)
#    0.000    1.333    2.667    4.800    1.867    0.000 
#    0.000    0.667    0.000   13.600    0.000    0.000 
#    0.000    0.000    0.000    0.000    0.000    0.000 
#
# Total GULP energy -372021.888635 kJ/mol
# GULP energy per Si atom -12400.729621 kJ/mol
# Density = 2.011362 g / cm^3
# Si number density = 20.159506 Si / 1000 Ang^3
#
#
#
# Elastic Constant Matrix: (Units=GPa)
#
#
# Indices 1 2 3 4 5 6 
#
# 1 92.4936 22.6520 20.4127 0.0000 -4.0157 0.0000
# 2 22.6520 109.6991 25.3681 0.0000 4.0865 0.0000
# 3 20.4127 25.3681 67.8899 0.0000 -1.3871 0.0000
# 4 0.0000 0.0000 0.0000 33.7680 0.0000 0.2503
# 5 -4.0157 4.0865 -1.3871 0.0000 39.9229 0.0000
# 6 0.0000 0.0000 0.0000 0.2503 0.0000 31.5730
#
#
#
# Elastic Compliance Matrix: (Units=1/GPa)
#
#
# Indices 1 2 3 4 5 6 
#
# 1 0.011956 -0.001852 -0.002877 0.000000 0.001292 0.000000
# 2 -0.001852 0.010318 -0.003326 0.000000 -0.001358 0.000000
# 3 -0.002877 -0.003326 0.016851 0.000000 0.000637 0.000000
# 4 0.000000 0.000000 0.000000 0.029616 0.000000 -0.000235
# 5 0.001292 -0.001358 0.000637 0.000000 0.025339 0.000000
# 6 0.000000 0.000000 0.000000 -0.000235 0.000000 0.031674
#
#
# Mechanical properties :
#
#
# Convention : Reuss Voigt Hill
#
# Bulk Modulus (GPa) = 43.44958 45.21646 44.33302
# Shear Modulus (GPa) = 33.43693 34.49611 33.96652
#
# Velocity S-wave (km/s) = 4.07703 4.14110 4.10919
# Velocity P-wave (km/s) = 6.61533 6.73372 6.67479
#
# Compressibility (1/GPa) = 0.02301518
#
# Stress axis : x y z
#
# Youngs Moduli (GPa) = 83.64003 96.91754 59.34504
#
# Poissons Ratio (x) = 0.17947 0.17071
# Poissons Ratio (y) = 0.15488 0.19741
# Poissons Ratio (z) = 0.24059 0.32239
#
# Static dielectric constant tensor:
#      x y z
#    x 3.774830 0.000000 0.040410 
#    y 0.000000 3.487800 0.000000 
#    z 0.040410 0.000000 3.826290 
# 
# 
# High freq. dielectric constant tensor:
#      x y z
#    x 1.793350 0.000000 -0.012770 
#    y 0.000000 1.769600 0.000000 
#    z -0.012770 0.000000 1.786870 
# 
# From -- ./inp_files/24451.got.cif
#   From: 2010.06.25/outbox.cif.g09.slc.cpg/sg13_13_cif.got.tgz:24451.got - 2010.06.28 04:50:58.
