data_PCOD8118405
_publ_section_title
;
Structure prediction by ZEFSAII (Michael W. Deem and Ramdas Pophale) SiO2 
 PCOD8118405
Probable space group: P 2/C
;
_chemical_formula_sum "Si O2"
_cell_formula_units_Z 32
_cell_length_a 9.769951
_cell_length_b 11.400141
_cell_length_c 13.669566
_cell_angle_alpha 90.000000
_cell_angle_beta 84.512655
_cell_angle_gamma 90.000000
_cell_volume 1515.523022
_symmetry_space_group_name_H-M "P 2/C"
_symmetry_group_IT_number 13
_symmetry_cell_setting 'monoclinic'
loop_
_space_group_symop_operation_xyz
x,y,z
-x,y,1/2-z
-x,-y,-z
x,-y,1/2+z
loop_
_atom_site_type_symbol
_atom_site_label
_atom_site_fract_x
_atom_site_fract_y
_atom_site_fract_z
Si Si1 0.668054 0.373682 0.002710
Si Si2 0.646385 0.036450 0.734082
Si Si3 0.777730 0.050867 0.422093
Si Si4 0.975156 0.191183 0.144354
Si Si5 0.015554 0.364495 0.519557
Si Si6 0.552316 0.570640 0.138665
Si Si7 0.304963 0.135214 0.423676
Si Si8 0.762714 0.774737 0.099295
O O1 0.652327 0.468168 0.090956
O O2 0.610481 0.249158 0.046565
O O3 0.825907 0.346820 0.959272
O O4 0.586065 0.419254 0.915252
O O5 0.500000 0.104648 0.750000
O O6 0.762590 0.127625 0.686795
O O7 0.692685 0.964310 0.827107
O O8 0.601225 0.947306 0.649128
O O9 0.937265 0.073306 0.384730
O O10 0.735021 0.159926 0.496464
O O11 0.761261 0.928045 0.477898
O O12 0.000000 0.236726 0.250000
O O13 0.816450 0.166167 0.142296
O O14 0.021422 0.301695 0.078481
O O15 0.000000 0.500000 0.500000
O O16 0.904267 0.302289 0.599932
O O17 0.500000 0.538553 0.250000
O O18 0.634359 0.690977 0.127519
#
# Coordination Sequence:
#
# PCOD8118405 Si02
#       8
#     4   4   4   4   4   4   4   4
#     4  10  24  44  67  97 131 175 217 278 332 394
#     4  11  24  38  62  99 131 174 224 266 333 402
#     4  10  22  39  64  93 129 171 206 271 326 388
#     4  10  19  39  64  92 124 165 210 268 331 386
#     4  10  20  44  66  93 129 169 220 270 327 392
#     4  11  24  45  68  96 134 172 220 271 339 395
#     4  10  22  39  63  93 126 166 220 264 323 403
#     4  10  23  41  70  93 133 175 217 275 328 391
#
# _framework density 21.114822
#
# number of rings (size 3 to 8) (size 9 to 14) (size 15 to 20)
#    0.000    1.750    2.500    0.750    5.250    2.500 
#    6.750    0.625    2.750    0.000    0.000    0.000 
#    0.000    0.000    0.000    0.000    0.000    0.000 
#
# Total GULP energy -396442.845293 kJ/mol
# GULP energy per Si atom -12388.838915 kJ/mol
# Density = 2.106676 g / cm^3
# Si number density = 21.114822 Si / 1000 Ang^3
#
#
#
# Elastic Constant Matrix: (Units=GPa)
#
#
# Indices 1 2 3 4 5 6 
#
# 1 94.2873 28.4330 39.5187 0.0000 -7.5390 0.0000
# 2 28.4330 115.1677 32.9736 0.0000 0.1949 0.0000
# 3 39.5187 32.9736 101.1143 0.0000 2.5956 0.0000
# 4 0.0000 0.0000 0.0000 17.9499 0.0000 -2.5959
# 5 -7.5390 0.1949 2.5956 0.0000 16.7930 0.0000
# 6 0.0000 0.0000 0.0000 -2.5959 0.0000 28.7588
#
#
#
# Elastic Compliance Matrix: (Units=1/GPa)
#
#
# Indices 1 2 3 4 5 6 
#
# 1 0.013841 -0.002017 -0.004931 0.000000 0.006999 0.000000
# 2 -0.002017 0.009873 -0.002415 0.000000 -0.000647 0.000000
# 3 -0.004931 -0.002415 0.012711 0.000000 -0.004151 0.000000
# 4 0.000000 0.000000 0.000000 0.056448 0.000000 0.005095
# 5 0.006999 -0.000647 -0.004151 0.000000 0.063340 0.000000
# 6 0.000000 0.000000 0.000000 0.005095 0.000000 0.035232
#
#
# Mechanical properties :
#
#
# Convention : Reuss Voigt Hill
#
# Bulk Modulus (GPa) = 56.50050 56.93553 56.71802
# Shear Modulus (GPa) = 23.14060 26.67660 24.90860
#
# Velocity S-wave (km/s) = 3.31409 3.55830 3.43836
# Velocity P-wave (km/s) = 6.43903 6.62610 6.53323
#
# Compressibility (1/GPa) = 0.01769896
#
# Stress axis : x y z
#
# Youngs Moduli (GPa) = 72.25116 101.28188 78.67118
#
# Poissons Ratio (x) = 0.20428 0.38795
# Poissons Ratio (y) = 0.14573 0.18998
# Poissons Ratio (z) = 0.35629 0.24458
#
# Static dielectric constant tensor:
#      x y z
#    x 3.856550 0.000000 -0.184450 
#    y 0.000000 3.984690 0.000000 
#    z -0.184450 0.000000 3.891730 
# 
# 
# High freq. dielectric constant tensor:
#      x y z
#    x 1.824140 0.000000 -0.012280 
#    y 0.000000 1.834470 0.000000 
#    z -0.012280 0.000000 1.821960 
# 
# From -- ./inp_files/47274.got.cif
#   From: 2010.06.25/outbox.cif.g09.slc.cpg/sg13_24_cif.got.tgz:47274.got - 2010.06.28 04:50:58.
