data_PCOD8118812
_publ_section_title
;
Structure prediction by ZEFSAII (Michael W. Deem and Ramdas Pophale) SiO2 
 PCOD8118812
Probable space group: P 2/C
;
_chemical_formula_sum "Si O2"
_cell_formula_units_Z 28
_cell_length_a 9.148334
_cell_length_b 14.298415
_cell_length_c 21.341934
_cell_angle_alpha 90.000000
_cell_angle_beta 150.555256
_cell_angle_gamma 90.000000
_cell_volume 1372.338942
_symmetry_space_group_name_H-M "P 2/C"
_symmetry_group_IT_number 13
_symmetry_cell_setting 'monoclinic'
loop_
_space_group_symop_operation_xyz
x,y,z
-x,y,1/2-z
-x,-y,-z
x,-y,1/2+z
loop_
_atom_site_type_symbol
_atom_site_label
_atom_site_fract_x
_atom_site_fract_y
_atom_site_fract_z
Si Si1 0.584239 0.647270 0.682907
Si Si2 0.965915 0.688143 0.941606
Si Si3 0.645257 0.015499 0.120552
Si Si4 0.497361 0.554665 0.320244
Si Si5 0.478627 0.216243 0.444762
Si Si6 0.917793 0.702715 0.287107
Si Si7 0.610787 0.829797 0.447004
O O1 0.852134 0.653213 0.831909
O O2 0.290152 0.696082 0.602248
O O3 0.518091 0.538389 0.642766
O O4 0.675681 0.700560 0.652759
O O5 0.212351 0.613367 0.054185
O O6 0.103315 0.792742 0.984616
O O7 0.570010 0.121097 0.114277
O O8 0.000000 0.996072 0.250000
O O9 0.465096 0.938905 0.094733
O O10 0.500000 0.000000 0.000000
O O11 0.500000 0.518566 0.250000
O O12 0.200913 0.616380 0.216675
O O13 0.336367 0.198491 0.460093
O O14 0.820461 0.245173 0.578832
O O15 0.673019 0.780215 0.186798
O O16 0.000000 0.660958 0.250000
#
# Coordination Sequence:
#
# PCOD8118812 Si02
#       7
#     4   4   4   4   4   4   4
#     4  11  23  36  54  84 118 149 191 241 290 337
#     4  10  22  38  56  83 116 150 191 243 288 337
#     4  10  20  35  61  91 115 149 192 234 286 350
#     4  11  21  38  62  79 107 158 202 230 280 352
#     4  10  21  35  60  88 117 146 191 236 290 342
#     4   9  19  38  55  84 114 147 186 246 285 333
#     4   9  19  38  60  83 116 147 189 237 287 345
#
# _framework density 20.403122
#
# number of rings (size 3 to 8) (size 9 to 14) (size 15 to 20)
#    0.000    2.000    1.429    3.429    6.000    0.000 
#    2.571    2.857    0.000    0.000    0.000    0.000 
#    0.000    0.000    0.000    0.000    0.000    0.000 
#
# Total GULP energy -346988.065586 kJ/mol
# GULP energy per Si atom -12392.430914 kJ/mol
# Density = 2.035668 g / cm^3
# Si number density = 20.403122 Si / 1000 Ang^3
#
#
#
# Elastic Constant Matrix: (Units=GPa)
#
#
# Indices 1 2 3 4 5 6 
#
# 1 33.0371 33.7418 17.3947 0.0000 0.4546 0.0000
# 2 33.7418 151.5461 26.3262 0.0000 1.4389 0.0000
# 3 17.3947 26.3262 93.6065 0.0000 3.2857 0.0000
# 4 0.0000 0.0000 0.0000 21.5647 0.0000 3.9199
# 5 0.4546 1.4389 3.2857 0.0000 22.5124 0.0000
# 6 0.0000 0.0000 0.0000 3.9199 0.0000 34.7578
#
#
#
# Elastic Compliance Matrix: (Units=1/GPa)
#
#
# Indices 1 2 3 4 5 6 
#
# 1 0.041619 -0.008332 -0.005408 0.000000 0.000481 0.000000
# 2 -0.008332 0.008606 -0.000863 0.000000 -0.000256 0.000000
# 3 -0.005408 -0.000863 0.011986 0.000000 -0.001585 0.000000
# 4 0.000000 0.000000 0.000000 0.047343 0.000000 -0.005339
# 5 0.000481 -0.000256 -0.001585 0.000000 0.044658 0.000000
# 6 0.000000 0.000000 0.000000 -0.005339 0.000000 0.029373
#
#
# Mechanical properties :
#
#
# Convention : Reuss Voigt Hill
#
# Bulk Modulus (GPa) = 30.29715 48.12392 39.21053
# Shear Modulus (GPa) = 22.34223 29.14879 25.74551
#
# Velocity S-wave (km/s) = 3.31273 3.78384 3.55610
# Velocity P-wave (km/s) = 5.43265 6.53664 6.01005
#
# Compressibility (1/GPa) = 0.03300640
#
# Stress axis : x y z
#
# Youngs Moduli (GPa) = 24.02754 116.19704 83.42859
#
# Poissons Ratio (x) = 0.96811 0.45115
# Poissons Ratio (y) = 0.20019 0.07201
# Poissons Ratio (z) = 0.12993 0.10030
#
# Static dielectric constant tensor:
#      x y z
#    x 3.696780 0.000000 0.080330 
#    y 0.000000 4.431940 0.000000 
#    z 0.080330 0.000000 3.878680 
# 
# 
# High freq. dielectric constant tensor:
#      x y z
#    x 1.759060 0.000000 0.002180 
#    y 0.000000 1.802480 0.000000 
#    z 0.002180 0.000000 1.814710 
# 
# From -- ./inp_files/76700.got.cif
#   From: 2010.06.25/outbox.cif.g09.slc.cpg/sg13_39_cif.got.tgz:76700.got - 2010.06.28 04:50:58.
