data_PCOD8118842
_publ_section_title
;
Structure prediction by ZEFSAII (Michael W. Deem and Ramdas Pophale) SiO2 
 PCOD8118842
Probable space group: P 2/C
;
_chemical_formula_sum "Si O2"
_cell_formula_units_Z 20
_cell_length_a 16.900261
_cell_length_b 9.911077
_cell_length_c 12.674104
_cell_angle_alpha 90.000000
_cell_angle_beta 151.207909
_cell_angle_gamma 90.000000
_cell_volume 1022.462759
_symmetry_space_group_name_H-M "P 2/C"
_symmetry_group_IT_number 13
_symmetry_cell_setting 'monoclinic'
loop_
_space_group_symop_operation_xyz
x,y,z
-x,y,1/2-z
-x,-y,-z
x,-y,1/2+z
loop_
_atom_site_type_symbol
_atom_site_label
_atom_site_fract_x
_atom_site_fract_y
_atom_site_fract_z
Si Si1 0.881632 0.153788 0.696563
Si Si2 0.362003 0.841231 0.762171
Si Si3 0.732392 0.109508 0.732714
Si Si4 0.129507 0.357991 0.081156
Si Si5 0.934735 0.646593 0.556735
O O1 0.708931 0.186769 0.437799
O O2 0.842692 0.070626 0.758144
O O3 0.000000 0.074698 0.750000
O O4 0.977239 0.291171 0.839123
O O5 0.298144 0.724586 0.765392
O O6 0.286299 0.981874 0.714648
O O7 0.556695 0.840145 0.985513
O O8 0.813324 0.229713 0.892662
O O9 0.089995 0.357733 0.159168
O O10 0.162639 0.506710 0.073892
O O11 0.000000 0.662819 0.750000
#
# Coordination Sequence:
#
# PCOD8118842 Si02
#       5
#     4   4   4   4   4
#     4   9  18  34  57  76 101 139 176 213 258 310
#     4  10  20  36  53  76 111 141 172 214 260 317
#     4  10  22  34  52  82 108 136 175 217 263 310
#     4   9  20  36  56  78 103 139 181 214 256 318
#     4  10  20  36  55  79 107 136 176 224 261 300
#
# _framework density 19.560614000000001
#
# number of rings (size 3 to 8) (size 9 to 14) (size 15 to 20)
#    0.000    2.400    0.000    2.400    0.000   12.000 
#    0.000    3.000    0.000    0.000    0.000    0.000 
#    0.000    0.000    0.000    0.000    0.000    0.000 
#
# Total GULP energy -247886.573212 kJ/mol
# GULP energy per Si atom -12394.328661 kJ/mol
# Density = 1.951609 g / cm^3
# Si number density = 19.560614 Si / 1000 Ang^3
#
#
#
# Elastic Constant Matrix: (Units=GPa)
#
#
# Indices 1 2 3 4 5 6 
#
# 1 106.1619 42.5674 57.3749 0.0000 -11.3407 0.0000
# 2 42.5674 96.1611 26.9022 0.0000 2.3828 0.0000
# 3 57.3749 26.9022 77.7590 0.0000 -17.9808 0.0000
# 4 0.0000 0.0000 0.0000 15.4193 0.0000 11.8315
# 5 -11.3407 2.3828 -17.9808 0.0000 26.2855 0.0000
# 6 0.0000 0.0000 0.0000 11.8315 0.0000 12.3359
#
#
#
# Elastic Compliance Matrix: (Units=1/GPa)
#
#
# Indices 1 2 3 4 5 6 
#
# 1 0.017277 -0.004545 -0.011115 0.000000 0.000263 0.000000
# 2 -0.004545 0.013170 -0.002296 0.000000 -0.004725 0.000000
# 3 -0.011115 -0.002296 0.024702 0.000000 0.012310 0.000000
# 4 0.000000 0.000000 0.000000 0.245602 0.000000 -0.235559
# 5 0.000263 -0.004725 0.012310 0.000000 0.047007 0.000000
# 6 0.000000 0.000000 0.000000 -0.235559 0.000000 0.306990
#
#
# Mechanical properties :
#
#
# Convention : Reuss Voigt Hill
#
# Bulk Modulus (GPa) = 51.97803 59.30789 55.64296
# Shear Modulus (GPa) = 7.17287 21.02399 14.09843
#
# Velocity S-wave (km/s) = 1.91702 3.28199 2.68760
# Velocity P-wave (km/s) = 5.61520 6.68938 6.17569
#
# Compressibility (1/GPa) = 0.01923890
#
# Stress axis : x y z
#
# Youngs Moduli (GPa) = 57.88072 75.92749 40.48246
#
# Poissons Ratio (x) = 0.34509 0.44995
# Poissons Ratio (y) = 0.26307 0.09293
# Poissons Ratio (z) = 0.64332 0.17430
#
# Static dielectric constant tensor:
#      x y z
#    x 3.830870 0.000000 -0.107920 
#    y 0.000000 3.486560 0.000000 
#    z -0.107920 0.000000 3.544680 
# 
# 
# High freq. dielectric constant tensor:
#      x y z
#    x 1.770960 0.000000 -0.011240 
#    y 0.000000 1.750020 0.000000 
#    z -0.011240 0.000000 1.756620 
# 
# From -- ./inp_files/28279.got.cif
#   From: 2010.06.25/outbox.cif.g09.slc.cpg/sg13_15_cif.got.tgz:28279.got - 2010.06.28 04:50:58.
