data_PCOD8118933
_publ_section_title
;
Structure prediction by ZEFSAII (Michael W. Deem and Ramdas Pophale) SiO2 
 PCOD8118933
Probable space group: P 2/C
;
_chemical_formula_sum "Si O2"
_cell_formula_units_Z 30
_cell_length_a 11.021293
_cell_length_b 9.389964
_cell_length_c 15.510467
_cell_angle_alpha 90.000000
_cell_angle_beta 110.205654
_cell_angle_gamma 90.000000
_cell_volume 1506.387236
_symmetry_space_group_name_H-M "P 2/C"
_symmetry_group_IT_number 13
_symmetry_cell_setting 'monoclinic'
loop_
_space_group_symop_operation_xyz
x,y,z
-x,y,1/2-z
-x,-y,-z
x,-y,1/2+z
loop_
_atom_site_type_symbol
_atom_site_label
_atom_site_fract_x
_atom_site_fract_y
_atom_site_fract_z
Si Si1 0.846021 0.858595 0.930645
Si Si2 0.204344 0.906000 0.836431
Si Si3 0.000000 0.676334 0.750000
Si Si4 0.008292 0.921806 0.134922
Si Si5 0.225786 0.275936 0.679246
Si Si6 0.416760 0.090186 0.810879
Si Si7 0.909134 0.552776 0.899135
Si Si8 0.325143 0.092755 0.548567
O O1 0.828081 0.692315 0.906757
O O2 0.902294 0.937078 0.858576
O O3 0.713549 0.931861 0.931393
O O4 0.952397 0.871920 0.030620
O O5 0.132835 0.766817 0.783872
O O6 0.314472 0.963538 0.799667
O O7 0.270834 0.867543 0.942719
O O8 0.101177 0.035678 0.822553
O O9 0.997237 0.581644 0.836263
O O10 0.095779 0.791103 0.189109
O O11 0.344635 0.241478 0.773998
O O12 0.202726 0.441458 0.655410
O O13 0.256277 0.201577 0.595960
O O14 0.500000 0.039982 0.750000
O O15 0.518236 0.109012 0.914420
O O16 0.000000 0.500000 0.000000
#
# Coordination Sequence:
#
# PCOD8118933 Si02
#       8
#     4   4   2   4   4   4   4   4
#     4   9  17  33  60  89 117 153 202 243 317 377
#     4  11  20  36  62  91 122 148 203 280 307 364
#     4  12  26  36  62 100 128 156 212 250 330 382
#     4   9  16  32  59  91 112 149 196 254 318 367
#     4  10  20  36  59  86 126 163 201 246 314 377
#     4  10  22  36  60  87 118 158 214 255 302 357
#     4  12  23  39  59  92 137 170 192 252 323 390
#     4   9  20  39  65  87 113 167 215 253 309 370
#
# _framework density 19.915198
#
# number of rings (size 3 to 8) (size 9 to 14) (size 15 to 20)
#    0.000    1.867    2.667    2.800    3.733    1.067 
#    0.000    0.000    8.800    0.800    0.000    0.000 
#    0.000    0.000    0.000    0.000    0.000    0.000 
#
# Total GULP energy -371862.172157 kJ/mol
# GULP energy per Si atom -12395.405739 kJ/mol
# Density = 1.986987 g / cm^3
# Si number density = 19.915198 Si / 1000 Ang^3
#
#
#
# Elastic Constant Matrix: (Units=GPa)
#
#
# Indices 1 2 3 4 5 6 
#
# 1 102.3855 43.5924 39.7341 0.0000 13.5545 0.0000
# 2 43.5924 135.1596 39.6277 0.0000 10.3798 0.0000
# 3 39.7341 39.6277 87.1444 0.0000 14.3055 0.0000
# 4 0.0000 0.0000 0.0000 27.8876 0.0000 0.5430
# 5 13.5545 10.3798 14.3055 0.0000 37.9634 0.0000
# 6 0.0000 0.0000 0.0000 0.5430 0.0000 24.0709
#
#
#
# Elastic Compliance Matrix: (Units=1/GPa)
#
#
# Indices 1 2 3 4 5 6 
#
# 1 0.012882 -0.002733 -0.004262 0.000000 -0.002246 0.000000
# 2 -0.002733 0.009147 -0.002839 0.000000 -0.000456 0.000000
# 3 -0.004262 -0.002839 0.015277 0.000000 -0.003459 0.000000
# 4 0.000000 0.000000 0.000000 0.035874 0.000000 -0.000809
# 5 -0.002246 -0.000456 -0.003459 0.000000 0.028571 0.000000
# 6 0.000000 0.000000 0.000000 -0.000809 0.000000 0.041562
#
#
# Mechanical properties :
#
#
# Convention : Reuss Voigt Hill
#
# Bulk Modulus (GPa) = 56.69217 63.39977 60.04597
# Shear Modulus (GPa) = 29.61014 31.43339 30.52176
#
# Velocity S-wave (km/s) = 3.86010 3.97717 3.91907
# Velocity P-wave (km/s) = 6.95671 7.27973 7.12005
#
# Compressibility (1/GPa) = 0.01763912
#
# Stress axis : x y z
#
# Youngs Moduli (GPa) = 77.62806 109.32163 65.45633
#
# Poissons Ratio (x) = 0.29873 0.27899
# Poissons Ratio (y) = 0.21213 0.18582
# Poissons Ratio (z) = 0.33087 0.31035
#
# Static dielectric constant tensor:
#      x y z
#    x 3.674190 0.000000 0.205070 
#    y 0.000000 3.447680 0.000000 
#    z 0.205070 0.000000 4.033650 
# 
# 
# High freq. dielectric constant tensor:
#      x y z
#    x 1.762710 0.000000 0.001890 
#    y 0.000000 1.744450 0.000000 
#    z 0.001890 0.000000 1.803010 
# 
# From -- ./inp_files/66077.got.cif
#   From: 2010.06.25/outbox.cif.g09.slc.cpg/sg13_34_cif.got.tgz:66077.got - 2010.06.28 04:50:58.
