data_PCOD8118157
_publ_section_title
;
Structure prediction by ZEFSAII (Michael W. Deem and Ramdas Pophale) SiO2 
 PCOD8118157
Probable space group: P 2/C
;
_chemical_formula_sum "Si O2"
_cell_formula_units_Z 26
_cell_length_a 8.991657
_cell_length_b 14.829482
_cell_length_c 14.138004
_cell_angle_alpha 90.000000
_cell_angle_beta 135.182619
_cell_angle_gamma 90.000000
_cell_volume 1328.771076
_symmetry_space_group_name_H-M "P 2/C"
_symmetry_group_IT_number 13
_symmetry_cell_setting 'monoclinic'
loop_
_space_group_symop_operation_xyz
x,y,z
-x,y,1/2-z
-x,-y,-z
x,-y,1/2+z
loop_
_atom_site_type_symbol
_atom_site_label
_atom_site_fract_x
_atom_site_fract_y
_atom_site_fract_z
Si Si1 0.991082 0.879717 0.406765
Si Si2 0.286000 0.268443 0.994235
Si Si3 0.187125 0.469555 0.649600
Si Si4 0.500000 0.313143 0.750000
Si Si5 0.500000 0.619949 0.750000
Si Si6 0.411118 0.829234 0.375930
Si Si7 0.682250 0.030150 0.907126
Si Si8 0.000000 0.397222 0.750000
O O1 0.105553 0.783999 0.471658
O O2 0.828790 0.867473 0.245858
O O3 0.848374 0.902904 0.432297
O O4 0.182640 0.951608 0.481642
O O5 0.427857 0.203563 0.991690
O O6 0.184508 0.338347 0.876924
O O7 0.428126 0.316696 0.133716
O O8 0.296160 0.379347 0.655378
O O9 0.331972 0.556151 0.722779
O O10 0.000000 0.500000 0.500000
O O11 0.106308 0.457909 0.718893
O O12 0.523450 0.249332 0.668791
O O13 0.571617 0.912577 0.439333
O O14 0.500000 0.996271 0.750000
#
# Coordination Sequence:
#
# PCOD8118157 Si02
#       8
#     4   4   4   2   2   4   4   2
#     4  10  19  36  60  92 124 164 203 255 306 371
#     4  12  23  40  64  94 123 165 214 257 304 379
#     4  11  24  41  64  94 128 162 202 265 317 372
#     4  11  20  38  63  94 122 166 213 250 314 381
#     4  11  28  42  61  96 128 162 205 264 324 361
#     4  11  20  38  65  94 120 169 213 253 305 380
#     4   9  20  35  60  95 126 163 208 257 312 362
#     4  12  22  40  70  92 116 168 214 248 314 380
#
# _framework density 19.566951
#
# number of rings (size 3 to 8) (size 9 to 14) (size 15 to 20)
#    0.000    1.231    6.923    0.000    1.077    2.462 
#    0.000    0.000    0.000    0.000    0.000    0.000 
#    0.000    0.000    0.000    0.000    0.000    0.000 
#
# Total GULP energy -322220.968547 kJ/mol
# GULP energy per Si atom -12393.114175 kJ/mol
# Density = 1.952242 g / cm^3
# Si number density = 19.566951 Si / 1000 Ang^3
#
#
#
# Elastic Constant Matrix: (Units=GPa)
#
#
# Indices 1 2 3 4 5 6 
#
# 1 115.4570 61.6789 58.7843 0.0000 6.3388 0.0000
# 2 61.6789 105.0118 68.0303 0.0000 5.8387 0.0000
# 3 58.7843 68.0303 108.6094 0.0000 3.2123 0.0000
# 4 0.0000 0.0000 0.0000 25.8403 0.0000 -3.3237
# 5 6.3388 5.8387 3.2123 0.0000 31.8848 0.0000
# 6 0.0000 0.0000 0.0000 -3.3237 0.0000 37.4051
#
#
#
# Elastic Compliance Matrix: (Units=1/GPa)
#
#
# Indices 1 2 3 4 5 6 
#
# 1 0.013617 -0.005343 -0.003984 0.000000 -0.001327 0.000000
# 2 -0.005343 0.018242 -0.008492 0.000000 -0.001423 0.000000
# 3 -0.003984 -0.008492 0.016663 0.000000 0.000668 0.000000
# 4 0.000000 0.000000 0.000000 0.039147 0.000000 0.003478
# 5 -0.001327 -0.001423 0.000668 0.000000 0.031820 0.000000
# 6 0.000000 0.000000 0.000000 0.003478 0.000000 0.027043
#
#
# Mechanical properties :
#
#
# Convention : Reuss Voigt Hill
#
# Bulk Modulus (GPa) = 77.62076 78.45170 78.03623
# Shear Modulus (GPa) = 26.81474 28.39836 27.60655
#
# Velocity S-wave (km/s) = 3.70592 3.81378 3.76024
# Velocity P-wave (km/s) = 7.62019 7.71844 7.66947
#
# Compressibility (1/GPa) = 0.01288315
#
# Stress axis : x y z
#
# Youngs Moduli (GPa) = 73.43794 54.81975 60.01276
#
# Poissons Ratio (x) = 0.29291 0.23909
# Poissons Ratio (y) = 0.39239 0.50963
# Poissons Ratio (z) = 0.29258 0.46553
#
# Static dielectric constant tensor:
#      x y z
#    x 3.650680 0.000000 0.222400 
#    y 0.000000 3.851910 0.000000 
#    z 0.222400 0.000000 3.639110 
# 
# 
# High freq. dielectric constant tensor:
#      x y z
#    x 1.776200 0.000000 0.014940 
#    y 0.000000 1.772550 0.000000 
#    z 0.014940 0.000000 1.743790 
# 
# From -- ./inp_files/47836.got.cif
#   From: 2010.06.25/outbox.cif.g09.slc.cpg/sg13_24_cif.got.tgz:47836.got - 2010.06.28 04:50:58.
