data_PCOD8118306
_publ_section_title
;
Structure prediction by ZEFSAII (Michael W. Deem and Ramdas Pophale) SiO2 
 PCOD8118306
Probable space group: P 2/C
;
_chemical_formula_sum "Si O2"
_cell_formula_units_Z 28
_cell_length_a 8.439826
_cell_length_b 15.454709
_cell_length_c 17.700828
_cell_angle_alpha 90.000000
_cell_angle_beta 141.171703
_cell_angle_gamma 90.000000
_cell_volume 1447.596663
_symmetry_space_group_name_H-M "P 2/C"
_symmetry_group_IT_number 13
_symmetry_cell_setting 'monoclinic'
loop_
_space_group_symop_operation_xyz
x,y,z
-x,y,1/2-z
-x,-y,-z
x,-y,1/2+z
loop_
_atom_site_type_symbol
_atom_site_label
_atom_site_fract_x
_atom_site_fract_y
_atom_site_fract_z
Si Si1 0.786090 0.658502 0.732655
Si Si2 0.747483 0.810649 0.389755
Si Si3 0.072753 0.630819 0.991452
Si Si4 0.385874 0.527902 0.625155
Si Si5 0.822245 0.100107 0.075155
Si Si6 0.858306 0.937401 0.005750
Si Si7 0.356562 0.152507 0.331351
O O1 0.603208 0.575216 0.656867
O O2 0.611612 0.743760 0.660924
O O3 0.000000 0.654382 0.750000
O O4 0.934360 0.663994 0.865874
O O5 0.500000 0.825136 0.250000
O O6 0.806308 0.709956 0.418982
O O7 0.714571 0.854225 0.460016
O O8 0.963908 0.854401 0.418251
O O9 0.301260 0.563572 0.057405
O O10 0.864276 0.586961 0.967561
O O11 0.500000 0.511215 0.750000
O O12 0.657086 0.126860 0.085586
O O13 0.110806 0.127679 0.193132
O O14 0.814728 0.995311 0.064528
O O15 0.589122 0.898124 0.878970
O O16 0.000000 0.000000 0.000000
#
# Coordination Sequence:
#
# PCOD8118306 Si02
#       7
#     4   4   4   4   4   4   4
#     4  11  20  36  60  90 116 153 204 247 299 357
#     4  11  22  37  56  83 120 153 198 246 303 357
#     4  10  19  38  56  84 115 156 199 239 305 356
#     4   9  20  34  59  85 117 151 193 248 297 360
#     4  10  22  39  60  86 112 161 192 255 302 358
#     4  10  24  36  58  88 116 154 199 257 297 354
#     4  11  20  41  64  84 120 156 206 249 301 367
#
# _framework density 19.342403999999998
#
# number of rings (size 3 to 8) (size 9 to 14) (size 15 to 20)
#    0.000    1.714    2.857    1.714    4.000    2.286 
#    0.000    0.000    0.000    0.000    0.000    0.000 
#    0.000    0.000    0.000    0.000    0.000    0.000 
#
# Total GULP energy -347086.915094 kJ/mol
# GULP energy per Si atom -12395.961253 kJ/mol
# Density = 1.929838 g / cm^3
# Si number density = 19.342404 Si / 1000 Ang^3
#
#
#
# Elastic Constant Matrix: (Units=GPa)
#
#
# Indices 1 2 3 4 5 6 
#
# 1 63.5738 54.4904 42.5875 0.0000 12.6614 0.0000
# 2 54.4904 146.1148 47.7384 0.0000 7.7748 0.0000
# 3 42.5875 47.7384 106.9647 0.0000 7.3933 0.0000
# 4 0.0000 0.0000 0.0000 45.0361 0.0000 16.9370
# 5 12.6614 7.7748 7.3933 0.0000 31.4411 0.0000
# 6 0.0000 0.0000 0.0000 16.9370 0.0000 36.9718
#
#
#
# Elastic Compliance Matrix: (Units=1/GPa)
#
#
# Indices 1 2 3 4 5 6 
#
# 1 0.029230 -0.008022 -0.007503 0.000000 -0.008023 0.000000
# 2 -0.008022 0.010256 -0.001455 0.000000 0.001037 0.000000
# 3 -0.007503 -0.001455 0.012962 0.000000 0.000333 0.000000
# 4 0.000000 0.000000 0.000000 0.026826 0.000000 -0.012289
# 5 -0.008023 0.001037 0.000333 0.000000 0.034702 0.000000
# 6 0.000000 0.000000 0.000000 -0.012289 0.000000 0.032677
#
#
# Mechanical properties :
#
#
# Convention : Reuss Voigt Hill
#
# Bulk Modulus (GPa) = 54.08892 67.36507 60.72700
# Shear Modulus (GPa) = 26.77007 34.14560 30.45783
#
# Velocity S-wave (km/s) = 3.72426 4.20613 3.97251
# Velocity P-wave (km/s) = 6.82042 7.64801 7.24604
#
# Compressibility (1/GPa) = 0.01848808
#
# Stress axis : x y z
#
# Youngs Moduli (GPa) = 34.21165 97.50524 77.14678
#
# Poissons Ratio (x) = 0.78223 0.57881
# Poissons Ratio (y) = 0.27446 0.11223
# Poissons Ratio (z) = 0.25668 0.14185
#
# Static dielectric constant tensor:
#      x y z
#    x 3.805970 0.000000 -0.105080 
#    y 0.000000 3.952160 0.000000 
#    z -0.105080 0.000000 3.635800 
# 
# 
# High freq. dielectric constant tensor:
#      x y z
#    x 1.737810 0.000000 0.013860 
#    y 0.000000 1.769880 0.000000 
#    z 0.013860 0.000000 1.746420 
# 
# From -- ./inp_files/64650.got.cif
#   From: 2010.06.25/outbox.cif.g09.slc.cpg/sg13_33_cif.got.tgz:64650.got - 2010.06.28 04:50:58.
