data_PCOD8118050
_publ_section_title
;
Structure prediction by ZEFSAII (Michael W. Deem and Ramdas Pophale) SiO2 
 PCOD8118050
Probable space group: P 2/C
;
_chemical_formula_sum "Si O2"
_cell_formula_units_Z 18
_cell_length_a 9.358941
_cell_length_b 6.537804
_cell_length_c 16.264049
_cell_angle_alpha 90.000000
_cell_angle_beta 124.195769
_cell_angle_gamma 90.000000
_cell_volume 823.108135
_symmetry_space_group_name_H-M "P 2/C"
_symmetry_group_IT_number 13
_symmetry_cell_setting 'monoclinic'
loop_
_space_group_symop_operation_xyz
x,y,z
-x,y,1/2-z
-x,-y,-z
x,-y,1/2+z
loop_
_atom_site_type_symbol
_atom_site_label
_atom_site_fract_x
_atom_site_fract_y
_atom_site_fract_z
Si Si1 0.000000 0.953019 0.250000
Si Si2 0.525981 0.131675 0.384199
Si Si3 0.687274 0.782159 0.242437
Si Si4 0.357944 0.561164 0.105295
Si Si5 0.264441 0.175684 0.441613
O O1 0.137255 0.801666 0.252008
O O2 0.083737 0.100061 0.345708
O O3 0.627987 0.318743 0.373574
O O4 0.402174 0.218915 0.415176
O O5 0.405405 0.006013 0.280563
O O6 0.671543 0.991508 0.472037
O O7 0.553424 0.639058 0.149631
O O8 0.721380 0.680558 0.341936
O O9 0.240712 0.614985 0.987309
#
# Coordination Sequence:
#
# PCOD8118050 Si02
#       5
#     2   4   4   4   4
#     4  10  20  40  54  80 128 154 180 236 298 348
#     4   9  18  37  58  83 114 149 194 236 278 342
#     4   9  21  36  58  86 117 151 185 237 293 335
#     4  10  19  35  60  87 108 150 205 236 270 339
#     4   9  19  34  58  83 113 152 187 236 293 335
#
# _framework density 21.868331000000001
#
# number of rings (size 3 to 8) (size 9 to 14) (size 15 to 20)
#    0.000    2.667    0.000    2.000    0.000    8.000 
#    0.000   11.111    0.000    0.000    0.000   18.667 
#    0.000    0.000    0.000    0.000    0.000    0.000 
#
# Total GULP energy -223049.212680 kJ/mol
# GULP energy per Si atom -12391.622927 kJ/mol
# Density = 2.181856 g / cm^3
# Si number density = 21.868331 Si / 1000 Ang^3
#
#
#
# Elastic Constant Matrix: (Units=GPa)
#
#
# Indices 1 2 3 4 5 6 
#
# 1 94.2601 30.3912 31.4974 0.0000 0.8655 0.0000
# 2 30.3912 110.9006 18.2603 0.0000 -16.8421 0.0000
# 3 31.4974 18.2603 77.0086 0.0000 -2.0981 0.0000
# 4 0.0000 0.0000 0.0000 23.2908 0.0000 -7.8127
# 5 0.8655 -16.8421 -2.0981 0.0000 32.0843 0.0000
# 6 0.0000 0.0000 0.0000 -7.8127 0.0000 20.5985
#
#
#
# Elastic Compliance Matrix: (Units=1/GPa)
#
#
# Indices 1 2 3 4 5 6 
#
# 1 0.013242 -0.003209 -0.004719 0.000000 -0.002350 0.000000
# 2 -0.003209 0.010958 -0.001129 0.000000 0.005765 0.000000
# 3 -0.004719 -0.001129 0.015198 0.000000 0.000529 0.000000
# 4 0.000000 0.000000 0.000000 0.049194 0.000000 0.018659
# 5 -0.002350 0.005765 0.000529 0.000000 0.034292 0.000000
# 6 0.000000 0.000000 0.000000 0.018659 0.000000 0.055624
#
#
# Mechanical properties :
#
#
# Convention : Reuss Voigt Hill
#
# Bulk Modulus (GPa) = 46.98378 49.16300 48.07339
# Shear Modulus (GPa) = 24.54388 28.66272 26.60330
#
# Velocity S-wave (km/s) = 3.35378 3.62428 3.49165
# Velocity P-wave (km/s) = 6.04389 6.32804 6.18760
#
# Compressibility (1/GPa) = 0.02128394
#
# Stress axis : x y z
#
# Youngs Moduli (GPa) = 75.51703 91.25957 65.79856
#
# Poissons Ratio (x) = 0.29283 0.31053
# Poissons Ratio (y) = 0.24231 0.07428
# Poissons Ratio (z) = 0.35639 0.10302
#
# Static dielectric constant tensor:
#      x y z
#    x 3.572370 0.000000 -0.098650 
#    y 0.000000 3.959620 0.000000 
#    z -0.098650 0.000000 4.003200 
# 
# 
# High freq. dielectric constant tensor:
#      x y z
#    x 1.826840 0.000000 -0.020570 
#    y 0.000000 1.854260 0.000000 
#    z -0.020570 0.000000 1.859730 
# 
# From -- ./inp_files/65199.got.cif
#   From: 2010.06.25/outbox.cif.g09.slc.cpg/sg13_33_cif.got.tgz:65199.got - 2010.06.28 04:50:58.
