data_PCOD8118041
_publ_section_title
;
Structure prediction by ZEFSAII (Michael W. Deem and Ramdas Pophale) SiO2 
 PCOD8118041
Probable space group: P 2/C
;
_chemical_formula_sum "Si O2"
_cell_formula_units_Z 30
_cell_length_a 13.958320
_cell_length_b 9.310022
_cell_length_c 21.511494
_cell_angle_alpha 90.000000
_cell_angle_beta 147.076079
_cell_angle_gamma 90.000000
_cell_volume 1519.406260
_symmetry_space_group_name_H-M "P 2/C"
_symmetry_group_IT_number 13
_symmetry_cell_setting 'monoclinic'
loop_
_space_group_symop_operation_xyz
x,y,z
-x,y,1/2-z
-x,-y,-z
x,-y,1/2+z
loop_
_atom_site_type_symbol
_atom_site_label
_atom_site_fract_x
_atom_site_fract_y
_atom_site_fract_z
Si Si1 0.143825 0.346511 0.147962
Si Si2 0.400919 0.415410 0.537095
Si Si3 0.467622 0.139983 0.303581
Si Si4 0.445577 0.819376 0.292007
Si Si5 0.743454 0.555217 0.668945
Si Si6 0.202552 0.313479 0.973963
Si Si7 0.000000 0.331977 0.750000
Si Si8 0.098043 0.664285 0.089156
O O1 0.292729 0.232625 0.213080
O O2 0.133030 0.349694 0.217677
O O3 0.185148 0.506250 0.143144
O O4 0.960696 0.302163 0.014470
O O5 0.430150 0.281087 0.598114
O O6 0.580090 0.502543 0.621862
O O7 0.323856 0.358607 0.428573
O O8 0.259672 0.522390 0.491418
O O9 0.500000 0.115817 0.250000
O O10 0.628146 0.216991 0.424274
O O11 0.454104 0.979997 0.324409
O O12 0.500000 0.801617 0.250000
O O13 0.241468 0.778510 0.188096
O O14 0.856854 0.420850 0.710271
O O15 0.103357 0.243763 0.859590
O O16 0.077023 0.316788 0.964974
#
# Coordination Sequence:
#
# PCOD8118041 Si02
#       8
#     4   4   4   4   4   4   2   4
#     4  11  21  37  61  92 117 151 205 250 300 347
#     4  10  21  36  62  86 119 155 200 244 301 354
#     4  11  23  41  59  86 125 165 198 239 306 366
#     4  11  25  41  58  86 126 166 196 242 304 369
#     4  10  19  35  59  90 119 149 193 254 299 347
#     4  11  20  38  65  89 117 154 200 258 293 361
#     4  10  20  32  60  90 120 148 194 250 312 342
#     4  11  23  36  64  91 118 149 207 260 301 344
#
# _framework density 19.744554999999998
#
# number of rings (size 3 to 8) (size 9 to 14) (size 15 to 20)
#    0.000    1.333    5.333    0.000    3.733    1.600 
#    0.000    0.667    0.000    0.800    0.000    0.000 
#    0.000    0.000    0.000    0.000    0.000    0.000 
#
# Total GULP energy -371797.243350 kJ/mol
# GULP energy per Si atom -12393.241445 kJ/mol
# Density = 1.969962 g / cm^3
# Si number density = 19.744555 Si / 1000 Ang^3
#
#
#
# Elastic Constant Matrix: (Units=GPa)
#
#
# Indices 1 2 3 4 5 6 
#
# 1 64.0069 22.0217 26.9202 0.0000 -12.3311 0.0000
# 2 22.0217 105.1497 53.4187 0.0000 -15.4614 0.0000
# 3 26.9202 53.4187 141.5263 0.0000 -37.7001 0.0000
# 4 0.0000 0.0000 0.0000 15.2925 0.0000 -2.2405
# 5 -12.3311 -15.4614 -37.7001 0.0000 38.2577 0.0000
# 6 0.0000 0.0000 0.0000 -2.2405 0.0000 17.8601
#
#
#
# Elastic Compliance Matrix: (Units=1/GPa)
#
#
# Indices 1 2 3 4 5 6 
#
# 1 0.017747 -0.002431 -0.001622 0.000000 0.003139 0.000000
# 2 -0.002431 0.012107 -0.004085 0.000000 0.000084 0.000000
# 3 -0.001622 -0.004085 0.011305 0.000000 0.008966 0.000000
# 4 0.000000 0.000000 0.000000 0.066616 0.000000 0.008357
# 5 0.003139 0.000084 0.008966 0.000000 0.036020 0.000000
# 6 0.000000 0.000000 0.000000 0.008357 0.000000 0.057039
#
#
# Mechanical properties :
#
#
# Convention : Reuss Voigt Hill
#
# Bulk Modulus (GPa) = 40.18892 57.26712 48.72802
# Shear Modulus (GPa) = 22.18248 28.17021 25.17634
#
# Velocity S-wave (km/s) = 3.35546 3.78131 3.57473
# Velocity P-wave (km/s) = 5.95070 6.93768 6.46305
#
# Compressibility (1/GPa) = 0.02488248
#
# Stress axis : x y z
#
# Youngs Moduli (GPa) = 56.34865 82.59670 88.45953
#
# Poissons Ratio (x) = 0.20081 0.14346
# Poissons Ratio (y) = 0.13700 0.36135
# Poissons Ratio (z) = 0.09138 0.33740
#
# Static dielectric constant tensor:
#      x y z
#    x 3.613660 0.000000 -0.251100 
#    y 0.000000 3.360240 0.000000 
#    z -0.251100 0.000000 4.146320 
# 
# 
# High freq. dielectric constant tensor:
#      x y z
#    x 1.769980 0.000000 -0.010290 
#    y 0.000000 1.722350 0.000000 
#    z -0.010290 0.000000 1.800760 
# 
# From -- ./inp_files/87320.got.cif
#   From: 2010.06.25/outbox.cif.g09.slc.cpg/sg13_44_cif.got.tgz:87320.got - 2010.06.28 04:50:58.
