data_PCOD8118456
_publ_section_title
;
Structure prediction by ZEFSAII (Michael W. Deem and Ramdas Pophale) SiO2 
 PCOD8118456
Probable space group: P 2/C
;
_chemical_formula_sum "Si O2"
_cell_formula_units_Z 20
_cell_length_a 12.350911
_cell_length_b 9.429700
_cell_length_c 8.608967
_cell_angle_alpha 90.000000
_cell_angle_beta 112.448501
_cell_angle_gamma 90.000000
_cell_volume 926.669230
_symmetry_space_group_name_H-M "P 2/C"
_symmetry_group_IT_number 13
_symmetry_cell_setting 'monoclinic'
loop_
_space_group_symop_operation_xyz
x,y,z
-x,y,1/2-z
-x,-y,-z
x,-y,1/2+z
loop_
_atom_site_type_symbol
_atom_site_label
_atom_site_fract_x
_atom_site_fract_y
_atom_site_fract_z
Si Si1 0.332716 0.925161 0.406500
Si Si2 0.500000 0.805790 0.750000
Si Si3 0.878696 0.703775 0.239074
Si Si4 0.882829 0.590396 0.597110
Si Si5 0.333577 0.249904 0.411243
Si Si6 0.500000 0.184312 0.750000
O O1 0.413659 0.900614 0.599038
O O2 0.224409 0.817215 0.333688
O O3 0.416753 0.916311 0.305191
O O4 0.288910 0.086645 0.388152
O O5 0.587531 0.709628 0.695096
O O6 0.884451 0.639690 0.417878
O O7 0.863474 0.578405 0.103486
O O8 0.000000 0.779179 0.250000
O O9 0.779631 0.655563 0.642349
O O10 0.000000 0.638481 0.750000
O O11 0.417492 0.285142 0.602669
#
# Coordination Sequence:
#
# PCOD8118456 Si02
#       6
#     4   2   4   4   4   2
#     4  11  21  39  66  95 126 164 205 252 304 368
#     4  10  23  34  67  94 131 164 201 244 311 372
#     4  11  25  45  66  88 123 164 209 259 314 367
#     4  11  25  45  66  88 123 164 209 259 314 367
#     4  11  21  39  66  95 126 164 205 252 304 368
#     4  10  19  42  59  94 129 166 199 250 315 364
#
# _framework density 21.582673
#
# number of rings (size 3 to 8) (size 9 to 14) (size 15 to 20)
#    0.000    1.200    2.000    7.200    5.600    0.800 
#    0.000    8.000    0.000    0.000    0.000    0.000 
#    0.000    0.000    0.000    0.000    0.000    0.000 
#
# Total GULP energy -247837.710880 kJ/mol
# GULP energy per Si atom -12391.885544 kJ/mol
# Density = 2.153355 g / cm^3
# Si number density = 21.582673 Si / 1000 Ang^3
#
#
#
# Elastic Constant Matrix: (Units=GPa)
#
#
# Indices 1 2 3 4 5 6 
#
# 1 195.2035 66.5543 61.0334 0.0000 -8.0288 0.0000
# 2 66.5543 55.6766 34.6849 0.0000 16.6558 0.0000
# 3 61.0334 34.6849 131.6587 0.0000 0.3572 0.0000
# 4 0.0000 0.0000 0.0000 26.4266 0.0000 32.8536
# 5 -8.0288 16.6558 0.3572 0.0000 49.7660 0.0000
# 6 0.0000 0.0000 0.0000 32.8536 0.0000 39.8056
#
#
#
# Elastic Compliance Matrix: (Units=1/GPa)
#
#
# Indices 1 2 3 4 5 6 
#
# 1 0.010355 -0.013428 -0.001280 0.000000 0.006174 0.000000
# 2 -0.013428 0.041787 -0.004740 0.000000 -0.016118 0.000000
# 3 -0.001280 -0.004740 0.009434 0.000000 0.001312 0.000000
# 4 0.000000 0.000000 0.000000 -1.451203 0.000000 1.197750
# 5 0.006174 -0.016118 0.001312 0.000000 0.026475 0.000000
# 6 0.000000 0.000000 0.000000 1.197750 0.000000 -0.963441
#
#
# Mechanical properties :
#
#
# Convention : Reuss Voigt Hill
#
# Bulk Modulus (GPa) = 44.09047 78.56488 61.32767
# Shear Modulus (GPa) = -2.19285 37.88407 17.84561
#
# Velocity S-wave (km/s) = -1.00907 4.19418 2.87862
# Velocity P-wave (km/s) = 4.37211 7.74181 6.28693
#
# Compressibility (1/GPa) = 0.02268064
#
# Stress axis : x y z
#
# Youngs Moduli (GPa) = 96.57028 23.93091 106.00275
#
# Poissons Ratio (x) = 0.32135 0.13564
# Poissons Ratio (y) = 1.29676 0.50245
# Poissons Ratio (z) = 0.12357 0.11343
#
# Static dielectric constant tensor:
#      x y z
#    x 4.270920 0.000000 -0.136860 
#    y 0.000000 3.460580 0.000000 
#    z -0.136860 0.000000 4.340480 
# 
# 
# High freq. dielectric constant tensor:
#      x y z
#    x 1.867210 0.000000 -0.010730 
#    y 0.000000 1.812450 0.000000 
#    z -0.010730 0.000000 1.870530 
# 
# From -- ./inp_files/14883.got.cif
#   From: 2010.06.25/outbox.cif.g09.slc.cpg/sg13_8_cif.got.tgz:14883.got - 2010.06.28 04:50:58.
