data_PCOD8118040
_publ_section_title
;
Structure prediction by ZEFSAII (Michael W. Deem and Ramdas Pophale) SiO2 
 PCOD8118040
Probable space group: P 2/C
;
_chemical_formula_sum "Si O2"
_cell_formula_units_Z 32
_cell_length_a 17.991755
_cell_length_b 15.291665
_cell_length_c 11.753991
_cell_angle_alpha 90.000000
_cell_angle_beta 29.552761
_cell_angle_gamma 90.000000
_cell_volume 1594.992266
_symmetry_space_group_name_H-M "P 2/C"
_symmetry_group_IT_number 13
_symmetry_cell_setting 'monoclinic'
loop_
_space_group_symop_operation_xyz
x,y,z
-x,y,1/2-z
-x,-y,-z
x,-y,1/2+z
loop_
_atom_site_type_symbol
_atom_site_label
_atom_site_fract_x
_atom_site_fract_y
_atom_site_fract_z
Si Si1 0.300048 0.900499 0.081840
Si Si2 0.829926 0.682661 0.478268
Si Si3 0.180271 0.595780 0.768887
Si Si4 0.833652 0.405975 0.740653
Si Si5 0.809188 0.244902 0.386560
Si Si6 0.161709 0.758367 0.400023
Si Si7 0.357012 0.096715 0.023312
Si Si8 0.388784 0.157251 0.236433
O O1 0.165092 0.845757 0.317493
O O2 0.441699 0.844589 0.941979
O O3 0.295601 0.903508 0.949669
O O4 0.289474 0.000654 0.133326
O O5 0.796814 0.631246 0.636308
O O6 0.821234 0.612105 0.390472
O O7 0.694877 0.750606 0.643601
O O8 0.000000 0.725358 0.250000
O O9 0.252596 0.498334 0.665344
O O10 0.258098 0.664962 0.577443
O O11 0.005264 0.586188 0.970401
O O12 0.762423 0.325184 0.764212
O O13 0.753941 0.231332 0.590253
O O14 0.763065 0.162293 0.371226
O O15 0.986526 0.255879 0.150318
O O16 0.500000 0.092471 0.750000
O O17 0.397120 0.125676 0.096537
#
# Coordination Sequence:
#
# PCOD8118040 Si02
#       8
#     4   4   4   4   4   4   4   4
#     4  11  24  39  62  84 112 152 201 236 290 354
#     4  10  19  35  59  88 120 151 193 244 289 337
#     4   9  18  33  52  88 115 150 196 231 281 340
#     4   9  18  31  57  82 118 155 187 234 284 339
#     4  10  22  37  58  85 121 153 187 244 290 345
#     4  10  21  39  57  86 120 153 192 235 298 342
#     4  12  24  40  62  84 113 152 196 242 287 348
#     4  11  22  39  60  86 113 151 196 244 282 346
#
# _framework density 20.062794
#
# number of rings (size 3 to 8) (size 9 to 14) (size 15 to 20)
#    0.000    1.750    3.750    1.125    3.500    0.500 
#    0.000    0.000    0.000    2.250    0.000    0.000 
#    0.000    0.000    0.000    0.000    0.000    0.000 
#
# Total GULP energy -396483.958361 kJ/mol
# GULP energy per Si atom -12390.123699 kJ/mol
# Density = 2.001713 g / cm^3
# Si number density = 20.062794 Si / 1000 Ang^3
#
#
#
# Elastic Constant Matrix: (Units=GPa)
#
#
# Indices 1 2 3 4 5 6 
#
# 1 106.1010 34.2886 18.3871 0.0000 24.3493 0.0000
# 2 34.2886 135.2352 22.9968 0.0000 -4.3924 0.0000
# 3 18.3871 22.9968 29.2078 0.0000 18.2061 0.0000
# 4 0.0000 0.0000 0.0000 18.1075 0.0000 0.8731
# 5 24.3493 -4.3924 18.2061 0.0000 31.6118 0.0000
# 6 0.0000 0.0000 0.0000 0.8731 0.0000 24.4583
#
#
#
# Elastic Compliance Matrix: (Units=1/GPa)
#
#
# Indices 1 2 3 4 5 6 
#
# 1 0.013115 -0.004168 0.002626 0.000000 -0.012193 0.000000
# 2 -0.004168 0.011342 -0.014493 0.000000 0.013133 0.000000
# 3 0.002626 -0.014493 0.072560 0.000000 -0.045825 0.000000
# 4 0.000000 0.000000 0.000000 0.055321 0.000000 -0.001975
# 5 -0.012193 0.013133 -0.045825 0.000000 0.069243 0.000000
# 6 0.000000 0.000000 0.000000 -0.001975 0.000000 0.040956
#
#
# Mechanical properties :
#
#
# Convention : Reuss Voigt Hill
#
# Bulk Modulus (GPa) = 15.39713 46.87655 31.13684
# Shear Modulus (GPa) = 15.80995 27.82697 21.81846
#
# Velocity S-wave (km/s) = 2.81022 3.72828 3.30132
# Velocity P-wave (km/s) = 4.26860 6.47681 5.48498
#
# Compressibility (1/GPa) = 0.06494717
#
# Stress axis : x y z
#
# Youngs Moduli (GPa) = 76.24776 88.16504 13.78173
#
# Poissons Ratio (x) = 0.36746 -0.03619
# Poissons Ratio (y) = 0.31779 0.19974
# Poissons Ratio (z) = -0.20021 1.27777
#
# Static dielectric constant tensor:
#      x y z
#    x 3.910530 0.000000 0.417880 
#    y 0.000000 3.873810 0.000000 
#    z 0.417880 0.000000 3.555950 
# 
# 
# High freq. dielectric constant tensor:
#      x y z
#    x 1.787350 0.000000 0.033200 
#    y 0.000000 1.788140 0.000000 
#    z 0.033200 0.000000 1.755560 
# 
# From -- ./inp_files/39456.got.cif
#   From: 2010.06.25/outbox.cif.g09.slc.cpg/sg13_20_cif.got.tgz:39456.got - 2010.06.28 04:50:58.
