data_PCOD8118914
_publ_section_title
;
Structure prediction by ZEFSAII (Michael W. Deem and Ramdas Pophale) SiO2 
 PCOD8118914
Probable space group: P 2/C
;
_chemical_formula_sum "Si O2"
_cell_formula_units_Z 32
_cell_length_a 19.632777
_cell_length_b 14.641557
_cell_length_c 14.270554
_cell_angle_alpha 90.000000
_cell_angle_beta 22.991190
_cell_angle_gamma 90.000000
_cell_volume 1602.250762
_symmetry_space_group_name_H-M "P 2/C"
_symmetry_group_IT_number 13
_symmetry_cell_setting 'monoclinic'
loop_
_space_group_symop_operation_xyz
x,y,z
-x,y,1/2-z
-x,-y,-z
x,-y,1/2+z
loop_
_atom_site_type_symbol
_atom_site_label
_atom_site_fract_x
_atom_site_fract_y
_atom_site_fract_z
Si Si1 0.452062 0.994108 0.917920
Si Si2 0.802355 0.148175 0.295896
Si Si3 0.184944 0.358447 0.780854
Si Si4 0.299102 0.516053 0.766247
Si Si5 0.793615 0.346939 0.270457
Si Si6 0.796474 0.837431 0.199371
Si Si7 0.299639 0.509227 0.982882
Si Si8 0.192854 0.076118 0.004613
O O1 0.500000 0.983688 0.750000
O O2 0.641444 0.009192 0.729326
O O3 0.315157 0.076064 0.112897
O O4 0.353692 0.902938 0.072404
O O5 0.711020 0.247054 0.391339
O O6 0.773125 0.127952 0.442083
O O7 0.008383 0.140955 0.005650
O O8 0.197984 0.432178 0.847449
O O9 0.283480 0.263556 0.677230
O O10 0.231347 0.401943 0.622528
O O11 0.992971 0.322509 0.014572
O O12 0.500000 0.500000 0.500000
O O13 0.261202 0.609918 0.759670
O O14 0.247446 0.521532 0.940551
O O15 0.771386 0.414628 0.386494
O O16 0.814114 0.845840 0.065349
O O17 0.500000 0.505093 0.750000
O O18 0.000000 0.025872 0.250000
#
# Coordination Sequence:
#
# PCOD8118914 Si02
#       8
#     4   4   4   4   4   4   4   4
#     4  10  20  36  58  86 113 156 194 234 295 347
#     4   9  20  37  58  86 117 148 196 249 287 340
#     4  10  23  38  56  89 117 151 198 238 292 360
#     4  11  21  38  58  85 115 154 198 239 292 349
#     4  10  22  38  58  87 118 150 195 245 296 346
#     4  10  20  37  59  82 118 156 192 239 294 346
#     4  11  21  37  59  83 118 154 192 246 290 340
#     4   9  19  35  57  88 117 147 195 242 285 346
#
# _framework density 19.971906000000001
#
# number of rings (size 3 to 8) (size 9 to 14) (size 15 to 20)
#    0.000    2.000    2.500    2.250    1.750    5.000 
#    0.000    0.000    2.750    0.000    0.000    0.000 
#    0.000    0.000    0.000    0.000    0.000    0.000 
#
# Total GULP energy -396438.776228 kJ/mol
# GULP energy per Si atom -12388.711757 kJ/mol
# Density = 1.992645 g / cm^3
# Si number density = 19.971906 Si / 1000 Ang^3
#
#
#
# Elastic Constant Matrix: (Units=GPa)
#
#
# Indices 1 2 3 4 5 6 
#
# 1 106.7756 40.4452 29.3014 0.0000 5.6416 0.0000
# 2 40.4452 138.4450 51.8217 0.0000 0.0079 0.0000
# 3 29.3014 51.8217 91.2877 0.0000 -5.7391 0.0000
# 4 0.0000 0.0000 0.0000 7.0562 0.0000 -0.0097
# 5 5.6416 0.0079 -5.7391 0.0000 34.6833 0.0000
# 6 0.0000 0.0000 0.0000 -0.0097 0.0000 18.3426
#
#
#
# Elastic Compliance Matrix: (Units=1/GPa)
#
#
# Indices 1 2 3 4 5 6 
#
# 1 0.011009 -0.002339 -0.002343 0.000000 -0.002178 0.000000
# 2 -0.002339 0.009695 -0.004779 0.000000 -0.000412 0.000000
# 3 -0.002343 -0.004779 0.014595 0.000000 0.002797 0.000000
# 4 0.000000 0.000000 0.000000 0.141720 0.000000 0.000075
# 5 -0.002178 -0.000412 0.002797 0.000000 0.029649 0.000000
# 6 0.000000 0.000000 0.000000 0.000075 0.000000 0.054518
#
#
# Mechanical properties :
#
#
# Convention : Reuss Voigt Hill
#
# Bulk Modulus (GPa) = 61.05737 64.40499 62.73118
# Shear Modulus (GPa) = 17.50896 26.34577 21.92737
#
# Velocity S-wave (km/s) = 2.96409 3.63594 3.31707
# Velocity P-wave (km/s) = 6.50787 7.06714 6.79327
#
# Compressibility (1/GPa) = 0.01637804
#
# Stress axis : x y z
#
# Youngs Moduli (GPa) = 90.83071 103.14304 68.51639
#
# Poissons Ratio (x) = 0.24128 0.16052
# Poissons Ratio (y) = 0.21248 0.32743
# Poissons Ratio (z) = 0.21280 0.49290
#
# Static dielectric constant tensor:
#      x y z
#    x 3.575630 0.000000 -0.189200 
#    y 0.000000 3.658290 0.000000 
#    z -0.189200 0.000000 3.814490 
# 
# 
# High freq. dielectric constant tensor:
#      x y z
#    x 1.775680 0.000000 -0.006840 
#    y 0.000000 1.769460 0.000000 
#    z -0.006840 0.000000 1.789070 
# 
# From -- ./inp_files/57856.got.cif
#   From: 2010.06.25/outbox.cif.g09.slc.cpg/sg13_29_cif.got.tgz:57856.got - 2010.06.28 04:50:58.
