data_PCOD8118793
_publ_section_title
;
Structure prediction by ZEFSAII (Michael W. Deem and Ramdas Pophale) SiO2 
 PCOD8118793
Probable space group: P 2/C
;
_chemical_formula_sum "Si O2"
_cell_formula_units_Z 24
_cell_length_a 14.749735
_cell_length_b 9.521064
_cell_length_c 14.098279
_cell_angle_alpha 90.000000
_cell_angle_beta 142.656845
_cell_angle_gamma 90.000000
_cell_volume 1200.961737
_symmetry_space_group_name_H-M "P 2/C"
_symmetry_group_IT_number 13
_symmetry_cell_setting 'monoclinic'
loop_
_space_group_symop_operation_xyz
x,y,z
-x,y,1/2-z
-x,-y,-z
x,-y,1/2+z
loop_
_atom_site_type_symbol
_atom_site_label
_atom_site_fract_x
_atom_site_fract_y
_atom_site_fract_z
Si Si1 0.175970 0.493018 0.398836
Si Si2 0.666706 0.293060 0.349330
Si Si3 0.679531 0.765440 0.396698
Si Si4 0.637824 0.099416 0.042955
Si Si5 0.364145 0.396531 0.381361
Si Si6 0.676127 0.005071 0.263836
O O1 0.225935 0.645847 0.478800
O O2 0.240557 0.383694 0.531048
O O3 0.234418 0.457293 0.341986
O O4 0.000000 0.483458 0.250000
O O5 0.500000 0.305957 0.250000
O O6 0.690427 0.382953 0.272569
O O7 0.712568 0.131069 0.367047
O O8 0.500000 0.745822 0.250000
O O9 0.733769 0.862766 0.530105
O O10 0.731414 0.853835 0.347739
O O11 0.574558 0.246690 0.031848
O O12 0.742428 0.030449 0.212707
O O13 0.503910 0.995646 0.901283
O O14 0.500000 0.500000 0.500000
#
# Coordination Sequence:
#
# PCOD8118793 Si02
#       6
#     4   4   4   4   4   4
#     4  11  24  39  55  81 119 153 185 231 285 332
#     4  11  20  34  60  87 113 144 192 236 279 329
#     4   9  17  33  57  79 106 146 189 226 276 334
#     4   8  16  29  50  82 118 129 173 237 282 316
#     4  10  20  35  59  88 110 144 190 233 276 333
#     4   9  17  30  53  85 111 138 180 236 281 320
#
# _framework density 19.983985000000001
#
# number of rings (size 3 to 8) (size 9 to 14) (size 15 to 20)
#    0.000    2.333    1.667    2.000    4.667    0.667 
#    0.000    0.833    0.000    9.000    0.000    0.000 
#    0.000    0.000    0.000    0.000    0.000    0.000 
#
# Total GULP energy -297353.425667 kJ/mol
# GULP energy per Si atom -12389.726069 kJ/mol
# Density = 1.993850 g / cm^3
# Si number density = 19.983985 Si / 1000 Ang^3
#
#
#
# Elastic Constant Matrix: (Units=GPa)
#
#
# Indices 1 2 3 4 5 6 
#
# 1 67.8951 9.5607 31.8208 0.0000 -2.1098 0.0000
# 2 9.5607 67.2553 31.5876 0.0000 0.4967 0.0000
# 3 31.8208 31.5876 65.4381 0.0000 0.8139 0.0000
# 4 0.0000 0.0000 0.0000 23.8292 0.0000 -17.5016
# 5 -2.1098 0.4967 0.8139 0.0000 30.6260 0.0000
# 6 0.0000 0.0000 0.0000 -17.5016 0.0000 22.8073
#
#
#
# Elastic Compliance Matrix: (Units=1/GPa)
#
#
# Indices 1 2 3 4 5 6 
#
# 1 0.019391 0.002159 -0.010491 0.000000 0.001580 0.000000
# 2 0.002159 0.019468 -0.010449 0.000000 0.000111 0.000000
# 3 -0.010491 -0.010449 0.025442 0.000000 -0.001229 0.000000
# 4 0.000000 0.000000 0.000000 0.096164 0.000000 0.073793
# 5 0.001580 0.000111 -0.001229 0.000000 0.032792 0.000000
# 6 0.000000 0.000000 0.000000 0.073793 0.000000 0.100472
#
#
# Mechanical properties :
#
#
# Convention : Reuss Voigt Hill
#
# Bulk Modulus (GPa) = 37.39767 38.50299 37.95033
# Shear Modulus (GPa) = 14.69706 23.96044 19.32875
#
# Velocity S-wave (km/s) = 2.71485 3.46639 3.11338
# Velocity P-wave (km/s) = 5.34618 5.94389 5.65294
#
# Compressibility (1/GPa) = 0.02673963
#
# Stress axis : x y z
#
# Youngs Moduli (GPa) = 51.57158 51.36509 39.30479
#
# Poissons Ratio (x) = -0.11090 0.41235
# Poissons Ratio (y) = -0.11135 0.41069
# Poissons Ratio (z) = 0.54104 0.53671
#
# Static dielectric constant tensor:
#      x y z
#    x 4.395670 0.000000 -0.859750 
#    y 0.000000 3.817420 0.000000 
#    z -0.859750 0.000000 3.513150 
# 
# 
# High freq. dielectric constant tensor:
#      x y z
#    x 1.758900 0.000000 -0.054110 
#    y 0.000000 1.791190 0.000000 
#    z -0.054110 0.000000 1.741670 
# 
# From -- ./inp_files/53193.got.cif
#   From: 2010.06.25/outbox.cif.g09.slc.cpg/sg13_27_cif.got.tgz:53193.got - 2010.06.28 04:50:58.
