data_PCOD8118858
_publ_section_title
;
Structure prediction by ZEFSAII (Michael W. Deem and Ramdas Pophale) SiO2 
 PCOD8118858
Probable space group: P 2/C
;
_chemical_formula_sum "Si O2"
_cell_formula_units_Z 28
_cell_length_a 8.255958
_cell_length_b 23.320615
_cell_length_c 14.518370
_cell_angle_alpha 90.000000
_cell_angle_beta 148.975421
_cell_angle_gamma 90.000000
_cell_volume 1440.703411
_symmetry_space_group_name_H-M "P 2/C"
_symmetry_group_IT_number 13
_symmetry_cell_setting 'monoclinic'
loop_
_space_group_symop_operation_xyz
x,y,z
-x,y,1/2-z
-x,-y,-z
x,-y,1/2+z
loop_
_atom_site_type_symbol
_atom_site_label
_atom_site_fract_x
_atom_site_fract_y
_atom_site_fract_z
Si Si1 0.247686 0.545133 0.287478
Si Si2 0.362775 0.144952 0.784408
Si Si3 0.361941 0.241263 0.927888
Si Si4 0.630612 0.063351 0.065857
Si Si5 0.630875 0.562798 0.912719
Si Si6 0.366753 0.637048 0.933591
Si Si7 0.628635 0.851081 0.916154
O O1 0.464214 0.489551 0.384938
O O2 0.475003 0.600125 0.407092
O O3 0.000000 0.538810 0.250000
O O4 0.008953 0.553863 0.085282
O O5 0.500000 0.148950 0.750000
O O6 0.438297 0.203099 0.875984
O O7 0.994680 0.135150 0.595057
O O8 0.511555 0.093050 0.914264
O O9 0.000000 0.261019 0.750000
O O10 0.586743 0.295747 0.028286
O O11 0.441916 0.206997 0.060844
O O12 0.526128 0.095297 0.107948
O O13 0.000000 0.061619 0.250000
O O14 0.500000 0.000000 0.000000
O O15 0.500000 0.571249 0.750000
O O16 0.545656 0.620189 0.926770
O O17 0.000000 0.622399 0.750000
O O18 0.500000 0.844094 0.750000
#
# Coordination Sequence:
#
# PCOD8118858 Si02
#       7
#     4   4   4   4   4   4   4
#     4  10  20  36  56  76 106 142 176 216 272 334
#     4  10  21  39  61  87 117 151 191 235 284 338
#     4   9  20  39  59  80 112 149 187 233 281 330
#     4  11  22  38  60  87 120 155 194 237 284 334
#     4  11  21  35  56  81 107 136 176 225 275 327
#     4  11  22  37  56  78 107 145 184 220 271 333
#     4  10  21  38  61  87 117 152 191 234 285 338
#
# _framework density 19.434951999999999
#
# number of rings (size 3 to 8) (size 9 to 14) (size 15 to 20)
#    0.000    1.714    0.000    7.714    0.000    4.571 
#    0.000    6.429    0.000    0.000    0.000    0.000 
#    0.000    0.000    0.000    0.000    0.000    0.000 
#
# Total GULP energy -347168.038703 kJ/mol
# GULP energy per Si atom -12398.858525 kJ/mol
# Density = 1.939072 g / cm^3
# Si number density = 19.434952 Si / 1000 Ang^3
#
#
#
# Elastic Constant Matrix: (Units=GPa)
#
#
# Indices 1 2 3 4 5 6 
#
# 1 92.8833 43.1727 54.0220 0.0000 -8.7802 0.0000
# 2 43.1727 124.8520 65.3928 0.0000 3.9362 0.0000
# 3 54.0220 65.3928 171.4657 0.0000 2.4085 0.0000
# 4 0.0000 0.0000 0.0000 32.6610 0.0000 7.8127
# 5 -8.7802 3.9362 2.4085 0.0000 45.0741 0.0000
# 6 0.0000 0.0000 0.0000 7.8127 0.0000 56.8701
#
#
#
# Elastic Compliance Matrix: (Units=1/GPa)
#
#
# Indices 1 2 3 4 5 6 
#
# 1 0.014611 -0.003401 -0.003353 0.000000 0.003322 0.000000
# 2 -0.003401 0.010821 -0.003035 0.000000 -0.001445 0.000000
# 3 -0.003353 -0.003035 0.008057 0.000000 -0.000819 0.000000
# 4 0.000000 0.000000 0.000000 0.031658 0.000000 -0.004349
# 5 0.003322 -0.001445 -0.000819 0.000000 0.023003 0.000000
# 6 0.000000 0.000000 0.000000 -0.004349 0.000000 0.018181
#
#
# Mechanical properties :
#
#
# Convention : Reuss Voigt Hill
#
# Bulk Modulus (GPa) = 71.88333 79.37511 75.62922
# Shear Modulus (GPa) = 38.30058 42.02863 40.16460
#
# Velocity S-wave (km/s) = 4.44408 4.65534 4.55094
# Velocity P-wave (km/s) = 7.96241 8.35622 8.16169
#
# Compressibility (1/GPa) = 0.01391143
#
# Stress axis : x y z
#
# Youngs Moduli (GPa) = 68.44063 92.41585 124.10932
#
# Poissons Ratio (x) = 0.31431 0.41614
# Poissons Ratio (y) = 0.23277 0.37666
# Poissons Ratio (z) = 0.22948 0.28047
#
# Static dielectric constant tensor:
#      x y z
#    x 3.496780 0.000000 0.022120 
#    y 0.000000 3.471660 0.000000 
#    z 0.022120 0.000000 4.286800 
# 
# 
# High freq. dielectric constant tensor:
#      x y z
#    x 1.747160 0.000000 0.006300 
#    y 0.000000 1.753750 0.000000 
#    z 0.006300 0.000000 1.783730 
# 
# From -- ./inp_files/48237.got.cif
#   From: 2010.06.25/outbox.cif.g09.slc.cpg/sg13_25_cif.got.tgz:48237.got - 2010.06.28 04:50:58.
