data_PCOD8118697
_publ_section_title
;
Structure prediction by ZEFSAII (Michael W. Deem and Ramdas Pophale) SiO2 
 PCOD8118697
Probable space group: P 2/C
;
_chemical_formula_sum "Si O2"
_cell_formula_units_Z 20
_cell_length_a 8.264377
_cell_length_b 12.033675
_cell_length_c 9.045531
_cell_angle_alpha 90.000000
_cell_angle_beta 92.382015
_cell_angle_gamma 90.000000
_cell_volume 898.808229
_symmetry_space_group_name_H-M "P 2/C"
_symmetry_group_IT_number 13
_symmetry_cell_setting 'monoclinic'
loop_
_space_group_symop_operation_xyz
x,y,z
-x,y,1/2-z
-x,-y,-z
x,-y,1/2+z
loop_
_atom_site_type_symbol
_atom_site_label
_atom_site_fract_x
_atom_site_fract_y
_atom_site_fract_z
Si Si1 0.688052 0.560024 0.290916
Si Si2 0.288956 0.651502 0.518510
Si Si3 0.823468 0.169493 0.300838
Si Si4 0.657271 0.735697 0.519124
Si Si5 0.383257 0.041911 0.620275
O O1 0.500000 0.572129 0.250000
O O2 0.725614 0.436182 0.346967
O O3 0.744834 0.640077 0.427013
O O4 0.770587 0.593723 0.137241
O O5 0.169387 0.755174 0.550125
O O6 0.467653 0.705587 0.517610
O O7 0.000000 0.139977 0.250000
O O8 0.737484 0.052269 0.326069
O O9 0.723716 0.249897 0.186622
O O10 0.709373 0.850492 0.441673
O O11 0.500000 0.087216 0.750000
O O12 0.500000 0.000000 0.500000
#
# Coordination Sequence:
#
# PCOD8118697 Si02
#       5
#     4   4   4   4   4
#     4  10  20  34  67 100 122 156 211 272 309 362
#     4  11  20  40  65  95 126 161 213 262 315 369
#     4  12  26  42  61  90 130 171 208 258 314 375
#     4  11  22  40  65  91 126 164 211 259 315 372
#     4  12  22  42  69  95 121 162 210 260 316 373
#
# _framework density 22.251688999999999
#
# number of rings (size 3 to 8) (size 9 to 14) (size 15 to 20)
#    0.000    0.800    4.000    7.200    0.000    0.800 
#    0.000    5.000    0.000    0.000    0.000    0.000 
#    0.000    0.000    0.000    0.000    0.000    0.000 
#
# Total GULP energy -247844.341697 kJ/mol
# GULP energy per Si atom -12392.217085 kJ/mol
# Density = 2.220104 g / cm^3
# Si number density = 22.251689 Si / 1000 Ang^3
#
#
#
# Elastic Constant Matrix: (Units=GPa)
#
#
# Indices 1 2 3 4 5 6 
#
# 1 62.3707 28.5874 18.1721 0.0000 -24.5512 0.0000
# 2 28.5874 151.3010 40.0506 0.0000 -8.9170 0.0000
# 3 18.1721 40.0506 87.0236 0.0000 -18.3084 0.0000
# 4 0.0000 0.0000 0.0000 56.5726 0.0000 -5.3984
# 5 -24.5512 -8.9170 -18.3084 0.0000 16.7847 0.0000
# 6 0.0000 0.0000 0.0000 -5.3984 0.0000 14.5742
#
#
#
# Elastic Compliance Matrix: (Units=1/GPa)
#
#
# Indices 1 2 3 4 5 6 
#
# 1 0.044424 -0.006500 0.008642 0.000000 0.070953 0.000000
# 2 -0.006500 0.008478 -0.004669 0.000000 -0.010095 0.000000
# 3 0.008642 -0.004669 0.018134 0.000000 0.029942 0.000000
# 4 0.000000 0.000000 0.000000 0.018324 0.000000 0.006787
# 5 0.070953 -0.010095 0.029942 0.000000 0.190659 0.000000
# 6 0.000000 0.000000 0.000000 0.006787 0.000000 0.071129
#
#
# Mechanical properties :
#
#
# Convention : Reuss Voigt Hill
#
# Bulk Modulus (GPa) = 15.15509 52.70173 33.92841
# Shear Modulus (GPa) = 13.22072 31.84531 22.53301
#
# Velocity S-wave (km/s) = 2.44015 3.78715 3.18566
# Velocity P-wave (km/s) = 3.84248 6.54669 5.36767
#
# Compressibility (1/GPa) = 0.06598444
#
# Stress axis : x y z
#
# Youngs Moduli (GPa) = 22.51049 117.94915 55.14408
#
# Poissons Ratio (x) = 0.76662 -0.47657
# Poissons Ratio (y) = 0.14631 0.25744
# Poissons Ratio (z) = -0.19454 0.55065
#
# Static dielectric constant tensor:
#      x y z
#    x 3.286210 0.000000 -0.181790 
#    y 0.000000 3.122900 0.000000 
#    z -0.181790 0.000000 4.594990 
# 
# 
# High freq. dielectric constant tensor:
#      x y z
#    x 1.811470 0.000000 -0.011970 
#    y 0.000000 1.900720 0.000000 
#    z -0.011970 0.000000 1.899510 
# 
# From -- ./inp_files/11649.got.cif
#   From: 2010.06.25/outbox.cif.g09.slc.cpg/sg13_6_cif.got.tgz:11649.got - 2010.06.28 04:50:58.
