data_PCOD8118534
_publ_section_title
;
Structure prediction by ZEFSAII (Michael W. Deem and Ramdas Pophale) SiO2 
 PCOD8118534
Probable space group: P 2/C
;
_chemical_formula_sum "Si O2"
_cell_formula_units_Z 18
_cell_length_a 5.144200
_cell_length_b 11.063416
_cell_length_c 19.530858
_cell_angle_alpha 90.000000
_cell_angle_beta 61.408662
_cell_angle_gamma 90.000000
_cell_volume 976.001075
_symmetry_space_group_name_H-M "P 2/C"
_symmetry_group_IT_number 13
_symmetry_cell_setting 'monoclinic'
loop_
_space_group_symop_operation_xyz
x,y,z
-x,y,1/2-z
-x,-y,-z
x,-y,1/2+z
loop_
_atom_site_type_symbol
_atom_site_label
_atom_site_fract_x
_atom_site_fract_y
_atom_site_fract_z
Si Si1 0.564005 0.058315 0.094804
Si Si2 0.500000 0.859461 0.750000
Si Si3 0.800426 0.570682 0.972840
Si Si4 0.174187 0.374166 0.294889
Si Si5 0.785989 0.843884 0.984883
O O1 0.460206 0.057819 0.187326
O O2 0.318670 0.124257 0.079032
O O3 0.867814 0.131581 0.048939
O O4 0.601518 0.921013 0.064035
O O5 0.786597 0.771916 0.703753
O O6 0.723303 0.704459 0.009424
O O7 0.986460 0.575959 0.880450
O O8 0.500000 0.500000 0.000000
O O9 0.000000 0.500000 0.000000
O O10 0.500000 0.435747 0.250000
O O11 0.000000 0.411797 0.250000
#
# Coordination Sequence:
#
# PCOD8118534 Si02
#       5
#     4   2   4   4   4
#     4  10  20  33  62  82 116 140 184 246 292 341
#     4  10  20  32  62  86 108 144 194 244 294 336
#     4  12  23  36  60  87 118 159 200 235 280 347
#     4  10  20  35  57  83 115 142 197 247 283 332
#     4  10  20  38  52  88 116 148 182 237 295 337
#
# _framework density 18.442601
#
# number of rings (size 3 to 8) (size 9 to 14) (size 15 to 20)
#    0.667    0.889    2.222    4.000    0.000    0.000 
#    0.000    0.000    7.333    0.000    0.000    0.000 
#    0.000    0.000    0.000    0.000    0.000    0.000 
#
# Total GULP energy -223154.239359 kJ/mol
# GULP energy per Si atom -12397.457742 kJ/mol
# Density = 1.840063 g / cm^3
# Si number density = 18.442601 Si / 1000 Ang^3
#
#
#
# Elastic Constant Matrix: (Units=GPa)
#
#
# Indices 1 2 3 4 5 6 
#
# 1 139.9744 52.1473 53.0943 0.0000 8.2764 0.0000
# 2 52.1473 134.0600 59.8270 0.0000 5.7013 0.0000
# 3 53.0943 59.8270 152.6854 0.0000 18.1254 0.0000
# 4 0.0000 0.0000 0.0000 112.9712 0.0000 80.5203
# 5 8.2764 5.7013 18.1254 0.0000 37.9577 0.0000
# 6 0.0000 0.0000 0.0000 80.5203 0.0000 106.4336
#
#
#
# Elastic Compliance Matrix: (Units=1/GPa)
#
#
# Indices 1 2 3 4 5 6 
#
# 1 0.008891 -0.002527 -0.002032 0.000000 -0.000589 0.000000
# 2 -0.002527 0.009763 -0.003009 0.000000 0.000521 0.000000
# 3 -0.002032 -0.003009 0.008829 0.000000 -0.003321 0.000000
# 4 0.000000 0.000000 0.000000 0.019210 0.000000 -0.014533
# 5 -0.000589 0.000521 -0.003321 0.000000 0.027981 0.000000
# 6 0.000000 0.000000 0.000000 -0.014533 0.000000 0.020390
#
#
# Mechanical properties :
#
#
# Convention : Reuss Voigt Hill
#
# Bulk Modulus (GPa) = 80.98076 84.09523 82.53799
# Shear Modulus (GPa) = 43.73884 68.91590 56.32737
#
# Velocity S-wave (km/s) = 4.87521 6.11955 5.53248
# Velocity P-wave (km/s) = 8.70030 9.77902 9.25539
#
# Compressibility (1/GPa) = 0.01234861
#
# Stress axis : x y z
#
# Youngs Moduli (GPa) = 112.47353 102.43104 113.26261
#
# Poissons Ratio (x) = 0.25881 0.23012
# Poissons Ratio (y) = 0.28419 0.34076
# Poissons Ratio (z) = 0.22852 0.30817
#
# Static dielectric constant tensor:
#      x y z
#    x 3.608930 0.000000 0.015440 
#    y 0.000000 3.308070 0.000000 
#    z 0.015440 0.000000 3.300210 
# 
# 
# High freq. dielectric constant tensor:
#      x y z
#    x 1.738870 0.000000 0.006200 
#    y 0.000000 1.687640 0.000000 
#    z 0.006200 0.000000 1.711680 
# 
# From -- ./inp_files/60893.got.cif
#   From: 2010.06.25/outbox.cif.g09.slc.cpg/sg13_31_cif.got.tgz:60893.got - 2010.06.28 04:50:58.
