data_PCOD8118273
_publ_section_title
;
Structure prediction by ZEFSAII (Michael W. Deem and Ramdas Pophale) SiO2 
 PCOD8118273
Probable space group: P 2/C
;
_chemical_formula_sum "Si O2"
_cell_formula_units_Z 32
_cell_length_a 17.234575
_cell_length_b 11.916621
_cell_length_c 14.291780
_cell_angle_alpha 90.000000
_cell_angle_beta 29.298342
_cell_angle_gamma 90.000000
_cell_volume 1436.369003
_symmetry_space_group_name_H-M "P 2/C"
_symmetry_group_IT_number 13
_symmetry_cell_setting 'monoclinic'
loop_
_space_group_symop_operation_xyz
x,y,z
-x,y,1/2-z
-x,-y,-z
x,-y,1/2+z
loop_
_atom_site_type_symbol
_atom_site_label
_atom_site_fract_x
_atom_site_fract_y
_atom_site_fract_z
Si Si1 0.796029 0.905544 0.170995
Si Si2 0.332694 0.701609 0.689429
Si Si3 0.815645 0.589478 0.364569
Si Si4 0.671925 0.207810 0.105543
Si Si5 0.831487 0.494934 0.039305
Si Si6 0.676935 0.950572 0.092999
Si Si7 0.311744 0.667259 0.186417
Si Si8 0.834068 0.116183 0.249442
O O1 0.701908 0.913173 0.172841
O O2 0.743098 0.793288 0.280971
O O3 0.750054 0.012350 0.283276
O O4 0.980754 0.896370 0.958334
O O5 0.333642 0.783455 0.777098
O O6 0.256836 0.583195 0.793898
O O7 0.508084 0.672197 0.467911
O O8 0.230317 0.764247 0.718444
O O9 0.810936 0.714816 0.414926
O O10 0.757719 0.509306 0.511301
O O11 0.703211 0.590319 0.391730
O O12 0.988249 0.547815 0.152100
O O13 0.500000 0.247563 0.250000
O O14 0.712445 0.081090 0.038248
O O15 0.802732 0.619577 0.110498
O O16 0.500000 0.918485 0.250000
O O17 0.797302 0.886262 0.898236
#
# Coordination Sequence:
#
# PCOD8118273 Si02
#       8
#     4   4   4   4   4   4   4   4
#     4  11  25  43  66  99 133 181 216 272 331 407
#     4  11  22  40  67  95 132 167 222 280 326 398
#     4  10  21  41  66  93 126 175 220 276 328 388
#     4  10  19  37  64 100 128 171 221 278 325 393
#     4  10  24  42  62  99 126 171 221 277 334 395
#     4  11  23  40  65  98 136 173 217 272 335 403
#     4  12  23  42  69  92 130 175 224 271 336 397
#     4  11  24  43  64  97 138 171 222 269 339 396
#
# _framework density 22.278396999999998
#
# number of rings (size 3 to 8) (size 9 to 14) (size 15 to 20)
#    0.000    1.250    2.500    3.375    1.750    2.000 
#   11.250    0.000    0.000    0.000    0.000    0.000 
#    0.000    0.000    0.000    0.000    0.000    0.000 
#
# Total GULP energy -396773.088932 kJ/mol
# GULP energy per Si atom -12399.159029 kJ/mol
# Density = 2.222769 g / cm^3
# Si number density = 22.278397 Si / 1000 Ang^3
#
#
#
# Elastic Constant Matrix: (Units=GPa)
#
#
# Indices 1 2 3 4 5 6 
#
# 1 100.4400 13.4948 1.1332 0.0000 6.3126 0.0000
# 2 13.4948 57.0968 29.1234 0.0000 -3.0488 0.0000
# 3 1.1332 29.1234 85.4948 0.0000 -0.2445 0.0000
# 4 0.0000 0.0000 0.0000 29.4348 0.0000 7.1616
# 5 6.3126 -3.0488 -0.2445 0.0000 32.8436 0.0000
# 6 0.0000 0.0000 0.0000 7.1616 0.0000 15.3351
#
#
#
# Elastic Compliance Matrix: (Units=1/GPa)
#
#
# Indices 1 2 3 4 5 6 
#
# 1 0.010502 -0.003062 0.000897 0.000000 -0.002296 0.000000
# 2 -0.003062 0.022211 -0.007518 0.000000 0.002594 0.000000
# 3 0.000897 -0.007518 0.014244 0.000000 -0.000764 0.000000
# 4 0.000000 0.000000 0.000000 0.038328 0.000000 -0.017900
# 5 -0.002296 0.002594 -0.000764 0.000000 0.031124 0.000000
# 6 0.000000 0.000000 0.000000 -0.017900 0.000000 0.073569
#
#
# Mechanical properties :
#
#
# Convention : Reuss Voigt Hill
#
# Bulk Modulus (GPa) = 36.24459 36.72603 36.48531
# Shear Modulus (GPa) = 22.87899 28.80805 25.84352
#
# Velocity S-wave (km/s) = 3.20810 3.59986 3.40961
# Velocity P-wave (km/s) = 5.47967 5.81373 5.64917
#
# Compressibility (1/GPa) = 0.02759033
#
# Stress axis : x y z
#
# Youngs Moduli (GPa) = 95.22146 45.02220 70.20715
#
# Poissons Ratio (x) = 0.13788 -0.06301
# Poissons Ratio (y) = 0.29161 0.52783
# Poissons Ratio (z) = -0.08546 0.33848
#
# Static dielectric constant tensor:
#      x y z
#    x 4.099130 0.000000 0.106310 
#    y 0.000000 3.945130 0.000000 
#    z 0.106310 0.000000 3.962610 
# 
# 
# High freq. dielectric constant tensor:
#      x y z
#    x 1.879180 0.000000 0.008010 
#    y 0.000000 1.867600 0.000000 
#    z 0.008010 0.000000 1.877910 
# 
# From -- ./inp_files/55792.got.cif
#   From: 2010.06.25/outbox.cif.g09.slc.cpg/sg13_28_cif.got.tgz:55792.got - 2010.06.28 04:50:58.
