data_PCOD8118919
_publ_section_title
;
Structure prediction by ZEFSAII (Michael W. Deem and Ramdas Pophale) SiO2 
 PCOD8118919
Probable space group: P 2/C
;
_chemical_formula_sum "Si O2"
_cell_formula_units_Z 20
_cell_length_a 6.248226
_cell_length_b 12.891444
_cell_length_c 12.838806
_cell_angle_alpha 90.000000
_cell_angle_beta 110.257956
_cell_angle_gamma 90.000000
_cell_volume 970.179510
_symmetry_space_group_name_H-M "P 2/C"
_symmetry_group_IT_number 13
_symmetry_cell_setting 'monoclinic'
loop_
_space_group_symop_operation_xyz
x,y,z
-x,y,1/2-z
-x,-y,-z
x,-y,1/2+z
loop_
_atom_site_type_symbol
_atom_site_label
_atom_site_fract_x
_atom_site_fract_y
_atom_site_fract_z
Si Si1 0.756399 0.745668 0.400133
Si Si2 0.414314 0.890106 0.447856
Si Si3 0.000000 0.830185 0.250000
Si Si4 0.589832 0.573734 0.103378
Si Si5 0.500000 0.577866 0.750000
Si Si6 0.234788 0.290005 0.037332
O O1 0.607557 0.845736 0.404171
O O2 0.839762 0.757994 0.295136
O O3 0.615618 0.640608 0.383359
O O4 0.972133 0.738043 0.515742
O O5 0.384670 0.813457 0.542491
O O6 0.168781 0.901010 0.348496
O O7 0.500000 0.000000 0.500000
O O8 0.669326 0.495725 0.209267
O O9 0.500000 0.500000 0.000000
O O10 0.772485 0.647779 0.076146
O O11 0.661629 0.648133 0.848818
#
# Coordination Sequence:
#
# PCOD8118919 Si02
#       6
#     4   4   2   4   2   4
#     4  10  21  39  64  88 128 156 212 258 298 375
#     4  10  22  43  63  92 124 159 204 260 308 383
#     4  10  22  38  68  94 120 166 200 254 326 352
#     4   9  20  36  58  84 124 164 209 249 300 364
#     4  10  20  36  58  86 126 170 202 254 310 366
#     4   9  21  40  56  90 126 163 204 258 308 364
#
# _framework density 20.614744000000002
#
# number of rings (size 3 to 8) (size 9 to 14) (size 15 to 20)
#    0.000    2.400    0.000    0.600    8.400    6.400 
#    7.200   14.000    0.000    0.000    0.000    0.000 
#    0.000    0.000    0.000    0.000    0.000    0.000 
#
# Total GULP energy -247814.645888 kJ/mol
# GULP energy per Si atom -12390.732294 kJ/mol
# Density = 2.056782 g / cm^3
# Si number density = 20.614744 Si / 1000 Ang^3
#
#
#
# Elastic Constant Matrix: (Units=GPa)
#
#
# Indices 1 2 3 4 5 6 
#
# 1 106.8643 46.8564 44.8806 0.0000 0.5658 0.0000
# 2 46.8564 141.5766 62.8813 0.0000 -4.2767 0.0000
# 3 44.8806 62.8813 121.6474 0.0000 -0.1834 0.0000
# 4 0.0000 0.0000 0.0000 32.6011 0.0000 5.2406
# 5 0.5658 -4.2767 -0.1834 0.0000 25.3563 0.0000
# 6 0.0000 0.0000 0.0000 5.2406 0.0000 10.3056
#
#
#
# Elastic Compliance Matrix: (Units=1/GPa)
#
#
# Indices 1 2 3 4 5 6 
#
# 1 0.011754 -0.002577 -0.003005 0.000000 -0.000719 0.000000
# 2 -0.002577 0.009791 -0.004108 0.000000 0.001679 0.000000
# 3 -0.003005 -0.004108 0.011452 0.000000 -0.000543 0.000000
# 4 0.000000 0.000000 0.000000 0.033405 0.000000 -0.016987
# 5 -0.000719 0.001679 -0.000543 0.000000 0.039733 0.000000
# 6 0.000000 0.000000 0.000000 -0.016987 0.000000 0.105673
#
#
# Mechanical properties :
#
#
# Convention : Reuss Voigt Hill
#
# Bulk Modulus (GPa) = 73.44147 75.48055 74.46101
# Shear Modulus (GPa) = 21.21094 28.01726 24.61410
#
# Velocity S-wave (km/s) = 3.21116 3.69058 3.45919
# Velocity P-wave (km/s) = 7.03220 7.40641 7.22172
#
# Compressibility (1/GPa) = 0.01361628
#
# Stress axis : x y z
#
# Youngs Moduli (GPa) = 85.08083 102.12942 87.32056
#
# Poissons Ratio (x) = 0.26317 0.26244
# Poissons Ratio (y) = 0.21924 0.35873
# Poissons Ratio (z) = 0.25571 0.41956
#
# Static dielectric constant tensor:
#      x y z
#    x 4.104640 0.000000 -0.228270 
#    y 0.000000 3.805220 0.000000 
#    z -0.228270 0.000000 3.833190 
# 
# 
# High freq. dielectric constant tensor:
#      x y z
#    x 1.803970 0.000000 -0.008050 
#    y 0.000000 1.800290 0.000000 
#    z -0.008050 0.000000 1.803450 
# 
# From -- ./inp_files/43771.got.cif
#   From: 2010.06.25/outbox.cif.g09.slc.cpg/sg13_22_cif.got.tgz:43771.got - 2010.06.28 04:50:58.
