data_PCOD8118745
_publ_section_title
;
Structure prediction by ZEFSAII (Michael W. Deem and Ramdas Pophale) SiO2 
 PCOD8118745
Probable space group: P 2/C
;
_chemical_formula_sum "Si O2"
_cell_formula_units_Z 18
_cell_length_a 5.117051
_cell_length_b 10.558913
_cell_length_c 19.035214
_cell_angle_alpha 90.000000
_cell_angle_beta 91.234367
_cell_angle_gamma 90.000000
_cell_volume 1028.243393
_symmetry_space_group_name_H-M "P 2/C"
_symmetry_group_IT_number 13
_symmetry_cell_setting 'monoclinic'
loop_
_space_group_symop_operation_xyz
x,y,z
-x,y,1/2-z
-x,-y,-z
x,-y,1/2+z
loop_
_atom_site_type_symbol
_atom_site_label
_atom_site_fract_x
_atom_site_fract_y
_atom_site_fract_z
Si Si1 0.722730 0.918232 0.920162
Si Si2 0.736125 0.742044 0.207247
Si Si3 0.223012 0.082524 0.920344
Si Si4 0.742803 0.742527 0.792757
Si Si5 0.500000 0.500232 0.750000
O O1 0.768861 0.798099 0.870643
O O2 0.437762 0.976067 0.904542
O O3 0.746562 0.868095 0.999908
O O4 0.937460 0.025076 0.905845
O O5 0.500000 0.807382 0.250000
O O6 0.745267 0.796275 0.129090
O O7 0.679915 0.590269 0.201656
O O8 0.000000 0.771844 0.250000
O O9 0.500000 0.807876 0.750000
O O10 0.687133 0.590792 0.798499
O O11 0.000000 0.771836 0.750000
#
# Coordination Sequence:
#
# PCOD8118745 Si02
#       5
#     4   4   4   4   2
#     4  10  21  36  54  81 114 141 173 220 273 323
#     4  10  20  35  57  78 109 140 180 223 265 309
#     4  10  21  36  54  81 114 141 173 220 273 323
#     4  10  20  35  57  78 109 140 180 223 265 309
#     4   8  22  36  54  80 106 140 184 230 254 304
#
# _framework density 17.505580999999999
#
# number of rings (size 3 to 8) (size 9 to 14) (size 15 to 20)
#    1.333    0.889    0.000    3.333    0.000    5.333 
#    0.000    1.111    0.000    2.667    0.000    0.000 
#    0.000    0.000    0.000    0.000    0.000    0.000 
#
# Total GULP energy -223079.207591 kJ/mol
# GULP energy per Si atom -12393.289311 kJ/mol
# Density = 1.746574 g / cm^3
# Si number density = 17.505581 Si / 1000 Ang^3
#
#
#
# Elastic Constant Matrix: (Units=GPa)
#
#
# Indices 1 2 3 4 5 6 
#
# 1 112.1313 17.3195 45.7086 0.0000 -10.6553 0.0000
# 2 17.3195 90.1779 83.3233 0.0000 -2.0171 0.0000
# 3 45.7086 83.3233 138.7968 0.0000 -7.2218 0.0000
# 4 0.0000 0.0000 0.0000 19.0002 0.0000 0.4357
# 5 -10.6553 -2.0171 -7.2218 0.0000 24.5988 0.0000
# 6 0.0000 0.0000 0.0000 0.4357 0.0000 8.3084
#
#
#
# Elastic Compliance Matrix: (Units=1/GPa)
#
#
# Indices 1 2 3 4 5 6 
#
# 1 0.010861 0.002537 -0.004919 0.000000 0.003468 0.000000
# 2 0.002537 0.025633 -0.016306 0.000000 -0.001586 0.000000
# 3 -0.004919 -0.016306 0.018720 0.000000 0.002028 0.000000
# 4 0.000000 0.000000 0.000000 0.052694 0.000000 -0.002763
# 5 0.003468 -0.001586 0.002028 0.000000 0.042620 0.000000
# 6 0.000000 0.000000 0.000000 -0.002763 0.000000 0.120505
#
#
# Mechanical properties :
#
#
# Convention : Reuss Voigt Hill
#
# Bulk Modulus (GPa) = 56.06476 70.42321 63.24398
# Shear Modulus (GPa) = 15.90552 23.36511 19.63532
#
# Velocity S-wave (km/s) = 3.01756 3.65735 3.35275
# Velocity P-wave (km/s) = 6.65111 7.62570 7.15502
#
# Compressibility (1/GPa) = 0.01783652
#
# Stress axis : x y z
#
# Youngs Moduli (GPa) = 92.07122 39.01162 53.42023
#
# Poissons Ratio (x) = -0.09897 0.26280
# Poissons Ratio (y) = -0.23359 0.87109
# Poissons Ratio (z) = 0.45293 0.63614
#
# Static dielectric constant tensor:
#      x y z
#    x 3.466220 0.000000 -0.076900 
#    y 0.000000 2.948940 0.000000 
#    z -0.076900 0.000000 3.169490 
# 
# 
# High freq. dielectric constant tensor:
#      x y z
#    x 1.699750 0.000000 -0.006870 
#    y 0.000000 1.652120 0.000000 
#    z -0.006870 0.000000 1.663800 
# 
# From -- ./inp_files/48440.got.cif
#   From: 2010.06.25/outbox.cif.g09.slc.cpg/sg13_25_cif.got.tgz:48440.got - 2010.06.28 04:50:58.
