data_PCOD8118687
_publ_section_title
;
Structure prediction by ZEFSAII (Michael W. Deem and Ramdas Pophale) SiO2 
 PCOD8118687
Probable space group: P 2/C
;
_chemical_formula_sum "Si O2"
_cell_formula_units_Z 30
_cell_length_a 8.892449
_cell_length_b 11.147837
_cell_length_c 18.557806
_cell_angle_alpha 90.000000
_cell_angle_beta 54.478352
_cell_angle_gamma 90.000000
_cell_volume 1497.295662
_symmetry_space_group_name_H-M "P 2/C"
_symmetry_group_IT_number 13
_symmetry_cell_setting 'monoclinic'
loop_
_space_group_symop_operation_xyz
x,y,z
-x,y,1/2-z
-x,-y,-z
x,-y,1/2+z
loop_
_atom_site_type_symbol
_atom_site_label
_atom_site_fract_x
_atom_site_fract_y
_atom_site_fract_z
Si Si1 0.314756 0.333735 0.834161
Si Si2 0.101973 0.593040 0.521322
Si Si3 0.194119 0.181353 0.656333
Si Si4 0.959025 0.416497 0.843260
Si Si5 0.874951 0.165063 0.090870
Si Si6 0.541118 0.888375 0.138533
Si Si7 0.500000 0.099603 0.250000
Si Si8 0.176179 0.015628 0.533047
O O1 0.500000 0.394139 0.750000
O O2 0.344398 0.188702 0.833219
O O3 0.144354 0.367939 0.830697
O O4 0.288183 0.375522 0.925277
O O5 0.134495 0.529116 0.589430
O O6 0.000000 0.500000 0.500000
O O7 0.978361 0.709829 0.567563
O O8 0.186826 0.307373 0.615722
O O9 0.363182 0.189376 0.665147
O O10 0.000000 0.162327 0.750000
O O11 0.236567 0.070511 0.592134
O O12 0.000000 0.457360 0.750000
O O13 0.680534 0.181609 0.187068
O O14 0.984879 0.055905 0.097881
O O15 0.847997 0.126657 0.015322
O O16 0.473585 0.015174 0.188044
O O17 0.673877 0.917674 0.034177
#
# Coordination Sequence:
#
# PCOD8118687 Si02
#       8
#     4   4   4   4   4   4   2   4
#     4  11  20  37  66  91 115 160 213 256 301 380
#     4  10  21  40  62  85 122 164 214 257 306 364
#     4  11  22  36  58  89 121 158 202 260 313 364
#     4  10  23  40  62  89 121 163 212 270 309 359
#     4  10  20  37  61  90 117 163 199 251 309 375
#     4  11  21  35  59  89 126 152 199 247 308 384
#     4  10  22  34  60  92 124 152 198 250 302 388
#     4  10  20  34  61  87 125 154 200 249 322 371
#
# _framework density 20.036121999999999
#
# number of rings (size 3 to 8) (size 9 to 14) (size 15 to 20)
#    0.000    1.600    2.000    4.400    3.733    0.000 
#    4.800    4.667    2.933    0.000    0.000    0.000 
#    0.000    0.000    0.000    0.000    0.000    0.000 
#
# Total GULP energy -371863.656114 kJ/mol
# GULP energy per Si atom -12395.455204 kJ/mol
# Density = 1.999052 g / cm^3
# Si number density = 20.036122 Si / 1000 Ang^3
#
#
#
# Elastic Constant Matrix: (Units=GPa)
#
#
# Indices 1 2 3 4 5 6 
#
# 1 83.4104 29.1256 40.7109 0.0000 -2.0304 0.0000
# 2 29.1256 87.5299 55.8181 0.0000 -1.4373 0.0000
# 3 40.7109 55.8181 135.0426 0.0000 -15.2709 0.0000
# 4 0.0000 0.0000 0.0000 34.8345 0.0000 12.0399
# 5 -2.0304 -1.4373 -15.2709 0.0000 35.6879 0.0000
# 6 0.0000 0.0000 0.0000 12.0399 0.0000 23.0646
#
#
#
# Elastic Compliance Matrix: (Units=1/GPa)
#
#
# Indices 1 2 3 4 5 6 
#
# 1 0.014554 -0.002723 -0.003343 0.000000 -0.000712 0.000000
# 2 -0.002723 0.016194 -0.006112 0.000000 -0.002118 0.000000
# 3 -0.003343 -0.006112 0.011443 0.000000 0.004460 0.000000
# 4 0.000000 0.000000 0.000000 0.035027 0.000000 -0.018284
# 5 -0.000712 -0.002118 0.004460 0.000000 0.029804 0.000000
# 6 0.000000 0.000000 0.000000 -0.018284 0.000000 0.052901
#
#
# Mechanical properties :
#
#
# Convention : Reuss Voigt Hill
#
# Bulk Modulus (GPa) = 56.06684 61.92135 58.99409
# Shear Modulus (GPa) = 26.28501 30.73928 28.51215
#
# Velocity S-wave (km/s) = 3.62592 3.92113 3.77641
# Velocity P-wave (km/s) = 6.75080 7.17442 6.96583
#
# Compressibility (1/GPa) = 0.01783585
#
# Stress axis : x y z
#
# Youngs Moduli (GPa) = 68.71051 61.75263 87.38615
#
# Poissons Ratio (x) = 0.16815 0.29209
# Poissons Ratio (y) = 0.18710 0.53411
# Poissons Ratio (z) = 0.22967 0.37744
#
# Static dielectric constant tensor:
#      x y z
#    x 3.477530 0.000000 -0.082750 
#    y 0.000000 3.674770 0.000000 
#    z -0.082750 0.000000 4.243870 
# 
# 
# High freq. dielectric constant tensor:
#      x y z
#    x 1.762350 0.000000 -0.006070 
#    y 0.000000 1.769930 0.000000 
#    z -0.006070 0.000000 1.795930 
# 
# From -- ./inp_files/64431.got.cif
#   From: 2010.06.25/outbox.cif.g09.slc.cpg/sg13_33_cif.got.tgz:64431.got - 2010.06.28 04:50:58.
