data_PCOD8118155
_publ_section_title
;
Structure prediction by ZEFSAII (Michael W. Deem and Ramdas Pophale) SiO2 
 PCOD8118155
Probable space group: P 2/C
;
_chemical_formula_sum "Si O2"
_cell_formula_units_Z 32
_cell_length_a 11.774212
_cell_length_b 8.864802
_cell_length_c 18.747403
_cell_angle_alpha 90.000000
_cell_angle_beta 129.180063
_cell_angle_gamma 90.000000
_cell_volume 1516.826148
_symmetry_space_group_name_H-M "P 2/C"
_symmetry_group_IT_number 13
_symmetry_cell_setting 'monoclinic'
loop_
_space_group_symop_operation_xyz
x,y,z
-x,y,1/2-z
-x,-y,-z
x,-y,1/2+z
loop_
_atom_site_type_symbol
_atom_site_label
_atom_site_fract_x
_atom_site_fract_y
_atom_site_fract_z
Si Si1 0.290367 0.359234 0.013186
Si Si2 0.935616 0.157273 0.416840
Si Si3 0.935100 0.118146 0.576188
Si Si4 0.171327 0.509603 0.832071
Si Si5 0.387431 0.297895 0.338858
Si Si6 0.639460 0.009960 0.254327
Si Si7 0.767250 0.563262 0.847051
Si Si8 0.205119 0.278050 0.727442
O O1 0.224763 0.189727 0.975819
O O2 0.208030 0.476785 0.928933
O O3 0.461709 0.349984 0.064518
O O4 0.265991 0.418202 0.083277
O O5 0.995089 0.157549 0.520819
O O6 0.779794 0.067983 0.354140
O O7 0.906423 0.328959 0.379696
O O8 0.052791 0.066037 0.412794
O O9 0.049068 0.195001 0.675897
O O10 0.255314 0.660700 0.840203
O O11 0.236669 0.370360 0.811953
O O12 0.000000 0.532227 0.750000
O O13 0.388447 0.118811 0.324702
O O14 0.370396 0.383691 0.255797
O O15 0.500000 0.008933 0.250000
O O16 0.665466 0.841739 0.234314
O O17 0.806765 0.391570 0.844890
#
# Coordination Sequence:
#
# PCOD8118155 Si02
#       8
#     4   4   4   4   4   4   4   4
#     4  11  20  35  64  90 124 167 216 265 327 378
#     4   8  16  29  51  83 119 150 196 249 308 373
#     4   9  16  30  52  81 116 156 200 246 312 366
#     4  11  23  42  59  87 129 175 216 262 315 384
#     4  10  21  39  63  89 120 165 216 263 319 388
#     4  10  19  36  60  90 122 160 202 265 329 378
#     4   9  19  35  60  92 121 153 208 267 323 380
#     4  10  21  36  58  87 123 160 203 262 324 376
#
# _framework density 21.096682000000001
#
# number of rings (size 3 to 8) (size 9 to 14) (size 15 to 20)
#    0.000    2.250    1.250    3.000    0.000    4.000 
#    2.250    1.250    2.750    7.500    0.000    0.000 
#    0.000    0.000    0.000    0.000    0.000    0.000 
#
# Total GULP energy -396590.385852 kJ/mol
# GULP energy per Si atom -12393.449558 kJ/mol
# Density = 2.104867 g / cm^3
# Si number density = 21.096682 Si / 1000 Ang^3
#
#
#
# Elastic Constant Matrix: (Units=GPa)
#
#
# Indices 1 2 3 4 5 6 
#
# 1 94.7970 50.4158 38.0955 0.0000 9.7280 0.0000
# 2 50.4158 121.3717 22.0425 0.0000 3.7435 0.0000
# 3 38.0955 22.0425 94.4376 0.0000 11.6880 0.0000
# 4 0.0000 0.0000 0.0000 17.4337 0.0000 -1.1102
# 5 9.7280 3.7435 11.6880 0.0000 24.2083 0.0000
# 6 0.0000 0.0000 0.0000 -1.1102 0.0000 30.3348
#
#
#
# Elastic Compliance Matrix: (Units=1/GPa)
#
#
# Indices 1 2 3 4 5 6 
#
# 1 0.015712 -0.005585 -0.004637 0.000000 -0.003211 0.000000
# 2 -0.005585 0.010593 -0.000313 0.000000 0.000758 0.000000
# 3 -0.004637 -0.000313 0.013077 0.000000 -0.004402 0.000000
# 4 0.000000 0.000000 0.000000 0.057494 0.000000 0.002104
# 5 -0.003211 0.000758 -0.004402 0.000000 0.044607 0.000000
# 6 0.000000 0.000000 0.000000 0.002104 0.000000 0.033042
#
#
# Mechanical properties :
#
#
# Convention : Reuss Voigt Hill
#
# Bulk Modulus (GPa) = 54.61097 59.07930 56.84514
# Shear Modulus (GPa) = 24.78912 27.73219 26.26065
#
# Velocity S-wave (km/s) = 3.43158 3.62958 3.53197
# Velocity P-wave (km/s) = 6.45316 6.75500 6.60580
#
# Compressibility (1/GPa) = 0.01831134
#
# Stress axis : x y z
#
# Youngs Moduli (GPa) = 63.64396 94.40423 76.46725
#
# Poissons Ratio (x) = 0.52729 0.35459
# Poissons Ratio (y) = 0.35548 0.02394
# Poissons Ratio (z) = 0.29513 0.02955
#
# Static dielectric constant tensor:
#      x y z
#    x 3.482060 0.000000 0.088340 
#    y 0.000000 4.058380 0.000000 
#    z 0.088340 0.000000 3.830260 
# 
# 
# High freq. dielectric constant tensor:
#      x y z
#    x 1.789910 0.000000 0.007960 
#    y 0.000000 1.824860 0.000000 
#    z 0.007960 0.000000 1.828310 
# 
# From -- ./inp_files/78294.got.cif
#   From: 2010.06.25/outbox.cif.g09.slc.cpg/sg13_40_cif.got.tgz:78294.got - 2010.06.28 04:50:58.
