data_PCOD8118509
_publ_section_title
;
Structure prediction by ZEFSAII (Michael W. Deem and Ramdas Pophale) SiO2 
 PCOD8118509
Probable space group: P 2/C
;
_chemical_formula_sum "Si O2"
_cell_formula_units_Z 28
_cell_length_a 17.104131
_cell_length_b 14.909925
_cell_length_c 8.295071
_cell_angle_alpha 90.000000
_cell_angle_beta 41.228751
_cell_angle_gamma 90.000000
_cell_volume 1394.203302
_symmetry_space_group_name_H-M "P 2/C"
_symmetry_group_IT_number 13
_symmetry_cell_setting 'monoclinic'
loop_
_space_group_symop_operation_xyz
x,y,z
-x,y,1/2-z
-x,-y,-z
x,-y,1/2+z
loop_
_atom_site_type_symbol
_atom_site_label
_atom_site_fract_x
_atom_site_fract_y
_atom_site_fract_z
Si Si1 0.370493 0.698353 0.492014
Si Si2 0.179055 0.879873 0.101193
Si Si3 0.577432 0.200865 0.284278
Si Si4 0.132088 0.606965 0.844524
Si Si5 0.000000 0.249489 0.750000
Si Si6 0.378113 0.882375 0.293191
Si Si7 0.259878 0.000809 0.715778
Si Si8 0.000000 0.461693 0.250000
O O1 0.500000 0.658934 0.250000
O O2 0.374379 0.718505 0.678120
O O3 0.273763 0.620339 0.607686
O O4 0.340212 0.786092 0.428635
O O5 0.155589 0.960625 0.261731
O O6 0.075444 0.807712 0.261041
O O7 0.306626 0.845054 0.968809
O O8 0.194646 0.916460 0.896863
O O9 0.500000 0.233779 0.250000
O O10 0.508038 0.131759 0.512020
O O11 0.071746 0.600413 0.762839
O O12 0.088021 0.694613 0.004089
O O13 0.098314 0.520384 0.003229
O O14 0.293371 0.918805 0.284520
O O15 0.372961 0.959838 0.439777
#
# Coordination Sequence:
#
# PCOD8118509 Si02
#       8
#     4   4   4   4   2   4   4   2
#     4  10  21  39  59  86 120 156 187 239 291 345
#     4  11  22  36  50  79 106 159 208 248 303 332
#     4  11  20  35  52  81 112 145 211 246 292 349
#     4  10  20  43  67  92 123 143 187 229 277 348
#     4  11  22  38  64  77 118 160 194 241 286 352
#     4  10  20  32  51  77 108 153 196 247 297 333
#     4  10  21  34  50  74 114 151 206 263 293 331
#     4   9  22  40  70 103 112 150 182 221 270 352
#
# _framework density 20.083151999999998
#
# number of rings (size 3 to 8) (size 9 to 14) (size 15 to 20)
#    0.000    1.714    4.286    0.000    0.000    5.143 
#    0.000    0.714    0.000    0.000    0.000    0.000 
#    0.000    0.000    0.000    0.000    0.000    0.000 
#
# Total GULP energy -346903.346683 kJ/mol
# GULP energy per Si atom -12389.405239 kJ/mol
# Density = 2.003744 g / cm^3
# Si number density = 20.083152 Si / 1000 Ang^3
#
#
#
# Elastic Constant Matrix: (Units=GPa)
#
#
# Indices 1 2 3 4 5 6 
#
# 1 121.7030 40.9196 39.8867 0.0000 0.0821 0.0000
# 2 40.9196 39.6789 21.6826 0.0000 -18.1972 0.0000
# 3 39.8867 21.6826 62.4109 0.0000 -5.8804 0.0000
# 4 0.0000 0.0000 0.0000 4.3204 0.0000 -8.9223
# 5 0.0821 -18.1972 -5.8804 0.0000 30.7810 0.0000
# 6 0.0000 0.0000 0.0000 -8.9223 0.0000 34.0235
#
#
#
# Elastic Compliance Matrix: (Units=1/GPa)
#
#
# Indices 1 2 3 4 5 6 
#
# 1 0.016758 -0.020751 -0.004746 0.000000 -0.013219 0.000000
# 2 -0.020751 0.068225 -0.006757 0.000000 0.039098 0.000000
# 3 -0.004746 -0.006757 0.021414 0.000000 0.000109 0.000000
# 4 0.000000 0.000000 0.000000 0.504895 0.000000 0.132403
# 5 -0.013219 0.039098 0.000109 0.000000 0.055658 0.000000
# 6 0.000000 0.000000 0.000000 0.132403 0.000000 0.064113
#
#
# Mechanical properties :
#
#
# Convention : Reuss Voigt Hill
#
# Bulk Modulus (GPa) = 23.87257 47.64118 35.75688
# Shear Modulus (GPa) = 6.17639 21.91189 14.04414
#
# Velocity S-wave (km/s) = 1.75559 3.30670 2.64730
# Velocity P-wave (km/s) = 4.00276 6.19294 5.21414
#
# Compressibility (1/GPa) = 0.04188908
#
# Stress axis : x y z
#
# Youngs Moduli (GPa) = 59.67207 14.65728 46.69843
#
# Poissons Ratio (x) = 0.30415 0.22165
# Poissons Ratio (y) = 1.23826 0.31553
# Poissons Ratio (z) = 0.28323 0.09904
#
# Static dielectric constant tensor:
#      x y z
#    x 3.716870 0.000000 0.248920 
#    y 0.000000 3.347130 0.000000 
#    z 0.248920 0.000000 3.708200 
# 
# 
# High freq. dielectric constant tensor:
#      x y z
#    x 1.791630 0.000000 0.017070 
#    y 0.000000 1.748250 0.000000 
#    z 0.017070 0.000000 1.778380 
# 
# From -- ./inp_files/21961.got.cif
#   From: 2010.06.25/outbox.cif.g09.slc.cpg/sg13_11_cif.got.tgz:21961.got - 2010.06.28 04:50:58.
