data_PCOD8118267
_publ_section_title
;
Structure prediction by ZEFSAII (Michael W. Deem and Ramdas Pophale) SiO2 
 PCOD8118267
Probable space group: P 2/C
;
_chemical_formula_sum "Si O2"
_cell_formula_units_Z 32
_cell_length_a 13.393044
_cell_length_b 14.318277
_cell_length_c 18.795697
_cell_angle_alpha 90.000000
_cell_angle_beta 23.668427
_cell_angle_gamma 90.000000
_cell_volume 1446.946684
_symmetry_space_group_name_H-M "P 2/C"
_symmetry_group_IT_number 13
_symmetry_cell_setting 'monoclinic'
loop_
_space_group_symop_operation_xyz
x,y,z
-x,y,1/2-z
-x,-y,-z
x,-y,1/2+z
loop_
_atom_site_type_symbol
_atom_site_label
_atom_site_fract_x
_atom_site_fract_y
_atom_site_fract_z
Si Si1 0.362980 0.159220 0.405348
Si Si2 0.827144 0.845893 0.200007
Si Si3 0.002126 0.225727 0.061066
Si Si4 0.093167 0.552834 0.109417
Si Si5 0.634071 0.339205 0.868005
Si Si6 0.820400 0.654049 0.931664
Si Si7 0.227708 0.962284 0.803759
Si Si8 0.489022 0.328323 0.117046
O O1 0.500000 0.212082 0.250000
O O2 0.526692 0.066615 0.313101
O O3 0.353708 0.231856 0.476904
O O4 0.091826 0.128225 0.560253
O O5 0.681332 0.771814 0.342611
O O6 0.686403 0.946069 0.296569
O O7 0.845098 0.799377 0.109502
O O8 0.178678 0.265868 0.008284
O O9 0.867487 0.130032 0.176723
O O10 0.796896 0.305875 0.176293
O O11 0.093627 0.443766 0.089679
O O12 0.000000 0.570624 0.250000
O O13 0.894251 0.604842 0.187799
O O14 0.373345 0.595824 0.921574
O O15 0.457508 0.361863 0.916616
O O16 0.495152 0.365875 0.031888
O O17 0.000000 0.685255 0.750000
O O18 0.000000 0.000000 0.000000
#
# Coordination Sequence:
#
# PCOD8118267 Si02
#       8
#     4   4   4   4   4   4   4   4
#     4  11  18  34  63  89 118 156 201 249 300 343
#     4  11  22  39  62  90 124 157 202 253 303 357
#     4  10  21  38  63  88 119 159 207 241 305 360
#     4   9  21  35  61  92 115 153 211 249 293 360
#     4  11  23  39  61  91 122 156 202 252 308 353
#     4  11  23  39  63  87 125 163 197 252 308 360
#     4   9  19  35  59  91 115 157 210 243 289 367
#     4  10  19  37  63  88 116 156 207 247 289 367
#
# _framework density 22.115535000000001
#
# number of rings (size 3 to 8) (size 9 to 14) (size 15 to 20)
#    0.000    1.750    6.250    0.000    1.750    3.000 
#    0.000    3.125    8.250    0.000    0.000    0.000 
#    0.000    0.000    0.000    0.000    0.000    0.000 
#
# Total GULP energy -396490.936937 kJ/mol
# GULP energy per Si atom -12390.341779 kJ/mol
# Density = 2.206520 g / cm^3
# Si number density = 22.115535 Si / 1000 Ang^3
#
#
#
# Elastic Constant Matrix: (Units=GPa)
#
#
# Indices 1 2 3 4 5 6 
#
# 1 113.3424 41.7570 21.3129 0.0000 -31.7320 0.0000
# 2 41.7570 113.0150 15.8042 0.0000 -14.5515 0.0000
# 3 21.3129 15.8042 34.8133 0.0000 -15.5698 0.0000
# 4 0.0000 0.0000 0.0000 27.2407 0.0000 -6.5572
# 5 -31.7320 -14.5515 -15.5698 0.0000 27.4126 0.0000
# 6 0.0000 0.0000 0.0000 -6.5572 0.0000 34.1209
#
#
#
# Elastic Compliance Matrix: (Units=1/GPa)
#
#
# Indices 1 2 3 4 5 6 
#
# 1 0.014159 -0.003290 -0.000838 0.000000 0.014167 0.000000
# 2 -0.003290 0.010464 -0.002621 0.000000 0.000257 0.000000
# 3 -0.000838 -0.002621 0.039373 0.000000 0.020001 0.000000
# 4 0.000000 0.000000 0.000000 0.038490 0.000000 0.007397
# 5 0.014167 0.000257 0.020001 0.000000 0.064376 0.000000
# 6 0.000000 0.000000 0.000000 0.007397 0.000000 0.030729
#
#
# Mechanical properties :
#
#
# Convention : Reuss Voigt Hill
#
# Bulk Modulus (GPa) = 19.80321 46.54655 33.17488
# Shear Modulus (GPa) = 21.93729 29.90795 25.92262
#
# Velocity S-wave (km/s) = 3.15293 3.68142 3.42738
# Velocity P-wave (km/s) = 4.71471 6.25805 5.54038
#
# Compressibility (1/GPa) = 0.05049687
#
# Stress axis : x y z
#
# Youngs Moduli (GPa) = 70.62668 95.56895 25.39807
#
# Poissons Ratio (x) = 0.31443 0.02129
# Poissons Ratio (y) = 0.23237 0.06657
# Poissons Ratio (z) = 0.05922 0.25047
#
# Static dielectric constant tensor:
#      x y z
#    x 3.990300 0.000000 -0.223200 
#    y 0.000000 4.353100 0.000000 
#    z -0.223200 0.000000 3.739680 
# 
# 
# High freq. dielectric constant tensor:
#      x y z
#    x 1.857270 0.000000 -0.030540 
#    y 0.000000 1.872520 0.000000 
#    z -0.030540 0.000000 1.839150 
# 
# From -- ./inp_files/80380.got.cif
#   From: 2010.06.25/outbox.cif.g09.slc.cpg/sg13_41_cif.got.tgz:80380.got - 2010.06.28 04:50:58.
