data_PCOD8118322
_publ_section_title
;
Structure prediction by ZEFSAII (Michael W. Deem and Ramdas Pophale) SiO2 
 PCOD8118322
Probable space group: P 2/C
;
_chemical_formula_sum "Si O2"
_cell_formula_units_Z 28
_cell_length_a 23.928240
_cell_length_b 9.427221
_cell_length_c 8.483228
_cell_angle_alpha 90.000000
_cell_angle_beta 45.333797
_cell_angle_gamma 90.000000
_cell_volume 1360.993466
_symmetry_space_group_name_H-M "P 2/C"
_symmetry_group_IT_number 13
_symmetry_cell_setting 'monoclinic'
loop_
_space_group_symop_operation_xyz
x,y,z
-x,y,1/2-z
-x,-y,-z
x,-y,1/2+z
loop_
_atom_site_type_symbol
_atom_site_label
_atom_site_fract_x
_atom_site_fract_y
_atom_site_fract_z
Si Si1 0.941755 0.045837 0.982726
Si Si2 0.627031 0.176794 0.682795
Si Si3 0.306930 0.338460 0.421013
Si Si4 0.485473 0.655935 0.589870
Si Si5 0.843877 0.863753 0.950143
Si Si6 0.697242 0.935487 0.726352
Si Si7 0.736558 0.618589 0.148993
O O1 0.909354 0.910073 0.947273
O O2 0.871512 0.127353 0.211050
O O3 0.000000 0.136836 0.750000
O O4 0.000000 0.000000 0.000000
O O5 0.651050 0.142282 0.457494
O O6 0.688717 0.295300 0.614321
O O7 0.632717 0.031945 0.769389
O O8 0.539831 0.236253 0.882423
O O9 0.398143 0.313142 0.201749
O O10 0.267281 0.186489 0.460333
O O11 0.258568 0.456448 0.418043
O O12 0.309360 0.381763 0.597152
O O13 0.500000 0.671632 0.750000
O O14 0.500000 0.500000 0.500000
O O15 0.820171 0.697641 0.015060
O O16 0.770115 0.966433 0.131978
#
# Coordination Sequence:
#
# PCOD8118322 Si02
#       7
#     4   4   4   4   4   4   4
#     4   9  18  33  61  99 131 158 191 236 297 368
#     4  11  23  41  59  85 117 160 208 271 329 382
#     4  12  23  40  59  86 116 159 216 267 315 385
#     4  12  25  42  62  80 114 162 216 269 336 375
#     4  10  19  38  60  92 128 160 195 250 307 364
#     4  11  24  39  62  89 124 159 209 268 322 375
#     4  11  22  38  61  86 119 161 214 258 315 374
#
# _framework density 20.573205999999999
#
# number of rings (size 3 to 8) (size 9 to 14) (size 15 to 20)
#    0.000    1.143    2.857    5.143    2.000    0.571 
#    0.000    0.000    0.000    0.000    0.000   63.000 
#    0.000    0.000    0.000    0.000    0.000    0.000 
#
# Total GULP energy -346891.936814 kJ/mol
# GULP energy per Si atom -12388.997743 kJ/mol
# Density = 2.052638 g / cm^3
# Si number density = 20.573206 Si / 1000 Ang^3
#
#
#
# Elastic Constant Matrix: (Units=GPa)
#
#
# Indices 1 2 3 4 5 6 
#
# 1 79.0451 36.6360 21.9612 0.0000 0.7805 0.0000
# 2 36.6360 125.5281 30.7227 0.0000 -3.2075 0.0000
# 3 21.9612 30.7227 109.1477 0.0000 3.3717 0.0000
# 4 0.0000 0.0000 0.0000 19.9676 0.0000 11.0817
# 5 0.7805 -3.2075 3.3717 0.0000 29.2380 0.0000
# 6 0.0000 0.0000 0.0000 11.0817 0.0000 30.9899
#
#
#
# Elastic Compliance Matrix: (Units=1/GPa)
#
#
# Indices 1 2 3 4 5 6 
#
# 1 0.015005 -0.003932 -0.001894 0.000000 -0.000614 0.000000
# 2 -0.003932 0.009630 -0.001962 0.000000 0.001388 0.000000
# 3 -0.001894 -0.001962 0.010136 0.000000 -0.001334 0.000000
# 4 0.000000 0.000000 0.000000 0.062481 0.000000 -0.022343
# 5 -0.000614 0.001388 -0.001334 0.000000 0.034524 0.000000
# 6 0.000000 0.000000 0.000000 -0.022343 0.000000 0.040258
#
#
# Mechanical properties :
#
#
# Convention : Reuss Voigt Hill
#
# Bulk Modulus (GPa) = 52.09316 54.70676 53.39996
# Shear Modulus (GPa) = 25.77206 30.99918 28.38562
#
# Velocity S-wave (km/s) = 3.54319 3.88593 3.71851
# Velocity P-wave (km/s) = 6.48959 6.83981 6.66700
#
# Compressibility (1/GPa) = 0.01919638
#
# Stress axis : x y z
#
# Youngs Moduli (GPa) = 66.64267 103.84718 98.65400
#
# Poissons Ratio (x) = 0.40829 0.18681
# Poissons Ratio (y) = 0.26201 0.19359
# Poissons Ratio (z) = 0.12619 0.20378
#
# Static dielectric constant tensor:
#      x y z
#    x 2.794540 0.000000 -0.232130 
#    y 0.000000 4.003030 0.000000 
#    z -0.232130 0.000000 3.389960 
# 
# 
# High freq. dielectric constant tensor:
#      x y z
#    x 1.802400 0.000000 0.018450 
#    y 0.000000 1.788200 0.000000 
#    z 0.018450 0.000000 1.815970 
# 
# From -- ./inp_files/24540.got.cif
#   From: 2010.06.25/outbox.cif.g09.slc.cpg/sg13_13_cif.got.tgz:24540.got - 2010.06.28 04:50:58.
