data_PCOD8118271
_publ_section_title
;
Structure prediction by ZEFSAII (Michael W. Deem and Ramdas Pophale) SiO2 
 PCOD8118271
Probable space group: P 2/C
;
_chemical_formula_sum "Si O2"
_cell_formula_units_Z 24
_cell_length_a 9.222451
_cell_length_b 13.201068
_cell_length_c 8.978520
_cell_angle_alpha 90.000000
_cell_angle_beta 83.874824
_cell_angle_gamma 90.000000
_cell_volume 1086.860374
_symmetry_space_group_name_H-M "P 2/C"
_symmetry_group_IT_number 13
_symmetry_cell_setting 'monoclinic'
loop_
_space_group_symop_operation_xyz
x,y,z
-x,y,1/2-z
-x,-y,-z
x,-y,1/2+z
loop_
_atom_site_type_symbol
_atom_site_label
_atom_site_fract_x
_atom_site_fract_y
_atom_site_fract_z
Si Si1 0.865651 0.381007 0.564090
Si Si2 0.360696 0.070367 0.485047
Si Si3 0.193608 0.577703 0.095871
Si Si4 0.155081 0.216433 0.157615
Si Si5 0.370920 0.710603 0.864718
Si Si6 0.171785 0.999242 0.736495
O O1 0.805498 0.459296 0.446825
O O2 0.788419 0.406426 0.728933
O O3 0.830480 0.268826 0.506074
O O4 0.039545 0.379809 0.557879
O O5 0.417819 0.179009 0.422709
O O6 0.238742 0.019926 0.391164
O O7 0.500000 0.000000 0.500000
O O8 0.268031 0.086990 0.647364
O O9 0.328278 0.635325 0.003305
O O10 0.237220 0.282814 0.269250
O O11 0.207922 0.101275 0.133472
O O12 0.000000 0.209091 0.250000
O O13 0.500000 0.664487 0.750000
O O14 0.000000 0.028113 0.750000
#
# Coordination Sequence:
#
# PCOD8118271 Si02
#       6
#     4   4   4   4   4   4
#     4  10  20  37  64  94 125 162 213 256 321 381
#     4  11  22  41  63  89 125 177 222 263 336 408
#     4  10  21  37  62  95 126 164 209 264 312 383
#     4  10  19  37  63  90 125 169 214 262 324 376
#     4  11  23  41  61  90 127 167 215 266 320 387
#     4  10  22  38  61  92 127 166 219 284 332 378
#
# _framework density 22.081952999999999
#
# number of rings (size 3 to 8) (size 9 to 14) (size 15 to 20)
#    0.000    1.667    1.667    4.000    2.333    1.333 
#    3.000    5.833    0.000    0.000    0.000    0.000 
#    0.000    0.000    0.000    0.000    0.000    0.000 
#
# Total GULP energy -297434.082338 kJ/mol
# GULP energy per Si atom -12393.086764 kJ/mol
# Density = 2.203169 g / cm^3
# Si number density = 22.081953 Si / 1000 Ang^3
#
#
#
# Elastic Constant Matrix: (Units=GPa)
#
#
# Indices 1 2 3 4 5 6 
#
# 1 77.6811 13.0493 12.5597 0.0000 -8.3413 0.0000
# 2 13.0493 53.0222 37.8737 0.0000 0.4709 0.0000
# 3 12.5597 37.8737 116.9821 0.0000 -21.2900 0.0000
# 4 0.0000 0.0000 0.0000 46.3702 0.0000 0.4134
# 5 -8.3413 0.4709 -21.2900 0.0000 40.6725 0.0000
# 6 0.0000 0.0000 0.0000 0.4134 0.0000 27.7969
#
#
#
# Elastic Compliance Matrix: (Units=1/GPa)
#
#
# Indices 1 2 3 4 5 6 
#
# 1 0.013757 -0.003570 0.000221 0.000000 0.002978 0.000000
# 2 -0.003570 0.026380 -0.009225 0.000000 -0.005866 0.000000
# 3 0.000221 -0.009225 0.012754 0.000000 0.006828 0.000000
# 4 0.000000 0.000000 0.000000 0.021568 0.000000 -0.000321
# 5 0.002978 -0.005866 0.006828 0.000000 0.028840 0.000000
# 6 0.000000 0.000000 0.000000 -0.000321 0.000000 0.035980
#
#
# Mechanical properties :
#
#
# Convention : Reuss Voigt Hill
#
# Bulk Modulus (GPa) = 36.04557 41.62786 38.83671
# Shear Modulus (GPa) = 28.78939 35.24810 32.01875
#
# Velocity S-wave (km/s) = 3.61467 3.99963 3.81201
# Velocity P-wave (km/s) = 5.81206 6.34207 6.08284
#
# Compressibility (1/GPa) = 0.02774266
#
# Stress axis : x y z
#
# Youngs Moduli (GPa) = 72.69063 37.90723 78.40687
#
# Poissons Ratio (x) = 0.13532 -0.01731
# Poissons Ratio (y) = 0.25950 0.72331
# Poissons Ratio (z) = -0.01605 0.34970
#
# Static dielectric constant tensor:
#      x y z
#    x 3.783190 0.000000 0.073460 
#    y 0.000000 3.995520 0.000000 
#    z 0.073460 0.000000 3.975070 
# 
# 
# High freq. dielectric constant tensor:
#      x y z
#    x 1.860860 0.000000 -0.002750 
#    y 0.000000 1.854830 0.000000 
#    z -0.002750 0.000000 1.876250 
# 
# From -- ./inp_files/12432.got.cif
#   From: 2010.06.25/outbox.cif.g09.slc.cpg/sg13_7_cif.got.tgz:12432.got - 2010.06.28 04:50:58.
