data_PCOD8118644
_publ_section_title
;
Structure prediction by ZEFSAII (Michael W. Deem and Ramdas Pophale) SiO2 
 PCOD8118644
Probable space group: P 2/C
;
_chemical_formula_sum "Si O2"
_cell_formula_units_Z 30
_cell_length_a 28.022360
_cell_length_b 9.031783
_cell_length_c 17.245948
_cell_angle_alpha 90.000000
_cell_angle_beta 159.116106
_cell_angle_gamma 90.000000
_cell_volume 1555.947048
_symmetry_space_group_name_H-M "P 2/C"
_symmetry_group_IT_number 13
_symmetry_cell_setting 'monoclinic'
loop_
_space_group_symop_operation_xyz
x,y,z
-x,y,1/2-z
-x,-y,-z
x,-y,1/2+z
loop_
_atom_site_type_symbol
_atom_site_label
_atom_site_fract_x
_atom_site_fract_y
_atom_site_fract_z
Si Si1 0.463570 0.961645 0.064504
Si Si2 0.509203 0.233473 0.486103
Si Si3 0.216713 0.684572 0.562440
Si Si4 0.195373 0.186796 0.195090
Si Si5 0.719675 0.163748 0.012306
Si Si6 0.765383 0.641456 0.433155
Si Si7 0.920341 0.063212 0.749899
Si Si8 0.000000 0.165083 0.250000
O O1 0.566978 0.898291 0.285941
O O2 0.477293 0.138219 0.072628
O O3 0.515865 0.879694 0.067240
O O4 0.306362 0.936998 0.841922
O O5 0.371608 0.320351 0.275801
O O6 0.627592 0.353816 0.674872
O O7 0.192607 0.698487 0.618818
O O8 0.170090 0.522667 0.463677
O O9 0.143092 0.816338 0.405260
O O10 0.245537 0.247993 0.354286
O O11 0.044100 0.133996 0.984313
O O12 0.809062 0.014020 0.135038
O O13 0.744359 0.290032 0.986296
O O14 0.868068 0.738045 0.539691
O O15 0.994097 0.934830 0.816093
#
# Coordination Sequence:
#
# PCOD8118644 Si02
#       8
#     4   4   4   4   4   4   4   2
#     4   9  17  32  58  85 109 143 190 238 275 329
#     4   9  17  33  57  85 110 142 191 235 274 330
#     4  11  21  36  61  85 113 150 197 238 281 339
#     4  11  21  33  60  84 114 146 191 239 287 339
#     4  10  21  38  56  83 117 148 186 236 296 336
#     4  10  22  35  58  83 117 151 190 231 287 349
#     4  11  20  37  58  83 113 149 191 240 283 336
#     4  10  20  34  56  84 110 146 188 244 268 324
#
# _framework density 19.280863
#
# number of rings (size 3 to 8) (size 9 to 14) (size 15 to 20)
#    0.000    1.867    2.667    2.000    5.600    0.000 
#    0.000    0.667    5.867    0.000    0.000    0.000 
#    0.000    0.000    0.000    0.000    0.000    0.000 
#
# Total GULP energy -371679.963259 kJ/mol
# GULP energy per Si atom -12389.332109 kJ/mol
# Density = 1.923698 g / cm^3
# Si number density = 19.280863 Si / 1000 Ang^3
#
#
#
# Elastic Constant Matrix: (Units=GPa)
#
#
# Indices 1 2 3 4 5 6 
#
# 1 65.1353 31.9855 30.4515 0.0000 -6.1743 0.0000
# 2 31.9855 93.4163 24.2387 0.0000 -6.5951 0.0000
# 3 30.4515 24.2387 109.7076 0.0000 1.3117 0.0000
# 4 0.0000 0.0000 0.0000 12.4391 0.0000 -7.1167
# 5 -6.1743 -6.5951 1.3117 0.0000 32.6538 0.0000
# 6 0.0000 0.0000 0.0000 -7.1167 0.0000 2.4878
#
#
#
# Elastic Compliance Matrix: (Units=1/GPa)
#
#
# Indices 1 2 3 4 5 6 
#
# 1 0.020496 -0.005651 -0.004475 0.000000 0.002914 0.000000
# 2 -0.005651 0.013104 -0.001346 0.000000 0.001632 0.000000
# 3 -0.004475 -0.001346 0.010673 0.000000 -0.001547 0.000000
# 4 0.000000 0.000000 0.000000 -0.126271 0.000000 -0.361217
# 5 0.002914 0.001632 -0.001547 0.000000 0.031567 0.000000
# 6 0.000000 0.000000 0.000000 -0.361217 0.000000 -0.631357
#
#
# Mechanical properties :
#
#
# Convention : Reuss Voigt Hill
#
# Bulk Modulus (GPa) = 46.88557 49.06786 47.97672
# Shear Modulus (GPa) = -7.67186 21.62170 6.97492
#
# Velocity S-wave (km/s) = -1.99691 3.35237 1.90405
# Velocity P-wave (km/s) = 4.36498 6.36308 5.45628
#
# Compressibility (1/GPa) = 0.02132852
#
# Stress axis : x y z
#
# Youngs Moduli (GPa) = 48.78976 76.31166 93.69161
#
# Poissons Ratio (x) = 0.43123 0.41931
# Poissons Ratio (y) = 0.27570 0.12613
# Poissons Ratio (z) = 0.21836 0.10273
#
# Static dielectric constant tensor:
#      x y z
#    x 3.454380 0.000000 0.213360 
#    y 0.000000 3.299720 0.000000 
#    z 0.213360 0.000000 3.891580 
# 
# 
# High freq. dielectric constant tensor:
#      x y z
#    x 1.732470 0.000000 0.017300 
#    y 0.000000 1.722670 0.000000 
#    z 0.017300 0.000000 1.768530 
# 
# From -- ./inp_files/67940.got.cif
#   From: 2010.06.25/outbox.cif.g09.slc.cpg/sg13_34_cif.got.tgz:67940.got - 2010.06.28 04:50:58.
