data_PCOD8118836
_publ_section_title
;
Structure prediction by ZEFSAII (Michael W. Deem and Ramdas Pophale) SiO2 
 PCOD8118836
Probable space group: P 2/C
;
_chemical_formula_sum "Si O2"
_cell_formula_units_Z 26
_cell_length_a 8.238750
_cell_length_b 8.269660
_cell_length_c 26.380598
_cell_angle_alpha 90.000000
_cell_angle_beta 41.991049
_cell_angle_gamma 90.000000
_cell_volume 1202.455868
_symmetry_space_group_name_H-M "P 2/C"
_symmetry_group_IT_number 13
_symmetry_cell_setting 'monoclinic'
loop_
_space_group_symop_operation_xyz
x,y,z
-x,y,1/2-z
-x,-y,-z
x,-y,1/2+z
loop_
_atom_site_type_symbol
_atom_site_label
_atom_site_fract_x
_atom_site_fract_y
_atom_site_fract_z
Si Si1 0.327157 0.451224 0.705592
Si Si2 0.215537 0.325647 0.067960
Si Si3 0.500000 0.951577 0.750000
Si Si4 0.145215 0.508482 0.915332
Si Si5 0.686896 0.335596 0.902358
Si Si6 0.831315 0.237882 0.667427
Si Si7 0.896569 0.781736 0.722284
O O1 0.575493 0.551818 0.640369
O O2 0.285680 0.345827 0.664690
O O3 0.337424 0.330345 0.751502
O O4 0.125689 0.587501 0.763271
O O5 0.297999 0.486871 0.077412
O O6 0.972306 0.355032 0.092068
O O7 0.119324 0.193887 0.130826
O O8 0.430994 0.260402 0.981540
O O9 0.715512 0.066294 0.678890
O O10 0.635164 0.848674 0.763011
O O11 0.135224 0.332953 0.892288
O O12 0.000000 0.500000 0.000000
O O13 0.901582 0.216520 0.870239
O O14 0.000000 0.864070 0.750000
#
# Coordination Sequence:
#
# PCOD8118836 Si02
#       7
#     4   4   2   4   4   4   4
#     4  12  19  38  69 100 121 161 229 288 328 384
#     4  10  20  37  58 102 131 161 205 283 348 384
#     4  12  28  44  62  94 142 186 224 264 324 408
#     4  11  20  33  62  98 130 157 206 281 344 383
#     4  10  20  35  67  97 126 154 212 287 339 383
#     4  11  23  42  62  94 128 171 223 273 327 391
#     4  12  24  42  67  98 133 177 226 273 332 399
#
# _framework density 21.622415
#
# number of rings (size 3 to 8) (size 9 to 14) (size 15 to 20)
#    0.000    0.923    7.692    1.385    0.000    1.231 
#    0.000    0.769    0.000   11.077    0.000    0.000 
#    0.000    0.000    0.000    0.000    0.000    0.000 
#
# Total GULP energy -322199.193907 kJ/mol
# GULP energy per Si atom -12392.276689 kJ/mol
# Density = 2.157320 g / cm^3
# Si number density = 21.622415 Si / 1000 Ang^3
#
#
#
# Elastic Constant Matrix: (Units=GPa)
#
#
# Indices 1 2 3 4 5 6 
#
# 1 128.4433 27.3626 40.9914 0.0000 4.7250 0.0000
# 2 27.3626 51.8166 27.7719 0.0000 5.9074 0.0000
# 3 40.9914 27.7719 151.3143 0.0000 3.0540 0.0000
# 4 0.0000 0.0000 0.0000 20.1878 0.0000 -10.2145
# 5 4.7250 5.9074 3.0540 0.0000 47.6189 0.0000
# 6 0.0000 0.0000 0.0000 -10.2145 0.0000 24.1178
#
#
#
# Elastic Compliance Matrix: (Units=1/GPa)
#
#
# Indices 1 2 3 4 5 6 
#
# 1 0.009186 -0.003864 -0.001773 0.000000 -0.000318 0.000000
# 2 -0.003864 0.023309 -0.003185 0.000000 -0.002304 0.000000
# 3 -0.001773 -0.003185 0.007672 0.000000 0.000079 0.000000
# 4 0.000000 0.000000 0.000000 0.063045 0.000000 0.026701
# 5 -0.000318 -0.002304 0.000079 0.000000 0.021312 0.000000
# 6 0.000000 0.000000 0.000000 0.026701 0.000000 0.052772
#
#
# Mechanical properties :
#
#
# Convention : Reuss Voigt Hill
#
# Bulk Modulus (GPa) = 44.39860 58.20287 51.30074
# Shear Modulus (GPa) = 24.69766 34.08146 29.38956
#
# Velocity S-wave (km/s) = 3.38335 3.97446 3.69076
# Velocity P-wave (km/s) = 5.98673 6.93095 6.47607
#
# Compressibility (1/GPa) = 0.02252323
#
# Stress axis : x y z
#
# Youngs Moduli (GPa) = 108.85773 42.90172 130.34480
#
# Poissons Ratio (x) = 0.16579 0.23109
# Poissons Ratio (y) = 0.42068 0.41511
# Poissons Ratio (z) = 0.19299 0.13663
#
# Static dielectric constant tensor:
#      x y z
#    x 17.071460 0.000000 2.290530 
#    y 0.000000 3.362800 0.000000 
#    z 2.290530 0.000000 4.635600 
# 
# 
# High freq. dielectric constant tensor:
#      x y z
#    x 1.871820 0.000000 -0.010700 
#    y 0.000000 1.785810 0.000000 
#    z -0.010700 0.000000 1.860200 
# 
# From -- ./inp_files/91212.got.cif
#   From: 2010.06.25/outbox.cif.g09.slc.cpg/sg13_46_cif.got.tgz:91212.got - 2010.06.28 04:50:58.
