data_PCOD8118545
_publ_section_title
;
Structure prediction by ZEFSAII (Michael W. Deem and Ramdas Pophale) SiO2 
 PCOD8118545
Probable space group: P 2/C
;
_chemical_formula_sum "Si O2"
_cell_formula_units_Z 24
_cell_length_a 5.017977
_cell_length_b 14.986820
_cell_length_c 16.212609
_cell_angle_alpha 90.000000
_cell_angle_beta 86.203372
_cell_angle_gamma 90.000000
_cell_volume 1216.569438
_symmetry_space_group_name_H-M "P 2/C"
_symmetry_group_IT_number 13
_symmetry_cell_setting 'monoclinic'
loop_
_space_group_symop_operation_xyz
x,y,z
-x,y,1/2-z
-x,-y,-z
x,-y,1/2+z
loop_
_atom_site_type_symbol
_atom_site_label
_atom_site_fract_x
_atom_site_fract_y
_atom_site_fract_z
Si Si1 0.870984 0.766061 0.021051
Si Si2 0.899609 0.578572 0.943954
Si Si3 0.772755 0.843978 0.194992
Si Si4 0.231324 0.045436 0.304926
Si Si5 0.571976 0.378546 0.154379
Si Si6 0.601088 0.808304 0.573755
O O1 0.833615 0.661987 0.003619
O O2 0.681747 0.826369 0.965181
O O3 0.181848 0.787712 0.001477
O O4 0.774671 0.781320 0.115654
O O5 0.625350 0.561615 0.899083
O O6 0.124123 0.595502 0.870368
O O7 0.000000 0.500000 0.000000
O O8 0.500000 0.836523 0.250000
O O9 0.000000 0.807150 0.250000
O O10 0.841827 0.945273 0.164811
O O11 0.500000 0.041772 0.250000
O O12 0.280458 0.106131 0.382963
O O13 0.000000 0.084874 0.250000
O O14 0.500000 0.398156 0.250000
O O15 0.548953 0.272665 0.138096
#
# Coordination Sequence:
#
# PCOD8118545 Si02
#       6
#     4   4   4   4   4   4
#     4  10  21  36  55  78 103 140 180 219 274 321
#     4  10  21  38  57  79 111 142 173 221 274 323
#     4  10  21  37  54  74 106 145 185 226 264 312
#     4  10  20  33  51  77 110 146 179 218 267 312
#     4  10  20  35  57  83 110 139 173 216 268 324
#     4  10  20  33  54  81 108 137 173 219 268 325
#
# _framework density 19.727602000000001
#
# number of rings (size 3 to 8) (size 9 to 14) (size 15 to 20)
#    0.000    2.000    0.000    3.500    0.000    4.000 
#    0.000    2.500    0.000    0.000    0.000    0.000 
#    0.000    0.000    0.000    0.000    0.000    0.000 
#
# Total GULP energy -297562.592420 kJ/mol
# GULP energy per Si atom -12398.441351 kJ/mol
# Density = 1.968270 g / cm^3
# Si number density = 19.727602 Si / 1000 Ang^3
#
#
#
# Elastic Constant Matrix: (Units=GPa)
#
#
# Indices 1 2 3 4 5 6 
#
# 1 110.5704 24.3022 28.1126 0.0000 17.5626 0.0000
# 2 24.3022 61.0802 52.8178 0.0000 8.1257 0.0000
# 3 28.1126 52.8178 118.8524 0.0000 8.8278 0.0000
# 4 0.0000 0.0000 0.0000 20.2119 0.0000 3.1147
# 5 17.5626 8.1257 8.8278 0.0000 26.0221 0.0000
# 6 0.0000 0.0000 0.0000 3.1147 0.0000 27.8092
#
#
#
# Elastic Compliance Matrix: (Units=1/GPa)
#
#
# Indices 1 2 3 4 5 6 
#
# 1 0.010850 -0.002718 -0.000901 0.000000 -0.006169 0.000000
# 2 -0.002718 0.027772 -0.011481 0.000000 -0.002943 0.000000
# 3 -0.000901 -0.011481 0.013764 0.000000 -0.000477 0.000000
# 4 0.000000 0.000000 0.000000 0.050345 0.000000 -0.005639
# 5 -0.006169 -0.002943 -0.000477 0.000000 0.043673 0.000000
# 6 0.000000 0.000000 0.000000 -0.005639 0.000000 0.036591
#
#
# Mechanical properties :
#
#
# Convention : Reuss Voigt Hill
#
# Bulk Modulus (GPa) = 45.06695 55.66312 50.36504
# Shear Modulus (GPa) = 22.66659 27.16000 24.91329
#
# Velocity S-wave (km/s) = 3.39334 3.71448 3.55754
# Velocity P-wave (km/s) = 6.18443 6.83181 6.51617
#
# Compressibility (1/GPa) = 0.02218921
#
# Stress axis : x y z
#
# Youngs Moduli (GPa) = 92.16507 36.00705 72.65253
#
# Poissons Ratio (x) = 0.09785 0.06543
# Poissons Ratio (y) = 0.25047 0.83409
# Poissons Ratio (z) = 0.08300 0.41338
#
# Static dielectric constant tensor:
#      x y z
#    x 3.920040 0.000000 0.046740 
#    y 0.000000 3.500480 0.000000 
#    z 0.046740 0.000000 3.337750 
# 
# 
# High freq. dielectric constant tensor:
#      x y z
#    x 1.795120 0.000000 -0.000440 
#    y 0.000000 1.741820 0.000000 
#    z -0.000440 0.000000 1.761770 
# 
# From -- ./inp_files/43979.got.cif
#   From: 2010.06.25/outbox.cif.g09.slc.cpg/sg13_22_cif.got.tgz:43979.got - 2010.06.28 04:50:58.
