data_PCOD8118254
_publ_section_title
;
Structure prediction by ZEFSAII (Michael W. Deem and Ramdas Pophale) SiO2 
 PCOD8118254
Probable space group: P 2/C
;
_chemical_formula_sum "Si O2"
_cell_formula_units_Z 24
_cell_length_a 17.409629
_cell_length_b 14.745843
_cell_length_c 9.039506
_cell_angle_alpha 90.000000
_cell_angle_beta 31.306889
_cell_angle_gamma 90.000000
_cell_volume 1205.844258
_symmetry_space_group_name_H-M "P 2/C"
_symmetry_group_IT_number 13
_symmetry_cell_setting 'monoclinic'
loop_
_space_group_symop_operation_xyz
x,y,z
-x,y,1/2-z
-x,-y,-z
x,-y,1/2+z
loop_
_atom_site_type_symbol
_atom_site_label
_atom_site_fract_x
_atom_site_fract_y
_atom_site_fract_z
Si Si1 0.675482 0.243056 0.297521
Si Si2 0.100394 0.885497 0.223713
Si Si3 0.149790 0.397280 0.085941
Si Si4 0.155242 0.580110 0.923500
Si Si5 0.113714 0.915820 0.687648
Si Si6 0.337783 0.226678 0.838305
O O1 0.722014 0.348177 0.225813
O O2 0.508752 0.231917 0.514831
O O3 0.688467 0.208481 0.444116
O O4 0.771399 0.186903 0.020925
O O5 0.000000 0.896314 0.250000
O O6 0.983456 0.853075 0.540517
O O7 0.166128 0.985041 0.163255
O O8 0.127659 0.425333 0.293202
O O9 0.000000 0.364946 0.250000
O O10 0.210782 0.483455 0.893929
O O11 0.267954 0.317322 0.885858
O O12 0.000000 0.608977 0.250000
O O13 0.256865 0.859743 0.396491
O O14 0.000000 0.940291 0.750000
#
# Coordination Sequence:
#
# PCOD8118254 Si02
#       6
#     4   4   4   4   4   4
#     4  10  21  36  59  82 115 151 194 222 283 343
#     4  10  19  37  62  85 106 150 193 232 272 342
#     4  10  20  36  59  84 113 146 188 232 279 328
#     4  10  20  35  59  85 109 147 190 233 275 330
#     4  10  21  36  60  86 113 141 189 238 286 323
#     4  10  21  37  56  85 115 154 182 235 283 333
#
# _framework density 19.903068000000001
#
# number of rings (size 3 to 8) (size 9 to 14) (size 15 to 20)
#    0.000    2.000    1.667    3.000    2.333    1.333 
#    3.000    0.833    0.000    0.000    0.000    0.000 
#    0.000    0.000    0.000    0.000    0.000    0.000 
#
# Total GULP energy -297356.314180 kJ/mol
# GULP energy per Si atom -12389.846424 kJ/mol
# Density = 1.985777 g / cm^3
# Si number density = 19.903068 Si / 1000 Ang^3
#
#
#
# Elastic Constant Matrix: (Units=GPa)
#
#
# Indices 1 2 3 4 5 6 
#
# 1 81.8437 43.2968 44.3390 0.0000 -11.0084 0.0000
# 2 43.2968 102.8435 52.3221 0.0000 -25.5223 0.0000
# 3 44.3390 52.3221 90.4203 0.0000 -18.2602 0.0000
# 4 0.0000 0.0000 0.0000 21.0925 0.0000 2.8896
# 5 -11.0084 -25.5223 -18.2602 0.0000 38.8866 0.0000
# 6 0.0000 0.0000 0.0000 2.8896 0.0000 26.0271
#
#
#
# Elastic Compliance Matrix: (Units=1/GPa)
#
#
# Indices 1 2 3 4 5 6 
#
# 1 0.017942 -0.004543 -0.006347 0.000000 -0.000883 0.000000
# 2 -0.004543 0.016253 -0.005836 0.000000 0.006641 0.000000
# 3 -0.006347 -0.005836 0.018132 0.000000 0.002887 0.000000
# 4 0.000000 0.000000 0.000000 0.048142 0.000000 -0.005345
# 5 -0.000883 0.006641 0.002887 0.000000 0.031180 0.000000
# 6 0.000000 0.000000 0.000000 -0.005345 0.000000 0.039015
#
#
# Mechanical properties :
#
#
# Convention : Reuss Voigt Hill
#
# Bulk Modulus (GPa) = 52.98396 61.66926 57.32661
# Shear Modulus (GPa) = 23.76314 26.21121 24.98717
#
# Velocity S-wave (km/s) = 3.45910 3.63291 3.54707
# Velocity P-wave (km/s) = 6.52936 6.97491 6.75581
#
# Compressibility (1/GPa) = 0.01887364
#
# Stress axis : x y z
#
# Youngs Moduli (GPa) = 55.73554 61.52540 55.15069
#
# Poissons Ratio (x) = 0.27954 0.35006
# Poissons Ratio (y) = 0.25323 0.32186
# Poissons Ratio (z) = 0.35378 0.35907
#
# Static dielectric constant tensor:
#      x y z
#    x 3.567670 0.000000 -0.073820 
#    y 0.000000 3.721680 0.000000 
#    z -0.073820 0.000000 3.406320 
# 
# 
# High freq. dielectric constant tensor:
#      x y z
#    x 1.769160 0.000000 0.003100 
#    y 0.000000 1.784130 0.000000 
#    z 0.003100 0.000000 1.760020 
# 
# From -- ./inp_files/21918.got.cif
#   From: 2010.06.25/outbox.cif.g09.slc.cpg/sg13_11_cif.got.tgz:21918.got - 2010.06.28 04:50:58.
