data_PCOD8118945
_publ_section_title
;
Structure prediction by ZEFSAII (Michael W. Deem and Ramdas Pophale) SiO2 
 PCOD8118945
Probable space group: P 2/C
;
_chemical_formula_sum "Si O2"
_cell_formula_units_Z 30
_cell_length_a 20.119988
_cell_length_b 13.975772
_cell_length_c 19.630262
_cell_angle_alpha 90.000000
_cell_angle_beta 164.373594
_cell_angle_gamma 90.000000
_cell_volume 1486.855170
_symmetry_space_group_name_H-M "P 2/C"
_symmetry_group_IT_number 13
_symmetry_cell_setting 'monoclinic'
loop_
_space_group_symop_operation_xyz
x,y,z
-x,y,1/2-z
-x,-y,-z
x,-y,1/2+z
loop_
_atom_site_type_symbol
_atom_site_label
_atom_site_fract_x
_atom_site_fract_y
_atom_site_fract_z
Si Si1 0.197913 0.037541 0.143238
Si Si2 0.374545 0.323225 0.056186
Si Si3 0.098099 0.206259 0.681167
Si Si4 0.747761 0.384169 0.314658
Si Si5 0.000000 0.535149 0.250000
Si Si6 0.561894 0.143997 0.599291
Si Si7 0.144489 0.427588 0.518114
Si Si8 0.634816 0.334545 0.054209
O O1 0.402239 0.099437 0.381855
O O2 0.330504 0.940788 0.244448
O O3 0.058926 0.109999 0.953704
O O4 0.000000 0.000000 0.000000
O O5 0.500000 0.287864 0.250000
O O6 0.554081 0.382524 0.184945
O O7 0.281368 0.227532 0.925056
O O8 0.158821 0.397467 0.858050
O O9 0.221714 0.197175 0.728839
O O10 0.932341 0.298252 0.507534
O O11 0.883416 0.486752 0.454073
O O12 0.611296 0.374562 0.107767
O O13 0.160534 0.467716 0.457356
O O14 0.399058 0.219128 0.481242
O O15 0.903025 0.359734 0.287917
O O16 0.404170 0.374357 0.784209
#
# Coordination Sequence:
#
# PCOD8118945 Si02
#       8
#     4   4   4   4   2   4   4   4
#     4   9  19  34  60  89 128 164 198 260 339 398
#     4  12  22  38  62  84 129 182 224 268 317 398
#     4  11  19  36  60  91 128 175 205 268 333 399
#     4  12  23  38  60  92 135 171 213 273 330 400
#     4  12  26  44  60  86 126 178 236 264 316 380
#     4  10  20  36  59  93 132 159 207 267 335 404
#     4  12  27  41  63  90 131 181 220 277 321 394
#     4  12  25  40  63  97 134 169 223 266 338 390
#
# _framework density 20.176812999999999
#
# number of rings (size 3 to 8) (size 9 to 14) (size 15 to 20)
#    0.000    0.800    5.333    2.400    1.867    0.000 
#    0.000    0.000    0.000    0.000    0.000    8.400 
#    8.000    0.000    0.000    0.000    0.000    0.000 
#
# Total GULP energy -371807.972887 kJ/mol
# GULP energy per Si atom -12393.599096 kJ/mol
# Density = 2.013089 g / cm^3
# Si number density = 20.176813 Si / 1000 Ang^3
#
#
#
# Elastic Constant Matrix: (Units=GPa)
#
#
# Indices 1 2 3 4 5 6 
#
# 1 24.5596 -0.0120 8.9427 0.0000 -4.2382 0.0000
# 2 -0.0120 118.8573 34.9164 0.0000 -2.7844 0.0000
# 3 8.9427 34.9164 96.7594 0.0000 -1.7224 0.0000
# 4 0.0000 0.0000 0.0000 15.7537 0.0000 7.8984
# 5 -4.2382 -2.7844 -1.7224 0.0000 40.9940 0.0000
# 6 0.0000 0.0000 0.0000 7.8984 0.0000 16.6972
#
#
#
# Elastic Compliance Matrix: (Units=1/GPa)
#
#
# Indices 1 2 3 4 5 6 
#
# 1 0.043076 0.001402 -0.004409 0.000000 0.004363 0.000000
# 2 0.001402 0.009467 -0.003534 0.000000 0.000639 0.000000
# 3 -0.004409 -0.003534 0.012014 0.000000 -0.000191 0.000000
# 4 0.000000 0.000000 0.000000 0.083212 0.000000 -0.039362
# 5 0.004363 0.000639 -0.000191 0.000000 0.024880 0.000000
# 6 0.000000 0.000000 0.000000 -0.039362 0.000000 0.078510
#
#
# Mechanical properties :
#
#
# Convention : Reuss Voigt Hill
#
# Bulk Modulus (GPa) = 19.42731 36.43009 27.92870
# Shear Modulus (GPa) = 17.76816 27.77760 22.77288
#
# Velocity S-wave (km/s) = 2.97075 3.71443 3.36321
# Velocity P-wave (km/s) = 4.62780 6.04074 5.38085
#
# Compressibility (1/GPa) = 0.05147394
#
# Stress axis : x y z
#
# Youngs Moduli (GPa) = 23.21454 105.63168 83.23308
#
# Poissons Ratio (x) = -0.14809 0.36701
# Poissons Ratio (y) = -0.03255 0.29418
# Poissons Ratio (z) = 0.10236 0.37334
#
# Static dielectric constant tensor:
#      x y z
#    x 3.430270 0.000000 -0.149150 
#    y 0.000000 4.161550 0.000000 
#    z -0.149150 0.000000 4.182870 
# 
# 
# High freq. dielectric constant tensor:
#      x y z
#    x 1.737670 0.000000 0.007280 
#    y 0.000000 1.795630 0.000000 
#    z 0.007280 0.000000 1.814160 
# 
# From -- ./inp_files/70067.got.cif
#   From: 2010.06.25/outbox.cif.g09.slc.cpg/sg13_36_cif.got.tgz:70067.got - 2010.06.28 04:50:58.
