data_PCOD8118515
_publ_section_title
;
Structure prediction by ZEFSAII (Michael W. Deem and Ramdas Pophale) SiO2 
 PCOD8118515
Probable space group: P 2/C
;
_chemical_formula_sum "Si O2"
_cell_formula_units_Z 30
_cell_length_a 11.746377
_cell_length_b 30.603162
_cell_length_c 5.267972
_cell_angle_alpha 90.000000
_cell_angle_beta 123.582622
_cell_angle_gamma 90.000000
_cell_volume 1577.629868
_symmetry_space_group_name_H-M "P 2/C"
_symmetry_group_IT_number 13
_symmetry_cell_setting 'monoclinic'
loop_
_space_group_symop_operation_xyz
x,y,z
-x,y,1/2-z
-x,-y,-z
x,-y,1/2+z
loop_
_atom_site_type_symbol
_atom_site_label
_atom_site_fract_x
_atom_site_fract_y
_atom_site_fract_z
Si Si1 0.714112 0.879549 0.403561
Si Si2 0.662754 0.524124 0.443125
Si Si3 0.338491 0.329760 0.063010
Si Si4 0.343709 0.979605 0.085905
Si Si5 0.500000 0.185272 0.750000
Si Si6 0.663037 0.623190 0.441154
Si Si7 0.158449 0.845807 0.415355
Si Si8 0.349420 0.769155 0.671101
O O1 0.664211 0.928418 0.376929
O O2 0.584376 0.848247 0.172004
O O3 0.818112 0.878394 0.293501
O O4 0.782113 0.864856 0.751473
O O5 0.500000 0.522983 0.250000
O O6 0.719675 0.502717 0.772091
O O7 0.715680 0.573633 0.483473
O O8 0.500000 0.334724 0.250000
O O9 0.277852 0.356744 0.225420
O O10 0.297370 0.279592 0.054950
O O11 0.278899 0.349063 0.726271
O O12 0.500000 0.994814 0.250000
O O13 0.272400 0.005474 0.233444
O O14 0.380713 0.217824 0.500647
O O15 0.500000 0.624986 0.250000
O O16 0.230851 0.800391 0.422149
O O17 0.000000 0.836168 0.250000
O O18 0.500000 0.778893 0.750000
#
# Coordination Sequence:
#
# PCOD8118515 Si02
#       8
#     4   4   4   4   2   4   4   4
#     4  11  21  38  60  81 115 140 179 215 270 310
#     4   9  15  22  34  47  69 106 154 200 238 287
#     4   9  18  25  41  58  88 118 150 201 253 299
#     4  10  20  34  56  88 118 140 172 221 270 313
#     4  10  20  32  54  84 104 136 170 224 260 308
#     4   9  16  26  34  55  81 113 154 200 252 296
#     4  11  24  39  58  82 112 146 182 221 264 316
#     4  10  20  33  53  77 105 133 177 217 263 310
#
# _framework density 19.015868000000001
#
# number of rings (size 3 to 8) (size 9 to 14) (size 15 to 20)
#    0.000    2.133    2.000    2.000    4.667    3.200 
#    0.000    0.000    0.000    8.000    0.000    0.000 
#    0.000    0.000    0.000    0.000    0.000   13.333 
#
# Total GULP energy -371702.299131 kJ/mol
# GULP energy per Si atom -12390.076638 kJ/mol
# Density = 1.897259 g / cm^3
# Si number density = 19.015868 Si / 1000 Ang^3
#
#
#
# Elastic Constant Matrix: (Units=GPa)
#
#
# Indices 1 2 3 4 5 6 
#
# 1 62.7429 33.9012 38.6074 0.0000 -19.3376 0.0000
# 2 33.9012 135.8626 50.1575 0.0000 -27.0847 0.0000
# 3 38.6074 50.1575 82.8069 0.0000 -41.7958 0.0000
# 4 0.0000 0.0000 0.0000 20.0767 0.0000 -9.9329
# 5 -19.3376 -27.0847 -41.7958 0.0000 36.9525 0.0000
# 6 0.0000 0.0000 0.0000 -9.9329 0.0000 13.1861
#
#
#
# Elastic Compliance Matrix: (Units=1/GPa)
#
#
# Indices 1 2 3 4 5 6 
#
# 1 0.022890 -0.002290 -0.009522 0.000000 -0.000471 0.000000
# 2 -0.002290 0.009727 -0.004266 0.000000 0.001106 0.000000
# 3 -0.009522 -0.004266 0.034971 0.000000 0.031445 0.000000
# 4 0.000000 0.000000 0.000000 0.079400 0.000000 0.059811
# 5 -0.000471 0.001106 0.031445 0.000000 0.063193 0.000000
# 6 0.000000 0.000000 0.000000 0.059811 0.000000 0.120891
#
#
# Mechanical properties :
#
#
# Convention : Reuss Voigt Hill
#
# Bulk Modulus (GPa) = 28.22316 58.52718 43.37517
# Shear Modulus (GPa) = 13.33192 24.62616 18.97904
#
# Velocity S-wave (km/s) = 2.65069 3.60256 3.16264
# Velocity P-wave (km/s) = 4.92365 6.93898 6.01630
#
# Compressibility (1/GPa) = 0.03543189
#
# Stress axis : x y z
#
# Youngs Moduli (GPa) = 43.68771 102.80461 28.59477
#
# Poissons Ratio (x) = 0.23541 0.27229
# Poissons Ratio (y) = 0.10004 0.12198
# Poissons Ratio (z) = 0.41601 0.43855
#
# Static dielectric constant tensor:
#      x y z
#    x 3.238200 0.000000 -0.580040 
#    y 0.000000 3.515200 0.000000 
#    z -0.580040 0.000000 3.735770 
# 
# 
# High freq. dielectric constant tensor:
#      x y z
#    x 1.693660 0.000000 -0.050790 
#    y 0.000000 1.749540 0.000000 
#    z -0.050790 0.000000 1.721340 
# 
# From -- ./inp_files/4488.got.cif
#   From: 2010.06.25/outbox.cif.g09.slc.cpg/sg13_3_cif.got.tgz:4488.got - 2010.06.28 04:50:58.
