data_PCOD8118234
_publ_section_title
;
Structure prediction by ZEFSAII (Michael W. Deem and Ramdas Pophale) SiO2 
 PCOD8118234
Probable space group: P 2/C
;
_chemical_formula_sum "Si O2"
_cell_formula_units_Z 26
_cell_length_a 14.225119
_cell_length_b 14.325379
_cell_length_c 9.239722
_cell_angle_alpha 90.000000
_cell_angle_beta 40.558714
_cell_angle_gamma 90.000000
_cell_volume 1224.294474
_symmetry_space_group_name_H-M "P 2/C"
_symmetry_group_IT_number 13
_symmetry_cell_setting 'monoclinic'
loop_
_space_group_symop_operation_xyz
x,y,z
-x,y,1/2-z
-x,-y,-z
x,-y,1/2+z
loop_
_atom_site_type_symbol
_atom_site_label
_atom_site_fract_x
_atom_site_fract_y
_atom_site_fract_z
Si Si1 0.020673 0.608472 0.500391
Si Si2 0.221693 0.883578 0.952603
Si Si3 0.487851 0.109471 0.492486
Si Si4 0.000000 0.273942 0.750000
Si Si5 0.199096 0.692162 0.545342
Si Si6 0.500000 0.234457 0.750000
Si Si7 0.000000 0.139590 0.250000
Si Si8 0.817366 0.949353 0.197971
O O1 0.059997 0.661065 0.306724
O O2 0.148740 0.633889 0.462823
O O3 0.000000 0.500000 0.500000
O O4 0.865440 0.641999 0.738737
O O5 0.394887 0.862411 0.770705
O O6 0.217096 0.945485 0.811213
O O7 0.132308 0.789042 0.038088
O O8 0.153516 0.945787 0.163396
O O9 0.538807 0.168071 0.571374
O O10 0.316572 0.125192 0.662857
O O11 0.500000 0.000000 0.500000
O O12 0.370768 0.695547 0.358347
O O13 0.140415 0.797885 0.614638
O O14 0.960787 0.081339 0.441426
#
# Coordination Sequence:
#
# PCOD8118234 Si02
#       8
#     4   4   4   2   4   2   2   4
#     4  10  22  44  71  99 126 160 210 269 347 423
#     4  11  25  38  57  90 131 174 227 278 325 385
#     4  10  24  36  58  85 128 185 230 270 321 372
#     4  12  23  39  64  98 124 160 216 281 333 388
#     4  10  22  39  69  97 124 174 214 266 332 407
#     4  12  22  42  64  96 130 174 230 280 324 398
#     4  10  19  37  60  90 122 168 232 271 315 384
#     4  11  23  38  58  85 130 181 227 274 323 369
#
# _framework density 21.236719999999998
#
# number of rings (size 3 to 8) (size 9 to 14) (size 15 to 20)
#    0.000    1.538    1.538    4.615    8.615    4.923 
#    0.000    0.769    0.000    0.000    0.000    0.000 
#    0.000    0.000    0.000    0.000    0.000    0.000 
#
# Total GULP energy -322256.285765 kJ/mol
# GULP energy per Si atom -12394.472529 kJ/mol
# Density = 2.118838 g / cm^3
# Si number density = 21.236720 Si / 1000 Ang^3
#
#
#
# Elastic Constant Matrix: (Units=GPa)
#
#
# Indices 1 2 3 4 5 6 
#
# 1 90.9573 35.3444 36.9900 0.0000 -12.7089 0.0000
# 2 35.3444 98.0258 36.6276 0.0000 -1.5136 0.0000
# 3 36.9900 36.6276 123.6833 0.0000 -8.9198 0.0000
# 4 0.0000 0.0000 0.0000 14.8726 0.0000 1.5101
# 5 -12.7089 -1.5136 -8.9198 0.0000 49.8411 0.0000
# 6 0.0000 0.0000 0.0000 1.5101 0.0000 18.8033
#
#
#
# Elastic Compliance Matrix: (Units=1/GPa)
#
#
# Indices 1 2 3 4 5 6 
#
# 1 0.014106 -0.003985 -0.002824 0.000000 0.002970 0.000000
# 2 -0.003985 0.012600 -0.002619 0.000000 -0.001102 0.000000
# 3 -0.002824 -0.002619 0.009774 0.000000 0.000949 0.000000
# 4 0.000000 0.000000 0.000000 0.067791 0.000000 -0.005444
# 5 0.002970 -0.001102 0.000949 0.000000 0.020958 0.000000
# 6 0.000000 0.000000 0.000000 -0.005444 0.000000 0.053620
#
#
# Mechanical properties :
#
#
# Convention : Reuss Voigt Hill
#
# Bulk Modulus (GPa) = 56.74335 58.95447 57.84891
# Shear Modulus (GPa) = 24.56046 30.28369 27.42207
#
# Velocity S-wave (km/s) = 3.40444 3.78035 3.59731
# Velocity P-wave (km/s) = 6.49854 6.84657 6.67483
#
# Compressibility (1/GPa) = 0.01762321
#
# Stress axis : x y z
#
# Youngs Moduli (GPa) = 70.89012 79.36631 102.31287
#
# Poissons Ratio (x) = 0.31627 0.28898
# Poissons Ratio (y) = 0.28250 0.26796
# Poissons Ratio (z) = 0.20023 0.20786
#
# Static dielectric constant tensor:
#      x y z
#    x 3.967890 0.000000 -0.223430 
#    y 0.000000 3.578420 0.000000 
#    z -0.223430 0.000000 4.302110 
# 
# 
# High freq. dielectric constant tensor:
#      x y z
#    x 1.832800 0.000000 0.000130 
#    y 0.000000 1.795630 0.000000 
#    z 0.000130 0.000000 1.851480 
# 
# From -- ./inp_files/19570.got.cif
#   From: 2010.06.25/outbox.cif.g09.slc.cpg/sg13_10_cif.got.tgz:19570.got - 2010.06.28 04:50:58.
