data_PCOD8118093
_publ_section_title
;
Structure prediction by ZEFSAII (Michael W. Deem and Ramdas Pophale) SiO2 
 PCOD8118093
Probable space group: P 2/C
;
_chemical_formula_sum "Si O2"
_cell_formula_units_Z 32
_cell_length_a 24.184371
_cell_length_b 12.590946
_cell_length_c 10.011584
_cell_angle_alpha 90.000000
_cell_angle_beta 137.096608
_cell_angle_gamma 90.000000
_cell_volume 2075.356383
_symmetry_space_group_name_H-M "P 2/C"
_symmetry_group_IT_number 13
_symmetry_cell_setting 'monoclinic'
loop_
_space_group_symop_operation_xyz
x,y,z
-x,y,1/2-z
-x,-y,-z
x,-y,1/2+z
loop_
_atom_site_type_symbol
_atom_site_label
_atom_site_fract_x
_atom_site_fract_y
_atom_site_fract_z
Si Si1 0.944011 0.507581 0.773413
Si Si2 0.672468 0.606296 0.393350
Si Si3 0.322559 0.592837 0.792412
Si Si4 0.155845 0.694067 0.492282
Si Si5 0.050425 0.124737 0.212729
Si Si6 0.161541 0.697000 0.815703
Si Si7 0.059167 0.116562 0.736513
Si Si8 0.502319 0.595520 0.403919
O O1 0.901963 0.395063 0.672442
O O2 0.874853 0.594424 0.675601
O O3 0.000000 0.544112 0.750000
O O4 0.000000 0.500000 0.000000
O O5 0.685300 0.559208 0.565655
O O6 0.683117 0.512447 0.306136
O O7 0.741044 0.695338 0.489467
O O8 0.581985 0.661100 0.220823
O O9 0.250059 0.672047 0.625536
O O10 0.409943 0.653548 0.921425
O O11 0.138581 0.697967 0.619422
O O12 0.137009 0.806712 0.387862
O O13 0.128621 0.197262 0.327194
O O14 0.000000 0.164750 0.250000
O O15 0.085563 0.006204 0.295790
O O16 0.986290 0.134897 0.981352
O O17 0.000000 0.150629 0.750000
O O18 0.500000 0.548876 0.250000
O O19 0.500000 0.500000 0.500000
#
# Coordination Sequence:
#
# PCOD8118093 Si02
#       8
#     4   4   4   4   4   4   4   4
#     4  12  22  31  44  64  94 128 155 183 223 277
#     4   9  17  29  45  66  94 123 149 187 221 271
#     4   9  17  29  45  67  93 122 152 184 221 273
#     4  11  20  33  49  67  94 126 152 189 234 273
#     4  10  21  35  51  71  85 117 163 205 234 265
#     4  11  20  33  48  68  95 122 156 190 230 273
#     4  10  19  36  55  64  88 120 160 199 237 277
#     4   8  14  26  44  64  88 119 152 180 220 263
#
# _framework density 15.419039
#
# number of rings (size 3 to 8) (size 9 to 14) (size 15 to 20)
#    0.000    2.000    3.750    1.500    0.000    0.000 
#    2.250    0.000    0.000    0.000    0.000    0.875 
#    0.000    0.000    0.000    0.000    0.000    0.000 
#
# Total GULP energy -396502.082042 kJ/mol
# GULP energy per Si atom -12390.690064 kJ/mol
# Density = 1.538394 g / cm^3
# Si number density = 15.419039 Si / 1000 Ang^3
#
#
#
# Elastic Constant Matrix: (Units=GPa)
#
#
# Indices 1 2 3 4 5 6 
#
# 1 109.5592 44.3943 55.1234 0.0000 18.5002 0.0000
# 2 44.3943 73.8607 33.9887 0.0000 16.3977 0.0000
# 3 55.1234 33.9887 81.8689 0.0000 14.4730 0.0000
# 4 0.0000 0.0000 0.0000 18.6568 0.0000 -1.4151
# 5 18.5002 16.3977 14.4730 0.0000 33.4017 0.0000
# 6 0.0000 0.0000 0.0000 -1.4151 0.0000 16.8227
#
#
#
# Elastic Compliance Matrix: (Units=1/GPa)
#
#
# Indices 1 2 3 4 5 6 
#
# 1 0.015665 -0.005169 -0.007924 0.000000 -0.002706 0.000000
# 2 -0.005169 0.019483 -0.003708 0.000000 -0.005095 0.000000
# 3 -0.007924 -0.003708 0.019484 0.000000 -0.002234 0.000000
# 4 0.000000 0.000000 0.000000 0.053944 0.000000 0.004538
# 5 -0.002706 -0.005095 -0.002234 0.000000 0.034907 0.000000
# 6 0.000000 0.000000 0.000000 0.004538 0.000000 0.059825
#
#
# Mechanical properties :
#
#
# Convention : Reuss Voigt Hill
#
# Bulk Modulus (GPa) = 47.54563 59.14463 53.34513
# Shear Modulus (GPa) = 20.49864 22.56174 21.53019
#
# Velocity S-wave (km/s) = 3.65010 3.82938 3.74081
# Velocity P-wave (km/s) = 6.97617 7.61536 7.30276
#
# Compressibility (1/GPa) = 0.02103243
#
# Stress axis : x y z
#
# Youngs Moduli (GPa) = 63.83456 51.32645 51.32478
#
# Poissons Ratio (x) = 0.26530 0.40667
# Poissons Ratio (y) = 0.32995 0.19029
# Poissons Ratio (z) = 0.50579 0.19030
#
# Static dielectric constant tensor:
#      x y z
#    x 3.380360 0.000000 0.115010 
#    y 0.000000 2.731960 0.000000 
#    z 0.115010 0.000000 3.241930 
# 
# 
# High freq. dielectric constant tensor:
#      x y z
#    x 1.604980 0.000000 -0.004310 
#    y 0.000000 1.546660 0.000000 
#    z -0.004310 0.000000 1.603350 
# 
# From -- ./inp_files/24075.got.cif
#   From: 2010.06.25/outbox.cif.g09.slc.cpg/sg13_13_cif.got.tgz:24075.got - 2010.06.28 04:50:58.
