data_PCOD8118922
_publ_section_title
;
Structure prediction by ZEFSAII (Michael W. Deem and Ramdas Pophale) SiO2 
 PCOD8118922
Probable space group: P 2/C
;
_chemical_formula_sum "Si O2"
_cell_formula_units_Z 22
_cell_length_a 20.805409
_cell_length_b 9.274198
_cell_length_c 8.746210
_cell_angle_alpha 90.000000
_cell_angle_beta 40.047044
_cell_angle_gamma 90.000000
_cell_volume 1085.836982
_symmetry_space_group_name_H-M "P 2/C"
_symmetry_group_IT_number 13
_symmetry_cell_setting 'monoclinic'
loop_
_space_group_symop_operation_xyz
x,y,z
-x,y,1/2-z
-x,-y,-z
x,-y,1/2+z
loop_
_atom_site_type_symbol
_atom_site_label
_atom_site_fract_x
_atom_site_fract_y
_atom_site_fract_z
Si Si1 0.287659 0.869652 0.478467
Si Si2 0.229096 0.682011 0.119872
Si Si3 0.000000 0.740723 0.250000
Si Si4 0.894039 0.932507 0.225656
Si Si5 0.192882 0.617079 0.832346
Si Si6 0.382733 0.123999 0.482054
O O1 0.262820 0.716639 0.599932
O O2 0.185419 0.942265 0.604674
O O3 0.342611 0.967284 0.504480
O O4 0.357542 0.846418 0.204990
O O5 0.148151 0.808789 0.312744
O O6 0.212663 0.548621 0.260116
O O7 0.220838 0.636164 0.958977
O O8 0.337392 0.750958 0.956441
O O9 0.087773 0.843486 0.153226
O O10 0.926744 0.641757 0.487012
O O11 0.000000 0.000000 0.000000
O O12 0.500000 0.129314 0.250000
#
# Coordination Sequence:
#
# PCOD8118922 Si02
#       6
#     4   4   2   4   4   4
#     4  11  22  39  65  94 128 162 206 265 307 373
#     4  10  24  41  61  89 127 167 207 264 308 376
#     4  10  20  36  58  88 128 166 208 244 302 380
#     4  10  20  36  58  89 124 163 204 245 306 370
#     4  11  22  42  60  90 131 163 210 253 314 371
#     4  11  23  43  66  94 122 164 213 264 321 369
#
# _framework density 20.260869
#
# number of rings (size 3 to 8) (size 9 to 14) (size 15 to 20)
#    0.000    1.455    1.818    4.909    2.545    2.909 
#    3.273    4.545    0.000    0.000    0.000    0.000 
#    0.000    0.000    0.000    0.000    0.000    0.000 
#
# Total GULP energy -272574.139281 kJ/mol
# GULP energy per Si atom -12389.733604 kJ/mol
# Density = 2.021475 g / cm^3
# Si number density = 20.260869 Si / 1000 Ang^3
#
#
#
# Elastic Constant Matrix: (Units=GPa)
#
#
# Indices 1 2 3 4 5 6 
#
# 1 76.9257 30.8642 38.7008 0.0000 -12.1649 0.0000
# 2 30.8642 125.3585 45.8629 0.0000 -12.3019 0.0000
# 3 38.7008 45.8629 133.5540 0.0000 -12.9749 0.0000
# 4 0.0000 0.0000 0.0000 22.9599 0.0000 6.6811
# 5 -12.1649 -12.3019 -12.9749 0.0000 45.0897 0.0000
# 6 0.0000 0.0000 0.0000 6.6811 0.0000 27.0824
#
#
#
# Elastic Compliance Matrix: (Units=1/GPa)
#
#
# Indices 1 2 3 4 5 6 
#
# 1 0.016204 -0.002406 -0.003609 0.000000 0.002677 0.000000
# 2 -0.002406 0.009599 -0.002477 0.000000 0.001257 0.000000
# 3 -0.003609 -0.002477 0.009489 0.000000 0.001081 0.000000
# 4 0.000000 0.000000 0.000000 0.046923 0.000000 -0.011576
# 5 0.002677 0.001257 0.001081 0.000000 0.023554 0.000000
# 6 0.000000 0.000000 0.000000 -0.011576 0.000000 0.039780
#
#
# Mechanical properties :
#
#
# Convention : Reuss Voigt Hill
#
# Bulk Modulus (GPa) = 54.62324 62.96601 58.79463
# Shear Modulus (GPa) = 29.64957 33.72043 31.68500
#
# Velocity S-wave (km/s) = 3.82958 4.08403 3.95885
# Velocity P-wave (km/s) = 6.82442 7.30644 7.06954
#
# Compressibility (1/GPa) = 0.01830722
#
# Stress axis : x y z
#
# Youngs Moduli (GPa) = 61.71284 104.17578 105.38457
#
# Poissons Ratio (x) = 0.25070 0.38035
# Poissons Ratio (y) = 0.14851 0.26103
# Poissons Ratio (z) = 0.22273 0.25804
#
# Static dielectric constant tensor:
#      x y z
#    x 3.733350 0.000000 -0.247000 
#    y 0.000000 4.125140 0.000000 
#    z -0.247000 0.000000 3.586660 
# 
# 
# High freq. dielectric constant tensor:
#      x y z
#    x 1.793700 0.000000 -0.004720 
#    y 0.000000 1.801600 0.000000 
#    z -0.004720 0.000000 1.777380 
# 
# From -- ./inp_files/17989.got.cif
#   From: 2010.06.25/outbox.cif.g09.slc.cpg/sg13_9_cif.got.tgz:17989.got - 2010.06.28 04:50:58.
