data_PCOD8118828
_publ_section_title
;
Structure prediction by ZEFSAII (Michael W. Deem and Ramdas Pophale) SiO2 
 PCOD8118828
Probable space group: P 2/C
;
_chemical_formula_sum "Si O2"
_cell_formula_units_Z 28
_cell_length_a 13.410323
_cell_length_b 9.333102
_cell_length_c 19.221630
_cell_angle_alpha 90.000000
_cell_angle_beta 35.284726
_cell_angle_gamma 90.000000
_cell_volume 1389.673419
_symmetry_space_group_name_H-M "P 2/C"
_symmetry_group_IT_number 13
_symmetry_cell_setting 'monoclinic'
loop_
_space_group_symop_operation_xyz
x,y,z
-x,y,1/2-z
-x,-y,-z
x,-y,1/2+z
loop_
_atom_site_type_symbol
_atom_site_label
_atom_site_fract_x
_atom_site_fract_y
_atom_site_fract_z
Si Si1 0.700020 0.445919 0.001622
Si Si2 0.142058 0.747582 0.608474
Si Si3 0.964660 0.375142 0.604702
Si Si4 0.536401 0.773528 0.808555
Si Si5 0.176044 0.725408 0.183342
Si Si6 0.359360 0.976730 0.021377
Si Si7 0.078681 0.298429 0.395350
O O1 0.727021 0.614780 0.977486
O O2 0.683754 0.377659 0.933287
O O3 0.851275 0.378000 0.962489
O O4 0.527492 0.390418 0.139151
O O5 0.000000 0.719615 0.750000
O O6 0.037734 0.775955 0.597065
O O7 0.271882 0.876517 0.547895
O O8 0.825703 0.293319 0.732474
O O9 0.891201 0.533552 0.634942
O O10 0.980563 0.283925 0.524992
O O11 0.500000 0.814544 0.750000
O O12 0.437848 0.891360 0.911409
O O13 0.739562 0.782733 0.707918
O O14 0.000000 0.668282 0.250000
O O15 0.206613 0.889216 0.145556
O O16 0.500000 0.000000 0.000000
#
# Coordination Sequence:
#
# PCOD8118828 Si02
#       7
#     4   4   4   4   4   4   4
#     4   9  18  35  64  92 120 155 201 250 310 363
#     4  11  22  41  62  92 125 159 207 263 304 358
#     4   9  17  34  59  96 120 150 205 255 309 364
#     4  11  22  41  62  90 127 165 198 250 312 378
#     4   9  18  35  62  86 114 156 202 251 294 368
#     4  11  25  42  59  84 122 166 208 249 307 366
#     4  10  20  35  63  92 124 157 202 261 310 361
#
# _framework density 20.148620000000001
#
# number of rings (size 3 to 8) (size 9 to 14) (size 15 to 20)
#    0.000    2.000    1.429    3.429    0.000    1.143 
#    2.571    5.000    0.000    0.000    0.000    0.000 
#    0.000    0.000    0.000    0.000    0.000    0.000 
#
# Total GULP energy -347042.015113 kJ/mol
# GULP energy per Si atom -12394.357683 kJ/mol
# Density = 2.010276 g / cm^3
# Si number density = 20.148620 Si / 1000 Ang^3
#
#
#
# Elastic Constant Matrix: (Units=GPa)
#
#
# Indices 1 2 3 4 5 6 
#
# 1 129.8738 55.4473 66.2916 0.0000 21.0040 0.0000
# 2 55.4473 101.8761 39.8830 0.0000 7.9367 0.0000
# 3 66.2916 39.8830 85.6246 0.0000 28.6032 0.0000
# 4 0.0000 0.0000 0.0000 23.9973 0.0000 -2.5043
# 5 21.0040 7.9367 28.6032 0.0000 39.9812 0.0000
# 6 0.0000 0.0000 0.0000 -2.5043 0.0000 29.8828
#
#
#
# Elastic Compliance Matrix: (Units=1/GPa)
#
#
# Indices 1 2 3 4 5 6 
#
# 1 0.014026 -0.004151 -0.008856 0.000000 -0.000209 0.000000
# 2 -0.004151 0.013372 -0.003754 0.000000 0.002212 0.000000
# 3 -0.008856 -0.003754 0.024284 0.000000 -0.011976 0.000000
# 4 0.000000 0.000000 0.000000 0.042039 0.000000 0.003523
# 5 -0.000209 0.002212 -0.011976 0.000000 0.033250 0.000000
# 6 0.000000 0.000000 0.000000 0.003523 0.000000 0.033759
#
#
# Mechanical properties :
#
#
# Convention : Reuss Voigt Hill
#
# Bulk Modulus (GPa) = 55.06177 71.17981 63.12079
# Shear Modulus (GPa) = 24.96182 29.15578 27.05880
#
# Velocity S-wave (km/s) = 3.52360 3.80812 3.66862
# Velocity P-wave (km/s) = 6.62884 7.39863 7.02429
#
# Compressibility (1/GPa) = 0.01816142
#
# Stress axis : x y z
#
# Youngs Moduli (GPa) = 71.29658 74.78221 41.17861
#
# Poissons Ratio (x) = 0.31038 0.36468
# Poissons Ratio (y) = 0.29592 0.15459
# Poissons Ratio (z) = 0.63140 0.28074
#
# Static dielectric constant tensor:
#      x y z
#    x 3.723570 0.000000 0.268440 
#    y 0.000000 3.727940 0.000000 
#    z 0.268440 0.000000 3.872410 
# 
# 
# High freq. dielectric constant tensor:
#      x y z
#    x 1.788390 0.000000 0.016030 
#    y 0.000000 1.767580 0.000000 
#    z 0.016030 0.000000 1.791050 
# 
# From -- ./inp_files/79922.got.cif
#   From: 2010.06.25/outbox.cif.g09.slc.cpg/sg13_40_cif.got.tgz:79922.got - 2010.06.28 04:50:58.
