data_PCOD8118119
_publ_section_title
;
Structure prediction by ZEFSAII (Michael W. Deem and Ramdas Pophale) SiO2 
 PCOD8118119
Probable space group: P 2/C
;
_chemical_formula_sum "Si O2"
_cell_formula_units_Z 32
_cell_length_a 9.219408
_cell_length_b 12.387213
_cell_length_c 14.087679
_cell_angle_alpha 90.000000
_cell_angle_beta 89.470526
_cell_angle_gamma 90.000000
_cell_volume 1608.783278
_symmetry_space_group_name_H-M "P 2/C"
_symmetry_group_IT_number 13
_symmetry_cell_setting 'monoclinic'
loop_
_space_group_symop_operation_xyz
x,y,z
-x,y,1/2-z
-x,-y,-z
x,-y,1/2+z
loop_
_atom_site_type_symbol
_atom_site_label
_atom_site_fract_x
_atom_site_fract_y
_atom_site_fract_z
Si Si1 0.333011 0.412279 0.228645
Si Si2 0.326514 0.166838 0.249639
Si Si3 0.839008 0.385975 0.754224
Si Si4 0.150997 0.666252 0.034671
Si Si5 0.831413 0.090245 0.437967
Si Si6 0.832384 0.888349 0.563363
Si Si7 0.828286 0.711522 0.067678
Si Si8 0.335213 0.469783 0.014399
O O1 0.500000 0.421332 0.250000
O O2 0.276020 0.292596 0.256487
O O3 0.255948 0.511993 0.282870
O O4 0.297049 0.432673 0.119924
O O5 0.500000 0.157203 0.250000
O O6 0.266650 0.113901 0.153129
O O7 0.261854 0.102465 0.340006
O O8 0.794981 0.337621 0.856326
O O9 0.831927 0.283602 0.682231
O O10 0.000000 0.434305 0.750000
O O11 0.230460 0.567416 0.981213
O O12 0.977100 0.658231 0.026773
O O13 0.204639 0.775290 0.985653
O O14 0.799814 0.172598 0.523761
O O15 0.000019 0.096455 0.407542
O O16 0.788685 0.975790 0.483911
O O17 0.693240 0.634886 0.047683
O O18 0.500000 0.500000 0.000000
#
# Coordination Sequence:
#
# PCOD8118119 Si02
#       8
#     4   4   4   4   4   4   4   4
#     4  10  21  36  51  83 119 154 198 237 285 354
#     4  11  24  40  61  88 122 158 199 249 303 360
#     4   9  19  34  54  82 116 154 191 239 295 351
#     4   9  21  36  55  87 116 149 199 237 299 352
#     4  10  22  43  62  92 119 154 211 247 306 358
#     4  10  23  40  67  88 118 161 200 260 299 357
#     4  10  19  36  58  83 118 154 188 247 294 352
#     4  11  21  33  56  83 118 158 192 242 293 353
#
# _framework density 19.890808
#
# number of rings (size 3 to 8) (size 9 to 14) (size 15 to 20)
#    0.000    2.000    1.250    1.500    5.250    2.500 
#    0.000    3.750    0.000    3.750    0.000    0.000 
#    0.000    0.000    0.000    0.000    0.000    0.000 
#
# Total GULP energy -396687.535361 kJ/mol
# GULP energy per Si atom -12396.485480 kJ/mol
# Density = 1.984554 g / cm^3
# Si number density = 19.890808 Si / 1000 Ang^3
#
#
#
# Elastic Constant Matrix: (Units=GPa)
#
#
# Indices 1 2 3 4 5 6 
#
# 1 69.5223 32.7485 29.5054 0.0000 4.8520 0.0000
# 2 32.7485 89.0237 38.8780 0.0000 5.4447 0.0000
# 3 29.5054 38.8780 87.8625 0.0000 0.8792 0.0000
# 4 0.0000 0.0000 0.0000 31.5676 0.0000 5.2942
# 5 4.8520 5.4447 0.8792 0.0000 30.8355 0.0000
# 6 0.0000 0.0000 0.0000 5.2942 0.0000 96.0461
#
#
#
# Elastic Compliance Matrix: (Units=1/GPa)
#
#
# Indices 1 2 3 4 5 6 
#
# 1 0.018558 -0.004953 -0.004021 0.000000 -0.001931 0.000000
# 2 -0.004953 0.015408 -0.005137 0.000000 -0.001795 0.000000
# 3 -0.004021 -0.005137 0.014994 0.000000 0.001112 0.000000
# 4 0.000000 0.000000 0.000000 0.031974 0.000000 -0.001762
# 5 -0.001931 -0.001795 0.001112 0.000000 0.033019 0.000000
# 6 0.000000 0.000000 0.000000 -0.001762 0.000000 0.010509
#
#
# Mechanical properties :
#
#
# Convention : Reuss Voigt Hill
#
# Bulk Modulus (GPa) = 48.21943 49.85247 49.03595
# Shear Modulus (GPa) = 31.32921 41.37493 36.35207
#
# Velocity S-wave (km/s) = 3.97301 4.56576 4.27966
# Velocity P-wave (km/s) = 6.73358 7.27409 7.00905
#
# Compressibility (1/GPa) = 0.02073853
#
# Stress axis : x y z
#
# Youngs Moduli (GPa) = 53.88443 64.90181 66.69504
#
# Poissons Ratio (x) = 0.32143 0.26820
# Poissons Ratio (y) = 0.26687 0.34259
# Poissons Ratio (z) = 0.21669 0.33338
#
# Static dielectric constant tensor:
#      x y z
#    x 3.501280 0.000000 0.051290 
#    y 0.000000 3.614420 0.000000 
#    z 0.051290 0.000000 3.717610 
# 
# 
# High freq. dielectric constant tensor:
#      x y z
#    x 1.766870 0.000000 0.004930 
#    y 0.000000 1.766550 0.000000 
#    z 0.004930 0.000000 1.786540 
# 
# From -- ./inp_files/47266.got.cif
#   From: 2010.06.25/outbox.cif.g09.slc.cpg/sg13_24_cif.got.tgz:47266.got - 2010.06.28 04:50:58.
