data_PCOD8118985
_publ_section_title
;
Structure prediction by ZEFSAII (Michael W. Deem and Ramdas Pophale) SiO2 
 PCOD8118985
Probable space group: P 2/C
;
_chemical_formula_sum "Si O2"
_cell_formula_units_Z 18
_cell_length_a 9.252452
_cell_length_b 9.715496
_cell_length_c 13.376842
_cell_angle_alpha 90.000000
_cell_angle_beta 47.325687
_cell_angle_gamma 90.000000
_cell_volume 884.080629
_symmetry_space_group_name_H-M "P 2/C"
_symmetry_group_IT_number 13
_symmetry_cell_setting 'monoclinic'
loop_
_space_group_symop_operation_xyz
x,y,z
-x,y,1/2-z
-x,-y,-z
x,-y,1/2+z
loop_
_atom_site_type_symbol
_atom_site_label
_atom_site_fract_x
_atom_site_fract_y
_atom_site_fract_z
Si Si1 0.798451 0.194538 0.450841
Si Si2 0.233254 0.876192 0.758317
Si Si3 0.288582 0.598824 0.842454
Si Si4 0.947248 0.494204 0.880847
Si Si5 0.500000 0.087104 0.750000
O O1 0.717727 0.139369 0.382477
O O2 0.853264 0.354615 0.413548
O O3 0.634603 0.178623 0.613271
O O4 0.997554 0.110332 0.385497
O O5 0.313787 0.744843 0.779280
O O6 0.351410 0.002972 0.749069
O O7 0.500000 0.526889 0.750000
O O8 0.149640 0.495793 0.847190
O O9 0.201156 0.611306 0.995789
O O10 0.000000 0.429259 0.750000
#
# Coordination Sequence:
#
# PCOD8118985 Si02
#       5
#     4   4   4   4   2
#     4  10  21  39  59  82 118 152 184 231 289 332
#     4  10  20  41  58  81 118 151 183 239 284 323
#     4  10  20  36  61  84 111 147 188 233 284 335
#     4  10  20  39  59  81 117 150 182 232 291 338
#     4  12  22  34  64  86 108 152 202 228 268 340
#
# _framework density 20.360136000000001
#
# number of rings (size 3 to 8) (size 9 to 14) (size 15 to 20)
#    0.000    1.778    5.556    1.333    1.556    0.889 
#    0.000    0.000    4.889    0.000    0.000    0.000 
#    0.000    0.000    0.000    0.000    0.000    0.000 
#
# Total GULP energy -223125.650931 kJ/mol
# GULP energy per Si atom -12395.869496 kJ/mol
# Density = 2.031380 g / cm^3
# Si number density = 20.360136 Si / 1000 Ang^3
#
#
#
# Elastic Constant Matrix: (Units=GPa)
#
#
# Indices 1 2 3 4 5 6 
#
# 1 105.2530 21.3550 72.0482 0.0000 1.1687 0.0000
# 2 21.3550 15.3446 10.4079 0.0000 -1.5189 0.0000
# 3 72.0482 10.4079 189.9704 0.0000 4.6735 0.0000
# 4 0.0000 0.0000 0.0000 19.2506 0.0000 15.6689
# 5 1.1687 -1.5189 4.6735 0.0000 34.3652 0.0000
# 6 0.0000 0.0000 0.0000 15.6689 0.0000 -20.9070
#
#
#
# Elastic Compliance Matrix: (Units=1/GPa)
#
#
# Indices 1 2 3 4 5 6 
#
# 1 0.017436 -0.020635 -0.005463 0.000000 -0.000762 0.000000
# 2 -0.020635 0.092531 0.002648 0.000000 0.004432 0.000000
# 3 -0.005463 0.002648 0.007208 0.000000 -0.000677 0.000000
# 4 0.000000 0.000000 0.000000 0.032265 0.000000 0.024181
# 5 -0.000762 0.004432 -0.000677 0.000000 0.029413 0.000000
# 6 0.000000 0.000000 0.000000 0.024181 0.000000 -0.029708
#
#
# Mechanical properties :
#
#
# Convention : Reuss Voigt Hill
#
# Bulk Modulus (GPa) = 14.23039 57.57668 35.90354
# Shear Modulus (GPa) = 22.78211 20.32555 21.55383
#
# Velocity S-wave (km/s) = 3.34871 3.16302 3.25719
# Velocity P-wave (km/s) = 4.68576 6.45601 5.64076
#
# Compressibility (1/GPa) = 0.07027212
#
# Stress axis : x y z
#
# Youngs Moduli (GPa) = 57.35249 10.80721 138.74110
#
# Poissons Ratio (x) = 0.22301 0.75801
# Poissons Ratio (y) = 1.18349 -0.36734
# Poissons Ratio (z) = 0.31334 -0.02861
#
# Static dielectric constant tensor:
#      x y z
#    x 3.916610 0.000000 0.036730 
#    y 0.000000 3.207260 0.000000 
#    z 0.036730 0.000000 4.023980 
# 
# 
# High freq. dielectric constant tensor:
#      x y z
#    x 1.810920 0.000000 0.002830 
#    y 0.000000 1.752200 0.000000 
#    z 0.002830 0.000000 1.810730 
# 
# From -- ./inp_files/28765.got.cif
#   From: 2010.06.25/outbox.cif.g09.slc.cpg/sg13_15_cif.got.tgz:28765.got - 2010.06.28 04:50:58.
