data_PCOD8118128
_publ_section_title
;
Structure prediction by ZEFSAII (Michael W. Deem and Ramdas Pophale) SiO2 
 PCOD8118128
Probable space group: P 2/C
;
_chemical_formula_sum "Si O2"
_cell_formula_units_Z 20
_cell_length_a 10.537019
_cell_length_b 12.332392
_cell_length_c 13.141095
_cell_angle_alpha 90.000000
_cell_angle_beta 145.884502
_cell_angle_gamma 90.000000
_cell_volume 957.752725
_symmetry_space_group_name_H-M "P 2/C"
_symmetry_group_IT_number 13
_symmetry_cell_setting 'monoclinic'
loop_
_space_group_symop_operation_xyz
x,y,z
-x,y,1/2-z
-x,-y,-z
x,-y,1/2+z
loop_
_atom_site_type_symbol
_atom_site_label
_atom_site_fract_x
_atom_site_fract_y
_atom_site_fract_z
Si Si1 0.326466 0.662506 0.542204
Si Si2 0.738816 0.696608 0.689514
Si Si3 0.000000 0.485316 0.250000
Si Si4 0.000000 0.135622 0.250000
Si Si5 0.746180 0.943342 0.390405
Si Si6 0.103595 0.827017 0.520225
O O1 0.500000 0.644449 0.750000
O O2 0.470786 0.681680 0.534194
O O3 0.169671 0.557823 0.429023
O O4 0.164619 0.768156 0.454118
O O5 0.850245 0.584344 0.728352
O O6 0.783852 0.788902 0.634717
O O7 0.864223 0.734070 0.874806
O O8 0.083695 0.063005 0.399719
O O9 0.500000 0.895947 0.250000
O O10 0.847927 0.873714 0.363239
O O11 0.728773 0.070405 0.349902
#
# Coordination Sequence:
#
# PCOD8118128 Si02
#       6
#     4   4   2   2   4   4
#     4  10  21  37  56  79 111 144 176 226 274 314
#     4   9  19  39  55  76 115 145 171 229 279 309
#     4  11  22  35  58  82 102 141 194 223 264 330
#     4   9  20  35  56  84 112 141 182 219 262 326
#     4  10  19  36  59  82 110 146 179 217 265 320
#     4   9  20  37  56  81 113 143 179 220 269 324
#
# _framework density 20.882218999999999
#
# number of rings (size 3 to 8) (size 9 to 14) (size 15 to 20)
#    0.000    2.400    0.000    2.400    0.000    5.600 
#    0.000   25.000    0.000    0.000    0.000    0.000 
#    0.000    0.000    0.000    0.000    0.000    0.000 
#
# Total GULP energy -247838.965061 kJ/mol
# GULP energy per Si atom -12391.948253 kJ/mol
# Density = 2.083469 g / cm^3
# Si number density = 20.882219 Si / 1000 Ang^3
#
#
#
# Elastic Constant Matrix: (Units=GPa)
#
#
# Indices 1 2 3 4 5 6 
#
# 1 162.1108 72.1430 37.6128 0.0000 42.1468 0.0000
# 2 72.1430 136.8688 35.4543 0.0000 18.0207 0.0000
# 3 37.6128 35.4543 64.6695 0.0000 15.9968 0.0000
# 4 0.0000 0.0000 0.0000 16.1259 0.0000 0.3309
# 5 42.1468 18.0207 15.9968 0.0000 35.7890 0.0000
# 6 0.0000 0.0000 0.0000 0.3309 0.0000 40.9669
#
#
#
# Elastic Compliance Matrix: (Units=1/GPa)
#
#
# Indices 1 2 3 4 5 6 
#
# 1 0.010990 -0.004021 -0.001672 0.000000 -0.010171 0.000000
# 2 -0.004021 0.010186 -0.003540 0.000000 0.001188 0.000000
# 3 -0.001672 -0.003540 0.019617 0.000000 -0.005017 0.000000
# 4 0.000000 0.000000 0.000000 0.062022 0.000000 -0.000501
# 5 -0.010171 0.001188 -0.005017 0.000000 0.041563 0.000000
# 6 0.000000 0.000000 0.000000 -0.000501 0.000000 0.024414
#
#
# Mechanical properties :
#
#
# Convention : Reuss Voigt Hill
#
# Bulk Modulus (GPa) = 44.78526 72.67437 58.72981
# Shear Modulus (GPa) = 25.68048 33.13896 29.40972
#
# Velocity S-wave (km/s) = 3.51062 3.98797 3.75689
# Velocity P-wave (km/s) = 6.15839 7.48885 6.85597
#
# Compressibility (1/GPa) = 0.02232878
#
# Stress axis : x y z
#
# Youngs Moduli (GPa) = 90.99163 98.17367 50.97524
#
# Poissons Ratio (x) = 0.39472 0.08522
# Poissons Ratio (y) = 0.36584 0.18044
# Poissons Ratio (z) = 0.15213 0.34752
#
# Static dielectric constant tensor:
#      x y z
#    x 4.481930 0.000000 0.348340 
#    y 0.000000 3.804510 0.000000 
#    z 0.348340 0.000000 3.226330 
# 
# 
# High freq. dielectric constant tensor:
#      x y z
#    x 1.844730 0.000000 0.023530 
#    y 0.000000 1.820590 0.000000 
#    z 0.023530 0.000000 1.768440 
# 
# From -- ./inp_files/28636.got.cif
#   From: 2010.06.25/outbox.cif.g09.slc.cpg/sg13_15_cif.got.tgz:28636.got - 2010.06.28 04:50:58.
