data_PCOD8118106
_publ_section_title
;
Structure prediction by ZEFSAII (Michael W. Deem and Ramdas Pophale) SiO2 
 PCOD8118106
Probable space group: P 2/C
;
_chemical_formula_sum "Si O2"
_cell_formula_units_Z 32
_cell_length_a 18.467205
_cell_length_b 11.175262
_cell_length_c 15.915062
_cell_angle_alpha 90.000000
_cell_angle_beta 29.874804
_cell_angle_gamma 90.000000
_cell_volume 1636.022991
_symmetry_space_group_name_H-M "P 2/C"
_symmetry_group_IT_number 13
_symmetry_cell_setting 'monoclinic'
loop_
_space_group_symop_operation_xyz
x,y,z
-x,y,1/2-z
-x,-y,-z
x,-y,1/2+z
loop_
_atom_site_type_symbol
_atom_site_label
_atom_site_fract_x
_atom_site_fract_y
_atom_site_fract_z
Si Si1 0.655973 0.161492 0.923292
Si Si2 0.668897 0.959477 0.581610
Si Si3 0.678080 0.189687 0.228870
Si Si4 0.847042 0.829918 0.860442
Si Si5 0.341064 0.464887 0.262631
Si Si6 0.846101 0.044261 0.184027
Si Si7 0.171293 0.559685 0.595624
Si Si8 0.678040 0.439304 0.900712
O O1 0.701740 0.298144 0.864162
O O2 0.736405 0.068447 0.780398
O O3 0.711138 0.118345 0.958367
O O4 0.484188 0.152678 0.080709
O O5 0.500000 0.981118 0.750000
O O6 0.728387 0.881873 0.597400
O O7 0.735723 0.090998 0.526097
O O8 0.695783 0.327172 0.188350
O O9 0.789852 0.157261 0.188690
O O10 0.858696 0.900104 0.762403
O O11 0.790837 0.694164 0.912308
O O12 0.000000 0.829609 0.750000
O O13 0.263939 0.534082 0.417430
O O14 0.281302 0.505894 0.231393
O O15 0.515715 0.480332 0.090797
O O16 0.000000 0.000000 0.000000
O O17 0.215823 0.478478 0.630494
O O18 0.000000 0.540549 0.750000
#
# Coordination Sequence:
#
# PCOD8118106 Si02
#       8
#     4   4   4   4   4   4   4   4
#     4   9  20  36  56  81 111 143 179 230 286 333
#     4   9  18  33  55  78 102 139 179 223 277 330
#     4  10  19  36  57  81 111 139 182 235 281 333
#     4  10  22  39  53  77 115 148 184 229 282 341
#     4  10  22  38  62  87 111 155 198 241 297 348
#     4  11  22  35  57  85 112 150 190 232 285 343
#     4  11  24  39  58  84 119 157 190 239 300 356
#     4  10  21  40  61  85 116 149 199 248 285 353
#
# _framework density 19.559626000000002
#
# number of rings (size 3 to 8) (size 9 to 14) (size 15 to 20)
#    0.000    2.000    0.000    3.000    0.000    7.500 
#    0.000    5.625    0.000    0.000    0.000    0.000 
#    0.000    0.000    0.000    0.000    0.000    0.000 
#
# Total GULP energy -396646.450779 kJ/mol
# GULP energy per Si atom -12395.201587 kJ/mol
# Density = 1.951511 g / cm^3
# Si number density = 19.559626 Si / 1000 Ang^3
#
#
#
# Elastic Constant Matrix: (Units=GPa)
#
#
# Indices 1 2 3 4 5 6 
#
# 1 86.7782 35.8651 23.5326 0.0000 3.3815 0.0000
# 2 35.8651 99.3685 39.7386 0.0000 4.9293 0.0000
# 3 23.5326 39.7386 72.9036 0.0000 15.0754 0.0000
# 4 0.0000 0.0000 0.0000 30.5684 0.0000 0.8731
# 5 3.3815 4.9293 15.0754 0.0000 19.8564 0.0000
# 6 0.0000 0.0000 0.0000 0.8731 0.0000 31.3423
#
#
#
# Elastic Compliance Matrix: (Units=1/GPa)
#
#
# Indices 1 2 3 4 5 6 
#
# 1 0.013824 -0.004081 -0.002326 0.000000 0.000425 0.000000
# 2 -0.004081 0.014181 -0.006914 0.000000 0.002424 0.000000
# 3 -0.002326 -0.006914 0.021114 0.000000 -0.013918 0.000000
# 4 0.000000 0.000000 0.000000 0.032740 0.000000 -0.000912
# 5 0.000425 0.002424 -0.013918 0.000000 0.060254 0.000000
# 6 0.000000 0.000000 0.000000 -0.000912 0.000000 0.031931
#
#
# Mechanical properties :
#
#
# Convention : Reuss Voigt Hill
#
# Bulk Modulus (GPa) = 44.48623 50.81365 47.64994
# Shear Modulus (GPa) = 24.01788 27.01436 25.51612
#
# Velocity S-wave (km/s) = 3.50799 3.72039 3.61575
# Velocity P-wave (km/s) = 6.26109 6.67010 6.46883
#
# Compressibility (1/GPa) = 0.02247886
#
# Stress axis : x y z
#
# Youngs Moduli (GPa) = 72.33642 70.51672 47.36152
#
# Poissons Ratio (x) = 0.28774 0.11016
# Poissons Ratio (y) = 0.29517 0.32745
# Poissons Ratio (z) = 0.16825 0.48754
#
# Static dielectric constant tensor:
#      x y z
#    x 3.717450 0.000000 0.162020 
#    y 0.000000 3.808320 0.000000 
#    z 0.162020 0.000000 3.679830 
# 
# 
# High freq. dielectric constant tensor:
#      x y z
#    x 1.769300 0.000000 0.003510 
#    y 0.000000 1.776730 0.000000 
#    z 0.003510 0.000000 1.753310 
# 
# From -- ./inp_files/47251.got.cif
#   From: 2010.06.25/outbox.cif.g09.slc.cpg/sg13_24_cif.got.tgz:47251.got - 2010.06.28 04:50:58.
