data_PCOD8118228
_publ_section_title
;
Structure prediction by ZEFSAII (Michael W. Deem and Ramdas Pophale) SiO2 
 PCOD8118228
Probable space group: P 2/C
;
_chemical_formula_sum "Si O2"
_cell_formula_units_Z 28
_cell_length_a 8.947831
_cell_length_b 12.877357
_cell_length_c 15.811861
_cell_angle_alpha 90.000000
_cell_angle_beta 129.130288
_cell_angle_gamma 90.000000
_cell_volume 1413.280981
_symmetry_space_group_name_H-M "P 2/C"
_symmetry_group_IT_number 13
_symmetry_cell_setting 'monoclinic'
loop_
_space_group_symop_operation_xyz
x,y,z
-x,y,1/2-z
-x,-y,-z
x,-y,1/2+z
loop_
_atom_site_type_symbol
_atom_site_label
_atom_site_fract_x
_atom_site_fract_y
_atom_site_fract_z
Si Si1 0.655052 0.921952 0.236658
Si Si2 0.016704 0.780931 0.392101
Si Si3 0.000000 0.617770 0.250000
Si Si4 0.245698 0.273671 0.126646
Si Si5 0.593339 0.566290 0.106283
Si Si6 0.613781 0.840947 0.684672
Si Si7 0.425648 0.799874 0.452858
Si Si8 0.500000 0.463348 0.250000
O O1 0.500000 0.887576 0.250000
O O2 0.567385 0.882937 0.118098
O O3 0.864384 0.875139 0.336136
O O4 0.671601 0.044808 0.234683
O O5 0.931941 0.687693 0.305631
O O6 0.053296 0.738649 0.501140
O O7 0.218553 0.813888 0.423094
O O8 0.181775 0.545934 0.333176
O O9 0.220168 0.233482 0.214570
O O10 0.406249 0.196726 0.144709
O O11 0.318357 0.392624 0.156315
O O12 0.540007 0.685986 0.072764
O O13 0.543216 0.534205 0.184094
O O14 0.500000 0.500000 0.000000
O O15 0.601786 0.827414 0.579218
#
# Coordination Sequence:
#
# PCOD8118228 Si02
#       8
#     4   4   2   4   4   4   4   2
#     4  12  21  34  56  91 117 148 203 247 295 344
#     4  10  19  37  60  80 116 166 189 236 296 362
#     4  10  20  40  56  88 120 160 196 250 304 370
#     4   9  18  38  59  84 121 154 201 236 300 354
#     4  11  21  38  64  94 116 163 207 247 308 364
#     4   9  18  36  56  85 112 162 194 234 292 358
#     4  10  21  38  61  80 124 154 198 241 299 360
#     4  10  20  36  66  94 116 156 208 252 296 366
#
# _framework density 19.812055000000001
#
# number of rings (size 3 to 8) (size 9 to 14) (size 15 to 20)
#    0.000    2.000    4.286    3.857    1.000    0.571 
#    0.000    4.286    0.000    0.000    3.714    0.000 
#    0.000    0.000    0.000    0.000    0.000    0.000 
#
# Total GULP energy -346934.546258 kJ/mol
# GULP energy per Si atom -12390.519509 kJ/mol
# Density = 1.976696 g / cm^3
# Si number density = 19.812055 Si / 1000 Ang^3
#
#
#
# Elastic Constant Matrix: (Units=GPa)
#
#
# Indices 1 2 3 4 5 6 
#
# 1 62.5838 45.3660 39.7883 0.0000 -7.4542 0.0000
# 2 45.3660 78.0461 34.7855 0.0000 6.4469 0.0000
# 3 39.7883 34.7855 157.3671 0.0000 -4.7840 0.0000
# 4 0.0000 0.0000 0.0000 30.5574 0.0000 -4.7009
# 5 -7.4542 6.4469 -4.7840 0.0000 24.7584 0.0000
# 6 0.0000 0.0000 0.0000 -4.7009 0.0000 27.6488
#
#
#
# Elastic Compliance Matrix: (Units=1/GPa)
#
#
# Indices 1 2 3 4 5 6 
#
# 1 0.034256 -0.019362 -0.003937 0.000000 0.014595 0.000000
# 2 -0.019362 0.025635 -0.001158 0.000000 -0.012729 0.000000
# 3 -0.003937 -0.001158 0.007624 0.000000 0.000589 0.000000
# 4 0.000000 0.000000 0.000000 0.033604 0.000000 0.005713
# 5 0.014595 -0.012729 0.000589 0.000000 0.048213 0.000000
# 6 0.000000 0.000000 0.000000 0.005713 0.000000 0.037139
#
#
# Mechanical properties :
#
#
# Convention : Reuss Voigt Hill
#
# Bulk Modulus (GPa) = 53.76578 59.76407 56.76492
# Shear Modulus (GPa) = 20.69648 28.46341 24.57994
#
# Velocity S-wave (km/s) = 3.23560 3.79446 3.52612
# Velocity P-wave (km/s) = 6.41526 7.03052 6.72993
#
# Compressibility (1/GPa) = 0.01859919
#
# Stress axis : x y z
#
# Youngs Moduli (GPa) = 29.19222 39.00866 131.16499
#
# Poissons Ratio (x) = 0.75530 0.51645
# Poissons Ratio (y) = 0.56523 0.15189
# Poissons Ratio (z) = 0.11494 0.04517
#
# Static dielectric constant tensor:
#      x y z
#    x 3.156570 0.000000 0.076560 
#    y 0.000000 3.703460 0.000000 
#    z 0.076560 0.000000 3.950890 
# 
# 
# High freq. dielectric constant tensor:
#      x y z
#    x 1.724090 0.000000 -0.011650 
#    y 0.000000 1.768760 0.000000 
#    z -0.011650 0.000000 1.806820 
# 
# From -- ./inp_files/47363.got.cif
#   From: 2010.06.25/outbox.cif.g09.slc.cpg/sg13_24_cif.got.tgz:47363.got - 2010.06.28 04:50:58.
