data_PCOD8118406
_publ_section_title
;
Structure prediction by ZEFSAII (Michael W. Deem and Ramdas Pophale) SiO2 
 PCOD8118406
Probable space group: P 2/C
;
_chemical_formula_sum "Si O2"
_cell_formula_units_Z 22
_cell_length_a 12.228105
_cell_length_b 11.877396
_cell_length_c 15.046356
_cell_angle_alpha 90.000000
_cell_angle_beta 150.778972
_cell_angle_gamma 90.000000
_cell_volume 1066.821373
_symmetry_space_group_name_H-M "P 2/C"
_symmetry_group_IT_number 13
_symmetry_cell_setting 'monoclinic'
loop_
_space_group_symop_operation_xyz
x,y,z
-x,y,1/2-z
-x,-y,-z
x,-y,1/2+z
loop_
_atom_site_type_symbol
_atom_site_label
_atom_site_fract_x
_atom_site_fract_y
_atom_site_fract_z
Si Si1 0.500000 0.932851 0.750000
Si Si2 0.464894 0.374386 0.942047
Si Si3 0.800040 0.681709 0.546282
Si Si4 0.083934 0.076177 0.399343
Si Si5 0.292596 0.798210 0.755033
Si Si6 0.944770 0.370625 0.955073
O O1 0.472968 0.860177 0.820742
O O2 0.268612 0.002730 0.581672
O O3 0.204305 0.348026 0.738686
O O4 0.500000 0.500000 0.000000
O O5 0.573219 0.372197 0.921011
O O6 0.573405 0.277391 0.079023
O O7 0.787197 0.815915 0.548016
O O8 0.821040 0.655683 0.458626
O O9 0.000000 0.632744 0.750000
O O10 0.000000 0.011351 0.250000
O O11 0.877145 0.113504 0.317298
O O12 0.157567 0.711167 0.596513
O O13 0.000000 0.500000 0.000000
#
# Coordination Sequence:
#
# PCOD8118406 Si02
#       6
#     2   4   4   4   4   4
#     4  12  28  42  68  96 136 178 218 288 340 368
#     4  12  22  40  67  97 132 174 211 270 334 390
#     4  10  19  39  64  93 128 166 223 267 307 405
#     4  10  22  43  69  93 127 175 231 271 325 397
#     4  11  25  45  61 101 136 166 230 271 326 408
#     4  11  22  39  66  95 131 171 216 264 332 396
#
# _framework density 20.62201
#
# number of rings (size 3 to 8) (size 9 to 14) (size 15 to 20)
#    0.000    1.091    7.273    1.091    5.091    3.636 
#    0.000    1.818    0.000    0.000    0.000    0.000 
#    0.000    0.000    0.000    0.000    0.000    0.000 
#
# Total GULP energy -272622.909782 kJ/mol
# GULP energy per Si atom -12391.950445 kJ/mol
# Density = 2.057507 g / cm^3
# Si number density = 20.622010 Si / 1000 Ang^3
#
#
#
# Elastic Constant Matrix: (Units=GPa)
#
#
# Indices 1 2 3 4 5 6 
#
# 1 87.1596 41.8448 20.8013 0.0000 3.3672 0.0000
# 2 41.8448 79.0419 45.7336 0.0000 2.3145 0.0000
# 3 20.8013 45.7336 152.6543 0.0000 -13.8944 0.0000
# 4 0.0000 0.0000 0.0000 31.8730 0.0000 0.8672
# 5 3.3672 2.3145 -13.8944 0.0000 26.5826 0.0000
# 6 0.0000 0.0000 0.0000 0.8672 0.0000 20.9081
#
#
#
# Elastic Compliance Matrix: (Units=1/GPa)
#
#
# Indices 1 2 3 4 5 6 
#
# 1 0.015434 -0.008305 0.000286 0.000000 -0.001082 0.000000
# 2 -0.008305 0.020171 -0.005224 0.000000 -0.003435 0.000000
# 3 0.000286 -0.005224 0.008520 0.000000 0.004872 0.000000
# 4 0.000000 0.000000 0.000000 0.031410 0.000000 -0.001303
# 5 -0.001082 -0.003435 0.004872 0.000000 0.040601 0.000000
# 6 0.000000 0.000000 0.000000 -0.001303 0.000000 0.047882
#
#
# Mechanical properties :
#
#
# Convention : Reuss Voigt Hill
#
# Bulk Modulus (GPa) = 56.68762 59.51280 58.10021
# Shear Modulus (GPa) = 25.46036 29.90447 27.68242
#
# Velocity S-wave (km/s) = 3.51753 3.81218 3.66781
# Velocity P-wave (km/s) = 6.63671 6.94971 6.79501
#
# Compressibility (1/GPa) = 0.01764053
#
# Stress axis : x y z
#
# Youngs Moduli (GPa) = 64.79350 49.57557 117.36752
#
# Poissons Ratio (x) = 0.41171 -0.03362
# Poissons Ratio (y) = 0.53808 0.61314
# Poissons Ratio (z) = -0.01856 0.25899
#
# Static dielectric constant tensor:
#      x y z
#    x 3.613520 0.000000 -0.047990 
#    y 0.000000 3.547600 0.000000 
#    z -0.047990 0.000000 4.031040 
# 
# 
# High freq. dielectric constant tensor:
#      x y z
#    x 1.797850 0.000000 -0.009930 
#    y 0.000000 1.795450 0.000000 
#    z -0.009930 0.000000 1.820450 
# 
# From -- ./inp_files/51272.got.cif
#   From: 2010.06.25/outbox.cif.g09.slc.cpg/sg13_26_cif.got.tgz:51272.got - 2010.06.28 04:50:58.
