data_PCOD8118270
_publ_section_title
;
Structure prediction by ZEFSAII (Michael W. Deem and Ramdas Pophale) SiO2 
 PCOD8118270
Probable space group: P 2/C
;
_chemical_formula_sum "Si O2"
_cell_formula_units_Z 32
_cell_length_a 12.482257
_cell_length_b 21.073636
_cell_length_c 18.178912
_cell_angle_alpha 90.000000
_cell_angle_beta 19.592006
_cell_angle_gamma 90.000000
_cell_volume 1603.467296
_symmetry_space_group_name_H-M "P 2/C"
_symmetry_group_IT_number 13
_symmetry_cell_setting 'monoclinic'
loop_
_space_group_symop_operation_xyz
x,y,z
-x,y,1/2-z
-x,-y,-z
x,-y,1/2+z
loop_
_atom_site_type_symbol
_atom_site_label
_atom_site_fract_x
_atom_site_fract_y
_atom_site_fract_z
Si Si1 0.632252 0.448351 0.472853
Si Si2 0.643037 0.374970 0.967391
Si Si3 0.127976 0.151916 0.838445
Si Si4 0.311800 0.228607 0.587183
Si Si5 0.752316 0.935561 0.476471
Si Si6 0.752133 0.079329 0.476138
Si Si7 0.830895 0.855156 0.681172
Si Si8 0.350272 0.471118 0.268612
O O1 0.500000 0.500000 0.500000
O O2 0.477760 0.384917 0.538788
O O3 0.523485 0.467259 0.624161
O O4 0.000000 0.438920 0.250000
O O5 0.657747 0.299821 0.962548
O O6 0.000000 0.403919 0.750000
O O7 0.401400 0.409011 0.182413
O O8 0.253921 0.214026 0.711477
O O9 0.413181 0.102999 0.666869
O O10 0.856258 0.112126 0.972983
O O11 0.964143 0.175558 0.019595
O O12 0.640036 0.197867 0.349233
O O13 0.000000 0.197602 0.750000
O O14 0.397989 0.915828 0.680383
O O15 0.000000 0.931220 0.250000
O O16 0.725641 0.007423 0.522346
O O17 0.000000 0.084678 0.250000
O O18 0.860352 0.123327 0.473252
O O19 0.500000 0.452557 0.250000
O O20 0.000000 0.500000 0.500000
#
# Coordination Sequence:
#
# PCOD8118270 Si02
#       8
#     4   4   4   4   4   4   4   4
#     4  10  19  37  63  90 124 167 199 234 299 362
#     4  10  22  42  64  89 126 176 214 245 302 372
#     4  12  23  40  64  89 121 166 210 266 330 382
#     4  11  23  45  64  88 124 171 222 260 306 376
#     4  11  21  39  64  91 123 160 212 266 337 398
#     4  11  23  39  63  89 124 164 206 274 338 397
#     4  12  23  40  63  90 123 162 214 268 329 383
#     4  11  20  35  63 100 134 153 194 255 303 347
#
# _framework density 19.956752999999999
#
# number of rings (size 3 to 8) (size 9 to 14) (size 15 to 20)
#    0.000    1.000    3.750    5.250    0.000    5.000 
#    9.000    0.000    0.000    0.000    0.000    0.000 
#    0.000    0.000    0.000    0.000    0.000    0.000 
#
# Total GULP energy -396522.200918 kJ/mol
# GULP energy per Si atom -12391.318779 kJ/mol
# Density = 1.991133 g / cm^3
# Si number density = 19.956753 Si / 1000 Ang^3
#
#
#
# Elastic Constant Matrix: (Units=GPa)
#
#
# Indices 1 2 3 4 5 6 
#
# 1 97.9455 34.8067 23.3467 0.0000 6.4506 0.0000
# 2 34.8067 80.7777 34.0174 0.0000 3.8703 0.0000
# 3 23.3467 34.0174 94.7754 0.0000 6.6700 0.0000
# 4 0.0000 0.0000 0.0000 17.4767 0.0000 -9.0099
# 5 6.4506 3.8703 6.6700 0.0000 47.8675 0.0000
# 6 0.0000 0.0000 0.0000 -9.0099 0.0000 32.5051
#
#
#
# Elastic Compliance Matrix: (Units=1/GPa)
#
#
# Indices 1 2 3 4 5 6 
#
# 1 0.012250 -0.004698 -0.001254 0.000000 -0.001096 0.000000
# 2 -0.004698 0.016395 -0.004725 0.000000 -0.000034 0.000000
# 3 -0.001254 -0.004725 0.012641 0.000000 -0.001210 0.000000
# 4 0.000000 0.000000 0.000000 0.066759 0.000000 0.018504
# 5 -0.001096 -0.000034 -0.001210 0.000000 0.021210 0.000000
# 6 0.000000 0.000000 0.000000 0.018504 0.000000 0.035893
#
#
# Mechanical properties :
#
#
# Convention : Reuss Voigt Hill
#
# Bulk Modulus (GPa) = 50.16917 50.87113 50.52015
# Shear Modulus (GPa) = 25.88681 31.65838 28.77259
#
# Velocity S-wave (km/s) = 3.60550 3.98722 3.80115
# Velocity P-wave (km/s) = 6.52122 6.83690 6.68093
#
# Compressibility (1/GPa) = 0.01993256
#
# Stress axis : x y z
#
# Youngs Moduli (GPa) = 81.62979 60.99267 79.10506
#
# Poissons Ratio (x) = 0.28653 0.09923
# Poissons Ratio (y) = 0.38349 0.37378
# Poissons Ratio (z) = 0.10240 0.28820
#
# Static dielectric constant tensor:
#      x y z
#    x 4.076580 0.000000 -0.138620 
#    y 0.000000 3.584190 0.000000 
#    z -0.138620 0.000000 3.720020 
# 
# 
# High freq. dielectric constant tensor:
#      x y z
#    x 1.786670 0.000000 -0.004280 
#    y 0.000000 1.755840 0.000000 
#    z -0.004280 0.000000 1.790600 
# 
# From -- ./inp_files/67021.got.cif
#   From: 2010.06.25/outbox.cif.g09.slc.cpg/sg13_34_cif.got.tgz:67021.got - 2010.06.28 04:50:58.
