data_PCOD8118428
_publ_section_title
;
Structure prediction by ZEFSAII (Michael W. Deem and Ramdas Pophale) SiO2 
 PCOD8118428
Probable space group: P 2/C
;
_chemical_formula_sum "Si O2"
_cell_formula_units_Z 26
_cell_length_a 14.763556
_cell_length_b 9.326479
_cell_length_c 14.279033
_cell_angle_alpha 90.000000
_cell_angle_beta 139.824447
_cell_angle_gamma 90.000000
_cell_volume 1268.399008
_symmetry_space_group_name_H-M "P 2/C"
_symmetry_group_IT_number 13
_symmetry_cell_setting 'monoclinic'
loop_
_space_group_symop_operation_xyz
x,y,z
-x,y,1/2-z
-x,-y,-z
x,-y,1/2+z
loop_
_atom_site_type_symbol
_atom_site_label
_atom_site_fract_x
_atom_site_fract_y
_atom_site_fract_z
Si Si1 0.500000 0.507147 0.750000
Si Si2 0.500279 0.141743 0.441932
Si Si3 0.000000 0.593888 0.250000
Si Si4 0.733954 0.682188 0.646388
Si Si5 0.702135 0.264793 0.900860
Si Si6 0.975897 0.608774 0.565437
Si Si7 0.301453 0.369649 0.936120
Si Si8 0.500000 0.009799 0.750000
O O1 0.608120 0.395876 0.785759
O O2 0.410419 0.606415 0.608701
O O3 0.361815 0.231649 0.356893
O O4 0.634130 0.240853 0.574412
O O5 0.519976 0.099195 0.350283
O O6 0.500000 0.000000 0.500000
O O7 0.062731 0.492264 0.378828
O O8 0.140865 0.681867 0.333819
O O9 0.719250 0.728062 0.527137
O O10 0.704246 0.512113 0.631273
O O11 0.890162 0.708337 0.808254
O O12 0.632696 0.110188 0.827782
O O13 0.846741 0.278808 0.956317
O O14 0.000000 0.500000 0.500000
#
# Coordination Sequence:
#
# PCOD8118428 Si02
#       8
#     2   4   2   4   4   4   4   2
#     4   9  17  32  66  94 116 160 210 268 316 378
#     4  12  25  41  60  94 127 176 223 265 333 391
#     4  10  20  42  56  96 134 158 208 268 336 378
#     4  10  21  42  67  90 129 171 220 274 329 394
#     4  10  19  40  62  93 129 169 213 269 332 389
#     4  11  21  35  66  99 129 165 214 274 333 392
#     4  10  21  38  68  93 129 166 214 279 320 389
#     4  11  25  40  64  90 134 172 222 282 316 408
#
# _framework density 20.498280999999999
#
# number of rings (size 3 to 8) (size 9 to 14) (size 15 to 20)
#    0.000    1.538    6.154    0.923    2.154    3.692 
#    0.000    2.308    0.000    0.000    0.000    0.000 
#    0.000    0.000    0.000    0.000    0.000    0.000 
#
# Total GULP energy -322135.087916 kJ/mol
# GULP energy per Si atom -12389.811074 kJ/mol
# Density = 2.045163 g / cm^3
# Si number density = 20.498281 Si / 1000 Ang^3
#
#
#
# Elastic Constant Matrix: (Units=GPa)
#
#
# Indices 1 2 3 4 5 6 
#
# 1 101.9324 49.7929 30.7242 0.0000 33.2660 0.0000
# 2 49.7929 98.5360 25.8077 0.0000 24.6224 0.0000
# 3 30.7242 25.8077 85.3890 0.0000 35.9559 0.0000
# 4 0.0000 0.0000 0.0000 -9.9174 0.0000 -35.4443
# 5 33.2660 24.6224 35.9559 0.0000 50.3049 0.0000
# 6 0.0000 0.0000 0.0000 -35.4443 0.0000 -14.8332
#
#
#
# Elastic Compliance Matrix: (Units=1/GPa)
#
#
# Indices 1 2 3 4 5 6 
#
# 1 0.014991 -0.005717 -0.000958 0.000000 -0.006430 0.000000
# 2 -0.005717 0.013896 -0.001246 0.000000 -0.002131 0.000000
# 3 -0.000958 -0.001246 0.017036 0.000000 -0.010933 0.000000
# 4 0.000000 0.000000 0.000000 0.013373 0.000000 -0.031955
# 5 -0.006430 -0.002131 -0.010933 0.000000 0.032988 0.000000
# 6 0.000000 0.000000 0.000000 -0.031955 0.000000 0.008941
#
#
# Mechanical properties :
#
#
# Convention : Reuss Voigt Hill
#
# Bulk Modulus (GPa) = 33.24448 55.38967 44.31707
# Shear Modulus (GPa) = 39.34057 17.07970 28.21013
#
# Velocity S-wave (km/s) = 4.38564 2.88970 3.71377
# Velocity P-wave (km/s) = 6.47290 6.18175 6.32900
#
# Compressibility (1/GPa) = 0.03008018
#
# Stress axis : x y z
#
# Youngs Moduli (GPa) = 66.70879 71.96102 58.69816
#
# Poissons Ratio (x) = 0.41144 0.05626
# Poissons Ratio (y) = 0.38141 0.07312
# Poissons Ratio (z) = 0.06393 0.08964
#
# Static dielectric constant tensor:
#      x y z
#    x 3.599270 0.000000 0.285520 
#    y 0.000000 3.579170 0.000000 
#    z 0.285520 0.000000 3.880710 
# 
# 
# High freq. dielectric constant tensor:
#      x y z
#    x 1.803030 0.000000 0.012490 
#    y 0.000000 1.778490 0.000000 
#    z 0.012490 0.000000 1.805110 
# 
# From -- ./inp_files/52961.got.cif
#   From: 2010.06.25/outbox.cif.g09.slc.cpg/sg13_27_cif.got.tgz:52961.got - 2010.06.28 04:50:58.
