data_PCOD8118523
_publ_section_title
;
Structure prediction by ZEFSAII (Michael W. Deem and Ramdas Pophale) SiO2 
 PCOD8118523
Probable space group: P 2/C
;
_chemical_formula_sum "Si O2"
_cell_formula_units_Z 30
_cell_length_a 11.632712
_cell_length_b 10.841340
_cell_length_c 10.942450
_cell_angle_alpha 90.000000
_cell_angle_beta 75.450548
_cell_angle_gamma 90.000000
_cell_volume 1335.743256
_symmetry_space_group_name_H-M "P 2/C"
_symmetry_group_IT_number 13
_symmetry_cell_setting 'monoclinic'
loop_
_space_group_symop_operation_xyz
x,y,z
-x,y,1/2-z
-x,-y,-z
x,-y,1/2+z
loop_
_atom_site_type_symbol
_atom_site_label
_atom_site_fract_x
_atom_site_fract_y
_atom_site_fract_z
Si Si1 0.968187 0.808171 0.437221
Si Si2 0.088784 0.940515 0.624117
Si Si3 0.405239 0.662461 0.677606
Si Si4 0.364490 0.603912 0.123345
Si Si5 0.500000 0.794881 0.250000
Si Si6 0.682722 0.186684 0.511807
Si Si7 0.225102 0.632315 0.922381
Si Si8 0.169541 0.373013 0.868459
O O1 0.856126 0.748585 0.530993
O O2 0.046321 0.890090 0.506545
O O3 0.049787 0.698960 0.360364
O O4 0.918564 0.910382 0.355463
O O5 0.229619 0.906482 0.585412
O O6 0.000000 0.880963 0.750000
O O7 0.500000 0.709712 0.750000
O O8 0.434908 0.524820 0.620923
O O9 0.405546 0.756868 0.565299
O O10 0.276509 0.658114 0.774772
O O11 0.443518 0.711395 0.159139
O O12 0.237721 0.604663 0.224479
O O13 0.335502 0.625073 0.988241
O O14 0.399483 0.872388 0.354673
O O15 0.757022 0.297183 0.551252
O O16 0.147789 0.505696 0.939055
#
# Coordination Sequence:
#
# PCOD8118523 Si02
#       8
#     4   4   4   4   2   4   4   4
#     4  10  22  39  60  87 117 157 203 250 304 360
#     4  10  22  41  64  86 114 162 209 255 297 356
#     4  11  21  34  58  85 126 164 196 243 302 370
#     4  10  20  32  55  90 124 160 198 240 303 373
#     4  10  20  36  60  86 124 162 202 258 300 362
#     4  10  20  38  60  89 122 158 206 250 303 353
#     4  11  21  34  56  91 125 158 192 247 305 367
#     4   9  20  35  55  90 124 156 193 243 303 370
#
# _framework density 22.459405
#
# number of rings (size 3 to 8) (size 9 to 14) (size 15 to 20)
#    0.000    1.867    2.000    2.000    1.867    1.067 
#    0.000    0.000    1.467    1.600    0.000    0.000 
#    0.000    0.000    0.000    0.000    0.000    0.000 
#
# Total GULP energy -371720.858015 kJ/mol
# GULP energy per Si atom -12390.695267 kJ/mol
# Density = 2.240829 g / cm^3
# Si number density = 22.459405 Si / 1000 Ang^3
#
#
#
# Elastic Constant Matrix: (Units=GPa)
#
#
# Indices 1 2 3 4 5 6 
#
# 1 76.8777 26.7105 32.9826 0.0000 -19.2925 0.0000
# 2 26.7105 69.7048 27.1117 0.0000 -12.0846 0.0000
# 3 32.9826 27.1117 107.0135 0.0000 -22.5903 0.0000
# 4 0.0000 0.0000 0.0000 19.6566 0.0000 -8.8836
# 5 -19.2925 -12.0846 -22.5903 0.0000 38.3210 0.0000
# 6 0.0000 0.0000 0.0000 -8.8836 0.0000 70.6051
#
#
#
# Elastic Compliance Matrix: (Units=1/GPa)
#
#
# Indices 1 2 3 4 5 6 
#
# 1 0.017236 -0.004479 -0.003020 0.000000 0.005485 0.000000
# 2 -0.004479 0.017390 -0.002677 0.000000 0.001651 0.000000
# 3 -0.003020 -0.002677 0.011940 0.000000 0.004674 0.000000
# 4 0.000000 0.000000 0.000000 0.053941 0.000000 0.006787
# 5 0.005485 0.001651 0.004674 0.000000 0.032133 0.000000
# 6 0.000000 0.000000 0.000000 0.006787 0.000000 0.015017
#
#
# Mechanical properties :
#
#
# Convention : Reuss Voigt Hill
#
# Bulk Modulus (GPa) = 38.14636 47.46730 42.80683
# Shear Modulus (GPa) = 28.28914 36.83594 32.56254
#
# Velocity S-wave (km/s) = 3.55289 4.05422 3.81181
# Velocity P-wave (km/s) = 5.81826 6.56477 6.20276
#
# Compressibility (1/GPa) = 0.02621482
#
# Stress axis : x y z
#
# Youngs Moduli (GPa) = 58.01860 57.50431 83.75085
#
# Poissons Ratio (x) = 0.25758 0.25290
# Poissons Ratio (y) = 0.25989 0.22417
# Poissons Ratio (z) = 0.17519 0.15392
#
# Static dielectric constant tensor:
#      x y z
#    x 4.034140 0.000000 -0.228610 
#    y 0.000000 3.939220 0.000000 
#    z -0.228610 0.000000 4.119630 
# 
# 
# High freq. dielectric constant tensor:
#      x y z
#    x 1.880530 0.000000 -0.015110 
#    y 0.000000 1.850260 0.000000 
#    z -0.015110 0.000000 1.898960 
# 
# From -- ./inp_files/33826.got.cif
#   From: 2010.06.25/outbox.cif.g09.slc.cpg/sg13_17_cif.got.tgz:33826.got - 2010.06.28 04:50:58.
