data_PCOD8118337
_publ_section_title
;
Structure prediction by ZEFSAII (Michael W. Deem and Ramdas Pophale) SiO2 
 PCOD8118337
Probable space group: P 2/C
;
_chemical_formula_sum "Si O2"
_cell_formula_units_Z 28
_cell_length_a 23.334168
_cell_length_b 8.768433
_cell_length_c 21.118067
_cell_angle_alpha 90.000000
_cell_angle_beta 160.972033
_cell_angle_gamma 90.000000
_cell_volume 1408.722834
_symmetry_space_group_name_H-M "P 2/C"
_symmetry_group_IT_number 13
_symmetry_cell_setting 'monoclinic'
loop_
_space_group_symop_operation_xyz
x,y,z
-x,y,1/2-z
-x,-y,-z
x,-y,1/2+z
loop_
_atom_site_type_symbol
_atom_site_label
_atom_site_fract_x
_atom_site_fract_y
_atom_site_fract_z
Si Si1 0.325515 0.170851 0.959679
Si Si2 0.441615 0.920994 0.254842
Si Si3 0.831354 0.843992 0.331750
Si Si4 0.342996 0.643993 0.729149
Si Si5 0.202717 0.798160 0.467089
Si Si6 0.219470 0.189808 0.219381
Si Si7 0.429496 0.300930 0.850089
O O1 0.168749 0.168895 0.745068
O O2 0.273444 0.250587 0.971612
O O3 0.483396 0.255929 0.090460
O O4 0.383529 0.996915 0.032794
O O5 0.500000 0.841498 0.250000
O O6 0.364593 0.795978 0.221839
O O7 0.297696 0.051448 0.092290
O O8 0.701491 0.724164 0.228284
O O9 0.031648 0.802290 0.560009
O O10 0.760602 0.011335 0.278967
O O11 0.238611 0.659000 0.553287
O O12 0.219032 0.706801 0.655787
O O13 0.411776 0.475189 0.812742
O O14 0.000000 0.837618 0.250000
O O15 0.371983 0.253901 0.424436
#
# Coordination Sequence:
#
# PCOD8118337 Si02
#       7
#     4   4   4   4   4   4   4
#     4  10  19  38  62  86 115 162 208 249 302 358
#     4   9  20  38  63  85 115 159 206 257 307 350
#     4  11  22  38  67  92 119 160 211 260 300 353
#     4  11  23  39  61  88 126 170 200 241 317 378
#     4  10  21  40  63  89 117 157 214 256 296 367
#     4  11  23  39  62  95 122 162 209 250 307 362
#     4  12  23  41  61  90 133 159 197 256 310 373
#
# _framework density 19.876159999999999
#
# number of rings (size 3 to 8) (size 9 to 14) (size 15 to 20)
#    0.000    1.429    2.857    4.714    0.000    2.857 
#    2.571    0.714    0.000    0.000    0.000    0.000 
#    0.000    0.000    0.000    0.000    0.000    0.000 
#
# Total GULP energy -347114.841546 kJ/mol
# GULP energy per Si atom -12396.958627 kJ/mol
# Density = 1.983092 g / cm^3
# Si number density = 19.876160 Si / 1000 Ang^3
#
#
#
# Elastic Constant Matrix: (Units=GPa)
#
#
# Indices 1 2 3 4 5 6 
#
# 1 108.7272 46.9389 40.1162 0.0000 -12.4665 0.0000
# 2 46.9389 84.2135 25.9171 0.0000 -8.5151 0.0000
# 3 40.1162 25.9171 103.9143 0.0000 1.6928 0.0000
# 4 0.0000 0.0000 0.0000 18.4073 0.0000 -3.8689
# 5 -12.4665 -8.5151 1.6928 0.0000 26.7512 0.0000
# 6 0.0000 0.0000 0.0000 -3.8689 0.0000 16.6664
#
#
#
# Elastic Compliance Matrix: (Units=1/GPa)
#
#
# Indices 1 2 3 4 5 6 
#
# 1 0.013768 -0.005994 -0.003898 0.000000 0.004755 0.000000
# 2 -0.005994 0.015985 -0.001712 0.000000 0.002403 0.000000
# 3 -0.003898 -0.001712 0.011606 0.000000 -0.003096 0.000000
# 4 0.000000 0.000000 0.000000 0.057113 0.000000 0.013258
# 5 0.004755 0.002403 -0.003096 0.000000 0.040558 0.000000
# 6 0.000000 0.000000 0.000000 0.013258 0.000000 0.063079
#
#
# Mechanical properties :
#
#
# Convention : Reuss Voigt Hill
#
# Bulk Modulus (GPa) = 55.09134 58.08882 56.59008
# Shear Modulus (GPa) = 21.61072 24.62384 23.11728
#
# Velocity S-wave (km/s) = 3.30095 3.52357 3.41407
# Velocity P-wave (km/s) = 6.50429 6.77073 6.63885
#
# Compressibility (1/GPa) = 0.01815167
#
# Stress axis : x y z
#
# Youngs Moduli (GPa) = 72.63079 62.55735 86.16586
#
# Poissons Ratio (x) = 0.37496 0.33586
# Poissons Ratio (y) = 0.43533 0.14753
# Poissons Ratio (z) = 0.28310 0.10711
#
# Static dielectric constant tensor:
#      x y z
#    x 3.815020 0.000000 -0.193860 
#    y 0.000000 3.374020 0.000000 
#    z -0.193860 0.000000 3.682600 
# 
# 
# High freq. dielectric constant tensor:
#      x y z
#    x 1.785270 0.000000 -0.007330 
#    y 0.000000 1.748090 0.000000 
#    z -0.007330 0.000000 1.777410 
# 
# From -- ./inp_files/82232.got.cif
#   From: 2010.06.25/outbox.cif.g09.slc.cpg/sg13_42_cif.got.tgz:82232.got - 2010.06.28 04:50:58.
