data_PCOD8118496
_publ_section_title
;
Structure prediction by ZEFSAII (Michael W. Deem and Ramdas Pophale) SiO2 
 PCOD8118496
Probable space group: P 2/C
;
_chemical_formula_sum "Si O2"
_cell_formula_units_Z 32
_cell_length_a 9.130900
_cell_length_b 9.760886
_cell_length_c 22.612810
_cell_angle_alpha 90.000000
_cell_angle_beta 66.184531
_cell_angle_gamma 90.000000
_cell_volume 1843.773537
_symmetry_space_group_name_H-M "P 2/C"
_symmetry_group_IT_number 13
_symmetry_cell_setting 'monoclinic'
loop_
_space_group_symop_operation_xyz
x,y,z
-x,y,1/2-z
-x,-y,-z
x,-y,1/2+z
loop_
_atom_site_type_symbol
_atom_site_label
_atom_site_fract_x
_atom_site_fract_y
_atom_site_fract_z
Si Si1 0.976827 0.080263 0.687990
Si Si2 0.387657 0.895586 0.441884
Si Si3 0.224425 0.384938 0.949286
Si Si4 0.351244 0.594956 0.308763
Si Si5 0.647196 0.919743 0.187992
Si Si6 0.968772 0.405054 0.691236
Si Si7 0.271431 0.895579 0.058116
Si Si8 0.877000 0.615052 0.449285
O O1 0.815395 0.018797 0.684608
O O2 0.958391 0.242152 0.696854
O O3 0.000000 0.016886 0.750000
O O4 0.128814 0.044716 0.622062
O O5 0.293117 0.753637 0.465688
O O6 0.372932 0.955284 0.377938
O O7 0.574269 0.872682 0.425727
O O8 0.306158 0.000009 0.499998
O O9 0.345914 0.442076 0.879150
O O10 0.051244 0.353437 0.948752
O O11 0.218545 0.499998 0.999999
O O12 0.500000 0.528847 0.250000
O O13 0.352096 0.757856 0.303137
O O14 0.198002 0.530461 0.302000
O O15 0.500000 0.983125 0.250000
O O16 0.000000 0.471159 0.750000
O O17 0.104211 0.442100 0.620850
O O18 0.224503 0.753623 0.034317
#
# Coordination Sequence:
#
# PCOD8118496 Si02
#       8
#     4   4   4   4   4   4   4   4
#     4   9  16  27  45  68  93 121 155 196 239 280
#     4  10  20  32  47  70  99 128 160 198 237 281
#     4   9  18  32  49  69  93 122 158 197 237 283
#     4   8  14  24  40  63  88 113 143 183 227 269
#     4   9  16  27  45  68  93 121 155 196 239 280
#     4   8  14  24  40  63  88 113 143 183 227 269
#     4  10  20  32  47  70  99 128 160 198 237 281
#     4   9  18  32  49  69  93 122 158 197 237 283
#
# _framework density 17.355709999999998
#
# number of rings (size 3 to 8) (size 9 to 14) (size 15 to 20)
#    0.000    3.000    0.000    3.000    0.000    8.500 
#    0.000    0.000    0.000    1.500    0.000    7.000 
#    0.000    0.000    0.000    0.000    0.000    0.000 
#
# Total GULP energy -396609.914771 kJ/mol
# GULP energy per Si atom -12394.059837 kJ/mol
# Density = 1.731621 g / cm^3
# Si number density = 17.355710 Si / 1000 Ang^3
#
#
#
# Elastic Constant Matrix: (Units=GPa)
#
#
# Indices 1 2 3 4 5 6 
#
# 1 113.2379 38.5219 75.3496 0.0000 2.1301 0.0000
# 2 38.5219 43.4237 52.7693 0.0000 1.0442 0.0000
# 3 75.3496 52.7693 156.8514 0.0000 1.0636 0.0000
# 4 0.0000 0.0000 0.0000 21.7216 0.0000 0.9732
# 5 2.1301 1.0442 1.0636 0.0000 33.3988 0.0000
# 6 0.0000 0.0000 0.0000 0.9732 0.0000 8.4470
#
#
#
# Elastic Compliance Matrix: (Units=1/GPa)
#
#
# Indices 1 2 3 4 5 6 
#
# 1 0.014238 -0.007291 -0.004383 0.000000 -0.000541 0.000000
# 2 -0.007291 0.042711 -0.010863 0.000000 -0.000524 0.000000
# 3 -0.004383 -0.010863 0.012134 0.000000 0.000233 0.000000
# 4 0.000000 0.000000 0.000000 0.046276 0.000000 -0.005331
# 5 -0.000541 -0.000524 0.000233 0.000000 0.029985 0.000000
# 6 0.000000 0.000000 0.000000 -0.005331 0.000000 0.118999
#
#
# Mechanical properties :
#
#
# Convention : Reuss Voigt Hill
#
# Bulk Modulus (GPa) = 41.65272 71.86609 56.75941
# Shear Modulus (GPa) = 15.75201 22.50497 19.12849
#
# Velocity S-wave (km/s) = 3.01590 3.60486 3.32346
# Velocity P-wave (km/s) = 6.01491 7.66970 6.89215
#
# Compressibility (1/GPa) = 0.02400803
#
# Stress axis : x y z
#
# Youngs Moduli (GPa) = 70.23378 23.41342 82.41287
#
# Poissons Ratio (x) = 0.17072 0.36123
# Poissons Ratio (y) = 0.51211 0.89523
# Poissons Ratio (z) = 0.30784 0.25433
#
# Static dielectric constant tensor:
#      x y z
#    x 3.484560 0.000000 0.006430 
#    y 0.000000 2.645620 0.000000 
#    z 0.006430 0.000000 3.572820 
# 
# 
# High freq. dielectric constant tensor:
#      x y z
#    x 1.679060 0.000000 0.000840 
#    y 0.000000 1.601640 0.000000 
#    z 0.000840 0.000000 1.690580 
# 
# From -- ./inp_files/85054.got.cif
#   From: 2010.06.25/outbox.cif.g09.slc.cpg/sg13_43_cif.got.tgz:85054.got - 2010.06.28 04:50:58.
