data_PCOD8118671
_publ_section_title
;
Structure prediction by ZEFSAII (Michael W. Deem and Ramdas Pophale) SiO2 
 PCOD8118671
Probable space group: P 2/C
;
_chemical_formula_sum "Si O2"
_cell_formula_units_Z 28
_cell_length_a 8.679507
_cell_length_b 7.881136
_cell_length_c 29.722613
_cell_angle_alpha 90.000000
_cell_angle_beta 41.597540
_cell_angle_gamma 90.000000
_cell_volume 1349.800793
_symmetry_space_group_name_H-M "P 2/C"
_symmetry_group_IT_number 13
_symmetry_cell_setting 'monoclinic'
loop_
_space_group_symop_operation_xyz
x,y,z
-x,y,1/2-z
-x,-y,-z
x,-y,1/2+z
loop_
_atom_site_type_symbol
_atom_site_label
_atom_site_fract_x
_atom_site_fract_y
_atom_site_fract_z
Si Si1 0.385295 0.831838 0.197158
Si Si2 0.367649 0.772797 0.606987
Si Si3 0.500000 0.403198 0.750000
Si Si4 0.000000 0.070691 0.250000
Si Si5 0.315090 0.638454 0.527066
Si Si6 0.818300 0.420099 0.110210
Si Si7 0.761612 0.936768 0.575255
Si Si8 0.460135 0.588881 0.403268
O O1 0.361570 0.727444 0.248377
O O2 0.349468 0.698251 0.164541
O O3 0.177158 0.963975 0.241579
O O4 0.639612 0.919459 0.133203
O O5 0.316762 0.788053 0.564236
O O6 0.583593 0.890054 0.573821
O O7 0.415129 0.578098 0.607001
O O8 0.136212 0.816271 0.684581
O O9 0.349988 0.532774 0.812122
O O10 0.500000 0.500000 0.500000
O O11 0.373553 0.705746 0.463971
O O12 0.070211 0.542536 0.575424
O O13 0.800055 0.223467 0.099643
O O14 0.760070 0.541872 0.080557
O O15 0.000000 0.000000 0.500000
#
# Coordination Sequence:
#
# PCOD8118671 Si02
#       8
#     4   4   2   2   4   4   4   4
#     4  10  22  39  60  85 116 154 197 248 290 353
#     4   9  21  37  59  87 119 154 192 241 295 362
#     4  10  24  40  58  88 114 154 210 242 286 354
#     4  10  22  40  56  84 124 160 190 234 314 366
#     4  10  20  34  58  89 113 142 193 247 290 337
#     4  10  21  38  61  84 118 158 193 244 298 363
#     4  10  21  40  62  84 116 159 196 239 306 364
#     4   9  19  38  60  84 114 155 201 241 292 350
#
# _framework density 20.743801000000001
#
# number of rings (size 3 to 8) (size 9 to 14) (size 15 to 20)
#    0.000    2.286    0.000    1.286    0.000   14.857 
#    0.000    6.429    0.000    0.000    0.000    0.000 
#    0.000    0.000    0.000    0.000    0.000    0.000 
#
# Total GULP energy -346978.760416 kJ/mol
# GULP energy per Si atom -12392.098586 kJ/mol
# Density = 2.069659 g / cm^3
# Si number density = 20.743801 Si / 1000 Ang^3
#
#
#
# Elastic Constant Matrix: (Units=GPa)
#
#
# Indices 1 2 3 4 5 6 
#
# 1 126.5677 36.3046 82.5373 0.0000 11.9813 0.0000
# 2 36.3046 84.5019 50.5975 0.0000 10.5005 0.0000
# 3 82.5373 50.5975 144.0199 0.0000 13.6850 0.0000
# 4 0.0000 0.0000 0.0000 31.1009 0.0000 8.7980
# 5 11.9813 10.5005 13.6850 0.0000 45.1368 0.0000
# 6 0.0000 0.0000 0.0000 8.7980 0.0000 13.7009
#
#
#
# Elastic Compliance Matrix: (Units=1/GPa)
#
#
# Indices 1 2 3 4 5 6 
#
# 1 0.012791 -0.001312 -0.006771 0.000000 -0.001037 0.000000
# 2 -0.001312 0.015289 -0.004442 0.000000 -0.001862 0.000000
# 3 -0.006771 -0.004442 0.012475 0.000000 -0.000952 0.000000
# 4 0.000000 0.000000 0.000000 0.039291 0.000000 -0.025230
# 5 -0.001037 -0.001862 -0.000952 0.000000 0.023152 0.000000
# 6 0.000000 0.000000 0.000000 -0.025230 0.000000 0.089189
#
#
# Mechanical properties :
#
#
# Convention : Reuss Voigt Hill
#
# Bulk Modulus (GPa) = 64.49996 77.10758 70.80377
# Shear Modulus (GPa) = 22.48141 30.36441 26.42291
#
# Velocity S-wave (km/s) = 3.29563 3.83009 3.57287
# Velocity P-wave (km/s) = 6.75594 7.53734 7.15731
#
# Compressibility (1/GPa) = 0.01550389
#
# Stress axis : x y z
#
# Youngs Moduli (GPa) = 78.18069 65.40554 80.16046
#
# Poissons Ratio (x) = 0.08583 0.54275
# Poissons Ratio (y) = 0.10260 0.35611
# Poissons Ratio (z) = 0.52935 0.29056
#
# Static dielectric constant tensor:
#      x y z
#    x 4.155050 0.000000 0.343060 
#    y 0.000000 3.750850 0.000000 
#    z 0.343060 0.000000 4.018740 
# 
# 
# High freq. dielectric constant tensor:
#      x y z
#    x 1.813830 0.000000 0.008740 
#    y 0.000000 1.806230 0.000000 
#    z 0.008740 0.000000 1.817380 
# 
# From -- ./inp_files/95941.got.cif
#   From: 2010.06.25/outbox.cif.g09.slc.cpg/sg13_48_cif.got.tgz:95941.got - 2010.06.28 04:50:58.
