data_PCOD8118088
_publ_section_title
;
Structure prediction by ZEFSAII (Michael W. Deem and Ramdas Pophale) SiO2 
 PCOD8118088
Probable space group: P 2/C
;
_chemical_formula_sum "Si O2"
_cell_formula_units_Z 28
_cell_length_a 9.026358
_cell_length_b 14.669466
_cell_length_c 17.505335
_cell_angle_alpha 90.000000
_cell_angle_beta 137.609537
_cell_angle_gamma 90.000000
_cell_volume 1562.689892
_symmetry_space_group_name_H-M "P 2/C"
_symmetry_group_IT_number 13
_symmetry_cell_setting 'monoclinic'
loop_
_space_group_symop_operation_xyz
x,y,z
-x,y,1/2-z
-x,-y,-z
x,-y,1/2+z
loop_
_atom_site_type_symbol
_atom_site_label
_atom_site_fract_x
_atom_site_fract_y
_atom_site_fract_z
Si Si1 0.696007 0.589807 0.881345
Si Si2 0.300101 0.911337 0.618143
Si Si3 0.304221 0.750166 0.506642
Si Si4 0.806470 0.260970 0.826933
Si Si5 0.544414 0.746098 0.439603
Si Si6 0.193892 0.113730 0.546246
Si Si7 0.822632 0.607097 0.469121
O O1 0.500000 0.568551 0.750000
O O2 0.617132 0.668845 0.908278
O O3 0.753546 0.497841 0.948899
O O4 0.915319 0.620404 0.919372
O O5 0.500000 0.889027 0.750000
O O6 0.330957 0.847890 0.556439
O O7 0.066818 0.891757 0.570569
O O8 0.306752 0.015732 0.594587
O O9 0.454422 0.750082 0.489934
O O10 0.051934 0.733990 0.387528
O O11 0.650320 0.262094 0.695298
O O12 0.766468 0.168797 0.860007
O O13 0.756672 0.347712 0.862404
O O14 0.689603 0.836005 0.479895
O O15 0.701343 0.658189 0.491983
#
# Coordination Sequence:
#
# PCOD8118088 Si02
#       7
#     4   4   4   4   4   4   4
#     4  10  19  36  53  71  99 134 167 203 239 290
#     4  10  19  36  53  71  99 134 167 203 239 290
#     4  10  22  31  48  77 106 133 160 194 252 304
#     4   9  17  34  54  75  97 129 166 207 247 283
#     4  11  19  33  51  76 105 126 159 213 250 285
#     4   9  19  33  56  77  92 126 176 204 238 292
#     4   9  19  33  56  77  92 126 176 204 238 292
#
# _framework density 17.917822999999999
#
# number of rings (size 3 to 8) (size 9 to 14) (size 15 to 20)
#    0.000    2.286    0.000    5.143    0.000    1.143 
#    0.000    2.857    0.000    0.000    0.000    0.000 
#    0.000    0.000    0.000    0.000    0.000    0.000 
#
# Total GULP energy -347210.123511 kJ/mol
# GULP energy per Si atom -12400.361554 kJ/mol
# Density = 1.787704 g / cm^3
# Si number density = 17.917823 Si / 1000 Ang^3
#
#
#
# Elastic Constant Matrix: (Units=GPa)
#
#
# Indices 1 2 3 4 5 6 
#
# 1 133.5330 39.0803 22.7698 0.0000 4.1683 0.0000
# 2 39.0803 101.7586 4.1504 0.0000 -0.5212 0.0000
# 3 22.7698 4.1504 72.2540 0.0000 13.8280 0.0000
# 4 0.0000 0.0000 0.0000 17.1883 0.0000 4.5469
# 5 4.1683 -0.5212 13.8280 0.0000 15.5403 0.0000
# 6 0.0000 0.0000 0.0000 4.5469 0.0000 10.7899
#
#
#
# Elastic Compliance Matrix: (Units=1/GPa)
#
#
# Indices 1 2 3 4 5 6 
#
# 1 0.008905 -0.003316 -0.002576 0.000000 -0.000208 0.000000
# 2 -0.003316 0.011098 0.000200 0.000000 0.001084 0.000000
# 3 -0.002576 0.000200 0.017484 0.000000 -0.014860 0.000000
# 4 0.000000 0.000000 0.000000 0.065478 0.000000 -0.027593
# 5 -0.000208 0.001084 -0.014860 0.000000 0.077664 0.000000
# 6 0.000000 0.000000 0.000000 -0.027593 0.000000 0.104307
#
#
# Mechanical properties :
#
#
# Convention : Reuss Voigt Hill
#
# Bulk Modulus (GPa) = 38.30904 48.83852 43.57378
# Shear Modulus (GPa) = 16.39230 24.80671 20.59950
#
# Velocity S-wave (km/s) = 3.02795 3.72488 3.39435
# Velocity P-wave (km/s) = 5.80099 6.76874 6.30346
#
# Compressibility (1/GPa) = 0.02610350
#
# Stress axis : x y z
#
# Youngs Moduli (GPa) = 112.29664 90.10594 57.19414
#
# Poissons Ratio (x) = 0.29879 0.14734
# Poissons Ratio (y) = 0.37237 -0.01144
# Poissons Ratio (z) = 0.28929 -0.01803
#
# Static dielectric constant tensor:
#      x y z
#    x 3.229870 0.000000 0.349240 
#    y 0.000000 3.519860 0.000000 
#    z 0.349240 0.000000 3.209310 
# 
# 
# High freq. dielectric constant tensor:
#      x y z
#    x 1.678040 0.000000 0.030490 
#    y 0.000000 1.709360 0.000000 
#    z 0.030490 0.000000 1.684640 
# 
# From -- ./inp_files/30472.got.cif
#   From: 2010.06.25/outbox.cif.g09.slc.cpg/sg13_16_cif.got.tgz:30472.got - 2010.06.28 04:50:58.
