data_PCOD8118977
_publ_section_title
;
Structure prediction by ZEFSAII (Michael W. Deem and Ramdas Pophale) SiO2 
 PCOD8118977
Probable space group: P 2/C
;
_chemical_formula_sum "Si O2"
_cell_formula_units_Z 30
_cell_length_a 5.092111
_cell_length_b 30.188636
_cell_length_c 10.130270
_cell_angle_alpha 90.000000
_cell_angle_beta 65.534652
_cell_angle_gamma 90.000000
_cell_volume 1417.440659
_symmetry_space_group_name_H-M "P 2/C"
_symmetry_group_IT_number 13
_symmetry_cell_setting 'monoclinic'
loop_
_space_group_symop_operation_xyz
x,y,z
-x,y,1/2-z
-x,-y,-z
x,-y,1/2+z
loop_
_atom_site_type_symbol
_atom_site_label
_atom_site_fract_x
_atom_site_fract_y
_atom_site_fract_z
Si Si1 0.665447 0.977400 0.844588
Si Si2 0.758555 0.652611 0.484645
Si Si3 0.323872 0.873518 0.657193
Si Si4 0.749358 0.531912 0.894326
Si Si5 0.500000 0.601280 0.750000
Si Si6 0.639674 0.192849 0.580864
Si Si7 0.295470 0.603634 0.402981
Si Si8 0.148392 0.751469 0.081009
O O1 0.500000 0.993437 0.750000
O O2 0.631894 0.925345 0.875255
O O3 0.000000 0.991020 0.750000
O O4 0.500000 0.000000 0.000000
O O5 0.740773 0.633188 0.637112
O O6 0.482357 0.637278 0.456510
O O7 0.794346 0.704841 0.499763
O O8 0.061621 0.632498 0.370643
O O9 0.500000 0.857242 0.750000
O O10 0.394266 0.850373 0.503540
O O11 0.000000 0.860136 0.750000
O O12 0.617186 0.570662 0.838544
O O13 0.000000 0.508793 0.750000
O O14 0.500000 0.500000 0.000000
O O15 0.863294 0.560640 0.995740
O O16 0.500000 0.179637 0.750000
O O17 0.464389 0.230140 0.541139
O O18 0.960458 0.213213 0.534656
O O19 0.500000 0.582142 0.250000
O O20 0.000000 0.741096 0.250000
#
# Coordination Sequence:
#
# PCOD8118977 Si02
#       8
#     4   4   4   4   2   4   4   4
#     4  10  21  38  61  91 126 171 222 281 335 400
#     4  11  22  41  66  90 131 157 201 248 307 357
#     4  10  21  39  60  84 128 171 210 268 333 386
#     4  11  25  44  67  90 127 163 199 251 296 363
#     4  10  24  44  62  92 124 162 196 250 302 362
#     4  10  21  38  59  90 125 162 213 260 311 379
#     4  11  23  40  66  95 121 158 201 239 298 363
#     4  10  20  36  60  91 121 157 203 257 306 367
#
# _framework density 21.164908
#
# number of rings (size 3 to 8) (size 9 to 14) (size 15 to 20)
#    0.000    1.600    1.333    3.200    0.933    4.267 
#    3.600    2.000    0.000    0.000    0.000    0.000 
#    0.000    0.000    0.000    0.000    0.000    0.000 
#
# Total GULP energy -371653.321493 kJ/mol
# GULP energy per Si atom -12388.444050 kJ/mol
# Density = 2.111674 g / cm^3
# Si number density = 21.164908 Si / 1000 Ang^3
#
#
#
# Elastic Constant Matrix: (Units=GPa)
#
#
# Indices 1 2 3 4 5 6 
#
# 1 128.4951 34.4655 44.1956 0.0000 0.3134 0.0000
# 2 34.4655 79.1352 62.4413 0.0000 6.4849 0.0000
# 3 44.1956 62.4413 131.4021 0.0000 -1.3722 0.0000
# 4 0.0000 0.0000 0.0000 20.6083 0.0000 6.0518
# 5 0.3134 6.4849 -1.3722 0.0000 31.8232 0.0000
# 6 0.0000 0.0000 0.0000 6.0518 0.0000 32.2322
#
#
#
# Elastic Compliance Matrix: (Units=1/GPa)
#
#
# Indices 1 2 3 4 5 6 
#
# 1 0.009097 -0.002526 -0.001856 0.000000 0.000345 0.000000
# 2 -0.002526 0.021595 -0.009462 0.000000 -0.004784 0.000000
# 3 -0.001856 -0.009462 0.012757 0.000000 0.002497 0.000000
# 4 0.000000 0.000000 0.000000 0.051356 0.000000 -0.009642
# 5 0.000345 -0.004784 0.002497 0.000000 0.032503 0.000000
# 6 0.000000 0.000000 0.000000 -0.009642 0.000000 0.032835
#
#
# Mechanical properties :
#
#
# Convention : Reuss Voigt Hill
#
# Bulk Modulus (GPa) = 63.44750 69.02635 66.23692
# Shear Modulus (GPa) = 25.89545 30.12807 28.01176
#
# Velocity S-wave (km/s) = 3.50166 3.77701 3.64194
# Velocity P-wave (km/s) = 6.81114 7.19065 7.00347
#
# Compressibility (1/GPa) = 0.01576106
#
# Stress axis : x y z
#
# Youngs Moduli (GPa) = 109.92110 46.30757 78.38998
#
# Poissons Ratio (x) = 0.11698 0.14548
# Poissons Ratio (y) = 0.27768 0.74172
# Poissons Ratio (z) = 0.20399 0.43816
#
# Static dielectric constant tensor:
#      x y z
#    x 3.973370 0.000000 -0.036440 
#    y 0.000000 3.651790 0.000000 
#    z -0.036440 0.000000 4.683420 
# 
# 
# High freq. dielectric constant tensor:
#      x y z
#    x 1.840560 0.000000 -0.000880 
#    y 0.000000 1.816820 0.000000 
#    z -0.000880 0.000000 1.837150 
# 
# From -- ./inp_files/26905.got.cif
#   From: 2010.06.25/outbox.cif.g09.slc.cpg/sg13_14_cif.got.tgz:26905.got - 2010.06.28 04:50:58.
