data_PCOD8118614
_publ_section_title
;
Structure prediction by ZEFSAII (Michael W. Deem and Ramdas Pophale) SiO2 
 PCOD8118614
Probable space group: P 2/C
;
_chemical_formula_sum "Si O2"
_cell_formula_units_Z 18
_cell_length_a 10.242388
_cell_length_b 9.420562
_cell_length_c 9.519956
_cell_angle_alpha 90.000000
_cell_angle_beta 105.615104
_cell_angle_gamma 90.000000
_cell_volume 884.668555
_symmetry_space_group_name_H-M "P 2/C"
_symmetry_group_IT_number 13
_symmetry_cell_setting 'monoclinic'
loop_
_space_group_symop_operation_xyz
x,y,z
-x,y,1/2-z
-x,-y,-z
x,-y,1/2+z
loop_
_atom_site_type_symbol
_atom_site_label
_atom_site_fract_x
_atom_site_fract_y
_atom_site_fract_z
Si Si1 0.374587 0.402038 0.003365
Si Si2 0.000000 0.014251 0.250000
Si Si3 0.661747 0.635294 0.306418
Si Si4 0.420551 0.914214 0.591829
Si Si5 0.173583 0.099850 0.552082
O O1 0.296885 0.488609 0.102924
O O2 0.429225 0.253689 0.075652
O O3 0.500000 0.500000 0.000000
O O4 0.282779 0.377088 0.837642
O O5 0.089226 0.914385 0.172604
O O6 0.084794 0.113521 0.383149
O O7 0.500000 0.663498 0.250000
O O8 0.731466 0.763087 0.409838
O O9 0.500000 0.961895 0.750000
O O10 0.500000 0.000000 0.500000
O O11 0.263733 0.958888 0.557646
#
# Coordination Sequence:
#
# PCOD8118614 Si02
#       5
#     4   2   4   4   4
#     4  10  20  34  53  87 127 153 176 222 295 363
#     4  10  24  40  60  82 112 158 204 248 286 330
#     4  10  20  36  59  87 118 149 184 234 296 351
#     4  12  22  35  61  95 122 148 187 239 298 352
#     4  11  22  40  61  84 115 153 200 244 287 343
#
# _framework density 20.346603000000002
#
# number of rings (size 3 to 8) (size 9 to 14) (size 15 to 20)
#    0.000    1.333    0.000    9.333    0.000    1.778 
#    0.000    0.000    0.000   22.667    0.000    0.000 
#    0.000    0.000    0.000    0.000    0.000    0.000 
#
# Total GULP energy -223099.012070 kJ/mol
# GULP energy per Si atom -12394.389559 kJ/mol
# Density = 2.030029 g / cm^3
# Si number density = 20.346603 Si / 1000 Ang^3
#
#
#
# Elastic Constant Matrix: (Units=GPa)
#
#
# Indices 1 2 3 4 5 6 
#
# 1 81.6458 44.9481 45.5627 0.0000 -0.4977 0.0000
# 2 44.9481 141.0803 52.2547 0.0000 6.1939 0.0000
# 3 45.5627 52.2547 186.0964 0.0000 6.9218 0.0000
# 4 0.0000 0.0000 0.0000 35.0241 0.0000 -1.8651
# 5 -0.4977 6.1939 6.9218 0.0000 34.4635 0.0000
# 6 0.0000 0.0000 0.0000 -1.8651 0.0000 13.8146
#
#
#
# Elastic Compliance Matrix: (Units=1/GPa)
#
#
# Indices 1 2 3 4 5 6 
#
# 1 0.016130 -0.004155 -0.002840 0.000000 0.001550 0.000000
# 2 -0.004155 0.009014 -0.001462 0.000000 -0.001386 0.000000
# 3 -0.002840 -0.001462 0.006520 0.000000 -0.001088 0.000000
# 4 0.000000 0.000000 0.000000 0.028758 0.000000 0.003883
# 5 0.001550 -0.001386 -0.001088 0.000000 0.029506 0.000000
# 6 0.000000 0.000000 0.000000 0.003883 0.000000 0.072911
#
#
# Mechanical properties :
#
#
# Convention : Reuss Voigt Hill
#
# Bulk Modulus (GPa) = 67.79968 77.15037 72.47503
# Shear Modulus (GPa) = 27.07506 34.39758 30.73632
#
# Velocity S-wave (km/s) = 3.65182 4.11613 3.89091
# Velocity P-wave (km/s) = 7.15372 7.78398 7.47550
#
# Compressibility (1/GPa) = 0.01474933
#
# Stress axis : x y z
#
# Youngs Moduli (GPa) = 61.99678 110.93270 153.37480
#
# Poissons Ratio (x) = 0.46094 0.43560
# Poissons Ratio (y) = 0.25760 0.22428
# Poissons Ratio (z) = 0.17608 0.16222
#
# Static dielectric constant tensor:
#      x y z
#    x 3.681680 0.000000 -0.352410 
#    y 0.000000 3.774210 0.000000 
#    z -0.352410 0.000000 4.960410 
# 
# 
# High freq. dielectric constant tensor:
#      x y z
#    x 1.756950 0.000000 -0.006460 
#    y 0.000000 1.792900 0.000000 
#    z -0.006460 0.000000 1.830570 
# 
# From -- ./inp_files/14594.got.cif
#   From: 2010.06.25/outbox.cif.g09.slc.cpg/sg13_8_cif.got.tgz:14594.got - 2010.06.28 04:50:58.
