data_PCOD8118691
_publ_section_title
;
Structure prediction by ZEFSAII (Michael W. Deem and Ramdas Pophale) SiO2 
 PCOD8118691
Probable space group: P 2/C
;
_chemical_formula_sum "Si O2"
_cell_formula_units_Z 18
_cell_length_a 13.716908
_cell_length_b 8.774367
_cell_length_c 9.858207
_cell_angle_alpha 90.000000
_cell_angle_beta 49.451613
_cell_angle_gamma 90.000000
_cell_volume 901.575192
_symmetry_space_group_name_H-M "P 2/C"
_symmetry_group_IT_number 13
_symmetry_cell_setting 'monoclinic'
loop_
_space_group_symop_operation_xyz
x,y,z
-x,y,1/2-z
-x,-y,-z
x,-y,1/2+z
loop_
_atom_site_type_symbol
_atom_site_label
_atom_site_fract_x
_atom_site_fract_y
_atom_site_fract_z
Si Si1 0.500000 0.413681 0.750000
Si Si2 0.585789 0.958788 0.793544
Si Si3 0.301560 0.753215 0.253408
Si Si4 0.694478 0.672552 0.555237
Si Si5 0.088352 0.531218 0.546777
O O1 0.561197 0.314787 0.817663
O O2 0.612752 0.522416 0.592961
O O3 0.500000 0.016818 0.750000
O O4 0.628776 0.782623 0.728785
O O5 0.709380 0.070281 0.689327
O O6 0.500000 0.000000 0.000000
O O7 0.183336 0.667587 0.426238
O O8 0.293369 0.758675 0.097951
O O9 0.832905 0.621715 0.486547
O O10 0.000000 0.584903 0.750000
O O11 0.000000 0.500000 0.500000
#
# Coordination Sequence:
#
# PCOD8118691 Si02
#       5
#     2   4   4   4   4
#     4  10  20  34  62  98 124 166 212 258 328 388
#     4  12  23  39  62  96 141 167 205 258 329 396
#     4  11  22  38  64  94 130 171 212 263 327 382
#     4  11  22  40  64  94 133 165 213 269 325 377
#     4  11  24  45  69  92 125 170 225 274 314 370
#
# _framework density 19.965056000000001
#
# number of rings (size 3 to 8) (size 9 to 14) (size 15 to 20)
#    0.000    0.889    6.667    0.667    0.000    3.556 
#    0.000    2.222    0.000    0.000    0.000    0.000 
#    0.000    0.000    0.000    0.000    0.000    0.000 
#
# Total GULP energy -223053.861100 kJ/mol
# GULP energy per Si atom -12391.881172 kJ/mol
# Density = 1.991961 g / cm^3
# Si number density = 19.965056 Si / 1000 Ang^3
#
#
#
# Elastic Constant Matrix: (Units=GPa)
#
#
# Indices 1 2 3 4 5 6 
#
# 1 139.9077 38.7904 41.4867 0.0000 7.0388 0.0000
# 2 38.7904 96.4420 35.0497 0.0000 -2.0792 0.0000
# 3 41.4867 35.0497 126.0210 0.0000 6.3462 0.0000
# 4 0.0000 0.0000 0.0000 32.4756 0.0000 -4.7281
# 5 7.0388 -2.0792 6.3462 0.0000 32.4162 0.0000
# 6 0.0000 0.0000 0.0000 -4.7281 0.0000 30.0775
#
#
#
# Elastic Compliance Matrix: (Units=1/GPa)
#
#
# Indices 1 2 3 4 5 6 
#
# 1 0.008584 -0.002772 -0.001972 0.000000 -0.001656 0.000000
# 2 -0.002772 0.012491 -0.002659 0.000000 0.001924 0.000000
# 3 -0.001972 -0.002659 0.009403 0.000000 -0.001583 0.000000
# 4 0.000000 0.000000 0.000000 0.031514 0.000000 0.004954
# 5 -0.001656 0.001924 -0.001583 0.000000 0.031642 0.000000
# 6 0.000000 0.000000 0.000000 0.004954 0.000000 0.034026
#
#
# Mechanical properties :
#
#
# Convention : Reuss Voigt Hill
#
# Bulk Modulus (GPa) = 63.79617 65.89160 64.84389
# Shear Modulus (GPa) = 33.85487 35.46343 34.65915
#
# Velocity S-wave (km/s) = 4.12236 4.21916 4.17104
# Velocity P-wave (km/s) = 7.39471 7.53725 7.46632
#
# Compressibility (1/GPa) = 0.01567492
#
# Stress axis : x y z
#
# Youngs Moduli (GPa) = 116.49573 80.05474 106.34439
#
# Poissons Ratio (x) = 0.22189 0.20967
# Poissons Ratio (y) = 0.32290 0.28273
# Poissons Ratio (z) = 0.22968 0.21283
#
# Static dielectric constant tensor:
#      x y z
#    x 3.902440 0.000000 0.043200 
#    y 0.000000 3.965570 0.000000 
#    z 0.043200 0.000000 3.433240 
# 
# 
# High freq. dielectric constant tensor:
#      x y z
#    x 1.785870 0.000000 0.014980 
#    y 0.000000 1.779930 0.000000 
#    z 0.014980 0.000000 1.771930 
# 
# From -- ./inp_files/14486.got.cif
#   From: 2010.06.25/outbox.cif.g09.slc.cpg/sg13_8_cif.got.tgz:14486.got - 2010.06.28 04:50:58.
