data_PCOD8118965
_publ_section_title
;
Structure prediction by ZEFSAII (Michael W. Deem and Ramdas Pophale) SiO2 
 PCOD8118965
Probable space group: P 2/C
;
_chemical_formula_sum "Si O2"
_cell_formula_units_Z 24
_cell_length_a 17.356985
_cell_length_b 9.653159
_cell_length_c 13.433202
_cell_angle_alpha 90.000000
_cell_angle_beta 148.624498
_cell_angle_gamma 90.000000
_cell_volume 1171.830203
_symmetry_space_group_name_H-M "P 2/C"
_symmetry_group_IT_number 13
_symmetry_cell_setting 'monoclinic'
loop_
_space_group_symop_operation_xyz
x,y,z
-x,y,1/2-z
-x,-y,-z
x,-y,1/2+z
loop_
_atom_site_type_symbol
_atom_site_label
_atom_site_fract_x
_atom_site_fract_y
_atom_site_fract_z
Si Si1 0.639350 0.901809 0.655540
Si Si2 0.304761 0.495607 0.900880
Si Si3 0.623928 0.607147 0.724573
Si Si4 0.828688 0.005935 0.542515
Si Si5 0.162209 0.700728 0.381151
Si Si6 0.336167 0.217736 0.526908
O O1 0.582481 0.758329 0.638870
O O2 0.685309 0.880055 0.592662
O O3 0.500000 0.000000 0.500000
O O4 0.779534 0.959741 0.874137
O O5 0.291170 0.520605 0.767625
O O6 0.188107 0.372432 0.801985
O O7 0.476878 0.460487 0.106588
O O8 0.268109 0.632553 0.925451
O O9 0.734924 0.605996 0.937834
O O10 0.752268 0.861821 0.485107
O O11 0.000000 0.980759 0.750000
O O12 0.782768 0.139383 0.559943
O O13 0.000000 0.694746 0.250000
O O14 0.500000 0.233119 0.750000
#
# Coordination Sequence:
#
# PCOD8118965 Si02
#       6
#     4   4   4   4   4   4
#     4  10  20  36  60  88 111 146 196 234 281 343
#     4  10  21  37  59  85 114 148 192 239 282 335
#     4   9  20  37  58  83 115 145 188 241 284 331
#     4  10  23  40  57  84 120 152 189 237 289 340
#     4  10  21  37  57  81 114 155 189 225 285 350
#     4  11  21  35  59  87 114 148 194 241 282 336
#
# _framework density 20.480782000000001
#
# number of rings (size 3 to 8) (size 9 to 14) (size 15 to 20)
#    0.000    2.000    1.667    1.500    2.333    2.000 
#    0.000    0.000    0.000    0.000    0.000    0.000 
#    0.000    0.000    0.000    0.000    0.000    0.000 
#
# Total GULP energy -297395.413422 kJ/mol
# GULP energy per Si atom -12391.475559 kJ/mol
# Density = 2.043417 g / cm^3
# Si number density = 20.480782 Si / 1000 Ang^3
#
#
#
# Elastic Constant Matrix: (Units=GPa)
#
#
# Indices 1 2 3 4 5 6 
#
# 1 59.8223 23.6171 -4.7380 0.0000 2.8252 0.0000
# 2 23.6171 59.8028 5.1995 0.0000 6.8747 0.0000
# 3 -4.7380 5.1995 50.0435 0.0000 -4.9311 0.0000
# 4 0.0000 0.0000 0.0000 8.2449 0.0000 -4.6544
# 5 2.8252 6.8747 -4.9311 0.0000 22.6644 0.0000
# 6 0.0000 0.0000 0.0000 -4.6544 0.0000 31.6570
#
#
#
# Elastic Compliance Matrix: (Units=1/GPa)
#
#
# Indices 1 2 3 4 5 6 
#
# 1 0.020183 -0.008288 0.002833 0.000000 0.000614 0.000000
# 2 -0.008288 0.021008 -0.003570 0.000000 -0.006116 0.000000
# 3 0.002833 -0.003570 0.021147 0.000000 0.005331 0.000000
# 4 0.000000 0.000000 0.000000 0.132264 0.000000 0.019446
# 5 0.000614 -0.006116 0.005331 0.000000 0.047060 0.000000
# 6 0.000000 0.000000 0.000000 0.019446 0.000000 0.034448
#
#
# Mechanical properties :
#
#
# Convention : Reuss Voigt Hill
#
# Bulk Modulus (GPa) = 22.57942 24.20287 23.39114
# Shear Modulus (GPa) = 16.18521 22.21927 19.20224
#
# Velocity S-wave (km/s) = 2.81421 3.29733 3.06530
# Velocity P-wave (km/s) = 4.64848 5.13221 4.89632
#
# Compressibility (1/GPa) = 0.04428812
#
# Stress axis : x y z
#
# Youngs Moduli (GPa) = 49.54573 47.60091 47.28807
#
# Poissons Ratio (x) = 0.39450 -0.13395
# Poissons Ratio (y) = 0.41062 0.16882
# Poissons Ratio (z) = -0.14034 0.16994
#
# Static dielectric constant tensor:
#      x y z
#    x 3.782090 0.000000 -0.222470 
#    y 0.000000 3.951960 0.000000 
#    z -0.222470 0.000000 3.647310 
# 
# 
# High freq. dielectric constant tensor:
#      x y z
#    x 1.788060 0.000000 -0.017050 
#    y 0.000000 1.813190 0.000000 
#    z -0.017050 0.000000 1.789850 
# 
# From -- ./inp_files/46010.got.cif
#   From: 2010.06.25/outbox.cif.g09.slc.cpg/sg13_24_cif.got.tgz:46010.got - 2010.06.28 04:50:58.
