data_PCOD8118748
_publ_section_title
;
Structure prediction by ZEFSAII (Michael W. Deem and Ramdas Pophale) SiO2 
 PCOD8118748
Probable space group: P 2/C
;
_chemical_formula_sum "Si O2"
_cell_formula_units_Z 26
_cell_length_a 15.940770
_cell_length_b 15.565584
_cell_length_c 9.206375
_cell_angle_alpha 90.000000
_cell_angle_beta 144.564997
_cell_angle_gamma 90.000000
_cell_volume 1324.420477
_symmetry_space_group_name_H-M "P 2/C"
_symmetry_group_IT_number 13
_symmetry_cell_setting 'monoclinic'
loop_
_space_group_symop_operation_xyz
x,y,z
-x,y,1/2-z
-x,-y,-z
x,-y,1/2+z
loop_
_atom_site_type_symbol
_atom_site_label
_atom_site_fract_x
_atom_site_fract_y
_atom_site_fract_z
Si Si1 0.607430 0.497802 0.781797
Si Si2 0.101634 0.273062 0.070290
Si Si3 0.355935 0.237457 0.959895
Si Si4 0.894450 0.114057 0.829366
Si Si5 0.180042 0.354251 0.896103
Si Si6 0.640567 0.299430 0.858125
Si Si7 0.000000 0.009954 0.250000
O O1 0.500000 0.536417 0.750000
O O2 0.500000 0.500000 0.500000
O O3 0.657485 0.401372 0.878687
O O4 0.755292 0.552992 0.966847
O O5 0.209368 0.270664 0.357312
O O6 0.190830 0.285982 0.045853
O O7 0.016792 0.183709 0.960448
O O8 0.985271 0.353346 0.900108
O O9 0.259834 0.155883 0.863830
O O10 0.282525 0.324474 0.911193
O O11 0.378378 0.250983 0.820595
O O12 0.500000 0.220112 0.250000
O O13 0.887058 0.048309 0.683324
O O14 0.920736 0.068197 0.020139
O O15 0.500000 0.271410 0.750000
#
# Coordination Sequence:
#
# PCOD8118748 Si02
#       7
#     4   4   4   4   4   4   2
#     4  11  21  35  53  77 112 155 201 243 282 328
#     4  10  21  38  57  84 115 146 191 237 282 340
#     4  11  21  37  59  84 114 151 190 231 282 337
#     4  10  21  38  62  88 113 144 180 226 277 345
#     4  10  20  35  57  80 113 157 194 235 285 332
#     4  11  23  36  56  82 113 153 199 245 284 328
#     4  10  20  38  64  88 112 142 178 218 284 348
#
# _framework density 19.631228
#
# number of rings (size 3 to 8) (size 9 to 14) (size 15 to 20)
#    0.000    1.538    0.000    7.846    0.000    2.462 
#    0.000    5.385    0.000    3.692    0.000    0.000 
#    0.000    0.000    0.000    0.000    0.000    0.000 
#
# Total GULP energy -322143.986624 kJ/mol
# GULP energy per Si atom -12390.153332 kJ/mol
# Density = 1.958655 g / cm^3
# Si number density = 19.631228 Si / 1000 Ang^3
#
#
#
# Elastic Constant Matrix: (Units=GPa)
#
#
# Indices 1 2 3 4 5 6 
#
# 1 125.5979 36.0220 60.6327 0.0000 -15.3746 0.0000
# 2 36.0220 59.5418 36.7984 0.0000 4.5508 0.0000
# 3 60.6327 36.7984 156.2493 0.0000 -5.4662 0.0000
# 4 0.0000 0.0000 0.0000 18.1054 0.0000 -1.3217
# 5 -15.3746 4.5508 -5.4662 0.0000 33.0743 0.0000
# 6 0.0000 0.0000 0.0000 -1.3217 0.0000 31.0514
#
#
#
# Elastic Compliance Matrix: (Units=1/GPa)
#
#
# Indices 1 2 3 4 5 6 
#
# 1 0.011754 -0.005683 -0.003022 0.000000 0.005746 0.000000
# 2 -0.005683 0.022812 -0.003389 0.000000 -0.006340 0.000000
# 3 -0.003022 -0.003389 0.008386 0.000000 0.000448 0.000000
# 4 0.000000 0.000000 0.000000 0.055404 0.000000 0.002358
# 5 0.005746 -0.006340 0.000448 0.000000 0.033852 0.000000
# 6 0.000000 0.000000 0.000000 0.002358 0.000000 0.032305
#
#
# Mechanical properties :
#
#
# Convention : Reuss Voigt Hill
#
# Bulk Modulus (GPa) = 53.28977 67.58836 60.43907
# Shear Modulus (GPa) = 25.64679 30.30863 27.97771
#
# Velocity S-wave (km/s) = 3.61838 3.93351 3.77923
# Velocity P-wave (km/s) = 6.68290 7.42521 7.06381
#
# Compressibility (1/GPa) = 0.01876533
#
# Stress axis : x y z
#
# Youngs Moduli (GPa) = 85.07820 43.83657 119.23969
#
# Poissons Ratio (x) = 0.24911 0.36031
# Poissons Ratio (y) = 0.48347 0.40412
# Poissons Ratio (z) = 0.25709 0.14857
#
# Static dielectric constant tensor:
#      x y z
#    x 3.863200 0.000000 -0.035850 
#    y 0.000000 3.392180 0.000000 
#    z -0.035850 0.000000 3.613520 
# 
# 
# High freq. dielectric constant tensor:
#      x y z
#    x 1.781010 0.000000 -0.010110 
#    y 0.000000 1.750390 0.000000 
#    z -0.010110 0.000000 1.767980 
# 
# From -- ./inp_files/19815.got.cif
#   From: 2010.06.25/outbox.cif.g09.slc.cpg/sg13_10_cif.got.tgz:19815.got - 2010.06.28 04:50:58.
