data_PCOD8118068
_publ_section_title
;
Structure prediction by ZEFSAII (Michael W. Deem and Ramdas Pophale) SiO2 
 PCOD8118068
Probable space group: P 2/C
;
_chemical_formula_sum "Si O2"
_cell_formula_units_Z 26
_cell_length_a 10.749686
_cell_length_b 11.000138
_cell_length_c 17.088625
_cell_angle_alpha 90.000000
_cell_angle_beta 140.064565
_cell_angle_gamma 90.000000
_cell_volume 1297.133343
_symmetry_space_group_name_H-M "P 2/C"
_symmetry_group_IT_number 13
_symmetry_cell_setting 'monoclinic'
loop_
_space_group_symop_operation_xyz
x,y,z
-x,y,1/2-z
-x,-y,-z
x,-y,1/2+z
loop_
_atom_site_type_symbol
_atom_site_label
_atom_site_fract_x
_atom_site_fract_y
_atom_site_fract_z
Si Si1 0.875948 0.583800 0.113342
Si Si2 0.897277 0.799422 0.328043
Si Si3 0.774284 0.965536 0.069397
Si Si4 0.295369 0.124932 0.614430
Si Si5 0.000000 0.838244 0.750000
Si Si6 0.583665 0.753646 0.050663
Si Si7 0.788673 0.317103 0.043185
O O1 0.678458 0.649372 0.043497
O O2 0.822949 0.458834 0.044403
O O3 0.000000 0.554265 0.250000
O O4 0.995650 0.668652 0.110617
O O5 0.865214 0.868689 0.394515
O O6 0.694310 0.776480 0.186145
O O7 0.033764 0.881893 0.339580
O O8 0.591519 0.883114 0.007805
O O9 0.810770 0.073586 0.150474
O O10 0.744284 0.021235 0.968660
O O11 0.500000 0.094611 0.750000
O O12 0.291937 0.259394 0.575136
O O13 0.010702 0.750176 0.831902
O O14 0.366160 0.709033 0.961867
#
# Coordination Sequence:
#
# PCOD8118068 Si02
#       7
#     4   4   4   4   2   4   4
#     4   9  19  36  60  82 108 144 193 242 282 334
#     4  10  19  38  57  82 114 152 191 225 291 344
#     4  10  20  37  58  81 114 149 189 237 278 343
#     4  11  23  35  53  84 117 157 184 225 282 349
#     4  10  20  32  52  84 112 140 184 230 286 322
#     4  10  19  35  62  84 109 146 192 243 282 331
#     4  11  21  35  56  84 116 140 190 239 286 333
#
# _framework density 20.044198999999999
#
# number of rings (size 3 to 8) (size 9 to 14) (size 15 to 20)
#    0.000    1.846    3.846    1.846    0.000    4.308 
#    0.000    0.000    0.000    3.692    0.000    0.000 
#    0.000    0.000    0.000    0.000    0.000    0.000 
#
# Total GULP energy -322162.749885 kJ/mol
# GULP energy per Si atom -12390.874996 kJ/mol
# Density = 1.999858 g / cm^3
# Si number density = 20.044199 Si / 1000 Ang^3
#
#
#
# Elastic Constant Matrix: (Units=GPa)
#
#
# Indices 1 2 3 4 5 6 
#
# 1 79.8791 27.8973 15.8005 0.0000 -2.2755 0.0000
# 2 27.8973 133.8160 30.7402 0.0000 -1.8244 0.0000
# 3 15.8005 30.7402 66.6459 0.0000 -1.0954 0.0000
# 4 0.0000 0.0000 0.0000 26.2151 0.0000 -1.8616
# 5 -2.2755 -1.8244 -1.0954 0.0000 19.9897 0.0000
# 6 0.0000 0.0000 0.0000 -1.8616 0.0000 24.1486
#
#
#
# Elastic Compliance Matrix: (Units=1/GPa)
#
#
# Indices 1 2 3 4 5 6 
#
# 1 0.013808 -0.002365 -0.002162 0.000000 0.001237 0.000000
# 2 -0.002365 0.008770 -0.003479 0.000000 0.000341 0.000000
# 3 -0.002162 -0.003479 0.017128 0.000000 0.000375 0.000000
# 4 0.000000 0.000000 0.000000 0.038356 0.000000 0.002957
# 5 0.001237 0.000341 0.000375 0.000000 0.050218 0.000000
# 6 0.000000 0.000000 0.000000 0.002957 0.000000 0.041638
#
#
# Mechanical properties :
#
#
# Convention : Reuss Voigt Hill
#
# Bulk Modulus (GPa) = 42.20578 47.69077 44.94828
# Shear Modulus (GPa) = 25.79605 27.79755 26.79680
#
# Velocity S-wave (km/s) = 3.59131 3.72803 3.66031
# Velocity P-wave (km/s) = 6.18860 6.50964 6.35115
#
# Compressibility (1/GPa) = 0.02369344
#
# Stress axis : x y z
#
# Youngs Moduli (GPa) = 72.42252 114.02816 58.38371
#
# Poissons Ratio (x) = 0.26967 0.12625
# Poissons Ratio (y) = 0.17128 0.20310
# Poissons Ratio (z) = 0.15661 0.39667
#
# Static dielectric constant tensor:
#      x y z
#    x 3.473820 0.000000 0.058570 
#    y 0.000000 3.832900 0.000000 
#    z 0.058570 0.000000 3.487270 
# 
# 
# High freq. dielectric constant tensor:
#      x y z
#    x 1.757870 0.000000 0.008850 
#    y 0.000000 1.794460 0.000000 
#    z 0.008850 0.000000 1.768880 
# 
# From -- ./inp_files/50919.got.cif
#   From: 2010.06.25/outbox.cif.g09.slc.cpg/sg13_26_cif.got.tgz:50919.got - 2010.06.28 04:50:58.
