data_PCOD8118778
_publ_section_title
;
Structure prediction by ZEFSAII (Michael W. Deem and Ramdas Pophale) SiO2 
 PCOD8118778
Probable space group: P 2/C
;
_chemical_formula_sum "Si O2"
_cell_formula_units_Z 32
_cell_length_a 19.953570
_cell_length_b 9.015901
_cell_length_c 25.411677
_cell_angle_alpha 90.000000
_cell_angle_beta 159.234028
_cell_angle_gamma 90.000000
_cell_volume 1620.849343
_symmetry_space_group_name_H-M "P 2/C"
_symmetry_group_IT_number 13
_symmetry_cell_setting 'monoclinic'
loop_
_space_group_symop_operation_xyz
x,y,z
-x,y,1/2-z
-x,-y,-z
x,-y,1/2+z
loop_
_atom_site_type_symbol
_atom_site_label
_atom_site_fract_x
_atom_site_fract_y
_atom_site_fract_z
Si Si1 0.533279 0.102006 0.090568
Si Si2 0.239381 0.619710 0.047228
Si Si3 0.895392 0.382379 0.226979
Si Si4 0.544018 0.562624 0.974824
Si Si5 0.775562 0.030522 0.972029
Si Si6 0.795075 0.068518 0.188336
Si Si7 0.564050 0.529288 0.719703
Si Si8 0.423082 0.876093 0.762720
O O1 0.474051 0.265057 0.030737
O O2 0.688830 0.036391 0.165335
O O3 0.638525 0.094114 0.223223
O O4 0.333358 0.016038 0.948412
O O5 0.266101 0.796770 0.068791
O O6 0.260006 0.548770 0.120860
O O7 0.382814 0.554710 0.109707
O O8 0.033541 0.574730 0.875962
O O9 0.779655 0.239477 0.160880
O O10 0.000000 0.340739 0.250000
O O11 0.757988 0.520561 0.116848
O O12 0.419456 0.509573 0.832055
O O13 0.500000 0.500000 0.000000
O O14 0.621342 0.960662 0.898055
O O15 0.748427 0.940292 0.897859
O O16 0.988663 0.009989 0.150680
O O17 0.549819 0.700778 0.726416
#
# Coordination Sequence:
#
# PCOD8118778 Si02
#       8
#     4   4   4   4   4   4   4   4
#     4  10  23  40  59  85 117 164 195 243 298 363
#     4  10  20  35  58  91 112 149 200 243 292 348
#     4  11  22  38  64  91 118 155 198 251 296 351
#     4  11  22  41  61  85 123 159 199 243 303 360
#     4  10  21  37  59  90 118 151 197 252 291 358
#     4  10  23  40  59  86 120 154 203 241 297 350
#     4  10  20  36  59  86 121 152 192 244 297 358
#     4  10  21  36  59  86 119 154 190 243 309 348
#
# _framework density 19.742737000000002
#
# number of rings (size 3 to 8) (size 9 to 14) (size 15 to 20)
#    0.000    1.750    2.500    3.000    3.500    3.500 
#    0.000    0.625    0.000    0.000    0.000    0.000 
#    0.000    0.000    0.000    0.000    0.000    0.000 
#
# Total GULP energy -396529.608642 kJ/mol
# GULP energy per Si atom -12391.550270 kJ/mol
# Density = 1.969780 g / cm^3
# Si number density = 19.742737 Si / 1000 Ang^3
#
#
#
# Elastic Constant Matrix: (Units=GPa)
#
#
# Indices 1 2 3 4 5 6 
#
# 1 78.7384 18.6871 22.0038 0.0000 -22.9005 0.0000
# 2 18.6871 67.7647 30.0384 0.0000 -11.6133 0.0000
# 3 22.0038 30.0384 73.1046 0.0000 -8.9701 0.0000
# 4 0.0000 0.0000 0.0000 25.9675 0.0000 -1.5525
# 5 -22.9005 -11.6133 -8.9701 0.0000 31.7801 0.0000
# 6 0.0000 0.0000 0.0000 -1.5525 0.0000 28.1426
#
#
#
# Elastic Compliance Matrix: (Units=1/GPa)
#
#
# Indices 1 2 3 4 5 6 
#
# 1 0.017109 -0.001419 -0.003229 0.000000 0.010899 0.000000
# 2 -0.001419 0.018853 -0.006837 0.000000 0.003938 0.000000
# 3 -0.003229 -0.006837 0.017473 0.000000 0.000107 0.000000
# 4 0.000000 0.000000 0.000000 0.038637 0.000000 0.002131
# 5 0.010899 0.003938 0.000107 0.000000 0.040789 0.000000
# 6 0.000000 0.000000 0.000000 0.002131 0.000000 0.035651
#
#
# Mechanical properties :
#
#
# Convention : Reuss Voigt Hill
#
# Bulk Modulus (GPa) = 32.82311 40.11847 36.47079
# Shear Modulus (GPa) = 24.79688 27.10326 25.95007
#
# Velocity S-wave (km/s) = 3.54785 3.70918 3.62941
# Velocity P-wave (km/s) = 5.78312 6.22164 6.00638
#
# Compressibility (1/GPa) = 0.03046634
#
# Stress axis : x y z
#
# Youngs Moduli (GPa) = 58.44758 53.04056 57.23021
#
# Poissons Ratio (x) = 0.07525 0.18482
# Poissons Ratio (y) = 0.08292 0.39126
# Poissons Ratio (z) = 0.18875 0.36262
#
# Static dielectric constant tensor:
#      x y z
#    x 3.647240 0.000000 -0.292580 
#    y 0.000000 3.759950 0.000000 
#    z -0.292580 0.000000 3.790980 
# 
# 
# High freq. dielectric constant tensor:
#      x y z
#    x 1.769430 0.000000 -0.020750 
#    y 0.000000 1.775150 0.000000 
#    z -0.020750 0.000000 1.765970 
# 
# From -- ./inp_files/93606.got.cif
#   From: 2010.06.25/outbox.cif.g09.slc.cpg/sg13_47_cif.got.tgz:93606.got - 2010.06.28 04:50:58.
