data_PCOD8118244
_publ_section_title
;
Structure prediction by ZEFSAII (Michael W. Deem and Ramdas Pophale) SiO2 
 PCOD8118244
Probable space group: P 2/C
;
_chemical_formula_sum "Si O2"
_cell_formula_units_Z 28
_cell_length_a 9.421896
_cell_length_b 11.285938
_cell_length_c 14.608189
_cell_angle_alpha 90.000000
_cell_angle_beta 119.323492
_cell_angle_gamma 90.000000
_cell_volume 1354.326435
_symmetry_space_group_name_H-M "P 2/C"
_symmetry_group_IT_number 13
_symmetry_cell_setting 'monoclinic'
loop_
_space_group_symop_operation_xyz
x,y,z
-x,y,1/2-z
-x,-y,-z
x,-y,1/2+z
loop_
_atom_site_type_symbol
_atom_site_label
_atom_site_fract_x
_atom_site_fract_y
_atom_site_fract_z
Si Si1 0.192703 0.482651 0.647957
Si Si2 0.609884 0.307622 0.362565
Si Si3 0.365641 0.729252 0.284385
Si Si4 0.903860 0.857716 0.940127
Si Si5 0.091225 0.931469 0.180564
Si Si6 0.911145 0.646351 0.561411
Si Si7 0.445768 0.365688 0.488361
O O1 0.334613 0.558324 0.644048
O O2 0.273485 0.396658 0.747702
O O3 0.108456 0.397445 0.548356
O O4 0.057329 0.567848 0.652611
O O5 0.500000 0.250474 0.250000
O O6 0.765005 0.229281 0.430192
O O7 0.490826 0.302736 0.409761
O O8 0.500000 0.753128 0.250000
O O9 0.233348 0.835063 0.241687
O O10 0.467811 0.716724 0.409102
O O11 0.043337 0.784428 0.930729
O O12 0.834035 0.948533 0.840513
O O13 0.965376 0.905192 0.057657
O O14 0.000000 0.949552 0.250000
O O15 0.748625 0.634752 0.567765
O O16 0.500000 0.500000 0.500000
#
# Coordination Sequence:
#
# PCOD8118244 Si02
#       7
#     4   4   4   4   4   4   4
#     4  10  19  37  61  88 128 167 196 242 317 386
#     4  11  23  40  61  89 129 168 204 258 314 378
#     4  12  22  39  63  95 130 165 207 264 330 379
#     4  10  23  45  63  86 124 169 213 261 321 374
#     4  11  24  42  66  91 118 162 221 275 313 373
#     4  10  20  37  64  87 127 168 201 247 311 385
#     4  12  22  36  62 100 133 163 208 259 321 398
#
# _framework density 20.674484
#
# number of rings (size 3 to 8) (size 9 to 14) (size 15 to 20)
#    0.000    1.143    4.286    2.143    0.000    2.857 
#    0.000    5.000    0.000    6.857    0.000    0.000 
#    0.000    0.000    0.000    0.000    0.000    0.000 
#
# Total GULP energy -346975.949978 kJ/mol
# GULP energy per Si atom -12391.998213 kJ/mol
# Density = 2.062743 g / cm^3
# Si number density = 20.674484 Si / 1000 Ang^3
#
#
#
# Elastic Constant Matrix: (Units=GPa)
#
#
# Indices 1 2 3 4 5 6 
#
# 1 145.0556 36.4478 53.6848 0.0000 -14.7800 0.0000
# 2 36.4478 85.7352 23.4717 0.0000 -11.1162 0.0000
# 3 53.6848 23.4717 94.9562 0.0000 -14.3864 0.0000
# 4 0.0000 0.0000 0.0000 43.4540 0.0000 -11.4697
# 5 -14.7800 -11.1162 -14.3864 0.0000 29.8553 0.0000
# 6 0.0000 0.0000 0.0000 -11.4697 0.0000 24.2092
#
#
#
# Elastic Compliance Matrix: (Units=1/GPa)
#
#
# Indices 1 2 3 4 5 6 
#
# 1 0.009324 -0.002558 -0.004406 0.000000 0.001540 0.000000
# 2 -0.002558 0.013544 -0.001434 0.000000 0.003085 0.000000
# 3 -0.004406 -0.001434 0.013986 0.000000 0.004024 0.000000
# 4 0.000000 0.000000 0.000000 0.026302 0.000000 0.012461
# 5 0.001540 0.003085 0.004024 0.000000 0.037346 0.000000
# 6 0.000000 0.000000 0.000000 0.012461 0.000000 0.047211
#
#
# Mechanical properties :
#
#
# Convention : Reuss Voigt Hill
#
# Bulk Modulus (GPa) = 49.85447 61.43953 55.64700
# Shear Modulus (GPa) = 29.20647 33.64653 31.42650
#
# Velocity S-wave (km/s) = 3.76264 4.03853 3.90303
# Velocity P-wave (km/s) = 6.56072 7.17833 6.87646
#
# Compressibility (1/GPa) = 0.02005838
#
# Stress axis : x y z
#
# Youngs Moduli (GPa) = 107.24762 73.83361 71.49836
#
# Poissons Ratio (x) = 0.18887 0.31501
# Poissons Ratio (y) = 0.27434 0.10254
# Poissons Ratio (z) = 0.47252 0.10589
#
# Static dielectric constant tensor:
#      x y z
#    x 3.929610 0.000000 0.166210 
#    y 0.000000 3.953640 0.000000 
#    z 0.166210 0.000000 3.762030 
# 
# 
# High freq. dielectric constant tensor:
#      x y z
#    x 1.812850 0.000000 0.009010 
#    y 0.000000 1.804120 0.000000 
#    z 0.009010 0.000000 1.811050 
# 
# From -- ./inp_files/47139.got.cif
#   From: 2010.06.25/outbox.cif.g09.slc.cpg/sg13_24_cif.got.tgz:47139.got - 2010.06.28 04:50:58.
