data_PCOD8118746
_publ_section_title
;
Structure prediction by ZEFSAII (Michael W. Deem and Ramdas Pophale) SiO2 
 PCOD8118746
Probable space group: P 2/C
;
_chemical_formula_sum "Si O2"
_cell_formula_units_Z 24
_cell_length_a 26.654838
_cell_length_b 8.211817
_cell_length_c 19.582636
_cell_angle_alpha 90.000000
_cell_angle_beta 16.822949
_cell_angle_gamma 90.000000
_cell_volume 1240.531565
_symmetry_space_group_name_H-M "P 2/C"
_symmetry_group_IT_number 13
_symmetry_cell_setting 'monoclinic'
loop_
_space_group_symop_operation_xyz
x,y,z
-x,y,1/2-z
-x,-y,-z
x,-y,1/2+z
loop_
_atom_site_type_symbol
_atom_site_label
_atom_site_fract_x
_atom_site_fract_y
_atom_site_fract_z
Si Si1 0.530341 0.366796 0.786765
Si Si2 0.496934 0.375659 0.442188
Si Si3 0.331141 0.939258 0.809093
Si Si4 0.323893 0.068030 0.077963
Si Si5 0.819219 0.888734 0.881800
Si Si6 0.204569 0.867120 0.347933
O O1 0.500000 0.426820 0.750000
O O2 0.541088 0.528841 0.816097
O O3 0.704724 0.258190 0.562090
O O4 0.367371 0.260136 0.026934
O O5 0.500000 0.500000 0.500000
O O6 0.652108 0.241712 0.244502
O O7 0.306794 0.291597 0.687744
O O8 0.503325 0.967100 0.629971
O O9 0.315394 0.064346 0.766892
O O10 0.175842 0.968388 0.066395
O O11 0.260011 0.035079 0.084142
O O12 0.183925 0.006448 0.315939
O O13 0.011247 0.818195 0.621095
#
# Coordination Sequence:
#
# PCOD8118746 Si02
#       6
#     4   4   4   4   4   4
#     4   9  19  36  56  77 109 145 174 210 268 329
#     4  11  21  35  55  78 108 146 178 211 263 328
#     4  10  20  35  57  79 103 142 184 216 258 320
#     4   9  18  36  58  78 105 143 179 215 264 321
#     4  10  20  37  57  81 108 137 177 230 270 302
#     4  11  21  35  57  83 106 137 183 230 262 302
#
# _framework density 19.346547000000001
#
# number of rings (size 3 to 8) (size 9 to 14) (size 15 to 20)
#    0.000    2.000    0.000    7.500    0.000    2.667 
#    0.000    8.333    0.000    0.000    0.000    0.000 
#    0.000    0.000    0.000    0.000    0.000    0.000 
#
# Total GULP energy -297415.420031 kJ/mol
# GULP energy per Si atom -12392.309168 kJ/mol
# Density = 1.930251 g / cm^3
# Si number density = 19.346547 Si / 1000 Ang^3
#
#
#
# Elastic Constant Matrix: (Units=GPa)
#
#
# Indices 1 2 3 4 5 6 
#
# 1 108.2082 59.6617 39.2404 0.0000 13.9558 0.0000
# 2 59.6617 96.0340 50.4205 0.0000 10.2808 0.0000
# 3 39.2404 50.4205 110.5991 0.0000 14.4654 0.0000
# 4 0.0000 0.0000 0.0000 25.7982 0.0000 13.1960
# 5 13.9558 10.2808 14.4654 0.0000 25.0688 0.0000
# 6 0.0000 0.0000 0.0000 13.1960 0.0000 37.7394
#
#
#
# Elastic Compliance Matrix: (Units=1/GPa)
#
#
# Indices 1 2 3 4 5 6 
#
# 1 0.014612 -0.008141 -0.000915 0.000000 -0.004268 0.000000
# 2 -0.008141 0.018336 -0.005495 0.000000 0.000183 0.000000
# 3 -0.000915 -0.005495 0.012449 0.000000 -0.004421 0.000000
# 4 0.000000 0.000000 0.000000 0.047205 0.000000 -0.016506
# 5 -0.004268 0.000183 -0.004421 0.000000 0.044742 0.000000
# 6 0.000000 0.000000 0.000000 -0.016506 0.000000 0.032269
#
#
# Mechanical properties :
#
#
# Convention : Reuss Voigt Hill
#
# Bulk Modulus (GPa) = 61.36135 68.16515 64.76325
# Shear Modulus (GPa) = 24.49227 28.75587 26.62407
#
# Velocity S-wave (km/s) = 3.56192 3.85951 3.71370
# Velocity P-wave (km/s) = 6.97869 7.42774 7.20672
#
# Compressibility (1/GPa) = 0.01629690
#
# Stress axis : x y z
#
# Youngs Moduli (GPa) = 68.43646 54.53883 80.32514
#
# Poissons Ratio (x) = 0.44398 0.07349
# Poissons Ratio (y) = 0.55711 0.44135
# Poissons Ratio (z) = 0.06262 0.29967
#
# Static dielectric constant tensor:
#      x y z
#    x 3.826010 0.000000 0.368490 
#    y 0.000000 3.524580 0.000000 
#    z 0.368490 0.000000 3.648860 
# 
# 
# High freq. dielectric constant tensor:
#      x y z
#    x 1.768360 0.000000 0.020760 
#    y 0.000000 1.730110 0.000000 
#    z 0.020760 0.000000 1.741500 
# 
# From -- ./inp_files/71219.got.cif
#   From: 2010.06.25/outbox.cif.g09.slc.cpg/sg13_36_cif.got.tgz:71219.got - 2010.06.28 04:50:58.
