data_PCOD8118022
_publ_section_title
;
Structure prediction by ZEFSAII (Michael W. Deem and Ramdas Pophale) SiO2 
 PCOD8118022
Probable space group: P 2/C
;
_chemical_formula_sum "Si O2"
_cell_formula_units_Z 22
_cell_length_a 8.087775
_cell_length_b 15.363250
_cell_length_c 8.873522
_cell_angle_alpha 90.000000
_cell_angle_beta 83.194384
_cell_angle_gamma 90.000000
_cell_volume 1094.806264
_symmetry_space_group_name_H-M "P 2/C"
_symmetry_group_IT_number 13
_symmetry_cell_setting 'monoclinic'
loop_
_space_group_symop_operation_xyz
x,y,z
-x,y,1/2-z
-x,-y,-z
x,-y,1/2+z
loop_
_atom_site_type_symbol
_atom_site_label
_atom_site_fract_x
_atom_site_fract_y
_atom_site_fract_z
Si Si1 0.142752 0.568845 0.458750
Si Si2 0.736859 0.955648 0.976394
Si Si3 0.053360 0.128600 0.573983
Si Si4 0.307849 0.558981 0.748190
Si Si5 0.500000 0.015858 0.250000
Si Si6 0.079329 0.295452 0.402389
O O1 0.276121 0.569913 0.577139
O O2 0.239958 0.538037 0.298987
O O3 0.000000 0.500000 0.500000
O O4 0.058573 0.664022 0.466885
O O5 0.631011 0.927866 0.837837
O O6 0.813527 0.051345 0.942176
O O7 0.888211 0.890402 0.991560
O O8 0.608737 0.954555 0.129188
O O9 0.143886 0.209927 0.482706
O O10 0.000000 0.149065 0.750000
O O11 0.500000 0.566136 0.750000
O O12 0.224859 0.634574 0.859033
O O13 0.000000 0.270964 0.250000
#
# Coordination Sequence:
#
# PCOD8118022 Si02
#       6
#     4   4   4   4   2   4
#     4   9  18  35  57  82 108 153 192 230 275 350
#     4  10  22  38  62  87 114 152 201 237 293 341
#     4  11  22  38  59  87 115 157 202 239 277 359
#     4  10  19  35  58  86 116 144 194 242 289 338
#     4  10  20  40  60  86 116 144 188 250 296 340
#     4   9  21  36  55  80 116 153 197 234 286 345
#
# _framework density 20.09488
#
# number of rings (size 3 to 8) (size 9 to 14) (size 15 to 20)
#    0.000    2.182    1.818    2.182    2.545    2.909 
#    1.636    1.818    2.000    0.000    0.000    0.000 
#    0.000    0.000    0.000    0.000    0.000    0.000 
#
# Total GULP energy -272593.179228 kJ/mol
# GULP energy per Si atom -12390.599056 kJ/mol
# Density = 2.004914 g / cm^3
# Si number density = 20.094880 Si / 1000 Ang^3
#
#
#
# Elastic Constant Matrix: (Units=GPa)
#
#
# Indices 1 2 3 4 5 6 
#
# 1 99.2724 -0.7801 10.6646 0.0000 13.0009 0.0000
# 2 -0.7801 61.1685 11.4633 0.0000 -2.1907 0.0000
# 3 10.6646 11.4633 52.7750 0.0000 -4.7146 0.0000
# 4 0.0000 0.0000 0.0000 27.1059 0.0000 -0.7786
# 5 13.0009 -2.1907 -4.7146 0.0000 34.7624 0.0000
# 6 0.0000 0.0000 0.0000 -0.7786 0.0000 15.2703
#
#
#
# Elastic Compliance Matrix: (Units=1/GPa)
#
#
# Indices 1 2 3 4 5 6 
#
# 1 0.010949 0.000490 -0.002715 0.000000 -0.004432 0.000000
# 2 0.000490 0.017075 -0.003774 0.000000 0.000381 0.000000
# 3 -0.002715 -0.003774 0.020636 0.000000 0.003576 0.000000
# 4 0.000000 0.000000 0.000000 0.036946 0.000000 0.001884
# 5 -0.004432 0.000381 0.003576 0.000000 0.030933 0.000000
# 6 0.000000 0.000000 0.000000 0.001884 0.000000 0.065583
#
#
# Mechanical properties :
#
#
# Convention : Reuss Voigt Hill
#
# Bulk Modulus (GPa) = 27.27568 28.43461 27.85515
# Shear Modulus (GPa) = 24.23154 28.21891 26.22523
#
# Velocity S-wave (km/s) = 3.47631 3.75144 3.61649
# Velocity P-wave (km/s) = 5.45123 5.73980 5.59738
#
# Compressibility (1/GPa) = 0.03666269
#
# Stress axis : x y z
#
# Youngs Moduli (GPa) = 91.33041 58.56375 48.45860
#
# Poissons Ratio (x) = -0.02868 0.13156
# Poissons Ratio (y) = -0.04472 0.18288
# Poissons Ratio (z) = 0.24795 0.22101
#
# Static dielectric constant tensor:
#      x y z
#    x 3.733460 0.000000 0.059740 
#    y 0.000000 3.723610 0.000000 
#    z 0.059740 0.000000 3.669270 
# 
# 
# High freq. dielectric constant tensor:
#      x y z
#    x 1.787080 0.000000 0.005520 
#    y 0.000000 1.751790 0.000000 
#    z 0.005520 0.000000 1.791640 
# 
# From -- ./inp_files/12327.got.cif
#   From: 2010.06.25/outbox.cif.g09.slc.cpg/sg13_7_cif.got.tgz:12327.got - 2010.06.28 04:50:58.
