data_PCOD8118122
_publ_section_title
;
Structure prediction by ZEFSAII (Michael W. Deem and Ramdas Pophale) SiO2 
 PCOD8118122
Probable space group: P 2/C
;
_chemical_formula_sum "Si O2"
_cell_formula_units_Z 18
_cell_length_a 22.831686
_cell_length_b 9.214340
_cell_length_c 13.730291
_cell_angle_alpha 90.000000
_cell_angle_beta 19.227135
_cell_angle_gamma 90.000000
_cell_volume 951.244087
_symmetry_space_group_name_H-M "P 2/C"
_symmetry_group_IT_number 13
_symmetry_cell_setting 'monoclinic'
loop_
_space_group_symop_operation_xyz
x,y,z
-x,y,1/2-z
-x,-y,-z
x,-y,1/2+z
loop_
_atom_site_type_symbol
_atom_site_label
_atom_site_fract_x
_atom_site_fract_y
_atom_site_fract_z
Si Si1 0.707469 0.474907 0.698673
Si Si2 0.315943 0.667631 0.065513
Si Si3 0.006581 0.839396 0.448795
Si Si4 0.824782 0.412465 0.308481
Si Si5 0.000000 0.717389 0.250000
O O1 0.720097 0.355913 0.763927
O O2 0.808992 0.402078 0.449076
O O3 0.820420 0.620828 0.547304
O O4 0.500000 0.500000 0.000000
O O5 0.167485 0.766588 0.252566
O O6 0.334690 0.508438 0.984641
O O7 0.500000 0.747801 0.750000
O O8 0.028505 0.824103 0.297813
O O9 0.828796 0.750554 0.759147
O O10 0.000000 0.000000 0.500000
O O11 0.000000 0.500000 0.000000
#
# Coordination Sequence:
#
# PCOD8118122 Si02
#       5
#     4   4   4   4   2
#     4  12  21  35  68  96 119 157 209 263 312 355
#     4  11  20  38  62  92 121 155 209 263 301 356
#     4  11  24  39  60  88 127 170 199 245 312 379
#     4  10  19  36  58  89 113 157 206 247 296 353
#     4  12  20  40  62  88 124 162 206 256 308 364
#
# _framework density 18.922588999999999
#
# number of rings (size 3 to 8) (size 9 to 14) (size 15 to 20)
#    0.000    0.889    8.889    1.333    0.000    1.778 
#    0.000    3.333    0.000    5.333    0.000    0.000 
#    0.000    0.000    0.000    0.000    0.000    0.000 
#
# Total GULP energy -223010.259714 kJ/mol
# GULP energy per Si atom -12389.458873 kJ/mol
# Density = 1.887952 g / cm^3
# Si number density = 18.922589 Si / 1000 Ang^3
#
#
#
# Elastic Constant Matrix: (Units=GPa)
#
#
# Indices 1 2 3 4 5 6 
#
# 1 167.8695 51.0704 54.2944 0.0000 24.7787 0.0000
# 2 51.0704 119.4891 36.4365 0.0000 2.6602 0.0000
# 3 54.2944 36.4365 92.2239 0.0000 2.7964 0.0000
# 4 0.0000 0.0000 0.0000 12.9247 0.0000 4.0538
# 5 24.7787 2.6602 2.7964 0.0000 46.1107 0.0000
# 6 0.0000 0.0000 0.0000 4.0538 0.0000 24.7195
#
#
#
# Elastic Compliance Matrix: (Units=1/GPa)
#
#
# Indices 1 2 3 4 5 6 
#
# 1 0.008594 -0.002359 -0.003999 0.000000 -0.004240 0.000000
# 2 -0.002359 0.010168 -0.002654 0.000000 0.000842 0.000000
# 3 -0.003999 -0.002654 0.014202 0.000000 0.001441 0.000000
# 4 0.000000 0.000000 0.000000 0.081567 0.000000 -0.013376
# 5 -0.004240 0.000842 0.001441 0.000000 0.023829 0.000000
# 6 0.000000 0.000000 0.000000 -0.013376 0.000000 0.042648
#
#
# Mechanical properties :
#
#
# Convention : Reuss Voigt Hill
#
# Bulk Modulus (GPa) = 66.93337 73.68723 70.31030
# Shear Modulus (GPa) = 24.50850 32.60305 28.55578
#
# Velocity S-wave (km/s) = 3.60279 4.15537 3.88891
# Velocity P-wave (km/s) = 7.26332 7.87710 7.57643
#
# Compressibility (1/GPa) = 0.01494023
#
# Stress axis : x y z
#
# Youngs Moduli (GPa) = 116.36184 98.34942 70.41212
#
# Poissons Ratio (x) = 0.23204 0.28156
# Poissons Ratio (y) = 0.27454 0.18685
# Poissons Ratio (z) = 0.46530 0.26099
#
# Static dielectric constant tensor:
#      x y z
#    x 3.888580 0.000000 -0.083560 
#    y 0.000000 3.858910 0.000000 
#    z -0.083560 0.000000 2.589450 
# 
# 
# High freq. dielectric constant tensor:
#      x y z
#    x 1.762380 0.000000 0.003950 
#    y 0.000000 1.688960 0.000000 
#    z 0.003950 0.000000 1.741540 
# 
# From -- ./inp_files/56981.got.cif
#   From: 2010.06.25/outbox.cif.g09.slc.cpg/sg13_29_cif.got.tgz:56981.got - 2010.06.28 04:50:58.
