data_PCOD8118289
_publ_section_title
;
Structure prediction by ZEFSAII (Michael W. Deem and Ramdas Pophale) SiO2 
 PCOD8118289
Probable space group: P 2/C
;
_chemical_formula_sum "Si O2"
_cell_formula_units_Z 18
_cell_length_a 18.232211
_cell_length_b 8.448236
_cell_length_c 5.361057
_cell_angle_alpha 90.000000
_cell_angle_beta 79.272060
_cell_angle_gamma 90.000000
_cell_volume 811.331142
_symmetry_space_group_name_H-M "P 2/C"
_symmetry_group_IT_number 13
_symmetry_cell_setting 'monoclinic'
loop_
_space_group_symop_operation_xyz
x,y,z
-x,y,1/2-z
-x,-y,-z
x,-y,1/2+z
loop_
_atom_site_type_symbol
_atom_site_label
_atom_site_fract_x
_atom_site_fract_y
_atom_site_fract_z
Si Si1 0.380612 0.583752 0.508004
Si Si2 0.583673 0.937185 0.957130
Si Si3 0.207569 0.351710 0.115336
Si Si4 0.000000 0.893095 0.250000
Si Si5 0.149444 0.695872 0.151993
O O1 0.408951 0.478318 0.722291
O O2 0.418394 0.750799 0.524745
O O3 0.291429 0.587207 0.569271
O O4 0.625402 0.991620 0.675720
O O5 0.500000 0.000000 0.000000
O O6 0.151360 0.503234 0.148291
O O7 0.191006 0.246057 0.371887
O O8 0.192876 0.247598 0.875771
O O9 0.931438 0.772415 0.292733
O O10 0.000000 0.000000 0.500000
#
# Coordination Sequence:
#
# PCOD8118289 Si02
#       5
#     4   4   4   2   4
#     4  12  21  40  71 103 129 166 230 289 321 388
#     4  10  23  45  64  92 142 178 213 257 339 417
#     4  10  19  37  65  91 117 146 209 282 322 356
#     4  12  26  42  56  84 132 176 214 244 316 414
#     4  10  20  38  61  87 123 153 207 264 320 368
#
# _framework density 22.185765
#
# number of rings (size 3 to 8) (size 9 to 14) (size 15 to 20)
#    0.000    1.333    4.444    2.667    0.000    3.556 
#    0.000   20.000    0.000    0.000    0.000    0.000 
#    0.000    0.000    0.000    0.000    0.000    0.000 
#
# Total GULP energy -223024.974528 kJ/mol
# GULP energy per Si atom -12390.276363 kJ/mol
# Density = 2.213527 g / cm^3
# Si number density = 22.185765 Si / 1000 Ang^3
#
#
#
# Elastic Constant Matrix: (Units=GPa)
#
#
# Indices 1 2 3 4 5 6 
#
# 1 40.6308 44.4384 17.7208 0.0000 11.3164 0.0000
# 2 44.4384 102.8462 31.9724 0.0000 10.0835 0.0000
# 3 17.7208 31.9724 247.4983 0.0000 31.4991 0.0000
# 4 0.0000 0.0000 0.0000 35.9787 0.0000 4.7013
# 5 11.3164 10.0835 31.4991 0.0000 14.3834 0.0000
# 6 0.0000 0.0000 0.0000 4.7013 0.0000 13.8806
#
#
#
# Elastic Compliance Matrix: (Units=1/GPa)
#
#
# Indices 1 2 3 4 5 6 
#
# 1 0.058300 -0.022588 0.003558 0.000000 -0.037824 0.000000
# 2 -0.022588 0.019253 -0.001960 0.000000 0.008567 0.000000
# 3 0.003558 -0.001960 0.005851 0.000000 -0.014238 0.000000
# 4 0.000000 0.000000 0.000000 0.029081 0.000000 -0.009850
# 5 -0.037824 0.008567 -0.014238 0.000000 0.124458 0.000000
# 6 0.000000 0.000000 0.000000 -0.009850 0.000000 0.075379
#
#
# Mechanical properties :
#
#
# Convention : Reuss Voigt Hill
#
# Bulk Modulus (GPa) = 24.14165 64.35983 44.25074
# Shear Modulus (GPa) = 13.58286 32.63811 23.11048
#
# Velocity S-wave (km/s) = 2.47702 3.83969 3.23101
# Velocity P-wave (km/s) = 4.36876 6.98070 5.82306
#
# Compressibility (1/GPa) = 0.04142219
#
# Stress axis : x y z
#
# Youngs Moduli (GPa) = 17.15274 51.94091 170.90959
#
# Poissons Ratio (x) = 1.17324 -0.60802
# Poissons Ratio (y) = 0.38745 0.33501
# Poissons Ratio (z) = -0.06102 0.10181
#
# Static dielectric constant tensor:
#      x y z
#    x 3.625920 0.000000 -0.005910 
#    y 0.000000 4.011140 0.000000 
#    z -0.005910 0.000000 5.009530 
# 
# 
# High freq. dielectric constant tensor:
#      x y z
#    x 1.844680 0.000000 0.011210 
#    y 0.000000 1.842880 0.000000 
#    z 0.011210 0.000000 1.925490 
# 
# From -- ./inp_files/5857.got.cif
#   From: 2010.06.25/outbox.cif.g09.slc.cpg/sg13_3_cif.got.tgz:5857.got - 2010.06.28 04:50:58.
