data_PCOD8118443
_publ_section_title
;
Structure prediction by ZEFSAII (Michael W. Deem and Ramdas Pophale) SiO2 
 PCOD8118443
Probable space group: P 2/C
;
_chemical_formula_sum "Si O2"
_cell_formula_units_Z 28
_cell_length_a 8.496187
_cell_length_b 9.322060
_cell_length_c 23.932297
_cell_angle_alpha 90.000000
_cell_angle_beta 139.235812
_cell_angle_gamma 90.000000
_cell_volume 1237.651829
_symmetry_space_group_name_H-M "P 2/C"
_symmetry_group_IT_number 13
_symmetry_cell_setting 'monoclinic'
loop_
_space_group_symop_operation_xyz
x,y,z
-x,y,1/2-z
-x,-y,-z
x,-y,1/2+z
loop_
_atom_site_type_symbol
_atom_site_label
_atom_site_fract_x
_atom_site_fract_y
_atom_site_fract_z
Si Si1 0.537460 0.624693 0.139556
Si Si2 0.266031 0.667166 0.837407
Si Si3 0.057474 0.389345 0.579925
Si Si4 0.231396 0.344528 0.454830
Si Si5 0.727519 0.841213 0.941465
Si Si6 0.743543 0.814409 0.281570
Si Si7 0.990799 0.949391 0.907329
O O1 0.690943 0.479125 0.185376
O O2 0.309555 0.591980 0.117103
O O3 0.689380 0.761417 0.203930
O O4 0.465617 0.668227 0.057273
O O5 0.311482 0.618013 0.913761
O O6 0.447637 0.796122 0.869925
O O7 0.000000 0.722266 0.750000
O O8 0.084988 0.305277 0.645028
O O9 0.946789 0.542295 0.564634
O O10 0.884702 0.303025 0.491082
O O11 0.098372 0.194368 0.412025
O O12 0.781308 0.915067 0.896276
O O13 0.796472 0.956795 0.007420
O O14 0.500000 0.826424 0.250000
O O15 0.877657 0.967219 0.323533
#
# Coordination Sequence:
#
# PCOD8118443 Si02
#       7
#     4   4   4   4   4   4   4
#     4  11  21  41  69 100 135 177 234 290 337 401
#     4  12  27  43  63  99 147 184 226 278 350 416
#     4  10  19  40  72 102 129 174 237 296 331 388
#     4  12  23  40  70 103 133 182 232 281 344 412
#     4  10  21  42  71 100 136 174 226 286 341 410
#     4   9  21  38  65  99 136 168 221 284 344 398
#     4  10  22  41  72 102 130 176 229 284 346 395
#
# _framework density 22.623487000000001
#
# number of rings (size 3 to 8) (size 9 to 14) (size 15 to 20)
#    0.000    1.429    2.857    2.571    2.000    1.714 
#    0.000    3.571    0.000    0.000    0.000    0.000 
#    0.000    0.000    0.000    0.000    0.000    0.000 
#
# Total GULP energy -347177.365550 kJ/mol
# GULP energy per Si atom -12399.191627 kJ/mol
# Density = 2.257199 g / cm^3
# Si number density = 22.623487 Si / 1000 Ang^3
#
#
#
# Elastic Constant Matrix: (Units=GPa)
#
#
# Indices 1 2 3 4 5 6 
#
# 1 59.2732 32.3361 37.7766 0.0000 -0.4467 0.0000
# 2 32.3361 150.7754 53.3409 0.0000 9.8929 0.0000
# 3 37.7766 53.3409 136.9411 0.0000 1.8255 0.0000
# 4 0.0000 0.0000 0.0000 42.8530 0.0000 0.0426
# 5 -0.4467 9.8929 1.8255 0.0000 33.2006 0.0000
# 6 0.0000 0.0000 0.0000 0.0426 0.0000 19.9627
#
#
#
# Elastic Compliance Matrix: (Units=1/GPa)
#
#
# Indices 1 2 3 4 5 6 
#
# 1 0.021591 -0.003030 -0.004795 0.000000 0.001457 0.000000
# 2 -0.003030 0.008271 -0.002354 0.000000 -0.002376 0.000000
# 3 -0.004795 -0.002354 0.009541 0.000000 0.000112 0.000000
# 4 0.000000 0.000000 0.000000 0.023336 0.000000 -0.000050
# 5 0.001457 -0.002376 0.000112 0.000000 0.030841 0.000000
# 6 0.000000 0.000000 0.000000 -0.000050 0.000000 0.050093
#
#
# Mechanical properties :
#
#
# Convention : Reuss Voigt Hill
#
# Bulk Modulus (GPa) = 52.50951 65.98853 59.24902
# Shear Modulus (GPa) = 29.34622 34.10569 31.72595
#
# Velocity S-wave (km/s) = 3.60551 3.88691 3.74885
# Velocity P-wave (km/s) = 6.37131 7.02678 6.70705
#
# Compressibility (1/GPa) = 0.01904417
#
# Stress axis : x y z
#
# Youngs Moduli (GPa) = 46.31547 120.90604 104.81306
#
# Poissons Ratio (x) = 0.36630 0.50263
# Poissons Ratio (y) = 0.14032 0.24675
# Poissons Ratio (z) = 0.22210 0.28464
#
# Static dielectric constant tensor:
#      x y z
#    x 3.866760 0.000000 -0.128640 
#    y 0.000000 4.179020 0.000000 
#    z -0.128640 0.000000 4.324520 
# 
# 
# High freq. dielectric constant tensor:
#      x y z
#    x 1.867970 0.000000 -0.002430 
#    y 0.000000 1.901140 0.000000 
#    z -0.002430 0.000000 1.895270 
# 
# From -- ./inp_files/91480.got.cif
#   From: 2010.06.25/outbox.cif.g09.slc.cpg/sg13_46_cif.got.tgz:91480.got - 2010.06.28 04:50:58.
