data_PCOD8118685
_publ_section_title
;
Structure prediction by ZEFSAII (Michael W. Deem and Ramdas Pophale) SiO2 
 PCOD8118685
Probable space group: P 2/C
;
_chemical_formula_sum "Si O2"
_cell_formula_units_Z 28
_cell_length_a 19.093982
_cell_length_b 9.175849
_cell_length_c 14.390286
_cell_angle_alpha 90.000000
_cell_angle_beta 151.912151
_cell_angle_gamma 90.000000
_cell_volume 1187.056846
_symmetry_space_group_name_H-M "P 2/C"
_symmetry_group_IT_number 13
_symmetry_cell_setting 'monoclinic'
loop_
_space_group_symop_operation_xyz
x,y,z
-x,y,1/2-z
-x,-y,-z
x,-y,1/2+z
loop_
_atom_site_type_symbol
_atom_site_label
_atom_site_fract_x
_atom_site_fract_y
_atom_site_fract_z
Si Si1 0.291135 0.659105 0.650460
Si Si2 0.500000 0.459393 0.250000
Si Si3 0.000000 0.499312 0.250000
Si Si4 0.138377 0.011124 0.288919
Si Si5 0.919034 0.677518 0.831551
Si Si6 0.765588 0.207316 0.744648
Si Si7 0.339076 0.487561 0.388096
Si Si8 0.199144 0.023158 0.069639
O O1 0.372358 0.642229 0.646377
O O2 0.123069 0.601067 0.442427
O O3 0.386481 0.569657 0.840856
O O4 0.285881 0.825117 0.679059
O O5 0.566591 0.562961 0.410415
O O6 0.077456 0.395296 0.265723
O O7 0.231662 0.888006 0.345453
O O8 0.195538 0.026547 0.459728
O O9 0.163946 0.166675 0.270852
O O10 0.966095 0.963001 0.081418
O O11 0.828832 0.575081 0.796809
O O12 0.083175 0.704217 0.061362
O O13 0.646019 0.335843 0.592515
O O14 0.718698 0.103523 0.775790
#
# Coordination Sequence:
#
# PCOD8118685 Si02
#       8
#     4   2   2   4   4   4   4   4
#     4  12  25  44  70  98 137 179 224 280 338 403
#     4  12  28  48  64  96 136 184 232 284 338 400
#     4  12  22  38  70 106 136 168 222 276 336 396
#     4  10  20  34  60  99 142 171 204 268 346 398
#     4  11  21  37  65 107 141 168 217 278 334 403
#     4  11  21  38  63 101 136 168 216 277 339 399
#     4  12  25  42  69  95 135 181 230 276 335 397
#     4  10  21  37  60  92 134 173 215 265 336 399
#
# _framework density 23.587748999999999
#
# number of rings (size 3 to 8) (size 9 to 14) (size 15 to 20)
#    0.000    0.857    2.857    7.714    2.000    0.000 
#    0.000    0.714    0.000    8.571    0.000    0.000 
#    0.000    0.000    0.000    0.000    0.000    0.000 
#
# Total GULP energy -347265.434821 kJ/mol
# GULP energy per Si atom -12402.336958 kJ/mol
# Density = 2.353406 g / cm^3
# Si number density = 23.587749 Si / 1000 Ang^3
#
#
#
# Elastic Constant Matrix: (Units=GPa)
#
#
# Indices 1 2 3 4 5 6 
#
# 1 114.3134 41.0599 15.0262 0.0000 -20.0139 0.0000
# 2 41.0599 126.7410 18.2504 0.0000 -2.7583 0.0000
# 3 15.0262 18.2504 77.2610 0.0000 -19.2400 0.0000
# 4 0.0000 0.0000 0.0000 22.6119 0.0000 -10.2907
# 5 -20.0139 -2.7583 -19.2400 0.0000 26.1572 0.0000
# 6 0.0000 0.0000 0.0000 -10.2907 0.0000 37.4152
#
#
#
# Elastic Compliance Matrix: (Units=1/GPa)
#
#
# Indices 1 2 3 4 5 6 
#
# 1 0.011542 -0.003669 0.000887 0.000000 0.009097 0.000000
# 2 -0.003669 0.009344 -0.002384 0.000000 -0.003576 0.000000
# 3 0.000887 -0.002384 0.016454 0.000000 0.012530 0.000000
# 4 0.000000 0.000000 0.000000 0.050552 0.000000 0.013904
# 5 0.009097 -0.003576 0.012530 0.000000 0.054030 0.000000
# 6 0.000000 0.000000 0.000000 0.013904 0.000000 0.030551
#
#
# Mechanical properties :
#
#
# Convention : Reuss Voigt Hill
#
# Bulk Modulus (GPa) = 37.02528 51.88759 44.45643
# Shear Modulus (GPa) = 26.06773 33.50214 29.78494
#
# Velocity S-wave (km/s) = 3.32797 3.77280 3.55735
# Velocity P-wave (km/s) = 5.52251 6.40501 5.98006
#
# Compressibility (1/GPa) = 0.02700858
#
# Stress axis : x y z
#
# Youngs Moduli (GPa) = 86.64208 107.01814 60.77505
#
# Poissons Ratio (x) = 0.39264 -0.05393
# Poissons Ratio (y) = 0.31788 0.14489
# Poissons Ratio (z) = -0.07688 0.25514
#
# Static dielectric constant tensor:
#      x y z
#    x 4.274880 0.000000 -0.194920 
#    y 0.000000 4.417080 0.000000 
#    z -0.194920 0.000000 4.042240 
# 
# 
# High freq. dielectric constant tensor:
#      x y z
#    x 1.942280 0.000000 -0.024600 
#    y 0.000000 1.933960 0.000000 
#    z -0.024600 0.000000 1.919140 
# 
# From -- ./inp_files/57548.got.cif
#   From: 2010.06.25/outbox.cif.g09.slc.cpg/sg13_29_cif.got.tgz:57548.got - 2010.06.28 04:50:58.
