data_PCOD8118673
_publ_section_title
;
Structure prediction by ZEFSAII (Michael W. Deem and Ramdas Pophale) SiO2 
 PCOD8118673
Probable space group: P 2/C
;
_chemical_formula_sum "Si O2"
_cell_formula_units_Z 24
_cell_length_a 8.891555
_cell_length_b 14.025964
_cell_length_c 16.178717
_cell_angle_alpha 90.000000
_cell_angle_beta 146.709572
_cell_angle_gamma 90.000000
_cell_volume 1107.476293
_symmetry_space_group_name_H-M "P 2/C"
_symmetry_group_IT_number 13
_symmetry_cell_setting 'monoclinic'
loop_
_space_group_symop_operation_xyz
x,y,z
-x,y,1/2-z
-x,-y,-z
x,-y,1/2+z
loop_
_atom_site_type_symbol
_atom_site_label
_atom_site_fract_x
_atom_site_fract_y
_atom_site_fract_z
Si Si1 0.930433 0.931124 0.121998
Si Si2 0.544974 0.616454 0.419408
Si Si3 0.068784 0.724998 0.688405
Si Si4 0.975739 0.721140 0.337579
Si Si5 0.456983 0.593730 0.571865
Si Si6 0.363864 0.916409 0.775626
O O1 0.000000 0.941598 0.250000
O O2 0.027987 0.829148 0.131274
O O3 0.600800 0.939748 0.953058
O O4 0.110107 0.010795 0.159627
O O5 0.293331 0.665043 0.256152
O O6 0.456449 0.596875 0.472695
O O7 0.606283 0.509266 0.415757
O O8 0.787937 0.692248 0.516151
O O9 0.248564 0.629627 0.763352
O O10 0.228072 0.812550 0.721401
O O11 0.000000 0.755603 0.750000
O O12 0.000000 0.723678 0.250000
O O13 0.226419 0.667198 0.496603
O O14 0.500000 0.924355 0.750000
#
# Coordination Sequence:
#
# PCOD8118673 Si02
#       6
#     4   4   4   4   4   4
#     4  11  24  42  68  91 120 159 207 259 303 363
#     4   9  17  26  52  86 120 157 192 253 295 356
#     4  10  20  34  58  89 121 159 207 247 301 360
#     4   9  17  30  51  82 118 150 193 244 301 343
#     4   9  15  30  48  84 125 153 194 249 305 340
#     4  12  26  44  63  91 126 162 201 254 315 371
#
# _framework density 21.670893
#
# number of rings (size 3 to 8) (size 9 to 14) (size 15 to 20)
#    0.000    2.000    1.667    2.500    4.667    4.000 
#    0.000    0.000    0.000    1.000    0.000    0.000 
#    0.000    0.000    0.000    0.000    0.000    0.000 
#
# Total GULP energy -297429.985152 kJ/mol
# GULP energy per Si atom -12392.916048 kJ/mol
# Density = 2.162157 g / cm^3
# Si number density = 21.670893 Si / 1000 Ang^3
#
#
#
# Elastic Constant Matrix: (Units=GPa)
#
#
# Indices 1 2 3 4 5 6 
#
# 1 42.1510 21.7867 12.8731 0.0000 9.0279 0.0000
# 2 21.7867 131.7791 16.3352 0.0000 16.1728 0.0000
# 3 12.8731 16.3352 84.6015 0.0000 20.0079 0.0000
# 4 0.0000 0.0000 0.0000 29.4624 0.0000 18.1911
# 5 9.0279 16.1728 20.0079 0.0000 23.0033 0.0000
# 6 0.0000 0.0000 0.0000 18.1911 0.0000 13.0842
#
#
#
# Elastic Compliance Matrix: (Units=1/GPa)
#
#
# Indices 1 2 3 4 5 6 
#
# 1 0.027552 -0.003496 -0.001941 0.000000 -0.006667 0.000000
# 2 -0.003496 0.008754 -0.000034 0.000000 -0.004753 0.000000
# 3 -0.001941 -0.000034 0.015027 0.000000 -0.012285 0.000000
# 4 0.000000 0.000000 0.000000 0.239740 0.000000 -0.333314
# 5 -0.006667 -0.004753 -0.012285 0.000000 0.060115 0.000000
# 6 0.000000 0.000000 0.000000 -0.333314 0.000000 0.539839
#
#
# Mechanical properties :
#
#
# Convention : Reuss Voigt Hill
#
# Bulk Modulus (GPa) = 24.75790 40.05795 32.40793
# Shear Modulus (GPa) = 5.46189 26.94576 16.20382
#
# Velocity S-wave (km/s) = 1.58929 3.53002 2.73742
# Velocity P-wave (km/s) = 3.84930 5.92786 4.99783
#
# Compressibility (1/GPa) = 0.04039114
#
# Stress axis : x y z
#
# Youngs Moduli (GPa) = 36.29497 114.23323 66.54542
#
# Poissons Ratio (x) = 0.39940 0.12913
# Poissons Ratio (y) = 0.12690 0.00228
# Poissons Ratio (z) = 0.07043 0.00392
#
# Static dielectric constant tensor:
#      x y z
#    x 3.408850 0.000000 0.255080 
#    y 0.000000 4.121810 0.000000 
#    z 0.255080 0.000000 4.114470 
# 
# 
# High freq. dielectric constant tensor:
#      x y z
#    x 1.799060 0.000000 0.025880 
#    y 0.000000 1.867200 0.000000 
#    z 0.025880 0.000000 1.859120 
# 
# From -- ./inp_files/19755.got.cif
#   From: 2010.06.25/outbox.cif.g09.slc.cpg/sg13_10_cif.got.tgz:19755.got - 2010.06.28 04:50:58.
