data_PCOD8118386
_publ_section_title
;
Structure prediction by ZEFSAII (Michael W. Deem and Ramdas Pophale) SiO2 
 PCOD8118386
Probable space group: P 2/C
;
_chemical_formula_sum "Si O2"
_cell_formula_units_Z 28
_cell_length_a 9.912139
_cell_length_b 12.551589
_cell_length_c 17.073905
_cell_angle_alpha 90.000000
_cell_angle_beta 42.075509
_cell_angle_gamma 90.000000
_cell_volume 1423.458024
_symmetry_space_group_name_H-M "P 2/C"
_symmetry_group_IT_number 13
_symmetry_cell_setting 'monoclinic'
loop_
_space_group_symop_operation_xyz
x,y,z
-x,y,1/2-z
-x,-y,-z
x,-y,1/2+z
loop_
_atom_site_type_symbol
_atom_site_label
_atom_site_fract_x
_atom_site_fract_y
_atom_site_fract_z
Si Si1 0.281036 0.332225 0.438637
Si Si2 0.813042 0.188761 0.773014
Si Si3 0.066406 0.585750 0.308843
Si Si4 0.269287 0.370680 0.268333
Si Si5 0.374517 0.875220 0.994452
Si Si6 0.003849 0.012634 0.590134
Si Si7 0.174398 0.157192 0.235240
O O1 0.211682 0.323678 0.378309
O O2 0.495445 0.389359 0.346745
O O3 0.292575 0.216854 0.472755
O O4 0.129750 0.403161 0.553330
O O5 0.789560 0.308977 0.749069
O O6 0.854325 0.107257 0.684350
O O7 0.000000 0.191104 0.750000
O O8 0.633306 0.153326 0.908871
O O9 0.179939 0.486013 0.294924
O O10 0.000000 0.559359 0.250000
O O11 0.191512 0.283988 0.239248
O O12 0.610655 0.896910 0.879527
O O13 0.228446 0.973477 0.031804
O O14 0.903493 0.900390 0.654098
O O15 0.000000 0.000000 0.500000
O O16 0.000000 0.129703 0.250000
#
# Coordination Sequence:
#
# PCOD8118386 Si02
#       7
#     4   4   4   4   4   4   4
#     4  10  19  39  60  84 114 163 203 233 300 362
#     4   9  18  36  62  87 109 157 205 240 283 353
#     4  11  19  36  62  88 116 157 207 242 287 359
#     4  10  23  36  58  90 124 153 195 250 303 353
#     4  10  20  42  65  84 116 161 205 246 289 361
#     4  11  22  37  63  91 118 154 200 243 297 362
#     4  11  24  40  59  90 122 153 196 251 307 355
#
# _framework density 19.670407999999998
#
# number of rings (size 3 to 8) (size 9 to 14) (size 15 to 20)
#    0.000    1.714    4.286    3.000    0.000    4.571 
#    2.571    0.000    0.000    0.000    0.000    0.000 
#    0.000    0.000    0.000    0.000    0.000    0.000 
#
# Total GULP energy -346995.642947 kJ/mol
# GULP energy per Si atom -12392.701534 kJ/mol
# Density = 1.962564 g / cm^3
# Si number density = 19.670408 Si / 1000 Ang^3
#
#
#
# Elastic Constant Matrix: (Units=GPa)
#
#
# Indices 1 2 3 4 5 6 
#
# 1 67.9545 34.2530 55.2306 0.0000 -2.9205 0.0000
# 2 34.2530 96.9568 39.2130 0.0000 -1.0660 0.0000
# 3 55.2306 39.2130 152.4395 0.0000 6.5935 0.0000
# 4 0.0000 0.0000 0.0000 56.0740 0.0000 12.2121
# 5 -2.9205 -1.0660 6.5935 0.0000 32.7931 0.0000
# 6 0.0000 0.0000 0.0000 12.2121 0.0000 35.2347
#
#
#
# Elastic Compliance Matrix: (Units=1/GPa)
#
#
# Indices 1 2 3 4 5 6 
#
# 1 0.023449 -0.005304 -0.007278 0.000000 0.003379 0.000000
# 2 -0.005304 0.012742 -0.001366 0.000000 0.000216 0.000000
# 3 -0.007278 -0.001366 0.009662 0.000000 -0.002635 0.000000
# 4 0.000000 0.000000 0.000000 0.019290 0.000000 -0.006686
# 5 0.003379 0.000216 -0.002635 0.000000 0.031332 0.000000
# 6 0.000000 0.000000 0.000000 -0.006686 0.000000 0.030698
#
#
# Mechanical properties :
#
#
# Convention : Reuss Voigt Hill
#
# Bulk Modulus (GPa) = 55.68050 63.86044 59.77047
# Shear Modulus (GPa) = 31.04542 37.39732 34.22137
#
# Velocity S-wave (km/s) = 3.97707 4.36500 4.17554
# Velocity P-wave (km/s) = 7.03261 7.61184 7.32795
#
# Compressibility (1/GPa) = 0.01795961
#
# Stress axis : x y z
#
# Youngs Moduli (GPa) = 42.64495 78.47935 103.49723
#
# Poissons Ratio (x) = 0.41623 0.75324
# Poissons Ratio (y) = 0.22617 0.14133
# Poissons Ratio (z) = 0.31036 0.10717
#
# Static dielectric constant tensor:
#      x y z
#    x 3.074730 0.000000 0.181870 
#    y 0.000000 3.681070 0.000000 
#    z 0.181870 0.000000 4.205460 
# 
# 
# High freq. dielectric constant tensor:
#      x y z
#    x 1.737860 0.000000 0.006650 
#    y 0.000000 1.767030 0.000000 
#    z 0.006650 0.000000 1.788630 
# 
# From -- ./inp_files/47618.got.cif
#   From: 2010.06.25/outbox.cif.g09.slc.cpg/sg13_24_cif.got.tgz:47618.got - 2010.06.28 04:50:58.
