data_PCOD8118029
_publ_section_title
;
Structure prediction by ZEFSAII (Michael W. Deem and Ramdas Pophale) SiO2 
 PCOD8118029
Probable space group: P 2/C
;
_chemical_formula_sum "Si O2"
_cell_formula_units_Z 18
_cell_length_a 18.662876
_cell_length_b 8.353608
_cell_length_c 16.054240
_cell_angle_alpha 90.000000
_cell_angle_beta 156.924600
_cell_angle_gamma 90.000000
_cell_volume 980.989567
_symmetry_space_group_name_H-M "P 2/C"
_symmetry_group_IT_number 13
_symmetry_cell_setting 'monoclinic'
loop_
_space_group_symop_operation_xyz
x,y,z
-x,y,1/2-z
-x,-y,-z
x,-y,1/2+z
loop_
_atom_site_type_symbol
_atom_site_label
_atom_site_fract_x
_atom_site_fract_y
_atom_site_fract_z
Si Si1 0.192389 0.182119 0.430396
Si Si2 0.420599 0.554729 0.250769
Si Si3 0.211822 0.633289 0.792049
Si Si4 0.000000 0.123889 0.750000
Si Si5 0.913651 0.622851 0.023358
O O1 0.350061 0.265076 0.654025
O O2 0.220614 0.213089 0.361994
O O3 0.000000 0.264528 0.250000
O O4 0.180415 0.990769 0.435095
O O5 0.500000 0.478040 0.250000
O O6 0.582985 0.560403 0.492381
O O7 0.257705 0.448023 0.110698
O O8 0.150094 0.687034 0.634774
O O9 0.074287 0.504539 0.684618
O O10 0.990064 0.227853 0.656164
#
# Coordination Sequence:
#
# PCOD8118029 Si02
#       5
#     4   4   4   2   4
#     4   9  18  36  53  74 108 148 177 208 268 329
#     4  10  19  35  59  78 107 147 184 218 268 326
#     4  10  21  35  59  82 107 144 179 229 269 319
#     4  10  20  34  58  76 112 148 174 222 272 324
#     4  11  20  36  57  85 111 134 185 231 272 312
#
# _framework density 18.348818000000001
#
# number of rings (size 3 to 8) (size 9 to 14) (size 15 to 20)
#    0.667    1.333    2.222    3.333    0.000    0.889 
#    0.000   11.111    0.000    0.000    0.000    0.000 
#    0.000    0.000    0.000    0.000    0.000    0.000 
#
# Total GULP energy -223055.486997 kJ/mol
# GULP energy per Si atom -12391.971500 kJ/mol
# Density = 1.830705 g / cm^3
# Si number density = 18.348818 Si / 1000 Ang^3
#
#
#
# Elastic Constant Matrix: (Units=GPa)
#
#
# Indices 1 2 3 4 5 6 
#
# 1 91.2106 41.4140 36.6734 0.0000 -0.8938 0.0000
# 2 41.4140 61.8663 11.7122 0.0000 -3.3264 0.0000
# 3 36.6734 11.7122 90.5157 0.0000 3.4194 0.0000
# 4 0.0000 0.0000 0.0000 14.8831 0.0000 -5.7449
# 5 -0.8938 -3.3264 3.4194 0.0000 37.0296 0.0000
# 6 0.0000 0.0000 0.0000 -5.7449 0.0000 14.7701
#
#
#
# Elastic Compliance Matrix: (Units=1/GPa)
#
#
# Indices 1 2 3 4 5 6 
#
# 1 0.018494 -0.011237 -0.006039 0.000000 -0.000005 0.000000
# 2 -0.011237 0.023504 0.001447 0.000000 0.001707 0.000000
# 3 -0.006039 0.001447 0.013354 0.000000 -0.001249 0.000000
# 4 0.000000 0.000000 0.000000 0.079061 0.000000 0.030751
# 5 -0.000005 0.001707 -0.001249 0.000000 0.027274 0.000000
# 6 0.000000 0.000000 0.000000 0.030751 0.000000 0.079665
#
#
# Mechanical properties :
#
#
# Convention : Reuss Voigt Hill
#
# Bulk Modulus (GPa) = 42.20357 47.02130 44.61243
# Shear Modulus (GPa) = 17.79946 23.58942 20.69444
#
# Velocity S-wave (km/s) = 3.11796 3.58943 3.36197
# Velocity P-wave (km/s) = 6.00107 6.54680 6.27987
#
# Compressibility (1/GPa) = 0.02369468
#
# Stress axis : x y z
#
# Youngs Moduli (GPa) = 54.07239 42.54626 74.88171
#
# Poissons Ratio (x) = 0.47809 0.45219
# Poissons Ratio (y) = 0.60761 -0.10836
# Poissons Ratio (z) = 0.32653 -0.06157
#
# Static dielectric constant tensor:
#      x y z
#    x 3.498570 0.000000 0.052330 
#    y 0.000000 3.006840 0.000000 
#    z 0.052330 0.000000 3.538780 
# 
# 
# High freq. dielectric constant tensor:
#      x y z
#    x 1.719160 0.000000 0.004880 
#    y 0.000000 1.675980 0.000000 
#    z 0.004880 0.000000 1.721090 
# 
# From -- ./inp_files/45551.got.cif
#   From: 2010.06.25/outbox.cif.g09.slc.cpg/sg13_23_cif.got.tgz:45551.got - 2010.06.28 04:50:58.
