data_PCOD8118740
_publ_section_title
;
Structure prediction by ZEFSAII (Michael W. Deem and Ramdas Pophale) SiO2 
 PCOD8118740
Probable space group: P 2/C
;
_chemical_formula_sum "Si O2"
_cell_formula_units_Z 30
_cell_length_a 27.696779
_cell_length_b 12.156890
_cell_length_c 8.465265
_cell_angle_alpha 90.000000
_cell_angle_beta 149.962308
_cell_angle_gamma 90.000000
_cell_volume 1426.779258
_symmetry_space_group_name_H-M "P 2/C"
_symmetry_group_IT_number 13
_symmetry_cell_setting 'monoclinic'
loop_
_space_group_symop_operation_xyz
x,y,z
-x,y,1/2-z
-x,-y,-z
x,-y,1/2+z
loop_
_atom_site_type_symbol
_atom_site_label
_atom_site_fract_x
_atom_site_fract_y
_atom_site_fract_z
Si Si1 0.815104 0.189893 0.680783
Si Si2 0.840971 0.764755 0.602709
Si Si3 0.782331 0.059513 0.148446
Si Si4 0.597442 0.433347 0.240640
Si Si5 0.338521 0.796409 0.998821
Si Si6 0.500000 0.738195 0.250000
Si Si7 0.963126 0.122292 0.863085
Si Si8 0.306988 0.379128 0.664714
O O1 0.741630 0.249400 0.352768
O O2 0.919910 0.176015 0.899485
O O3 0.774829 0.068108 0.598841
O O4 0.823574 0.257770 0.867183
O O5 0.775844 0.871874 0.465956
O O6 0.802848 0.659432 0.598441
O O7 0.953077 0.793227 0.952793
O O8 0.696083 0.088663 0.024478
O O9 0.883046 0.107386 0.502373
O O10 0.632435 0.382444 0.503373
O O11 0.682982 0.505671 0.400780
O O12 0.500000 0.500000 0.000000
O O13 0.576230 0.335821 0.059854
O O14 0.439891 0.815537 0.198192
O O15 0.354564 0.708635 0.182141
O O16 0.000000 0.000000 0.000000
#
# Coordination Sequence:
#
# PCOD8118740 Si02
#       8
#     4   4   4   4   4   2   4   4
#     4  11  20  36  55  86 130 174 214 257 298 355
#     4  11  21  31  55  93 129 164 204 257 309 358
#     4  10  20  35  56  85 129 172 215 257 300 347
#     4  12  21  39  69  93 119 149 198 261 329 391
#     4  10  23  37  56  90 126 160 208 267 312 369
#     4  12  22  40  66  94 118 150 208 260 326 388
#     4  11  19  32  57  90 125 172 218 253 295 344
#     4  11  23  40  60  97 125 150 193 262 330 375
#
# _framework density 21.026377
#
# number of rings (size 3 to 8) (size 9 to 14) (size 15 to 20)
#    0.000    1.067    5.333    2.400    0.000    0.000 
#    0.000    0.667    0.000    0.000    0.000   82.133 
#    0.000    0.000    0.000    0.000    0.000    0.000 
#
# Total GULP energy -371773.524559 kJ/mol
# GULP energy per Si atom -12392.450819 kJ/mol
# Density = 2.097852 g / cm^3
# Si number density = 21.026377 Si / 1000 Ang^3
#
#
#
# Elastic Constant Matrix: (Units=GPa)
#
#
# Indices 1 2 3 4 5 6 
#
# 1 166.6565 42.1296 49.6350 0.0000 15.1392 0.0000
# 2 42.1296 53.0429 38.7371 0.0000 12.5032 0.0000
# 3 49.6350 38.7371 76.1917 0.0000 -1.7262 0.0000
# 4 0.0000 0.0000 0.0000 31.5035 0.0000 5.5347
# 5 15.1392 12.5032 -1.7262 0.0000 46.5565 0.0000
# 6 0.0000 0.0000 0.0000 5.5347 0.0000 43.5617
#
#
#
# Elastic Compliance Matrix: (Units=1/GPa)
#
#
# Indices 1 2 3 4 5 6 
#
# 1 0.008092 -0.003351 -0.003610 0.000000 -0.001865 0.000000
# 2 -0.003351 0.035287 -0.015961 0.000000 -0.008979 0.000000
# 3 -0.003610 -0.015961 0.023735 0.000000 0.006340 0.000000
# 4 0.000000 0.000000 0.000000 0.032467 0.000000 -0.004125
# 5 -0.001865 -0.008979 0.006340 0.000000 0.024732 0.000000
# 6 0.000000 0.000000 0.000000 -0.004125 0.000000 0.023480
#
#
# Mechanical properties :
#
#
# Convention : Reuss Voigt Hill
#
# Bulk Modulus (GPa) = 47.01462 61.87718 54.44590
# Shear Modulus (GPa) = 24.90940 35.35031 30.12985
#
# Velocity S-wave (km/s) = 3.44564 4.10474 3.78955
# Velocity P-wave (km/s) = 6.18371 7.20815 6.71549
#
# Compressibility (1/GPa) = 0.02126998
#
# Stress axis : x y z
#
# Youngs Moduli (GPa) = 123.57669 28.33917 42.13187
#
# Poissons Ratio (x) = 0.09497 0.15210
# Poissons Ratio (y) = 0.41411 0.67246
# Poissons Ratio (z) = 0.44613 0.45232
#
# Static dielectric constant tensor:
#      x y z
#    x 4.427590 0.000000 -0.099420 
#    y 0.000000 3.546910 0.000000 
#    z -0.099420 0.000000 3.945200 
# 
# 
# High freq. dielectric constant tensor:
#      x y z
#    x 1.862480 0.000000 -0.014600 
#    y 0.000000 1.778390 0.000000 
#    z -0.014600 0.000000 1.804640 
# 
# From -- ./inp_files/24942.got.cif
#   From: 2010.06.25/outbox.cif.g09.slc.cpg/sg13_13_cif.got.tgz:24942.got - 2010.06.28 04:50:58.
