data_PCOD8118805
_publ_section_title
;
Structure prediction by ZEFSAII (Michael W. Deem and Ramdas Pophale) SiO2 
 PCOD8118805
Probable space group: P 2/C
;
_chemical_formula_sum "Si O2"
_cell_formula_units_Z 32
_cell_length_a 11.483479
_cell_length_b 9.217625
_cell_length_c 20.221765
_cell_angle_alpha 90.000000
_cell_angle_beta 49.160573
_cell_angle_gamma 90.000000
_cell_volume 1619.371446
_symmetry_space_group_name_H-M "P 2/C"
_symmetry_group_IT_number 13
_symmetry_cell_setting 'monoclinic'
loop_
_space_group_symop_operation_xyz
x,y,z
-x,y,1/2-z
-x,-y,-z
x,-y,1/2+z
loop_
_atom_site_type_symbol
_atom_site_label
_atom_site_fract_x
_atom_site_fract_y
_atom_site_fract_z
Si Si1 0.095954 0.829403 0.016902
Si Si2 0.047134 0.110583 0.388855
Si Si3 0.082142 0.421941 0.621951
Si Si4 0.194834 0.723781 0.589601
Si Si5 0.278697 0.266155 0.206136
Si Si6 0.472848 0.800457 0.066783
Si Si7 0.577580 0.888613 0.559296
Si Si8 0.763042 0.588815 0.300801
O O1 0.112269 0.674141 0.046544
O O2 0.056423 0.805339 0.955073
O O3 0.265761 0.898249 0.957833
O O4 0.962912 0.935449 0.096788
O O5 0.189423 0.166385 0.292077
O O6 0.883110 0.137707 0.414787
O O7 0.084275 0.593009 0.604044
O O8 0.217184 0.421429 0.627026
O O9 0.922688 0.361175 0.709803
O O10 0.188279 0.750564 0.670526
O O11 0.371395 0.707856 0.501594
O O12 0.455217 0.216910 0.139658
O O13 0.284184 0.439093 0.218048
O O14 0.368064 0.710850 0.157678
O O15 0.504246 0.952846 0.089039
O O16 0.389680 0.832549 0.027489
#
# Coordination Sequence:
#
# PCOD8118805 Si02
#       8
#     4   4   4   4   4   4   4   4
#     4  11  24  40  60  84 122 160 206 237 293 365
#     4  11  23  42  59  84 119 164 200 241 292 359
#     4  10  21  36  60  90 121 149 197 247 295 350
#     4  10  20  39  63  88 118 153 192 248 302 353
#     4  10  22  37  64  88 119 148 197 250 303 347
#     4  10  20  35  60  91 123 148 191 245 306 353
#     4  10  21  37  57  91 118 155 192 244 299 355
#     4  10  20  36  59  94 120 147 191 253 300 346
#
# _framework density 19.760753000000001
#
# number of rings (size 3 to 8) (size 9 to 14) (size 15 to 20)
#    0.000    1.750    3.750    0.375    3.500    2.500 
#    2.250    0.000    0.000    0.750    0.000    0.000 
#    0.000    0.000    0.000    0.000    0.000    0.000 
#
# Total GULP energy -396601.015658 kJ/mol
# GULP energy per Si atom -12393.781739 kJ/mol
# Density = 1.971578 g / cm^3
# Si number density = 19.760753 Si / 1000 Ang^3
#
#
#
# Elastic Constant Matrix: (Units=GPa)
#
#
# Indices 1 2 3 4 5 6 
#
# 1 37.8245 7.6162 15.4402 0.0000 2.9499 0.0000
# 2 7.6162 80.1258 44.7830 0.0000 2.6337 0.0000
# 3 15.4402 44.7830 74.6731 0.0000 -8.2823 0.0000
# 4 0.0000 0.0000 0.0000 36.6345 0.0000 -5.8196
# 5 2.9499 2.6337 -8.2823 0.0000 26.9363 0.0000
# 6 0.0000 0.0000 0.0000 -5.8196 0.0000 28.2103
#
#
#
# Elastic Compliance Matrix: (Units=1/GPa)
#
#
# Indices 1 2 3 4 5 6 
#
# 1 0.029745 0.001751 -0.007849 0.000000 -0.005842 0.000000
# 2 0.001751 0.019693 -0.012845 0.000000 -0.006067 0.000000
# 3 -0.007849 -0.012845 0.023763 0.000000 0.009422 0.000000
# 4 0.000000 0.000000 0.000000 0.028221 0.000000 0.005822
# 5 -0.005842 -0.006067 0.009422 0.000000 0.041255 0.000000
# 6 0.000000 0.000000 0.000000 0.005822 0.000000 0.036649
#
#
# Mechanical properties :
#
#
# Convention : Reuss Voigt Hill
#
# Bulk Modulus (GPa) = 28.31603 36.47803 32.39703
# Shear Modulus (GPa) = 21.83577 26.67514 24.25545
#
# Velocity S-wave (km/s) = 3.32777 3.67809 3.50731
# Velocity P-wave (km/s) = 5.39685 6.04464 5.72991
#
# Compressibility (1/GPa) = 0.03531568
#
# Stress axis : x y z
#
# Youngs Moduli (GPa) = 33.61940 50.78070 42.08217
#
# Poissons Ratio (x) = -0.08893 0.33029
# Poissons Ratio (y) = -0.05888 0.54055
# Poissons Ratio (z) = 0.26387 0.65228
#
# Static dielectric constant tensor:
#      x y z
#    x 3.423570 0.000000 -0.109130 
#    y 0.000000 3.631940 0.000000 
#    z -0.109130 0.000000 3.375240 
# 
# 
# High freq. dielectric constant tensor:
#      x y z
#    x 1.750970 0.000000 -0.019120 
#    y 0.000000 1.775000 0.000000 
#    z -0.019120 0.000000 1.755810 
# 
# From -- ./inp_files/78269.got.cif
#   From: 2010.06.25/outbox.cif.g09.slc.cpg/sg13_40_cif.got.tgz:78269.got - 2010.06.28 04:50:58.
