data_PCOD8118059
_publ_section_title
;
Structure prediction by ZEFSAII (Michael W. Deem and Ramdas Pophale) SiO2 
 PCOD8118059
Probable space group: P 2/C
;
_chemical_formula_sum "Si O2"
_cell_formula_units_Z 32
_cell_length_a 14.934687
_cell_length_b 9.625709
_cell_length_c 23.796478
_cell_angle_alpha 90.000000
_cell_angle_beta 154.238633
_cell_angle_gamma 90.000000
_cell_volume 1486.809001
_symmetry_space_group_name_H-M "P 2/C"
_symmetry_group_IT_number 13
_symmetry_cell_setting 'monoclinic'
loop_
_space_group_symop_operation_xyz
x,y,z
-x,y,1/2-z
-x,-y,-z
x,-y,1/2+z
loop_
_atom_site_type_symbol
_atom_site_label
_atom_site_fract_x
_atom_site_fract_y
_atom_site_fract_z
Si Si1 0.809003 0.103012 0.536490
Si Si2 0.380189 0.844377 0.771140
Si Si3 0.616809 0.286784 0.108985
Si Si4 0.886351 0.910639 0.390425
Si Si5 0.823377 0.368409 0.608863
Si Si6 0.788453 0.850689 0.601725
Si Si7 0.951295 0.384774 0.118772
Si Si8 0.015095 0.659530 0.527977
O O1 0.622722 0.166457 0.392443
O O2 0.881253 0.213868 0.623258
O O3 0.001157 0.070552 0.605650
O O4 0.719095 0.973038 0.520801
O O5 0.363214 0.816860 0.827701
O O6 0.243889 0.731978 0.658458
O O7 0.329280 0.008582 0.735235
O O8 0.621949 0.192052 0.055383
O O9 0.812786 0.390159 0.224775
O O10 0.404387 0.374983 0.991784
O O11 0.872956 0.750839 0.404780
O O12 0.000000 0.000000 0.500000
O O13 0.841320 0.465973 0.563813
O O14 0.000000 0.424001 0.750000
O O15 0.816710 0.716173 0.580137
O O16 0.000000 0.899252 0.750000
O O17 0.929057 0.334348 0.042229
O O18 0.000000 0.500000 0.500000
#
# Coordination Sequence:
#
# PCOD8118059 Si02
#       8
#     4   4   4   4   4   4   4   4
#     4  11  22  37  58  89 121 148 192 242 284 341
#     4   9  21  38  59  85 115 152 188 233 290 342
#     4   9  20  38  59  85 120 155 191 233 287 348
#     4  10  20  37  61  83 111 151 193 239 289 340
#     4  11  23  36  58  88 118 153 193 239 288 343
#     4  10  19  35  61  85 117 158 189 226 280 349
#     4  10  21  39  58  81 114 154 194 235 289 344
#     4  10  20  38  61  80 108 150 193 240 290 336
#
# _framework density 21.522601999999999
#
# number of rings (size 3 to 8) (size 9 to 14) (size 15 to 20)
#    0.000    2.000    0.000    5.250    0.000    7.000 
#    0.000    5.000    0.000   12.000    0.000    0.000 
#    0.000    0.000    0.000    0.000    0.000    0.000 
#
# Total GULP energy -396487.411945 kJ/mol
# GULP energy per Si atom -12390.231623 kJ/mol
# Density = 2.147362 g / cm^3
# Si number density = 21.522602 Si / 1000 Ang^3
#
#
#
# Elastic Constant Matrix: (Units=GPa)
#
#
# Indices 1 2 3 4 5 6 
#
# 1 83.9753 27.5885 15.2972 0.0000 -3.0627 0.0000
# 2 27.5885 119.6901 36.8550 0.0000 5.4025 0.0000
# 3 15.2972 36.8550 63.8850 0.0000 -4.1220 0.0000
# 4 0.0000 0.0000 0.0000 24.5172 0.0000 -5.1750
# 5 -3.0627 5.4025 -4.1220 0.0000 19.2559 0.0000
# 6 0.0000 0.0000 0.0000 -5.1750 0.0000 39.1181
#
#
#
# Elastic Compliance Matrix: (Units=1/GPa)
#
#
# Indices 1 2 3 4 5 6 
#
# 1 0.013150 -0.002708 -0.001422 0.000000 0.002547 0.000000
# 2 -0.002708 0.011057 -0.006042 0.000000 -0.004826 0.000000
# 3 -0.001422 -0.006042 0.019848 0.000000 0.005718 0.000000
# 4 0.000000 0.000000 0.000000 0.041959 0.000000 0.005551
# 5 0.002547 -0.004826 0.005718 0.000000 0.054915 0.000000
# 6 0.000000 0.000000 0.000000 0.005551 0.000000 0.026298
#
#
# Mechanical properties :
#
#
# Convention : Reuss Voigt Hill
#
# Bulk Modulus (GPa) = 42.17423 47.44797 44.81110
# Shear Modulus (GPa) = 25.57860 29.09889 27.33874
#
# Velocity S-wave (km/s) = 3.45113 3.68097 3.56790
# Velocity P-wave (km/s) = 5.95972 6.33715 6.15133
#
# Compressibility (1/GPa) = 0.02371116
#
# Stress axis : x y z
#
# Youngs Moduli (GPa) = 76.04620 90.43710 50.38258
#
# Poissons Ratio (x) = 0.24491 0.07165
# Poissons Ratio (y) = 0.20594 0.30441
# Poissons Ratio (z) = 0.10815 0.54641
#
# Static dielectric constant tensor:
#      x y z
#    x 3.962750 0.000000 -0.246070 
#    y 0.000000 4.639500 0.000000 
#    z -0.246070 0.000000 4.612180 
# 
# 
# High freq. dielectric constant tensor:
#      x y z
#    x 1.849620 0.000000 -0.008860 
#    y 0.000000 1.846840 0.000000 
#    z -0.008860 0.000000 1.824980 
# 
# From -- ./inp_files/87422.got.cif
#   From: 2010.06.25/outbox.cif.g09.slc.cpg/sg13_44_cif.got.tgz:87422.got - 2010.06.28 04:50:58.
