data_PCOD8118245
_publ_section_title
;
Structure prediction by ZEFSAII (Michael W. Deem and Ramdas Pophale) SiO2 
 PCOD8118245
Probable space group: P 2/C
;
_chemical_formula_sum "Si O2"
_cell_formula_units_Z 24
_cell_length_a 11.829988
_cell_length_b 10.844301
_cell_length_c 16.835102
_cell_angle_alpha 90.000000
_cell_angle_beta 151.959563
_cell_angle_gamma 90.000000
_cell_volume 1015.282444
_symmetry_space_group_name_H-M "P 2/C"
_symmetry_group_IT_number 13
_symmetry_cell_setting 'monoclinic'
loop_
_space_group_symop_operation_xyz
x,y,z
-x,y,1/2-z
-x,-y,-z
x,-y,1/2+z
loop_
_atom_site_type_symbol
_atom_site_label
_atom_site_fract_x
_atom_site_fract_y
_atom_site_fract_z
Si Si1 0.244844 0.419442 0.567655
Si Si2 0.379350 0.335104 0.479106
Si Si3 0.763261 0.043492 0.445571
Si Si4 0.868278 0.556502 0.249930
Si Si5 0.837315 0.822137 0.383093
Si Si6 0.599764 0.076875 0.990655
O O1 0.500000 0.479771 0.750000
O O2 0.270555 0.362583 0.496865
O O3 0.171767 0.314824 0.585946
O O4 0.049180 0.529671 0.436322
O O5 0.275092 0.428439 0.349964
O O6 0.675303 0.341030 0.659129
O O7 0.280629 0.198265 0.395616
O O8 0.500000 0.077921 0.250000
O O9 0.875150 0.920158 0.477110
O O10 0.764825 0.014815 0.541166
O O11 0.936217 0.161173 0.536496
O O12 0.000000 0.599162 0.250000
O O13 0.590730 0.859190 0.187287
O O14 0.500000 0.000000 0.000000
#
# Coordination Sequence:
#
# PCOD8118245 Si02
#       6
#     4   4   4   4   4   4
#     4  11  19  38  68  92 125 172 222 274 337 397
#     4  10  20  42  63  90 132 170 228 271 328 410
#     4   9  19  36  57  84 122 165 210 265 323 381
#     4   9  22  39  65  95 128 179 218 284 338 392
#     4  10  19  37  61  89 127 166 214 276 321 385
#     4  11  22  38  59  92 127 174 217 264 334 407
#
# _framework density 23.638741
#
# number of rings (size 3 to 8) (size 9 to 14) (size 15 to 20)
#    0.000    2.000    3.333    0.500    0.000    5.333 
#    6.000    0.000    3.667    0.000    0.000    0.000 
#    0.000    0.000    0.000    0.000    0.000    0.000 
#
# Total GULP energy -297450.446501 kJ/mol
# GULP energy per Si atom -12393.768604 kJ/mol
# Density = 2.358494 g / cm^3
# Si number density = 23.638741 Si / 1000 Ang^3
#
#
#
# Elastic Constant Matrix: (Units=GPa)
#
#
# Indices 1 2 3 4 5 6 
#
# 1 116.8540 35.4643 9.9404 0.0000 10.7850 0.0000
# 2 35.4643 47.6797 13.6412 0.0000 1.1140 0.0000
# 3 9.9404 13.6412 73.0478 0.0000 15.7551 0.0000
# 4 0.0000 0.0000 0.0000 19.2407 0.0000 4.6043
# 5 10.7850 1.1140 15.7551 0.0000 41.8205 0.0000
# 6 0.0000 0.0000 0.0000 4.6043 0.0000 32.0461
#
#
#
# Elastic Compliance Matrix: (Units=1/GPa)
#
#
# Indices 1 2 3 4 5 6 
#
# 1 0.011381 -0.008595 0.000697 0.000000 -0.002968 0.000000
# 2 -0.008595 0.028691 -0.004900 0.000000 0.003298 0.000000
# 3 0.000697 -0.004900 0.015805 0.000000 -0.006003 0.000000
# 4 0.000000 0.000000 0.000000 0.053824 0.000000 -0.007733
# 5 -0.002968 0.003298 -0.006003 0.000000 0.026851 0.000000
# 6 0.000000 0.000000 0.000000 -0.007733 0.000000 0.032316
#
#
# Mechanical properties :
#
#
# Convention : Reuss Voigt Hill
#
# Bulk Modulus (GPa) = 33.02461 39.51925 36.27193
# Shear Modulus (GPa) = 24.44303 30.52384 27.48343
#
# Velocity S-wave (km/s) = 3.21911 3.59731 3.41346
# Velocity P-wave (km/s) = 5.27426 5.83168 5.55996
#
# Compressibility (1/GPa) = 0.03028045
#
# Stress axis : x y z
#
# Youngs Moduli (GPa) = 87.86602 34.85397 63.27253
#
# Poissons Ratio (x) = 0.29958 -0.04408
# Poissons Ratio (y) = 0.75522 0.31001
# Poissons Ratio (z) = -0.06121 0.17077
#
# Static dielectric constant tensor:
#      x y z
#    x 4.456870 0.000000 0.143090 
#    y 0.000000 4.474540 0.000000 
#    z 0.143090 0.000000 4.626130 
# 
# 
# High freq. dielectric constant tensor:
#      x y z
#    x 1.947450 0.000000 0.004900 
#    y 0.000000 1.918980 0.000000 
#    z 0.004900 0.000000 1.928330 
# 
# From -- ./inp_files/66697.got.cif
#   From: 2010.06.25/outbox.cif.g09.slc.cpg/sg13_34_cif.got.tgz:66697.got - 2010.06.28 04:50:58.
