data_PCOD8118947
_publ_section_title
;
Structure prediction by ZEFSAII (Michael W. Deem and Ramdas Pophale) SiO2 
 PCOD8118947
Probable space group: P 2/C
;
_chemical_formula_sum "Si O2"
_cell_formula_units_Z 24
_cell_length_a 8.090106
_cell_length_b 9.285567
_cell_length_c 18.170362
_cell_angle_alpha 90.000000
_cell_angle_beta 60.632567
_cell_angle_gamma 90.000000
_cell_volume 1189.569919
_symmetry_space_group_name_H-M "P 2/C"
_symmetry_group_IT_number 13
_symmetry_cell_setting 'monoclinic'
loop_
_space_group_symop_operation_xyz
x,y,z
-x,y,1/2-z
-x,-y,-z
x,-y,1/2+z
loop_
_atom_site_type_symbol
_atom_site_label
_atom_site_fract_x
_atom_site_fract_y
_atom_site_fract_z
Si Si1 0.316328 0.025814 0.493348
Si Si2 0.037306 0.915504 0.166763
Si Si3 0.790166 0.204122 0.600591
Si Si4 0.549741 0.525026 0.158674
Si Si5 0.180938 0.335367 0.496310
Si Si6 0.173936 0.608832 0.161431
O O1 0.297250 0.927389 0.426218
O O2 0.500000 0.000000 0.500000
O O3 0.140983 0.984193 0.585067
O O4 0.312437 0.194324 0.474600
O O5 0.173124 0.783366 0.164770
O O6 0.000000 0.005690 0.250000
O O7 0.850630 0.851781 0.168227
O O8 0.622276 0.313509 0.652312
O O9 0.969573 0.280320 0.520084
O O10 0.500000 0.461027 0.250000
O O11 0.364562 0.531789 0.147949
O O12 0.720612 0.432120 0.086808
O O13 0.159529 0.427243 0.577104
O O14 0.000000 0.549033 0.250000
#
# Coordination Sequence:
#
# PCOD8118947 Si02
#       6
#     4   4   4   4   4   4
#     4  10  20  37  58  82 110 149 190 230 285 344
#     4   9  17  33  54  81 110 141 184 236 282 337
#     4  10  20  36  60  82 109 151 190 231 283 343
#     4  12  22  35  56  85 113 148 191 235 283 340
#     4  10  21  37  56  82 116 148 183 237 287 335
#     4   9  18  34  54  78 110 147 186 227 278 341
#
# _framework density 20.175357000000002
#
# number of rings (size 3 to 8) (size 9 to 14) (size 15 to 20)
#    0.000    2.333    0.000    8.000    0.000    0.000 
#    0.000    4.167    0.000    1.000    0.000    1.167 
#    0.000    0.000    0.000    0.000    0.000    0.000 
#
# Total GULP energy -297345.062222 kJ/mol
# GULP energy per Si atom -12389.377593 kJ/mol
# Density = 2.012944 g / cm^3
# Si number density = 20.175357 Si / 1000 Ang^3
#
#
#
# Elastic Constant Matrix: (Units=GPa)
#
#
# Indices 1 2 3 4 5 6 
#
# 1 99.1274 27.9078 21.4951 0.0000 6.1430 0.0000
# 2 27.9078 47.3202 33.1643 0.0000 10.3618 0.0000
# 3 21.4951 33.1643 122.9799 0.0000 27.8593 0.0000
# 4 0.0000 0.0000 0.0000 25.0591 0.0000 -6.2257
# 5 6.1430 10.3618 27.8593 0.0000 32.4388 0.0000
# 6 0.0000 0.0000 0.0000 -6.2257 0.0000 25.1134
#
#
#
# Elastic Compliance Matrix: (Units=1/GPa)
#
#
# Indices 1 2 3 4 5 6 
#
# 1 0.012103 -0.006986 -0.000270 0.000000 0.000172 0.000000
# 2 -0.006986 0.030302 -0.006279 0.000000 -0.002964 0.000000
# 3 -0.000270 -0.006279 0.011678 0.000000 -0.007972 0.000000
# 4 0.000000 0.000000 0.000000 0.042525 0.000000 0.010542
# 5 0.000172 -0.002964 -0.007972 0.000000 0.038588 0.000000
# 6 0.000000 0.000000 0.000000 0.010542 0.000000 0.042433
#
#
# Mechanical properties :
#
#
# Convention : Reuss Voigt Hill
#
# Bulk Modulus (GPa) = 37.02052 48.28464 42.65258
# Shear Modulus (GPa) = 23.39677 28.97960 26.18818
#
# Velocity S-wave (km/s) = 3.40909 3.79408 3.60672
# Velocity P-wave (km/s) = 5.82109 6.57098 6.20737
#
# Compressibility (1/GPa) = 0.02701205
#
# Stress axis : x y z
#
# Youngs Moduli (GPa) = 82.62557 33.00064 85.63042
#
# Poissons Ratio (x) = 0.23054 0.02315
# Poissons Ratio (y) = 0.57721 0.53770
# Poissons Ratio (z) = 0.02234 0.20722
#
# Static dielectric constant tensor:
#      x y z
#    x 3.615790 0.000000 0.067370 
#    y 0.000000 3.271030 0.000000 
#    z 0.067370 0.000000 3.974860 
# 
# 
# High freq. dielectric constant tensor:
#      x y z
#    x 1.795190 0.000000 0.004320 
#    y 0.000000 1.742990 0.000000 
#    z 0.004320 0.000000 1.795760 
# 
# From -- ./inp_files/75594.got.cif
#   From: 2010.06.25/outbox.cif.g09.slc.cpg/sg13_38_cif.got.tgz:75594.got - 2010.06.28 04:50:58.
