data_PCOD8118938
_publ_section_title
;
Structure prediction by ZEFSAII (Michael W. Deem and Ramdas Pophale) SiO2 
 PCOD8118938
Probable space group: P 2/C
;
_chemical_formula_sum "Si O2"
_cell_formula_units_Z 32
_cell_length_a 20.101996
_cell_length_b 15.726272
_cell_length_c 14.384195
_cell_angle_alpha 90.000000
_cell_angle_beta 19.917896
_cell_angle_gamma 90.000000
_cell_volume 1549.132380
_symmetry_space_group_name_H-M "P 2/C"
_symmetry_group_IT_number 13
_symmetry_cell_setting 'monoclinic'
loop_
_space_group_symop_operation_xyz
x,y,z
-x,y,1/2-z
-x,-y,-z
x,-y,1/2+z
loop_
_atom_site_type_symbol
_atom_site_label
_atom_site_fract_x
_atom_site_fract_y
_atom_site_fract_z
Si Si1 0.175240 0.007801 0.450794
Si Si2 0.982165 0.835047 0.118783
Si Si3 0.048782 0.346762 0.581444
Si Si4 0.593695 0.889668 0.719344
Si Si5 0.181115 0.561261 0.260937
Si Si6 0.766089 0.828722 0.217530
Si Si7 0.804747 0.659736 0.063852
Si Si8 0.561889 0.437546 0.498070
O O1 0.229328 0.923991 0.325362
O O2 0.364208 0.036092 0.261850
O O3 0.117187 0.082011 0.454010
O O4 0.000000 0.986362 0.750000
O O5 0.092817 0.752971 0.012483
O O6 0.791852 0.841822 0.433445
O O7 0.936877 0.820222 0.069576
O O8 0.854140 0.373942 0.778070
O O9 0.000000 0.373904 0.750000
O O10 0.245737 0.389375 0.288096
O O11 0.500000 0.932202 0.750000
O O12 0.445486 0.818857 0.955479
O O13 0.189725 0.613960 0.344792
O O14 0.374271 0.499762 0.999213
O O15 0.000000 0.500000 0.500000
O O16 0.788504 0.760679 0.105317
O O17 0.618964 0.627276 0.245604
O O18 0.000000 0.639893 0.750000
O O19 0.500000 0.500000 0.500000
#
# Coordination Sequence:
#
# PCOD8118938 Si02
#       8
#     4   4   4   4   4   4   4   4
#     4  10  20  36  59  88 120 166 211 247 309 372
#     4  10  21  37  60  90 128 160 202 263 319 359
#     4  11  21  38  67  96 125 157 205 264 320 373
#     4   9  20  36  57  87 125 159 200 266 309 361
#     4   9  20  42  64  90 121 154 205 260 313 380
#     4  11  21  37  60  88 126 167 210 248 308 371
#     4  11  23  41  64  87 129 171 206 254 306 373
#     4   9  22  41  62  90 121 159 206 256 314 382
#
# _framework density 20.656724000000001
#
# number of rings (size 3 to 8) (size 9 to 14) (size 15 to 20)
#    0.000    2.000    1.250    2.250    3.500    4.500 
#    0.000    8.750    0.000    0.000    0.000    0.000 
#    0.000    0.000    0.000    0.000    0.000    0.000 
#
# Total GULP energy -396580.368846 kJ/mol
# GULP energy per Si atom -12393.136526 kJ/mol
# Density = 2.060971 g / cm^3
# Si number density = 20.656724 Si / 1000 Ang^3
#
#
#
# Elastic Constant Matrix: (Units=GPa)
#
#
# Indices 1 2 3 4 5 6 
#
# 1 99.3531 41.1547 42.0568 0.0000 -14.0504 0.0000
# 2 41.1547 125.6860 40.0421 0.0000 -12.8133 0.0000
# 3 42.0568 40.0421 88.3772 0.0000 -14.5480 0.0000
# 4 0.0000 0.0000 0.0000 20.3263 0.0000 -8.5145
# 5 -14.0504 -12.8133 -14.5480 0.0000 29.5090 0.0000
# 6 0.0000 0.0000 0.0000 -8.5145 0.0000 21.3983
#
#
#
# Elastic Compliance Matrix: (Units=1/GPa)
#
#
# Indices 1 2 3 4 5 6 
#
# 1 0.013602 -0.002623 -0.004795 0.000000 0.002974 0.000000
# 2 -0.002623 0.009930 -0.002989 0.000000 0.001589 0.000000
# 3 -0.004795 -0.002989 0.015630 0.000000 0.004125 0.000000
# 4 0.000000 0.000000 0.000000 0.059038 0.000000 0.023492
# 5 0.002974 0.001589 0.004125 0.000000 0.038027 0.000000
# 6 0.000000 0.000000 0.000000 0.023492 0.000000 0.056080
#
#
# Mechanical properties :
#
#
# Convention : Reuss Voigt Hill
#
# Bulk Modulus (GPa) = 54.50316 62.21373 58.35844
# Shear Modulus (GPa) = 22.80641 26.92424 24.86532
#
# Velocity S-wave (km/s) = 3.32636 3.61420 3.47326
# Velocity P-wave (km/s) = 6.41836 6.89926 6.66315
#
# Compressibility (1/GPa) = 0.01834756
#
# Stress axis : x y z
#
# Youngs Moduli (GPa) = 73.51923 100.70993 63.97870
#
# Poissons Ratio (x) = 0.26417 0.30677
# Poissons Ratio (y) = 0.19285 0.19124
# Poissons Ratio (z) = 0.35252 0.30103
#
# Static dielectric constant tensor:
#      x y z
#    x 4.252080 0.000000 -0.446350 
#    y 0.000000 3.991800 0.000000 
#    z -0.446350 0.000000 3.730440 
# 
# 
# High freq. dielectric constant tensor:
#      x y z
#    x 1.813350 0.000000 -0.020150 
#    y 0.000000 1.811700 0.000000 
#    z -0.020150 0.000000 1.794090 
# 
# From -- ./inp_files/57861.got.cif
#   From: 2010.06.25/outbox.cif.g09.slc.cpg/sg13_29_cif.got.tgz:57861.got - 2010.06.28 04:50:58.
