data_PCOD8118647
_publ_section_title
;
Structure prediction by ZEFSAII (Michael W. Deem and Ramdas Pophale) SiO2 
 PCOD8118647
Probable space group: P 2/C
;
_chemical_formula_sum "Si O2"
_cell_formula_units_Z 32
_cell_length_a 26.899799
_cell_length_b 9.991544
_cell_length_c 11.069161
_cell_angle_alpha 90.000000
_cell_angle_beta 146.470469
_cell_angle_gamma 90.000000
_cell_volume 1643.326427
_symmetry_space_group_name_H-M "P 2/C"
_symmetry_group_IT_number 13
_symmetry_cell_setting 'monoclinic'
loop_
_space_group_symop_operation_xyz
x,y,z
-x,y,1/2-z
-x,-y,-z
x,-y,1/2+z
loop_
_atom_site_type_symbol
_atom_site_label
_atom_site_fract_x
_atom_site_fract_y
_atom_site_fract_z
Si Si1 0.609934 0.335919 0.701237
Si Si2 0.969580 0.827194 0.055525
Si Si3 0.747000 0.108539 0.589169
Si Si4 0.600441 0.101350 0.494083
Si Si5 0.446647 0.403295 0.530622
Si Si6 0.947740 0.141287 0.026745
Si Si7 0.768685 0.810174 0.645166
Si Si8 0.682987 0.828534 0.716253
O O1 0.603379 0.229578 0.583134
O O2 0.517406 0.328481 0.587664
O O3 0.615454 0.486431 0.660475
O O4 0.699696 0.303538 0.959810
O O5 0.000000 0.769976 0.250000
O O6 0.972498 0.986339 0.068545
O O7 0.870803 0.766514 0.827357
O O8 0.028006 0.787253 0.053733
O O9 0.665726 0.132668 0.515243
O O10 0.729631 0.202199 0.438170
O O11 0.750157 0.954831 0.547019
O O12 0.841362 0.155645 0.838188
O O13 0.500000 0.074631 0.250000
O O14 0.629762 0.967515 0.621961
O O15 0.500000 0.472250 0.750000
O O16 0.383391 0.289592 0.456669
O O17 0.000000 0.203456 0.250000
O O18 0.759451 0.836715 0.769619
#
# Coordination Sequence:
#
# PCOD8118647 Si02
#       8
#     4   4   4   4   4   4   4   4
#     4  11  23  39  57  80 113 151 197 243 286 339
#     4   9  17  30  52  80 115 152 188 230 291 352
#     4  10  21  34  55  87 121 154 192 235 288 354
#     4  11  23  35  56  84 119 153 188 237 296 343
#     4  11  23  39  58  79 113 155 201 242 285 345
#     4   9  18  30  50  79 121 156 184 230 292 349
#     4  10  20  34  56  84 116 154 191 238 290 349
#     4  11  21  36  57  82 117 150 195 238 289 345
#
# _framework density 19.472698999999999
#
# number of rings (size 3 to 8) (size 9 to 14) (size 15 to 20)
#    0.000    1.750    2.500    2.250    3.500    5.000 
#    0.000    0.000    0.000    0.000    0.000    4.375 
#    0.000    0.000    0.000    0.000    0.000    0.000 
#
# Total GULP energy -396647.058321 kJ/mol
# GULP energy per Si atom -12395.220573 kJ/mol
# Density = 1.942838 g / cm^3
# Si number density = 19.472699 Si / 1000 Ang^3
#
#
#
# Elastic Constant Matrix: (Units=GPa)
#
#
# Indices 1 2 3 4 5 6 
#
# 1 103.0523 20.7896 58.8692 0.0000 5.4912 0.0000
# 2 20.7896 46.3007 27.1754 0.0000 4.5405 0.0000
# 3 58.8692 27.1754 121.7779 0.0000 -2.5619 0.0000
# 4 0.0000 0.0000 0.0000 24.0978 0.0000 -5.3064
# 5 5.4912 4.5405 -2.5619 0.0000 37.7405 0.0000
# 6 0.0000 0.0000 0.0000 -5.3064 0.0000 11.8035
#
#
#
# Elastic Compliance Matrix: (Units=1/GPa)
#
#
# Indices 1 2 3 4 5 6 
#
# 1 0.013842 -0.002359 -0.006210 0.000000 -0.002152 0.000000
# 2 -0.002359 0.025691 -0.004657 0.000000 -0.003064 0.000000
# 3 -0.006210 -0.004657 0.012301 0.000000 0.002299 0.000000
# 4 0.000000 0.000000 0.000000 0.046057 0.000000 0.020705
# 5 -0.002152 -0.003064 0.002299 0.000000 0.027334 0.000000
# 6 0.000000 0.000000 0.000000 0.020705 0.000000 0.094029
#
#
# Mechanical properties :
#
#
# Convention : Reuss Voigt Hill
#
# Bulk Modulus (GPa) = 39.39887 53.86659 46.63273
# Shear Modulus (GPa) = 19.67198 25.68148 22.67673
#
# Velocity S-wave (km/s) = 3.18187 3.63553 3.41624
# Velocity P-wave (km/s) = 5.81170 6.73390 6.28973
#
# Compressibility (1/GPa) = 0.02538144
#
# Stress axis : x y z
#
# Youngs Moduli (GPa) = 72.24369 38.92400 81.29154
#
# Poissons Ratio (x) = 0.09183 0.50484
# Poissons Ratio (y) = 0.17044 0.37858
# Poissons Ratio (z) = 0.44865 0.18127
#
# Static dielectric constant tensor:
#      x y z
#    x 3.385220 0.000000 -0.381510 
#    y 0.000000 3.087880 0.000000 
#    z -0.381510 0.000000 3.352260 
# 
# 
# High freq. dielectric constant tensor:
#      x y z
#    x 1.771690 0.000000 -0.005810 
#    y 0.000000 1.702660 0.000000 
#    z -0.005810 0.000000 1.766190 
# 
# From -- ./inp_files/42771.got.cif
#   From: 2010.06.25/outbox.cif.g09.slc.cpg/sg13_22_cif.got.tgz:42771.got - 2010.06.28 04:50:58.
