data_PCOD8118529
_publ_section_title
;
Structure prediction by ZEFSAII (Michael W. Deem and Ramdas Pophale) SiO2 
 PCOD8118529
Probable space group: P 2/C
;
_chemical_formula_sum "Si O2"
_cell_formula_units_Z 30
_cell_length_a 18.591830
_cell_length_b 9.250275
_cell_length_c 17.487968
_cell_angle_alpha 90.000000
_cell_angle_beta 25.378375
_cell_angle_gamma 90.000000
_cell_volume 1289.028092
_symmetry_space_group_name_H-M "P 2/C"
_symmetry_group_IT_number 13
_symmetry_cell_setting 'monoclinic'
loop_
_space_group_symop_operation_xyz
x,y,z
-x,y,1/2-z
-x,-y,-z
x,-y,1/2+z
loop_
_atom_site_type_symbol
_atom_site_label
_atom_site_fract_x
_atom_site_fract_y
_atom_site_fract_z
Si Si1 0.234122 0.735899 0.641339
Si Si2 0.901704 0.071251 0.982684
Si Si3 0.101690 0.599847 0.051511
Si Si4 0.574912 0.299300 0.988113
Si Si5 0.736582 0.007951 0.795940
Si Si6 0.233369 0.548373 0.772489
Si Si7 0.000000 0.889966 0.750000
Si Si8 0.272091 0.455416 0.532939
O O1 0.329555 0.869545 0.590823
O O2 0.137128 0.647637 0.802002
O O3 0.348200 0.609423 0.491597
O O4 0.112021 0.784894 0.692451
O O5 0.864486 0.232865 0.995344
O O6 0.885592 0.982451 0.918560
O O7 0.765866 0.022379 0.177401
O O8 0.088836 0.057378 0.834995
O O9 0.259683 0.548304 0.952997
O O10 0.921326 0.567066 0.257742
O O11 0.113091 0.518390 0.959333
O O12 0.715256 0.392781 0.808847
O O13 0.614580 0.325962 0.040563
O O14 0.596018 0.131596 0.943246
O O15 0.391887 0.353130 0.143923
#
# Coordination Sequence:
#
# PCOD8118529 Si02
#       8
#     4   4   4   4   4   4   2   4
#     4  10  21  38  55  92 114 161 191 257 293 378
#     4  10  20  33  56  94 117 157 193 251 309 362
#     4  11  20  37  60  92 117 157 198 264 288 375
#     4  10  22  41  60  87 114 171 193 253 294 369
#     4  10  20  36  60  85 124 150 204 242 307 358
#     4  10  23  40  62  85 122 152 219 237 302 352
#     4  10  20  32  58  82 134 144 190 242 320 346
#     4  10  22  35  62  87 123 151 207 241 323 342
#
# _framework density 23.273349
#
# number of rings (size 3 to 8) (size 9 to 14) (size 15 to 20)
#    0.000    1.867    2.667    1.600    1.867    7.467 
#    0.000    0.000    0.000    2.400    0.000    0.000 
#    0.000    0.000    0.000    0.000    0.000    0.000 
#
# Total GULP energy -371657.576007 kJ/mol
# GULP energy per Si atom -12388.585867 kJ/mol
# Density = 2.322038 g / cm^3
# Si number density = 23.273349 Si / 1000 Ang^3
#
#
#
# Elastic Constant Matrix: (Units=GPa)
#
#
# Indices 1 2 3 4 5 6 
#
# 1 115.8046 29.6857 14.9408 0.0000 38.0355 0.0000
# 2 29.6857 136.8295 13.5504 0.0000 14.1080 0.0000
# 3 14.9408 13.5504 37.3637 0.0000 13.3905 0.0000
# 4 0.0000 0.0000 0.0000 11.3235 0.0000 -2.9848
# 5 38.0355 14.1080 13.3905 0.0000 33.0792 0.0000
# 6 0.0000 0.0000 0.0000 -2.9848 0.0000 36.4871
#
#
#
# Elastic Compliance Matrix: (Units=1/GPa)
#
#
# Indices 1 2 3 4 5 6 
#
# 1 0.014158 -0.001491 0.000568 0.000000 -0.015873 0.000000
# 2 -0.001491 0.007916 -0.001964 0.000000 -0.000866 0.000000
# 3 0.000568 -0.001964 0.031796 0.000000 -0.012686 0.000000
# 4 0.000000 0.000000 0.000000 0.090258 0.000000 0.007384
# 5 -0.015873 -0.000866 -0.012686 0.000000 0.053986 0.000000
# 6 0.000000 0.000000 0.000000 0.007384 0.000000 0.028011
#
#
# Mechanical properties :
#
#
# Convention : Reuss Voigt Hill
#
# Bulk Modulus (GPa) = 20.79237 45.15020 32.97128
# Shear Modulus (GPa) = 20.16699 31.63269 25.89984
#
# Velocity S-wave (km/s) = 2.94688 3.69071 3.33957
# Velocity P-wave (km/s) = 4.53124 6.13220 5.39147
#
# Compressibility (1/GPa) = 0.04809457
#
# Stress axis : x y z
#
# Youngs Moduli (GPa) = 70.63386 126.33111 31.45090
#
# Poissons Ratio (x) = 0.18839 -0.01787
# Poissons Ratio (y) = 0.10533 0.06177
# Poissons Ratio (z) = -0.04012 0.24811
#
# Static dielectric constant tensor:
#      x y z
#    x 4.874330 0.000000 0.455480 
#    y 0.000000 4.504220 0.000000 
#    z 0.455480 0.000000 4.008930 
# 
# 
# High freq. dielectric constant tensor:
#      x y z
#    x 1.945170 0.000000 0.018410 
#    y 0.000000 1.930630 0.000000 
#    z 0.018410 0.000000 1.875890 
# 
# From -- ./inp_files/70565.got.cif
#   From: 2010.06.25/outbox.cif.g09.slc.cpg/sg13_36_cif.got.tgz:70565.got - 2010.06.28 04:50:58.
