data_PCOD8118601
_publ_section_title
;
Structure prediction by ZEFSAII (Michael W. Deem and Ramdas Pophale) SiO2 
 PCOD8118601
Probable space group: P 2/C
;
_chemical_formula_sum "Si O2"
_cell_formula_units_Z 24
_cell_length_a 7.577922
_cell_length_b 23.747475
_cell_length_c 8.239270
_cell_angle_alpha 90.000000
_cell_angle_beta 125.203746
_cell_angle_gamma 90.000000
_cell_volume 1211.533276
_symmetry_space_group_name_H-M "P 2/C"
_symmetry_group_IT_number 13
_symmetry_cell_setting 'monoclinic'
loop_
_space_group_symop_operation_xyz
x,y,z
-x,y,1/2-z
-x,-y,-z
x,-y,1/2+z
loop_
_atom_site_type_symbol
_atom_site_label
_atom_site_fract_x
_atom_site_fract_y
_atom_site_fract_z
Si Si1 0.500000 0.235408 0.250000
Si Si2 0.240103 0.683341 0.823056
Si Si3 0.500000 0.271025 0.750000
Si Si4 0.500000 0.983339 0.750000
Si Si5 0.737696 0.438870 0.317764
Si Si6 0.000000 0.523543 0.250000
Si Si7 0.762335 0.062509 0.676393
Si Si8 0.762675 0.808983 0.176871
O O1 0.692188 0.274048 0.282701
O O2 0.597171 0.195737 0.439764
O O3 0.256497 0.620630 0.766496
O O4 0.000000 0.698665 0.750000
O O5 0.404513 0.688751 0.060792
O O6 0.308996 0.231340 0.715071
O O7 0.405015 0.943505 0.560534
O O8 0.692177 0.022850 0.786822
O O9 0.500000 0.455065 0.250000
O O10 0.812945 0.485353 0.228817
O O11 0.896387 0.436856 0.557386
O O12 0.762349 0.126775 0.738297
O O13 0.000000 0.043507 0.750000
O O14 0.000000 0.789761 0.250000
#
# Coordination Sequence:
#
# PCOD8118601 Si02
#       8
#     2   4   2   2   4   2   4   4
#     4  10  21  38  56  80 112 142 189 232 276 332
#     4  11  22  39  58  85 114 145 185 232 278 330
#     4  10  23  38  58  82 114 148 187 234 280 330
#     4  10  20  34  52  82 112 144 182 236 276 330
#     4  11  22  42  61  87 114 149 185 227 278 330
#     4  10  24  42  62  86 118 148 186 230 274 332
#     4  10  20  34  55  79 111 145 187 228 281 331
#     4  10  20  37  57  80 108 150 187 229 280 333
#
# _framework density 19.809608000000001
#
# number of rings (size 3 to 8) (size 9 to 14) (size 15 to 20)
#    0.000    1.667    1.667    3.000    0.000    1.333 
#    3.000    0.000    0.000   16.000    0.000    0.000 
#    0.000    0.000    0.000    0.000    0.000    0.000 
#
# Total GULP energy -297736.521091 kJ/mol
# GULP energy per Si atom -12405.688379 kJ/mol
# Density = 1.976452 g / cm^3
# Si number density = 19.809608 Si / 1000 Ang^3
#
#
#
# Elastic Constant Matrix: (Units=GPa)
#
#
# Indices 1 2 3 4 5 6 
#
# 1 147.3173 48.2173 16.6257 0.0000 11.1859 0.0000
# 2 48.2173 90.2108 33.0032 0.0000 1.6693 0.0000
# 3 16.6257 33.0032 66.7298 0.0000 -6.4682 0.0000
# 4 0.0000 0.0000 0.0000 19.2853 0.0000 -3.3477
# 5 11.1859 1.6693 -6.4682 0.0000 31.9370 0.0000
# 6 0.0000 0.0000 0.0000 -3.3477 0.0000 3.9851
#
#
#
# Elastic Compliance Matrix: (Units=1/GPa)
#
#
# Indices 1 2 3 4 5 6 
#
# 1 0.008461 -0.004397 -0.000202 0.000000 -0.002774 0.000000
# 2 -0.004397 0.015959 -0.006864 0.000000 -0.000684 0.000000
# 3 -0.000202 -0.006864 0.018843 0.000000 0.004246 0.000000
# 4 0.000000 0.000000 0.000000 0.060705 0.000000 0.050996
# 5 -0.002774 -0.000684 0.004246 0.000000 0.033179 0.000000
# 6 0.000000 0.000000 0.000000 0.050996 0.000000 0.293774
#
#
# Mechanical properties :
#
#
# Convention : Reuss Voigt Hill
#
# Bulk Modulus (GPa) = 49.17356 55.55005 52.36180
# Shear Modulus (GPa) = 10.85480 24.80226 17.82853
#
# Velocity S-wave (km/s) = 2.34339 3.54224 3.00324
# Velocity P-wave (km/s) = 5.67441 6.69573 6.20612
#
# Compressibility (1/GPa) = 0.02033613
#
# Stress axis : x y z
#
# Youngs Moduli (GPa) = 118.19402 62.66046 53.07149
#
# Poissons Ratio (x) = 0.27551 0.01074
# Poissons Ratio (y) = 0.51968 0.36428
# Poissons Ratio (z) = 0.02391 0.43009
#
# Static dielectric constant tensor:
#      x y z
#    x 4.065730 0.000000 -0.014460 
#    y 0.000000 3.410510 0.000000 
#    z -0.014460 0.000000 3.507010 
# 
# 
# High freq. dielectric constant tensor:
#      x y z
#    x 1.791560 0.000000 -0.001250 
#    y 0.000000 1.768050 0.000000 
#    z -0.001250 0.000000 1.772010 
# 
# From -- ./inp_files/13544.got.cif
#   From: 2010.06.25/outbox.cif.g09.slc.cpg/sg13_7_cif.got.tgz:13544.got - 2010.06.28 04:50:58.
