data_PCOD8118195
_publ_section_title
;
Structure prediction by ZEFSAII (Michael W. Deem and Ramdas Pophale) SiO2 
 PCOD8118195
Probable space group: P 2/C
;
_chemical_formula_sum "Si O2"
_cell_formula_units_Z 24
_cell_length_a 9.340870
_cell_length_b 12.635150
_cell_length_c 10.708910
_cell_angle_alpha 90.000000
_cell_angle_beta 62.160424
_cell_angle_gamma 90.000000
_cell_volume 1117.615198
_symmetry_space_group_name_H-M "P 2/C"
_symmetry_group_IT_number 13
_symmetry_cell_setting 'monoclinic'
loop_
_space_group_symop_operation_xyz
x,y,z
-x,y,1/2-z
-x,-y,-z
x,-y,1/2+z
loop_
_atom_site_type_symbol
_atom_site_label
_atom_site_fract_x
_atom_site_fract_y
_atom_site_fract_z
Si Si1 0.324353 0.551593 0.071845
Si Si2 0.000000 0.891984 0.750000
Si Si3 0.387310 0.205516 0.530753
Si Si4 0.694027 0.577464 0.151949
Si Si5 0.759614 0.956173 0.232426
Si Si6 0.733454 0.800460 0.023182
Si Si7 0.500000 0.897798 0.750000
O O1 0.237075 0.533252 0.242761
O O2 0.500000 0.500000 0.000000
O O3 0.324736 0.676079 0.053861
O O4 0.237932 0.497037 0.987700
O O5 0.129445 0.811579 0.637444
O O6 0.917538 0.971021 0.683666
O O7 0.256379 0.130620 0.651646
O O8 0.557851 0.200010 0.532414
O O9 0.391845 0.174789 0.383730
O O10 0.500000 0.579911 0.250000
O O11 0.756422 0.695662 0.097411
O O12 0.757492 0.903126 0.098220
O O13 0.605150 0.032795 0.302467
#
# Coordination Sequence:
#
# PCOD8118195 Si02
#       7
#     4   2   4   4   4   4   2
#     4  10  20  33  62 101 126 160 205 278 335 377
#     4  12  28  40  62  96 132 180 218 264 316 404
#     4  12  22  38  65  99 128 165 218 274 325 384
#     4  10  19  36  63  97 130 162 207 273 332 387
#     4  12  23  44  64  91 129 174 222 261 328 379
#     4  12  21  41  64  91 130 174 216 261 333 383
#     4  12  24  34  64  96 126 162 214 276 310 390
#
# _framework density 21.474295000000001
#
# number of rings (size 3 to 8) (size 9 to 14) (size 15 to 20)
#    0.000    0.667    8.333    2.000    3.500    0.000 
#    0.000    0.000    0.000    2.000    0.000    0.000 
#    0.000    0.000    0.000    0.000    0.000    0.000 
#
# Total GULP energy -297493.746698 kJ/mol
# GULP energy per Si atom -12395.572779 kJ/mol
# Density = 2.142542 g / cm^3
# Si number density = 21.474295 Si / 1000 Ang^3
#
#
#
# Elastic Constant Matrix: (Units=GPa)
#
#
# Indices 1 2 3 4 5 6 
#
# 1 42.1318 28.3287 11.5563 0.0000 7.2299 0.0000
# 2 28.3287 104.2359 47.1702 0.0000 22.1309 0.0000
# 3 11.5563 47.1702 117.1801 0.0000 28.2904 0.0000
# 4 0.0000 0.0000 0.0000 29.3785 0.0000 7.3493
# 5 7.2299 22.1309 28.2904 0.0000 31.9956 0.0000
# 6 0.0000 0.0000 0.0000 7.3493 0.0000 16.7968
#
#
#
# Elastic Compliance Matrix: (Units=1/GPa)
#
#
# Indices 1 2 3 4 5 6 
#
# 1 0.029131 -0.007866 0.000724 0.000000 -0.001781 0.000000
# 2 -0.007866 0.014522 -0.003908 0.000000 -0.004811 0.000000
# 3 0.000724 -0.003908 0.011980 0.000000 -0.008053 0.000000
# 4 0.000000 0.000000 0.000000 0.038222 0.000000 -0.016724
# 5 -0.001781 -0.004811 -0.008053 0.000000 0.042105 0.000000
# 6 0.000000 0.000000 0.000000 -0.016724 0.000000 0.066853
#
#
# Mechanical properties :
#
#
# Convention : Reuss Voigt Hill
#
# Bulk Modulus (GPa) = 29.82308 48.62868 39.22588
# Shear Modulus (GPa) = 21.17820 27.40035 24.28928
#
# Velocity S-wave (km/s) = 3.14381 3.57593 3.36681
# Velocity P-wave (km/s) = 5.20538 6.30428 5.78100
#
# Compressibility (1/GPa) = 0.03353108
#
# Stress axis : x y z
#
# Youngs Moduli (GPa) = 34.32711 68.86275 83.47295
#
# Poissons Ratio (x) = 0.54171 -0.06041
# Poissons Ratio (y) = 0.27003 0.32623
# Poissons Ratio (z) = -0.02484 0.26913
#
# Static dielectric constant tensor:
#      x y z
#    x 3.672560 0.000000 0.446610 
#    y 0.000000 4.123860 0.000000 
#    z 0.446610 0.000000 4.103710 
# 
# 
# High freq. dielectric constant tensor:
#      x y z
#    x 1.800020 0.000000 0.030740 
#    y 0.000000 1.851830 0.000000 
#    z 0.030740 0.000000 1.852750 
# 
# From -- ./inp_files/33764.got.cif
#   From: 2010.06.25/outbox.cif.g09.slc.cpg/sg13_17_cif.got.tgz:33764.got - 2010.06.28 04:50:58.
