data_PCOD8118900
_publ_section_title
;
Structure prediction by ZEFSAII (Michael W. Deem and Ramdas Pophale) SiO2 
 PCOD8118900
Probable space group: P 2/C
;
_chemical_formula_sum "Si O2"
_cell_formula_units_Z 24
_cell_length_a 11.244225
_cell_length_b 19.930414
_cell_length_c 13.761308
_cell_angle_alpha 90.000000
_cell_angle_beta 159.916590
_cell_angle_gamma 90.000000
_cell_volume 1058.986394
_symmetry_space_group_name_H-M "P 2/C"
_symmetry_group_IT_number 13
_symmetry_cell_setting 'monoclinic'
loop_
_space_group_symop_operation_xyz
x,y,z
-x,y,1/2-z
-x,-y,-z
x,-y,1/2+z
loop_
_atom_site_type_symbol
_atom_site_label
_atom_site_fract_x
_atom_site_fract_y
_atom_site_fract_z
Si Si1 0.781138 0.050241 0.171472
Si Si2 0.400976 0.394162 0.567658
Si Si3 0.396194 0.460211 0.063598
Si Si4 0.286805 0.139449 0.677815
Si Si5 0.607383 0.675365 0.048580
Si Si6 0.809746 0.243362 0.422916
O O1 0.000000 0.016409 0.250000
O O2 0.042359 0.078007 0.454486
O O3 0.577863 0.113611 0.974110
O O4 0.500000 0.000000 0.000000
O O5 0.500000 0.370729 0.750000
O O6 0.583247 0.467698 0.683866
O O7 0.522177 0.331310 0.596631
O O8 0.000000 0.403379 0.250000
O O9 0.500000 0.434470 0.250000
O O10 0.467354 0.399808 0.045418
O O11 0.000000 0.477246 0.750000
O O12 0.500000 0.171722 0.750000
O O13 0.073472 0.189875 0.581963
O O14 0.001060 0.704857 0.355198
O O15 0.348069 0.722740 0.793252
O O16 0.500000 0.210855 0.250000
#
# Coordination Sequence:
#
# PCOD8118900 Si02
#       6
#     4   4   4   4   4   4
#     4  10  21  39  67 100 131 165 205 248 300 356
#     4  10  22  38  57  85 114 148 199 257 322 392
#     4  10  20  36  58  82 112 147 191 254 324 388
#     4  10  23  43  63  91 131 171 208 250 301 355
#     4  12  23  39  60  84 117 157 205 261 318 377
#     4  12  26  41  62  90 122 166 215 258 306 368
#
# _framework density 22.663181000000002
#
# number of rings (size 3 to 8) (size 9 to 14) (size 15 to 20)
#    0.000    1.333    0.000    6.000    0.000    3.333 
#    0.000    6.667    0.000    0.000    0.000    0.000 
#    0.000    0.000    0.000    0.000    0.000    0.000 
#
# Total GULP energy -297337.652551 kJ/mol
# GULP energy per Si atom -12389.068856 kJ/mol
# Density = 2.261160 g / cm^3
# Si number density = 22.663181 Si / 1000 Ang^3
#
#
#
# Elastic Constant Matrix: (Units=GPa)
#
#
# Indices 1 2 3 4 5 6 
#
# 1 124.6267 51.2780 42.0449 0.0000 8.8801 0.0000
# 2 51.2780 53.4599 18.1270 0.0000 11.8322 0.0000
# 3 42.0449 18.1270 108.8328 0.0000 -12.8939 0.0000
# 4 0.0000 0.0000 0.0000 28.0492 0.0000 6.2412
# 5 8.8801 11.8322 -12.8939 0.0000 49.5540 0.0000
# 6 0.0000 0.0000 0.0000 6.2412 0.0000 27.9353
#
#
#
# Elastic Compliance Matrix: (Units=1/GPa)
#
#
# Indices 1 2 3 4 5 6 
#
# 1 0.014396 -0.012493 -0.003542 0.000000 -0.000519 0.000000
# 2 -0.012493 0.032406 -0.001262 0.000000 -0.005827 0.000000
# 3 -0.003542 -0.001262 0.011224 0.000000 0.003856 0.000000
# 4 0.000000 0.000000 0.000000 0.037517 0.000000 -0.008382
# 5 -0.000519 -0.005827 0.003856 0.000000 0.022668 0.000000
# 6 0.000000 0.000000 0.000000 -0.008382 0.000000 0.037670
#
#
# Mechanical properties :
#
#
# Convention : Reuss Voigt Hill
#
# Bulk Modulus (GPa) = 42.67514 56.64657 49.66085
# Shear Modulus (GPa) = 25.21634 32.80566 29.01100
#
# Velocity S-wave (km/s) = 3.33927 3.80877 3.58172
# Velocity P-wave (km/s) = 5.80850 6.66270 6.25021
#
# Compressibility (1/GPa) = 0.02343285
#
# Stress axis : x y z
#
# Youngs Moduli (GPa) = 69.46323 30.85849 89.09563
#
# Poissons Ratio (x) = 0.38551 0.31560
# Poissons Ratio (y) = 0.86778 0.11240
# Poissons Ratio (z) = 0.24606 0.03893
#
# Static dielectric constant tensor:
#      x y z
#    x 4.223190 0.000000 -0.155850 
#    y 0.000000 3.868240 0.000000 
#    z -0.155850 0.000000 4.351940 
# 
# 
# High freq. dielectric constant tensor:
#      x y z
#    x 1.900630 0.000000 -0.015580 
#    y 0.000000 1.866230 0.000000 
#    z -0.015580 0.000000 1.916590 
# 
# From -- ./inp_files/51696.got.cif
#   From: 2010.06.25/outbox.cif.g09.slc.cpg/sg13_26_cif.got.tgz:51696.got - 2010.06.28 04:50:58.
