data_PCOD8118222
_publ_section_title
;
Structure prediction by ZEFSAII (Michael W. Deem and Ramdas Pophale) SiO2 
 PCOD8118222
Probable space group: P 2/C
;
_chemical_formula_sum "Si O2"
_cell_formula_units_Z 24
_cell_length_a 8.959419
_cell_length_b 8.655767
_cell_length_c 21.679075
_cell_angle_alpha 90.000000
_cell_angle_beta 47.191899
_cell_angle_gamma 90.000000
_cell_volume 1233.404361
_symmetry_space_group_name_H-M "P 2/C"
_symmetry_group_IT_number 13
_symmetry_cell_setting 'monoclinic'
loop_
_space_group_symop_operation_xyz
x,y,z
-x,y,1/2-z
-x,-y,-z
x,-y,1/2+z
loop_
_atom_site_type_symbol
_atom_site_label
_atom_site_fract_x
_atom_site_fract_y
_atom_site_fract_z
Si Si1 0.799663 0.064145 0.454123
Si Si2 0.387233 0.873702 0.218507
Si Si3 0.980218 0.764044 0.109574
Si Si4 0.261640 0.317918 0.938153
Si Si5 0.619482 0.596813 0.517530
Si Si6 0.598978 0.099956 0.389508
O O1 0.848489 0.223215 0.475829
O O2 0.790361 0.089792 0.382743
O O3 0.579663 0.009653 0.537355
O O4 0.972473 0.940893 0.423546
O O5 0.500000 0.922340 0.250000
O O6 0.181327 0.775934 0.289407
O O7 0.525801 0.759694 0.139887
O O8 0.336221 0.032667 0.195728
O O9 0.887849 0.672351 0.077878
O O10 0.189147 0.679183 0.070828
O O11 0.302281 0.490391 0.949277
O O12 0.500000 0.500000 0.500000
O O13 0.475492 0.722677 0.591024
#
# Coordination Sequence:
#
# PCOD8118222 Si02
#       6
#     4   4   4   4   4   4
#     4   9  17  32  57  83 108 143 200 241 274 333
#     4   9  20  38  58  83 115 152 193 241 296 346
#     4  10  21  35  58  87 113 156 198 240 290 346
#     4  10  19  37  59  84 119 150 193 244 295 354
#     4  11  21  37  59  85 118 154 195 242 296 356
#     4   9  18  34  56  83 109 149 189 240 291 334
#
# _framework density 19.45834
#
# number of rings (size 3 to 8) (size 9 to 14) (size 15 to 20)
#    0.000    2.333    1.667    1.000    2.333    2.000 
#    0.000    4.167    3.667    0.000    0.000    0.000 
#    0.000    0.000    0.000    0.000    0.000    0.000 
#
# Total GULP energy -297513.071062 kJ/mol
# GULP energy per Si atom -12396.377961 kJ/mol
# Density = 1.941405 g / cm^3
# Si number density = 19.458340 Si / 1000 Ang^3
#
#
#
# Elastic Constant Matrix: (Units=GPa)
#
#
# Indices 1 2 3 4 5 6 
#
# 1 76.3452 42.3180 40.6959 0.0000 2.2464 0.0000
# 2 42.3180 112.1777 35.0756 0.0000 8.1916 0.0000
# 3 40.6959 35.0756 80.1634 0.0000 5.3102 0.0000
# 4 0.0000 0.0000 0.0000 23.8165 0.0000 5.3464
# 5 2.2464 8.1916 5.3102 0.0000 27.6496 0.0000
# 6 0.0000 0.0000 0.0000 5.3464 0.0000 38.3503
#
#
#
# Elastic Compliance Matrix: (Units=1/GPa)
#
#
# Indices 1 2 3 4 5 6 
#
# 1 0.020267 -0.005218 -0.008102 0.000000 0.001455 0.000000
# 2 -0.005218 0.011807 -0.002343 0.000000 -0.002624 0.000000
# 3 -0.008102 -0.002343 0.017749 0.000000 -0.002056 0.000000
# 4 0.000000 0.000000 0.000000 0.043344 0.000000 -0.006043
# 5 0.001455 -0.002624 -0.002056 0.000000 0.037221 0.000000
# 6 0.000000 0.000000 0.000000 -0.006043 0.000000 0.026918
#
#
# Mechanical properties :
#
#
# Convention : Reuss Voigt Hill
#
# Bulk Modulus (GPa) = 54.06534 56.09615 55.08074
# Shear Modulus (GPa) = 25.66755 28.00308 26.83531
#
# Velocity S-wave (km/s) = 3.63589 3.79770 3.71767
# Velocity P-wave (km/s) = 6.74327 6.93696 6.84080
#
# Compressibility (1/GPa) = 0.01849614
#
# Stress axis : x y z
#
# Youngs Moduli (GPa) = 49.34177 84.69291 56.34128
#
# Poissons Ratio (x) = 0.44197 0.45646
# Poissons Ratio (y) = 0.25749 0.13202
# Poissons Ratio (z) = 0.39975 0.19846
#
# Static dielectric constant tensor:
#      x y z
#    x 3.617370 0.000000 0.084070 
#    y 0.000000 3.538220 0.000000 
#    z 0.084070 0.000000 3.493470 
# 
# 
# High freq. dielectric constant tensor:
#      x y z
#    x 1.762650 0.000000 0.003070 
#    y 0.000000 1.750610 0.000000 
#    z 0.003070 0.000000 1.733740 
# 
# From -- ./inp_files/52898.got.cif
#   From: 2010.06.25/outbox.cif.g09.slc.cpg/sg13_27_cif.got.tgz:52898.got - 2010.06.28 04:50:58.
