data_PCOD8118074
_publ_section_title
;
Structure prediction by ZEFSAII (Michael W. Deem and Ramdas Pophale) SiO2 
 PCOD8118074
Probable space group: P 2/C
;
_chemical_formula_sum "Si O2"
_cell_formula_units_Z 28
_cell_length_a 16.719360
_cell_length_b 14.616620
_cell_length_c 10.023160
_cell_angle_alpha 90.000000
_cell_angle_beta 33.822906
_cell_angle_gamma 90.000000
_cell_volume 1363.440376
_symmetry_space_group_name_H-M "P 2/C"
_symmetry_group_IT_number 13
_symmetry_cell_setting 'monoclinic'
loop_
_space_group_symop_operation_xyz
x,y,z
-x,y,1/2-z
-x,-y,-z
x,-y,1/2+z
loop_
_atom_site_type_symbol
_atom_site_label
_atom_site_fract_x
_atom_site_fract_y
_atom_site_fract_z
Si Si1 0.500000 0.742151 0.750000
Si Si2 0.500000 0.297620 0.750000
Si Si3 0.723065 0.591593 0.370019
Si Si4 0.100038 0.027506 0.240312
Si Si5 0.034884 0.700373 0.348849
Si Si6 0.748586 0.148986 0.031698
Si Si7 0.375405 0.543665 0.259124
Si Si8 0.222056 0.194556 0.211195
O O1 0.611697 0.676847 0.517103
O O2 0.409844 0.808981 0.776464
O O3 0.571990 0.357939 0.765234
O O4 0.619486 0.232279 0.524172
O O5 0.881508 0.620037 0.193195
O O6 0.746515 0.554117 0.186479
O O7 0.666956 0.516706 0.554429
O O8 0.178526 0.124297 0.155373
O O9 0.000000 0.034324 0.250000
O O10 0.000000 0.000000 0.500000
O O11 0.230576 0.954533 0.047288
O O12 0.000000 0.663831 0.250000
O O13 0.890427 0.720979 0.631925
O O14 0.131064 0.791416 0.209795
O O15 0.783653 0.144796 0.138963
O O16 0.500000 0.500000 0.000000
#
# Coordination Sequence:
#
# PCOD8118074 Si02
#       8
#     2   2   4   4   4   4   4   4
#     4  10  19  35  62  96 124 164 226 261 317 390
#     4  12  27  43  68  94 140 170 220 279 333 398
#     4  11  22  38  68  94 126 176 223 263 334 403
#     4  12  22  43  69  97 133 179 220 264 331 392
#     4   9  20  38  66  94 126 170 224 272 326 385
#     4  10  20  39  67  96 130 176 217 271 322 389
#     4  12  22  42  65  93 130 176 214 270 335 399
#     4  11  24  44  66  97 133 174 220 276 334 384
#
# _framework density 20.536287000000002
#
# number of rings (size 3 to 8) (size 9 to 14) (size 15 to 20)
#    0.000    1.143    5.714    1.286    4.000    1.714 
#    2.571    4.286    0.000    0.000    0.000    0.000 
#    0.000    0.000    0.000    0.000    0.000    0.000 
#
# Total GULP energy -347114.462629 kJ/mol
# GULP energy per Si atom -12396.945094 kJ/mol
# Density = 2.048955 g / cm^3
# Si number density = 20.536287 Si / 1000 Ang^3
#
#
#
# Elastic Constant Matrix: (Units=GPa)
#
#
# Indices 1 2 3 4 5 6 
#
# 1 146.3525 57.7968 33.7743 0.0000 2.5170 0.0000
# 2 57.7968 98.5370 41.7289 0.0000 -1.0274 0.0000
# 3 33.7743 41.7289 91.0250 0.0000 -7.8408 0.0000
# 4 0.0000 0.0000 0.0000 12.3255 0.0000 -5.1417
# 5 2.5170 -1.0274 -7.8408 0.0000 36.8465 0.0000
# 6 0.0000 0.0000 0.0000 -5.1417 0.0000 42.4763
#
#
#
# Elastic Compliance Matrix: (Units=1/GPa)
#
#
# Indices 1 2 3 4 5 6 
#
# 1 0.009024 -0.004776 -0.001246 0.000000 -0.001015 0.000000
# 2 -0.004776 0.015150 -0.005204 0.000000 -0.000359 0.000000
# 3 -0.001246 -0.005204 0.014087 0.000000 0.002938 0.000000
# 4 0.000000 0.000000 0.000000 0.085448 0.000000 0.010343
# 5 -0.001015 -0.000359 0.002938 0.000000 0.027824 0.000000
# 6 0.000000 0.000000 0.000000 0.010343 0.000000 0.024795
#
#
# Mechanical properties :
#
#
# Convention : Reuss Voigt Hill
#
# Bulk Modulus (GPa) = 63.25655 66.94606 65.10130
# Shear Modulus (GPa) = 24.50392 31.83728 28.17060
#
# Velocity S-wave (km/s) = 3.45802 3.94165 3.70773
# Velocity P-wave (km/s) = 6.84201 7.30651 7.07807
#
# Compressibility (1/GPa) = 0.01580864
#
# Stress axis : x y z
#
# Youngs Moduli (GPa) = 110.81670 66.00750 70.98645
#
# Poissons Ratio (x) = 0.31524 0.08847
# Poissons Ratio (y) = 0.52923 0.36942
# Poissons Ratio (z) = 0.13811 0.34351
#
# Static dielectric constant tensor:
#      x y z
#    x 2.734900 0.000000 -0.740420 
#    y 0.000000 4.003310 0.000000 
#    z -0.740420 0.000000 3.214740 
# 
# 
# High freq. dielectric constant tensor:
#      x y z
#    x 1.818380 0.000000 -0.001350 
#    y 0.000000 1.797520 0.000000 
#    z -0.001350 0.000000 1.784160 
# 
# From -- ./inp_files/19869.got.cif
#   From: 2010.06.25/outbox.cif.g09.slc.cpg/sg13_10_cif.got.tgz:19869.got - 2010.06.28 04:50:58.
