data_PCOD8118469
_publ_section_title
;
Structure prediction by ZEFSAII (Michael W. Deem and Ramdas Pophale) SiO2 
 PCOD8118469
Probable space group: P 2/C
;
_chemical_formula_sum "Si O2"
_cell_formula_units_Z 20
_cell_length_a 10.000418
_cell_length_b 10.841932
_cell_length_c 8.524029
_cell_angle_alpha 90.000000
_cell_angle_beta 97.021395
_cell_angle_gamma 90.000000
_cell_volume 917.277029
_symmetry_space_group_name_H-M "P 2/C"
_symmetry_group_IT_number 13
_symmetry_cell_setting 'monoclinic'
loop_
_space_group_symop_operation_xyz
x,y,z
-x,y,1/2-z
-x,-y,-z
x,-y,1/2+z
loop_
_atom_site_type_symbol
_atom_site_label
_atom_site_fract_x
_atom_site_fract_y
_atom_site_fract_z
Si Si1 0.144491 0.625864 0.085895
Si Si2 0.500000 0.524803 0.250000
Si Si3 0.619235 0.337720 0.061509
Si Si4 0.391449 0.839505 0.527198
Si Si5 0.161563 0.645422 0.450121
Si Si6 0.500000 0.961299 0.250000
O O1 0.195943 0.635745 0.271212
O O2 0.994916 0.680272 0.047866
O O3 0.232267 0.705370 0.973483
O O4 0.174265 0.485058 0.038231
O O5 0.621463 0.438286 0.201424
O O6 0.549667 0.607718 0.397069
O O7 0.530882 0.223264 0.104302
O O8 0.262116 0.749392 0.536587
O O9 0.388370 0.961229 0.634724
O O10 0.406004 0.876674 0.347167
#
# Coordination Sequence:
#
# PCOD8118469 Si02
#       6
#     4   2   4   4   4   2
#     4  10  20  34  56  90 124 154 184 218 286 381
#     4  10  20  28  50  90 120 148 186 218 278 374
#     4  11  19  32  54  81 116 148 181 231 288 342
#     4  11  22  39  60  81 109 149 197 253 293 323
#     4  10  21  36  57  86 125 158 184 227 290 354
#     4  10  24  40  60  82 104 148 218 260 280 318
#
# _framework density 21.803664999999999
#
# number of rings (size 3 to 8) (size 9 to 14) (size 15 to 20)
#    0.000    1.600    0.000    7.200    0.000    1.600 
#    0.000    0.000    0.000   21.600    0.000    0.000 
#    0.000    0.000    0.000    0.000    0.000    0.000 
#
# Total GULP energy -247792.084817 kJ/mol
# GULP energy per Si atom -12389.604241 kJ/mol
# Density = 2.175404 g / cm^3
# Si number density = 21.803665 Si / 1000 Ang^3
#
#
#
# Elastic Constant Matrix: (Units=GPa)
#
#
# Indices 1 2 3 4 5 6 
#
# 1 112.9265 35.1760 2.8958 0.0000 -14.8297 0.0000
# 2 35.1760 65.2716 0.1624 0.0000 -0.0371 0.0000
# 3 2.8958 0.1624 27.8654 0.0000 -14.7790 0.0000
# 4 0.0000 0.0000 0.0000 38.5165 0.0000 -0.9148
# 5 -14.8297 -0.0371 -14.7790 0.0000 32.8212 0.0000
# 6 0.0000 0.0000 0.0000 -0.9148 0.0000 29.5446
#
#
#
# Elastic Compliance Matrix: (Units=1/GPa)
#
#
# Indices 1 2 3 4 5 6 
#
# 1 0.011549 -0.006226 0.002102 0.000000 0.006158 0.000000
# 2 -0.006226 0.018677 -0.001238 0.000000 -0.003350 0.000000
# 3 0.002102 -0.001238 0.047530 0.000000 0.022350 0.000000
# 4 0.000000 0.000000 0.000000 0.025982 0.000000 0.000804
# 5 0.006158 -0.003350 0.022350 0.000000 0.043311 0.000000
# 6 0.000000 0.000000 0.000000 0.000804 0.000000 0.033872
#
#
# Mechanical properties :
#
#
# Convention : Reuss Voigt Hill
#
# Bulk Modulus (GPa) = 14.91838 31.39244 23.15541
# Shear Modulus (GPa) = 23.36568 31.36510 27.36539
#
# Velocity S-wave (km/s) = 3.27714 3.79690 3.54656
# Velocity P-wave (km/s) = 4.60180 5.80095 5.23582
#
# Compressibility (1/GPa) = 0.06703142
#
# Stress axis : x y z
#
# Youngs Moduli (GPa) = 86.58442 53.54170 21.03956
#
# Poissons Ratio (x) = 0.33335 -0.04423
# Poissons Ratio (y) = 0.53907 0.02606
# Poissons Ratio (z) = -0.18200 0.06631
#
# Static dielectric constant tensor:
#      x y z
#    x 4.546540 0.000000 -0.365420 
#    y 0.000000 3.764630 0.000000 
#    z -0.365420 0.000000 4.154180 
# 
# 
# High freq. dielectric constant tensor:
#      x y z
#    x 1.848620 0.000000 -0.017780 
#    y 0.000000 1.823900 0.000000 
#    z -0.017780 0.000000 1.881980 
# 
# From -- ./inp_files/15350.got.cif
#   From: 2010.06.25/outbox.cif.g09.slc.cpg/sg13_8_cif.got.tgz:15350.got - 2010.06.28 04:50:58.
