data_PCOD8118903
_publ_section_title
;
Structure prediction by ZEFSAII (Michael W. Deem and Ramdas Pophale) SiO2 
 PCOD8118903
Probable space group: P 2/C
;
_chemical_formula_sum "Si O2"
_cell_formula_units_Z 28
_cell_length_a 8.522077
_cell_length_b 13.491618
_cell_length_c 14.316927
_cell_angle_alpha 90.000000
_cell_angle_beta 60.011797
_cell_angle_gamma 90.000000
_cell_volume 1425.743980
_symmetry_space_group_name_H-M "P 2/C"
_symmetry_group_IT_number 13
_symmetry_cell_setting 'monoclinic'
loop_
_space_group_symop_operation_xyz
x,y,z
-x,y,1/2-z
-x,-y,-z
x,-y,1/2+z
loop_
_atom_site_type_symbol
_atom_site_label
_atom_site_fract_x
_atom_site_fract_y
_atom_site_fract_z
Si Si1 0.947074 0.609757 0.991945
Si Si2 0.331121 0.098581 0.735842
Si Si3 0.628035 0.126894 0.295348
Si Si4 0.614315 0.800901 0.472430
Si Si5 0.600653 0.604176 0.961011
Si Si6 0.168062 0.680781 0.763093
Si Si7 0.013274 0.244215 0.855035
O O1 0.763679 0.613787 0.986414
O O2 0.120675 0.651671 0.883222
O O3 0.918685 0.667668 0.098032
O O4 0.000000 0.500000 0.000000
O O5 0.500000 0.123420 0.750000
O O6 0.389517 0.136098 0.618959
O O7 0.150540 0.152565 0.825612
O O8 0.289866 0.981677 0.744616
O O9 0.500000 0.161923 0.250000
O O10 0.508141 0.133680 0.423483
O O11 0.795308 0.202037 0.251329
O O12 0.541122 0.690742 0.474080
O O13 0.818873 0.792351 0.449680
O O14 0.666334 0.618932 0.833417
O O15 0.500000 0.500000 0.000000
O O16 0.000000 0.653841 0.750000
O O17 0.000000 0.279839 0.750000
#
# Coordination Sequence:
#
# PCOD8118903 Si02
#       7
#     4   4   4   4   4   4   4
#     4  11  22  38  59  84 113 150 188 234 287 336
#     4  10  21  37  56  83 114 148 187 231 279 332
#     4  10  20  36  58  83 111 144 185 231 281 336
#     4  10  20  37  58  81 113 148 186 232 280 335
#     4  10  21  38  60  86 114 148 188 233 285 339
#     4   9  21  38  57  82 113 144 185 233 279 336
#     4  10  22  38  57  83 115 150 191 234 277 336
#
# _framework density 19.638870000000001
#
# number of rings (size 3 to 8) (size 9 to 14) (size 15 to 20)
#    0.000    2.000    0.000    3.000    0.000    6.857 
#    0.000   10.714    0.000    0.000    0.000    0.000 
#    0.000    0.000    0.000    0.000    0.000    0.000 
#
# Total GULP energy -347162.616969 kJ/mol
# GULP energy per Si atom -12398.664892 kJ/mol
# Density = 1.959417 g / cm^3
# Si number density = 19.638870 Si / 1000 Ang^3
#
#
#
# Elastic Constant Matrix: (Units=GPa)
#
#
# Indices 1 2 3 4 5 6 
#
# 1 94.3124 53.2576 41.6061 0.0000 -8.0205 0.0000
# 2 53.2576 94.6940 44.7272 0.0000 -5.6161 0.0000
# 3 41.6061 44.7272 83.6022 0.0000 -6.0071 0.0000
# 4 0.0000 0.0000 0.0000 34.6486 0.0000 1.4599
# 5 -8.0205 -5.6161 -6.0071 0.0000 30.3481 0.0000
# 6 0.0000 0.0000 0.0000 1.4599 0.0000 32.3422
#
#
#
# Elastic Compliance Matrix: (Units=1/GPa)
#
#
# Indices 1 2 3 4 5 6 
#
# 1 0.016808 -0.007286 -0.004305 0.000000 0.002241 0.000000
# 2 -0.007286 0.017329 -0.005633 0.000000 0.000166 0.000000
# 3 -0.004305 -0.005633 0.017206 0.000000 0.001225 0.000000
# 4 0.000000 0.000000 0.000000 0.028916 0.000000 -0.001305
# 5 0.002241 0.000166 0.001225 0.000000 0.033817 0.000000
# 6 0.000000 0.000000 0.000000 -0.001305 0.000000 0.030978
#
#
# Mechanical properties :
#
#
# Convention : Reuss Voigt Hill
#
# Bulk Modulus (GPa) = 59.19609 61.31003 60.25306
# Shear Modulus (GPa) = 27.00763 28.33561 27.67162
#
# Velocity S-wave (km/s) = 3.71241 3.80259 3.75777
# Velocity P-wave (km/s) = 6.97020 7.11098 7.04094
#
# Compressibility (1/GPa) = 0.01689301
#
# Stress axis : x y z
#
# Youngs Moduli (GPa) = 59.49704 57.70761 58.12073
#
# Poissons Ratio (x) = 0.42048 0.25023
# Poissons Ratio (y) = 0.43352 0.32738
# Poissons Ratio (z) = 0.25615 0.32505
#
# Static dielectric constant tensor:
#      x y z
#    x 3.605160 0.000000 -0.008690 
#    y 0.000000 3.519760 0.000000 
#    z -0.008690 0.000000 3.874670 
# 
# 
# High freq. dielectric constant tensor:
#      x y z
#    x 1.770350 0.000000 -0.000360 
#    y 0.000000 1.766130 0.000000 
#    z -0.000360 0.000000 1.776160 
# 
# From -- ./inp_files/47125.got.cif
#   From: 2010.06.25/outbox.cif.g09.slc.cpg/sg13_24_cif.got.tgz:47125.got - 2010.06.28 04:50:58.
