data_PCOD8118237
_publ_section_title
;
Structure prediction by ZEFSAII (Michael W. Deem and Ramdas Pophale) SiO2 
 PCOD8118237
Probable space group: P 2/C
;
_chemical_formula_sum "Si O2"
_cell_formula_units_Z 28
_cell_length_a 8.810577
_cell_length_b 13.502180
_cell_length_c 11.964008
_cell_angle_alpha 90.000000
_cell_angle_beta 111.011547
_cell_angle_gamma 90.000000
_cell_volume 1328.626986
_symmetry_space_group_name_H-M "P 2/C"
_symmetry_group_IT_number 13
_symmetry_cell_setting 'monoclinic'
loop_
_space_group_symop_operation_xyz
x,y,z
-x,y,1/2-z
-x,-y,-z
x,-y,1/2+z
loop_
_atom_site_type_symbol
_atom_site_label
_atom_site_fract_x
_atom_site_fract_y
_atom_site_fract_z
Si Si1 0.318061 0.916162 0.373606
Si Si2 0.773409 0.247173 0.973986
Si Si3 0.939831 0.221081 0.620053
Si Si4 0.500000 0.707092 0.750000
Si Si5 0.500000 0.219570 0.750000
Si Si6 0.398704 0.871498 0.895735
Si Si7 0.914526 0.432434 0.110211
Si Si8 0.220970 0.609391 0.538995
O O1 0.136286 0.884696 0.363609
O O2 0.378537 0.847030 0.290155
O O3 0.423792 0.902098 0.513861
O O4 0.318619 0.028340 0.324794
O O5 0.714637 0.153501 0.028703
O O6 0.817410 0.329725 0.077159
O O7 0.619893 0.286095 0.858480
O O8 0.919956 0.210077 0.934877
O O9 0.796980 0.289395 0.534160
O O10 0.000000 0.273935 0.750000
O O11 0.405555 0.780312 0.810215
O O12 0.377600 0.629334 0.657774
O O13 0.000000 0.453214 0.250000
O O14 0.060546 0.420436 0.062839
O O15 0.776869 0.516415 0.046620
#
# Coordination Sequence:
#
# PCOD8118237 Si02
#       8
#     4   4   4   2   2   4   4   4
#     4  10  20  38  61  88 125 167 210 251 316 373
#     4  10  22  37  63  89 128 161 212 264 317 370
#     4  11  20  39  61  91 122 167 211 259 306 384
#     4  12  21  41  64  94 130 168 213 259 320 380
#     4  10  19  37  60  92 124 162 205 263 316 368
#     4  10  22  38  60  90 125 167 204 264 310 368
#     4  10  21  43  61  88 124 165 204 258 318 376
#     4  10  23  38  64  90 122 164 209 255 316 380
#
# _framework density 21.074387000000002
#
# number of rings (size 3 to 8) (size 9 to 14) (size 15 to 20)
#    0.000    1.714    2.857    1.714    0.000    1.143 
#    0.000    6.429    0.000    0.000    0.000    0.000 
#    0.000    0.000    0.000    0.000    0.000    0.000 
#
# Total GULP energy -346897.179368 kJ/mol
# GULP energy per Si atom -12389.184977 kJ/mol
# Density = 2.102642 g / cm^3
# Si number density = 21.074387 Si / 1000 Ang^3
#
#
#
# Elastic Constant Matrix: (Units=GPa)
#
#
# Indices 1 2 3 4 5 6 
#
# 1 80.7964 41.8955 22.2497 0.0000 2.7831 0.0000
# 2 41.8955 97.5906 49.2017 0.0000 16.5536 0.0000
# 3 22.2497 49.2017 118.3200 0.0000 18.9238 0.0000
# 4 0.0000 0.0000 0.0000 31.3845 0.0000 6.4754
# 5 2.7831 16.5536 18.9238 0.0000 37.6479 0.0000
# 6 0.0000 0.0000 0.0000 6.4754 0.0000 28.0048
#
#
#
# Elastic Compliance Matrix: (Units=1/GPa)
#
#
# Indices 1 2 3 4 5 6 
#
# 1 0.016075 -0.007043 -0.000434 0.000000 0.002127 0.000000
# 2 -0.007043 0.016427 -0.004822 0.000000 -0.004278 0.000000
# 3 -0.000434 -0.004822 0.011086 0.000000 -0.003420 0.000000
# 4 0.000000 0.000000 0.000000 0.033459 0.000000 -0.007737
# 5 0.002127 -0.004278 -0.003420 0.000000 0.030005 0.000000
# 6 0.000000 0.000000 0.000000 -0.007737 0.000000 0.037497
#
#
# Mechanical properties :
#
#
# Convention : Reuss Voigt Hill
#
# Bulk Modulus (GPa) = 52.66233 58.15568 55.40901
# Shear Modulus (GPa) = 28.49367 31.63144 30.06256
#
# Velocity S-wave (km/s) = 3.68102 3.87840 3.78100
# Velocity P-wave (km/s) = 6.56578 6.90734 6.73873
#
# Compressibility (1/GPa) = 0.01898890
#
# Stress axis : x y z
#
# Youngs Moduli (GPa) = 62.20834 60.87423 90.20697
#
# Poissons Ratio (x) = 0.42872 0.03918
# Poissons Ratio (y) = 0.43812 0.43502
# Poissons Ratio (z) = 0.02702 0.29356
#
# Static dielectric constant tensor:
#      x y z
#    x 3.704090 0.000000 -0.135350 
#    y 0.000000 3.812110 0.000000 
#    z -0.135350 0.000000 4.889160 
# 
# 
# High freq. dielectric constant tensor:
#      x y z
#    x 1.819620 0.000000 -0.000440 
#    y 0.000000 1.811680 0.000000 
#    z -0.000440 0.000000 1.834740 
# 
# From -- ./inp_files/30542.got.cif
#   From: 2010.06.25/outbox.cif.g09.slc.cpg/sg13_16_cif.got.tgz:30542.got - 2010.06.28 04:50:58.
