data_PCOD8118448
_publ_section_title
;
Structure prediction by ZEFSAII (Michael W. Deem and Ramdas Pophale) SiO2 
 PCOD8118448
Probable space group: P 2/C
;
_chemical_formula_sum "Si O2"
_cell_formula_units_Z 32
_cell_length_a 11.842519
_cell_length_b 19.439411
_cell_length_c 9.318263
_cell_angle_alpha 90.000000
_cell_angle_beta 48.896266
_cell_angle_gamma 90.000000
_cell_volume 1616.431319
_symmetry_space_group_name_H-M "P 2/C"
_symmetry_group_IT_number 13
_symmetry_cell_setting 'monoclinic'
loop_
_space_group_symop_operation_xyz
x,y,z
-x,y,1/2-z
-x,-y,-z
x,-y,1/2+z
loop_
_atom_site_type_symbol
_atom_site_label
_atom_site_fract_x
_atom_site_fract_y
_atom_site_fract_z
Si Si1 0.322706 0.930805 0.909292
Si Si2 0.126185 0.808533 0.037364
Si Si3 0.919276 0.161862 0.461007
Si Si4 0.642154 0.443546 0.230214
Si Si5 0.649277 0.579386 0.057379
Si Si6 0.123334 0.691822 0.535799
Si Si7 0.831588 0.026940 0.669401
Si Si8 0.083080 0.346298 0.546563
O O1 0.500000 0.935962 0.750000
O O2 0.275629 0.970537 0.807001
O O3 0.279138 0.849982 0.937473
O O4 0.231226 0.966186 0.116397
O O5 0.150490 0.727252 0.038208
O O6 0.000000 0.837752 0.250000
O O7 0.067252 0.822509 0.929039
O O8 0.812961 0.231469 0.553509
O O9 0.814495 0.101524 0.609048
O O10 0.000000 0.136951 0.250000
O O11 0.500000 0.419770 0.250000
O O12 0.699558 0.515635 0.116465
O O13 0.609986 0.447617 0.429037
O O14 0.775664 0.390156 0.115096
O O15 0.500000 0.611405 0.250000
O O16 0.767785 0.640528 0.970231
O O17 0.000000 0.714984 0.750000
O O18 0.045550 0.654875 0.466738
O O19 0.000000 0.000000 0.500000
O O20 0.000000 0.381522 0.750000
#
# Coordination Sequence:
#
# PCOD8118448 Si02
#       8
#     4   4   4   4   4   4   4   4
#     4  12  25  40  59  92 129 158 202 267 313 359
#     4  10  19  41  62  87 118 161 206 244 304 376
#     4  10  20  36  66  91 115 155 210 248 293 371
#     4  11  24  42  61  90 123 166 209 253 313 387
#     4  11  24  42  63  86 124 166 208 256 314 385
#     4  10  21  41  62  91 124 156 203 267 314 358
#     4  12  22  41  66  89 118 170 212 247 304 381
#     4  10  23  37  65  93 122 156 207 263 305 370
#
# _framework density 19.796695
#
# number of rings (size 3 to 8) (size 9 to 14) (size 15 to 20)
#    0.000    1.250    3.750    3.000    3.500    1.500 
#    0.000    1.875    0.000    0.000    0.000    0.000 
#    0.000    0.000    0.000    0.000    0.000    0.000 
#
# Total GULP energy -396422.107413 kJ/mol
# GULP energy per Si atom -12388.190857 kJ/mol
# Density = 1.975164 g / cm^3
# Si number density = 19.796695 Si / 1000 Ang^3
#
#
#
# Elastic Constant Matrix: (Units=GPa)
#
#
# Indices 1 2 3 4 5 6 
#
# 1 82.0066 34.3090 26.4971 0.0000 3.0923 0.0000
# 2 34.3090 90.2212 17.7314 0.0000 -10.4717 0.0000
# 3 26.4971 17.7314 92.6298 0.0000 10.1425 0.0000
# 4 0.0000 0.0000 0.0000 20.1108 0.0000 2.6026
# 5 3.0923 -10.4717 10.1425 0.0000 40.3790 0.0000
# 6 0.0000 0.0000 0.0000 2.6026 0.0000 32.1792
#
#
#
# Elastic Compliance Matrix: (Units=1/GPa)
#
#
# Indices 1 2 3 4 5 6 
#
# 1 0.015607 -0.005515 -0.003210 0.000000 -0.001819 0.000000
# 2 -0.005515 0.014011 -0.001592 0.000000 0.004456 0.000000
# 3 -0.003210 -0.001592 0.012377 0.000000 -0.003276 0.000000
# 4 0.000000 0.000000 0.000000 0.050251 0.000000 -0.004064
# 5 -0.001819 0.004456 -0.003276 0.000000 0.026883 0.000000
# 6 0.000000 0.000000 0.000000 -0.004064 0.000000 0.031405
#
#
# Mechanical properties :
#
#
# Convention : Reuss Voigt Hill
#
# Bulk Modulus (GPa) = 46.81342 46.88141 46.84741
# Shear Modulus (GPa) = 28.04430 30.95515 29.49972
#
# Velocity S-wave (km/s) = 3.76788 3.95859 3.86441
# Velocity P-wave (km/s) = 6.52898 6.68033 6.60509
#
# Compressibility (1/GPa) = 0.02136140
#
# Stress axis : x y z
#
# Youngs Moduli (GPa) = 64.07266 71.37041 80.79332
#
# Poissons Ratio (x) = 0.39364 0.25931
# Poissons Ratio (y) = 0.35339 0.12865
# Poissons Ratio (z) = 0.20564 0.11364
#
# Static dielectric constant tensor:
#      x y z
#    x 1.148820 0.000000 0.594750 
#    y 0.000000 3.786520 0.000000 
#    z 0.594750 0.000000 3.142740 
# 
# 
# High freq. dielectric constant tensor:
#      x y z
#    x 1.757860 0.000000 0.026310 
#    y 0.000000 1.782420 0.000000 
#    z 0.026310 0.000000 1.777860 
# 
# From -- ./inp_files/17276.got.cif
#   From: 2010.06.25/outbox.cif.g09.slc.cpg/sg13_9_cif.got.tgz:17276.got - 2010.06.28 04:50:58.
