data_PCOD8118053
_publ_section_title
;
Structure prediction by ZEFSAII (Michael W. Deem and Ramdas Pophale) SiO2 
 PCOD8118053
Probable space group: P 2/C
;
_chemical_formula_sum "Si O2"
_cell_formula_units_Z 30
_cell_length_a 20.730288
_cell_length_b 11.773151
_cell_length_c 17.533295
_cell_angle_alpha 90.000000
_cell_angle_beta 159.778913
_cell_angle_gamma 90.000000
_cell_volume 1479.074603
_symmetry_space_group_name_H-M "P 2/C"
_symmetry_group_IT_number 13
_symmetry_cell_setting 'monoclinic'
loop_
_space_group_symop_operation_xyz
x,y,z
-x,y,1/2-z
-x,-y,-z
x,-y,1/2+z
loop_
_atom_site_type_symbol
_atom_site_label
_atom_site_fract_x
_atom_site_fract_y
_atom_site_fract_z
Si Si1 0.788936 0.691184 0.539131
Si Si2 0.874135 0.347325 0.872767
Si Si3 0.500000 0.864132 0.250000
Si Si4 0.423348 0.977389 0.534329
Si Si5 0.344530 0.848959 0.815898
Si Si6 0.057244 0.888966 0.109255
Si Si7 0.443748 0.647465 0.367161
Si Si8 0.782220 0.459415 0.171391
O O1 0.688036 0.790525 0.476608
O O2 0.664506 0.695166 0.325792
O O3 0.777974 0.573598 0.576222
O O4 0.000000 0.720836 0.750000
O O5 0.856019 0.211378 0.847753
O O6 0.712727 0.398906 0.748575
O O7 0.852666 0.411869 0.766672
O O8 0.075650 0.371489 0.132009
O O9 0.465024 0.944469 0.283478
O O10 0.556360 0.874355 0.654858
O O11 0.230510 0.925316 0.356505
O O12 0.363796 0.045031 0.393175
O O13 0.123597 0.834639 0.550244
O O14 0.428287 0.739195 0.948948
O O15 0.000000 0.000000 0.000000
O O16 0.578781 0.549721 0.484811
#
# Coordination Sequence:
#
# PCOD8118053 Si02
#       8
#     4   4   2   4   4   4   4   4
#     4  12  24  38  64  92 131 163 209 268 330 378
#     4  11  23  38  64  95 125 161 217 265 318 380
#     4  12  24  40  62  94 130 168 212 272 328 384
#     4  10  21  35  57  87 125 166 206 257 311 378
#     4  10  19  35  60  91 121 160 212 254 311 377
#     4  10  21  36  61  91 126 164 206 263 309 372
#     4  12  20  39  66  94 122 166 212 265 321 381
#     4  11  23  40  60  95 129 162 207 268 321 383
#
# _framework density 20.282952999999999
#
# number of rings (size 3 to 8) (size 9 to 14) (size 15 to 20)
#    0.000    1.067    6.667    0.400    1.867    1.067 
#    0.000    0.000    2.933    0.000    0.000    0.000 
#    0.000    0.000    0.000    0.000    0.000    0.000 
#
# Total GULP energy -371681.588997 kJ/mol
# GULP energy per Si atom -12389.386300 kJ/mol
# Density = 2.023679 g / cm^3
# Si number density = 20.282953 Si / 1000 Ang^3
#
#
#
# Elastic Constant Matrix: (Units=GPa)
#
#
# Indices 1 2 3 4 5 6 
#
# 1 76.8184 23.8321 36.5981 0.0000 8.9913 0.0000
# 2 23.8321 78.0561 19.4341 0.0000 -6.9172 0.0000
# 3 36.5981 19.4341 102.4815 0.0000 23.9523 0.0000
# 4 0.0000 0.0000 0.0000 24.8747 0.0000 -6.6503
# 5 8.9913 -6.9172 23.9523 0.0000 30.1140 0.0000
# 6 0.0000 0.0000 0.0000 -6.6503 0.0000 25.4040
#
#
#
# Elastic Compliance Matrix: (Units=1/GPa)
#
#
# Indices 1 2 3 4 5 6 
#
# 1 0.016805 -0.004163 -0.004687 0.000000 -0.002246 0.000000
# 2 -0.004163 0.015521 -0.003170 0.000000 0.007329 0.000000
# 3 -0.004687 -0.003170 0.014588 0.000000 -0.010932 0.000000
# 4 0.000000 0.000000 0.000000 0.043227 0.000000 0.011316
# 5 -0.002246 0.007329 -0.010932 0.000000 0.044256 0.000000
# 6 0.000000 0.000000 0.000000 0.011316 0.000000 0.042326
#
#
# Mechanical properties :
#
#
# Convention : Reuss Voigt Hill
#
# Bulk Modulus (GPa) = 43.71702 46.34276 45.02989
# Shear Modulus (GPa) = 23.99381 27.91133 25.95257
#
# Velocity S-wave (km/s) = 3.44314 3.71360 3.58093
# Velocity P-wave (km/s) = 6.11615 6.42538 6.27267
#
# Compressibility (1/GPa) = 0.02287438
#
# Stress axis : x y z
#
# Youngs Moduli (GPa) = 59.50562 64.42874 68.55077
#
# Poissons Ratio (x) = 0.26822 0.32130
# Poissons Ratio (y) = 0.24772 0.21728
# Poissons Ratio (z) = 0.27891 0.20422
#
# Static dielectric constant tensor:
#      x y z
#    x 3.638580 0.000000 0.419590 
#    y 0.000000 3.505700 0.000000 
#    z 0.419590 0.000000 4.110670 
# 
# 
# High freq. dielectric constant tensor:
#      x y z
#    x 1.764160 0.000000 0.029660 
#    y 0.000000 1.773410 0.000000 
#    z 0.029660 0.000000 1.808570 
# 
# From -- ./inp_files/70747.got.cif
#   From: 2010.06.25/outbox.cif.g09.slc.cpg/sg13_36_cif.got.tgz:70747.got - 2010.06.28 04:50:58.
