data_PCOD8118505
_publ_section_title
;
Structure prediction by ZEFSAII (Michael W. Deem and Ramdas Pophale) SiO2 
 PCOD8118505
Probable space group: P 2/C
;
_chemical_formula_sum "Si O2"
_cell_formula_units_Z 28
_cell_length_a 22.855657
_cell_length_b 8.764738
_cell_length_c 22.010207
_cell_angle_alpha 90.000000
_cell_angle_beta 160.612525
_cell_angle_gamma 90.000000
_cell_volume 1463.645502
_symmetry_space_group_name_H-M "P 2/C"
_symmetry_group_IT_number 13
_symmetry_cell_setting 'monoclinic'
loop_
_space_group_symop_operation_xyz
x,y,z
-x,y,1/2-z
-x,-y,-z
x,-y,1/2+z
loop_
_atom_site_type_symbol
_atom_site_label
_atom_site_fract_x
_atom_site_fract_y
_atom_site_fract_z
Si Si1 0.811340 0.425477 0.806071
Si Si2 0.680872 0.121049 0.241350
Si Si3 0.073029 0.847881 0.154338
Si Si4 0.692990 0.416127 0.070759
Si Si5 0.660567 0.548848 0.776983
Si Si6 0.999318 0.406796 0.679567
Si Si7 0.632993 0.909375 0.554673
O O1 0.840240 0.248811 0.816039
O O2 0.708437 0.518671 0.653996
O O3 0.704544 0.434918 0.764054
O O4 0.000000 0.500000 0.000000
O O5 0.641313 0.278525 0.235995
O O6 0.635543 0.144314 0.126662
O O7 0.886666 0.078275 0.451484
O O8 0.553756 0.989977 0.144238
O O9 0.051009 0.739721 0.190793
O O10 0.205298 0.980029 0.301938
O O11 0.863411 0.456066 0.197587
O O12 0.662014 0.235371 0.040028
O O13 0.522962 0.495720 0.873662
O O14 0.807528 0.533121 0.972698
O O15 0.000000 0.357872 0.750000
#
# Coordination Sequence:
#
# PCOD8118505 Si02
#       7
#     4   4   4   4   4   4   4
#     4  11  17  34  57  86 118 151 185 228 282 340
#     4  10  20  32  50  83 122 154 178 213 275 356
#     4  10  21  36  56  83 120 148 189 229 286 339
#     4  11  22  35  58  85 119 149 185 232 287 340
#     4  11  21  36  60  85 115 151 190 237 287 337
#     4  10  23  43  64  81 101 146 209 253 281 323
#     4  11  22  32  50  87 125 152 174 215 285 358
#
# _framework density 19.130315
#
# number of rings (size 3 to 8) (size 9 to 14) (size 15 to 20)
#    0.000    1.429    5.714    2.571    4.000    1.714 
#    0.000    0.714    0.000    3.429    0.000    0.000 
#    0.000    0.000    0.000    0.000    0.000    0.000 
#
# Total GULP energy -347270.636087 kJ/mol
# GULP energy per Si atom -12402.522717 kJ/mol
# Density = 1.908677 g / cm^3
# Si number density = 19.130315 Si / 1000 Ang^3
#
#
#
# Elastic Constant Matrix: (Units=GPa)
#
#
# Indices 1 2 3 4 5 6 
#
# 1 43.5643 20.3800 38.6015 0.0000 -7.5853 0.0000
# 2 20.3800 95.0322 57.9892 0.0000 20.4509 0.0000
# 3 38.6015 57.9892 129.2292 0.0000 21.3725 0.0000
# 4 0.0000 0.0000 0.0000 27.5019 0.0000 7.0010
# 5 -7.5853 20.4509 21.3725 0.0000 27.7489 0.0000
# 6 0.0000 0.0000 0.0000 7.0010 0.0000 10.5748
#
#
#
# Elastic Compliance Matrix: (Units=1/GPa)
#
#
# Indices 1 2 3 4 5 6 
#
# 1 0.044210 -0.006427 -0.015017 0.000000 0.028387 0.000000
# 2 -0.006427 0.016525 -0.003657 0.000000 -0.011119 0.000000
# 3 -0.015017 -0.003657 0.016156 0.000000 -0.013853 0.000000
# 4 0.000000 0.000000 0.000000 0.043731 0.000000 -0.028952
# 5 0.028387 -0.011119 -0.013853 0.000000 0.062662 0.000000
# 6 0.000000 0.000000 0.000000 -0.028952 0.000000 0.113732
#
#
# Mechanical properties :
#
#
# Convention : Reuss Voigt Hill
#
# Bulk Modulus (GPa) = 37.46639 55.75189 46.60914
# Shear Modulus (GPa) = 14.04047 23.22212 18.63130
#
# Velocity S-wave (km/s) = 2.71207 3.48787 3.12415
# Velocity P-wave (km/s) = 5.42535 6.73994 6.11806
#
# Compressibility (1/GPa) = 0.02669059
#
# Stress axis : x y z
#
# Youngs Moduli (GPa) = 22.61942 60.51367 61.89728
#
# Poissons Ratio (x) = 0.38890 0.92950
# Poissons Ratio (y) = 0.14537 0.22634
# Poissons Ratio (z) = 0.33967 0.22128
#
# Static dielectric constant tensor:
#      x y z
#    x 3.453790 0.000000 0.401010 
#    y 0.000000 3.654130 0.000000 
#    z 0.401010 0.000000 3.918770 
# 
# 
# High freq. dielectric constant tensor:
#      x y z
#    x 1.702040 0.000000 0.029070 
#    y 0.000000 1.741890 0.000000 
#    z 0.029070 0.000000 1.759460 
# 
# From -- ./inp_files/82231.got.cif
#   From: 2010.06.25/outbox.cif.g09.slc.cpg/sg13_42_cif.got.tgz:82231.got - 2010.06.28 04:50:58.
