data_PCOD8118596
_publ_section_title
;
Structure prediction by ZEFSAII (Michael W. Deem and Ramdas Pophale) SiO2 
 PCOD8118596
Probable space group: P 2/C
;
_chemical_formula_sum "Si O2"
_cell_formula_units_Z 32
_cell_length_a 11.378708
_cell_length_b 9.128581
_cell_length_c 17.187977
_cell_angle_alpha 90.000000
_cell_angle_beta 118.833521
_cell_angle_gamma 90.000000
_cell_volume 1564.002098
_symmetry_space_group_name_H-M "P 2/C"
_symmetry_group_IT_number 13
_symmetry_cell_setting 'monoclinic'
loop_
_space_group_symop_operation_xyz
x,y,z
-x,y,1/2-z
-x,-y,-z
x,-y,1/2+z
loop_
_atom_site_type_symbol
_atom_site_label
_atom_site_fract_x
_atom_site_fract_y
_atom_site_fract_z
Si Si1 0.580126 0.405206 0.132472
Si Si2 0.302988 0.088705 0.557060
Si Si3 0.096783 0.619014 0.397358
Si Si4 0.542833 0.085016 0.176250
Si Si5 0.672201 0.589302 0.488687
Si Si6 0.217163 0.922069 0.203866
Si Si7 0.189441 0.389486 0.754340
Si Si8 0.942971 0.062731 0.562140
O O1 0.538894 0.256173 0.160299
O O2 0.631878 0.370711 0.063115
O O3 0.698877 0.484134 0.218405
O O4 0.445715 0.500300 0.090290
O O5 0.313604 0.261807 0.553910
O O6 0.252422 0.046546 0.626066
O O7 0.443785 0.004843 0.586950
O O8 0.192642 0.026045 0.460415
O O9 0.186605 0.497942 0.470414
O O10 0.165831 0.654033 0.336751
O O11 0.091227 0.763231 0.450139
O O12 0.946708 0.557495 0.332586
O O13 0.500000 0.049620 0.250000
O O14 0.694133 0.025111 0.211860
O O15 0.248917 0.753755 0.232675
O O16 0.058449 0.958431 0.165095
O O17 0.000000 0.000000 0.500000
#
# Coordination Sequence:
#
# PCOD8118596 Si02
#       8
#     4   4   4   4   4   4   4   4
#     4  10  21  35  51  75 103 132 169 212 253 301
#     4  10  20  34  52  75 103 133 169 210 252 305
#     4   9  18  34  54  75 103 136 167 207 255 300
#     4  10  21  35  52  74 102 133 168 212 257 300
#     4  10  21  35  52  75 103 134 170 209 253 304
#     4   9  19  35  52  74 101 132 167 207 252 301
#     4   9  18  34  54  75 101 133 170 208 251 303
#     4   9  18  34  53  75 104 133 165 206 251 299
#
# _framework density 20.460329999999999
#
# number of rings (size 3 to 8) (size 9 to 14) (size 15 to 20)
#    0.000    2.500    0.000    1.500    0.000    3.500 
#    0.000    5.625    0.000    0.000    0.000    0.000 
#    0.000    0.000    0.000    0.000    0.000    0.000 
#
# Total GULP energy -396659.530816 kJ/mol
# GULP energy per Si atom -12395.610338 kJ/mol
# Density = 2.041376 g / cm^3
# Si number density = 20.460330 Si / 1000 Ang^3
#
#
#
# Elastic Constant Matrix: (Units=GPa)
#
#
# Indices 1 2 3 4 5 6 
#
# 1 43.0659 39.8019 49.7109 0.0000 30.9834 0.0000
# 2 39.8019 129.9980 67.0034 0.0000 36.5639 0.0000
# 3 49.7109 67.0034 100.8839 0.0000 51.5216 0.0000
# 4 0.0000 0.0000 0.0000 33.4908 0.0000 14.9675
# 5 30.9834 36.5639 51.5216 0.0000 38.0083 0.0000
# 6 0.0000 0.0000 0.0000 14.9675 0.0000 26.9190
#
#
#
# Elastic Compliance Matrix: (Units=1/GPa)
#
#
# Indices 1 2 3 4 5 6 
#
# 1 0.064449 -0.004293 -0.013598 0.000000 -0.029975 0.000000
# 2 -0.004293 0.012047 -0.005701 0.000000 -0.000362 0.000000
# 3 -0.013598 -0.005701 0.038792 0.000000 -0.036015 0.000000
# 4 0.000000 0.000000 0.000000 0.039732 0.000000 -0.022092
# 5 -0.029975 -0.000362 -0.036015 0.000000 0.099912 0.000000
# 6 0.000000 0.000000 0.000000 -0.022092 0.000000 0.049432
#
#
# Mechanical properties :
#
#
# Convention : Reuss Voigt Hill
#
# Bulk Modulus (GPa) = 14.68345 65.22002 39.95174
# Shear Modulus (GPa) = 13.36004 27.51241 20.43623
#
# Velocity S-wave (km/s) = 2.55811 3.67095 3.16384
# Velocity P-wave (km/s) = 3.98965 7.06494 5.73719
#
# Compressibility (1/GPa) = 0.06810390
#
# Stress axis : x y z
#
# Youngs Moduli (GPa) = 15.51604 83.00826 25.77836
#
# Poissons Ratio (x) = 0.35636 0.35054
# Poissons Ratio (y) = 0.06661 0.14697
# Poissons Ratio (z) = 0.21099 0.47324
#
# Static dielectric constant tensor:
#      x y z
#    x 3.726390 0.000000 0.584290 
#    y 0.000000 3.495410 0.000000 
#    z 0.584290 0.000000 4.139940 
# 
# 
# High freq. dielectric constant tensor:
#      x y z
#    x 1.787150 0.000000 0.031770 
#    y 0.000000 1.792810 0.000000 
#    z 0.031770 0.000000 1.805370 
# 
# From -- ./inp_files/78292.got.cif
#   From: 2010.06.25/outbox.cif.g09.slc.cpg/sg13_40_cif.got.tgz:78292.got - 2010.06.28 04:50:58.
