data_PCOD8118025
_publ_section_title
;
Structure prediction by ZEFSAII (Michael W. Deem and Ramdas Pophale) SiO2 
 PCOD8118025
Probable space group: P 2/C
;
_chemical_formula_sum "Si O2"
_cell_formula_units_Z 26
_cell_length_a 11.231276
_cell_length_b 11.940339
_cell_length_c 8.830180
_cell_angle_alpha 90.000000
_cell_angle_beta 88.237421
_cell_angle_gamma 90.000000
_cell_volume 1183.613156
_symmetry_space_group_name_H-M "P 2/C"
_symmetry_group_IT_number 13
_symmetry_cell_setting 'monoclinic'
loop_
_space_group_symop_operation_xyz
x,y,z
-x,y,1/2-z
-x,-y,-z
x,-y,1/2+z
loop_
_atom_site_type_symbol
_atom_site_label
_atom_site_fract_x
_atom_site_fract_y
_atom_site_fract_z
Si Si1 0.768494 0.512464 0.702060
Si Si2 0.000000 0.817747 0.250000
Si Si3 0.393116 0.415724 0.037063
Si Si4 0.449382 0.181072 0.918091
Si Si5 0.845066 0.660664 0.446042
Si Si6 0.693989 0.868655 0.496237
Si Si7 0.771756 0.949533 0.186906
O O1 0.715096 0.435624 0.573245
O O2 0.658559 0.573113 0.790908
O O3 0.857435 0.600794 0.611215
O O4 0.837656 0.432794 0.815438
O O5 0.097695 0.894190 0.331518
O O6 0.952354 0.741826 0.391820
O O7 0.500000 0.500000 0.000000
O O8 0.435383 0.290796 0.017767
O O9 0.500000 0.210830 0.750000
O O10 0.551123 0.115162 0.009283
O O11 0.324995 0.116184 0.912377
O O12 0.726600 0.738487 0.461970
O O13 0.738781 0.949091 0.361996
O O14 0.763711 0.919536 0.638634
#
# Coordination Sequence:
#
# PCOD8118025 Si02
#       7
#     4   2   4   4   4   4   4
#     4  10  21  36  55  86 123 159 203 251 303 366
#     4  10  22  42  66  88 118 162 212 264 310 360
#     4  11  19  31  54  85 122 164 203 246 305 376
#     4  10  19  35  58  87 123 161 200 252 315 375
#     4  10  22  40  62  87 119 159 205 256 308 367
#     4  10  21  39  61  90 124 158 200 254 315 375
#     4  10  22  38  61  87 119 160 205 257 310 368
#
# _framework density 21.966638
#
# number of rings (size 3 to 8) (size 9 to 14) (size 15 to 20)
#    0.000    1.846    0.000    6.462    0.000    4.308 
#    0.000    1.538    0.000   12.000    0.000    0.000 
#    0.000    0.000    0.000    0.000    0.000    0.000 
#
# Total GULP energy -322184.290880 kJ/mol
# GULP energy per Si atom -12391.703495 kJ/mol
# Density = 2.191664 g / cm^3
# Si number density = 21.966638 Si / 1000 Ang^3
#
#
#
# Elastic Constant Matrix: (Units=GPa)
#
#
# Indices 1 2 3 4 5 6 
#
# 1 121.1992 37.6528 20.3710 0.0000 1.0398 0.0000
# 2 37.6528 87.3637 38.5363 0.0000 4.2568 0.0000
# 3 20.3710 38.5363 90.0706 0.0000 -2.8292 0.0000
# 4 0.0000 0.0000 0.0000 37.6284 0.0000 5.8705
# 5 1.0398 4.2568 -2.8292 0.0000 23.2434 0.0000
# 6 0.0000 0.0000 0.0000 5.8705 0.0000 18.3598
#
#
#
# Elastic Compliance Matrix: (Units=1/GPa)
#
#
# Indices 1 2 3 4 5 6 
#
# 1 0.009545 -0.003915 -0.000477 0.000000 0.000232 0.000000
# 2 -0.003915 0.015977 -0.006060 0.000000 -0.003488 0.000000
# 3 -0.000477 -0.006060 0.013891 0.000000 0.002822 0.000000
# 4 0.000000 0.000000 0.000000 0.027971 0.000000 -0.008944
# 5 0.000232 -0.003488 0.002822 0.000000 0.043995 0.000000
# 6 0.000000 0.000000 0.000000 -0.008944 0.000000 0.057327
#
#
# Mechanical properties :
#
#
# Convention : Reuss Voigt Hill
#
# Bulk Modulus (GPa) = 54.02215 54.63931 54.33073
# Shear Modulus (GPa) = 25.53905 29.31788 27.42847
#
# Velocity S-wave (km/s) = 3.41343 3.65726 3.53745
# Velocity P-wave (km/s) = 6.33889 6.53925 6.43985
#
# Compressibility (1/GPa) = 0.01851093
#
# Stress axis : x y z
#
# Youngs Moduli (GPa) = 104.76412 62.59143 71.98698
#
# Poissons Ratio (x) = 0.24505 0.03430
# Poissons Ratio (y) = 0.41015 0.43622
# Poissons Ratio (z) = 0.04992 0.37928
#
# Static dielectric constant tensor:
#      x y z
#    x 3.973950 0.000000 -0.285920 
#    y 0.000000 4.011420 0.000000 
#    z -0.285920 0.000000 4.401910 
# 
# 
# High freq. dielectric constant tensor:
#      x y z
#    x 1.852910 0.000000 -0.011370 
#    y 0.000000 1.864740 0.000000 
#    z -0.011370 0.000000 1.857950 
# 
# From -- ./inp_files/15907.got.cif
#   From: 2010.06.25/outbox.cif.g09.slc.cpg/sg13_8_cif.got.tgz:15907.got - 2010.06.28 04:50:58.
