data_PCOD8118243
_publ_section_title
;
Structure prediction by ZEFSAII (Michael W. Deem and Ramdas Pophale) SiO2 
 PCOD8118243
Probable space group: P 2/C
;
_chemical_formula_sum "Si O2"
_cell_formula_units_Z 30
_cell_length_a 29.978859
_cell_length_b 8.949992
_cell_length_c 16.693102
_cell_angle_alpha 90.000000
_cell_angle_beta 20.635187
_cell_angle_gamma 90.000000
_cell_volume 1578.450466
_symmetry_space_group_name_H-M "P 2/C"
_symmetry_group_IT_number 13
_symmetry_cell_setting 'monoclinic'
loop_
_space_group_symop_operation_xyz
x,y,z
-x,y,1/2-z
-x,-y,-z
x,-y,1/2+z
loop_
_atom_site_type_symbol
_atom_site_label
_atom_site_fract_x
_atom_site_fract_y
_atom_site_fract_z
Si Si1 0.765538 0.165825 0.124462
Si Si2 0.231364 0.659479 0.209920
Si Si3 0.500000 0.528894 0.750000
Si Si4 0.547475 0.642974 0.015596
Si Si5 0.693967 0.405770 0.673540
Si Si6 0.150953 0.833559 0.491276
Si Si7 0.075267 0.399585 0.548830
Si Si8 0.836423 0.656698 0.354979
O O1 0.623310 0.200759 0.395992
O O2 0.864524 0.249700 0.015919
O O3 0.773522 0.219485 0.018457
O O4 0.792368 0.992207 0.080673
O O5 0.195699 0.798531 0.325976
O O6 0.178288 0.508681 0.338743
O O7 0.173262 0.701098 0.221391
O O8 0.381605 0.640365 0.951424
O O9 0.513481 0.416029 0.800993
O O10 0.434115 0.669785 0.143638
O O11 0.653455 0.521769 0.810684
O O12 0.790114 0.284379 0.545939
O O13 0.766686 0.497013 0.482268
O O14 0.000000 0.832797 0.750000
O O15 0.000000 0.479259 0.750000
O O16 0.983524 0.356199 0.630363
#
# Coordination Sequence:
#
# PCOD8118243 Si02
#       8
#     4   4   2   4   4   4   4   4
#     4  10  22  41  61  84 125 174 202 240 305 378
#     4  12  22  36  62  92 118 153 205 270 306 344
#     4  12  20  38  62  92 122 148 198 264 312 356
#     4  10  20  38  62  85 120 156 207 252 305 359
#     4  10  20  36  62  91 113 157 206 256 301 360
#     4  12  24  41  61  90 128 170 208 242 302 377
#     4  10  19  37  61  86 119 163 205 247 306 363
#     4  10  20  36  60  92 118 150 206 263 308 350
#
# _framework density 19.005980999999998
#
# number of rings (size 3 to 8) (size 9 to 14) (size 15 to 20)
#    0.000    1.333    4.000    4.400    0.000    0.533 
#    0.000    6.000    0.000    0.000    0.000    0.000 
#    0.000    0.000    0.000    0.000    0.000    0.000 
#
# Total GULP energy -372016.849363 kJ/mol
# GULP energy per Si atom -12400.561645 kJ/mol
# Density = 1.896272 g / cm^3
# Si number density = 19.005981 Si / 1000 Ang^3
#
#
#
# Elastic Constant Matrix: (Units=GPa)
#
#
# Indices 1 2 3 4 5 6 
#
# 1 119.6126 45.1442 44.4332 0.0000 -0.8579 0.0000
# 2 45.1442 108.1593 45.2050 0.0000 -3.6104 0.0000
# 3 44.4332 45.2050 110.0789 0.0000 -7.5209 0.0000
# 4 0.0000 0.0000 0.0000 25.4825 0.0000 -3.5630
# 5 -0.8579 -3.6104 -7.5209 0.0000 33.3405 0.0000
# 6 0.0000 0.0000 0.0000 -3.5630 0.0000 15.3786
#
#
#
# Elastic Compliance Matrix: (Units=1/GPa)
#
#
# Indices 1 2 3 4 5 6 
#
# 1 0.010702 -0.003217 -0.003051 0.000000 -0.000761 0.000000
# 2 -0.003217 0.012130 -0.003655 0.000000 0.000406 0.000000
# 3 -0.003051 -0.003655 0.011969 0.000000 0.002226 0.000000
# 4 0.000000 0.000000 0.000000 0.040556 0.000000 0.009396
# 5 -0.000761 0.000406 0.002226 0.000000 0.030520 0.000000
# 6 0.000000 0.000000 0.000000 0.009396 0.000000 0.067203
#
#
# Mechanical properties :
#
#
# Convention : Reuss Voigt Hill
#
# Bulk Modulus (GPa) = 66.86709 67.49062 67.17885
# Shear Modulus (GPa) = 25.26395 28.37821 26.82108
#
# Velocity S-wave (km/s) = 3.64986 3.86828 3.76066
# Velocity P-wave (km/s) = 7.28152 7.45243 7.36747
#
# Compressibility (1/GPa) = 0.01495504
#
# Stress axis : x y z
#
# Youngs Moduli (GPa) = 93.43642 82.44333 83.55111
#
# Poissons Ratio (x) = 0.26525 0.25490
# Poissons Ratio (y) = 0.30062 0.30535
# Poissons Ratio (z) = 0.28505 0.30130
#
# Static dielectric constant tensor:
#      x y z
#    x 3.536040 0.000000 -0.038620 
#    y 0.000000 3.196090 0.000000 
#    z -0.038620 0.000000 3.709100 
# 
# 
# High freq. dielectric constant tensor:
#      x y z
#    x 1.745570 0.000000 -0.013060 
#    y 0.000000 1.703990 0.000000 
#    z -0.013060 0.000000 1.754590 
# 
# From -- ./inp_files/72375.got.cif
#   From: 2010.06.25/outbox.cif.g09.slc.cpg/sg13_37_cif.got.tgz:72375.got - 2010.06.28 04:50:58.
