data_PCOD8118975
_publ_section_title
;
Structure prediction by ZEFSAII (Michael W. Deem and Ramdas Pophale) SiO2 
 PCOD8118975
Probable space group: P 2/C
;
_chemical_formula_sum "Si O2"
_cell_formula_units_Z 24
_cell_length_a 18.930075
_cell_length_b 9.204302
_cell_length_c 20.426327
_cell_angle_alpha 90.000000
_cell_angle_beta 158.619857
_cell_angle_gamma 90.000000
_cell_volume 1297.464384
_symmetry_space_group_name_H-M "P 2/C"
_symmetry_group_IT_number 13
_symmetry_cell_setting 'monoclinic'
loop_
_space_group_symop_operation_xyz
x,y,z
-x,y,1/2-z
-x,-y,-z
x,-y,1/2+z
loop_
_atom_site_type_symbol
_atom_site_label
_atom_site_fract_x
_atom_site_fract_y
_atom_site_fract_z
Si Si1 0.548734 0.185856 0.718681
Si Si2 0.948549 0.698747 0.012105
Si Si3 0.908023 0.374874 0.006119
Si Si4 0.780624 0.931175 0.200228
Si Si5 0.645743 0.924680 0.712464
Si Si6 0.861671 0.795883 0.692136
O O1 0.500000 0.138138 0.750000
O O2 0.701123 0.316636 0.851569
O O3 0.359377 0.240956 0.516831
O O4 0.643298 0.046189 0.766321
O O5 0.059784 0.673155 0.040409
O O6 0.086341 0.790042 0.179141
O O7 0.903238 0.548165 0.008954
O O8 0.745926 0.780877 0.826718
O O9 0.079351 0.314328 0.199638
O O10 0.773266 0.015322 0.262696
O O11 0.875765 0.038031 0.228942
O O12 0.567622 0.879640 0.995106
O O13 0.000000 0.775585 0.750000
#
# Coordination Sequence:
#
# PCOD8118975 Si02
#       6
#     4   4   4   4   4   4
#     4  11  22  38  63  85 115 155 200 241 291 351
#     4  11  22  37  62  85 124 152 194 242 294 354
#     4  11  23  38  57  92 118 160 191 235 298 354
#     4  10  20  36  60  91 116 149 196 250 285 332
#     4  10  20  36  60  91 116 149 196 250 285 332
#     4  11  22  38  63  85 115 155 200 241 291 351
#
# _framework density 18.497619
#
# number of rings (size 3 to 8) (size 9 to 14) (size 15 to 20)
#    0.000    1.333    5.000    1.500    0.000    1.333 
#    0.000    5.000    0.000    0.000    0.000    0.000 
#    0.000    0.000    0.000    0.000    0.000    0.000 
#
# Total GULP energy -297739.718928 kJ/mol
# GULP energy per Si atom -12405.821622 kJ/mol
# Density = 1.845552 g / cm^3
# Si number density = 18.497619 Si / 1000 Ang^3
#
#
#
# Elastic Constant Matrix: (Units=GPa)
#
#
# Indices 1 2 3 4 5 6 
#
# 1 50.8870 12.9581 5.2577 0.0000 -3.8370 0.0000
# 2 12.9581 117.1701 61.5848 0.0000 0.7359 0.0000
# 3 5.2577 61.5848 112.6404 0.0000 -4.2382 0.0000
# 4 0.0000 0.0000 0.0000 16.6555 0.0000 -3.2286
# 5 -3.8370 0.7359 -4.2382 0.0000 23.0248 0.0000
# 6 0.0000 0.0000 0.0000 -3.2286 0.0000 17.8395
#
#
#
# Elastic Compliance Matrix: (Units=1/GPa)
#
#
# Indices 1 2 3 4 5 6 
#
# 1 0.020526 -0.002611 0.000605 0.000000 0.003615 0.000000
# 2 -0.002611 0.012367 -0.006717 0.000000 -0.002067 0.000000
# 3 0.000605 -0.006717 0.012622 0.000000 0.002639 0.000000
# 4 0.000000 0.000000 0.000000 0.062223 0.000000 0.011261
# 5 0.003615 -0.002067 0.002639 0.000000 0.044586 0.000000
# 6 0.000000 0.000000 0.000000 0.011261 0.000000 0.058093
#
#
# Mechanical properties :
#
#
# Convention : Reuss Voigt Hill
#
# Bulk Modulus (GPa) = 35.62657 48.92208 42.27432
# Shear Modulus (GPa) = 21.07752 24.89709 22.98731
#
# Velocity S-wave (km/s) = 3.37927 3.67272 3.52904
# Velocity P-wave (km/s) = 5.87604 6.67010 6.28562
#
# Compressibility (1/GPa) = 0.02806894
#
# Stress axis : x y z
#
# Youngs Moduli (GPa) = 48.71799 80.86013 79.22977
#
# Poissons Ratio (x) = 0.21113 -0.04797
# Poissons Ratio (y) = 0.12720 0.53222
# Poissons Ratio (z) = -0.02950 0.54317
#
# Static dielectric constant tensor:
#      x y z
#    x 3.391040 0.000000 -0.047220 
#    y 0.000000 3.303650 0.000000 
#    z -0.047220 0.000000 3.567490 
# 
# 
# High freq. dielectric constant tensor:
#      x y z
#    x 1.712440 0.000000 -0.001600 
#    y 0.000000 1.703270 0.000000 
#    z -0.001600 0.000000 1.735660 
# 
# From -- ./inp_files/75387.got.cif
#   From: 2010.06.25/outbox.cif.g09.slc.cpg/sg13_38_cif.got.tgz:75387.got - 2010.06.28 04:50:58.
