data_PCOD8118494
_publ_section_title
;
Structure prediction by ZEFSAII (Michael W. Deem and Ramdas Pophale) SiO2 
 PCOD8118494
Probable space group: P 2/C
;
_chemical_formula_sum "Si O2"
_cell_formula_units_Z 28
_cell_length_a 13.506843
_cell_length_b 14.296828
_cell_length_c 8.898207
_cell_angle_alpha 90.000000
_cell_angle_beta 109.232148
_cell_angle_gamma 90.000000
_cell_volume 1622.393607
_symmetry_space_group_name_H-M "P 2/C"
_symmetry_group_IT_number 13
_symmetry_cell_setting 'monoclinic'
loop_
_space_group_symop_operation_xyz
x,y,z
-x,y,1/2-z
-x,-y,-z
x,-y,1/2+z
loop_
_atom_site_type_symbol
_atom_site_label
_atom_site_fract_x
_atom_site_fract_y
_atom_site_fract_z
Si Si1 0.620317 0.904233 0.633594
Si Si2 0.891536 0.597574 0.622701
Si Si3 0.500000 0.600522 0.072888
Si Si4 0.695157 0.723378 0.522972
Si Si5 0.620317 0.904233 0.986723
Si Si6 0.891536 0.402426 0.768834
Si Si7 0.695157 0.276622 0.672185
O O1 0.692237 0.820472 0.610212
O O2 0.632941 0.913245 0.816471
O O3 0.500000 0.885082 0.525691
O O4 0.661015 1.000000 0.580507
O O5 0.805395 0.675472 0.615456
O O6 0.855230 0.500000 0.677615
O O7 0.906246 0.582238 0.453123
O O8 0.000000 0.632168 0.750000
O O9 0.500000 0.586786 0.250000
O O10 0.397636 0.656098 0.966360
O O11 0.602365 0.656098 0.068725
O O12 0.500000 0.500000 0.000000
O O13 0.681568 0.744691 0.340784
O O14 0.692237 0.820472 0.082026
O O15 0.805395 0.324528 0.689939
O O16 0.000000 0.367831 0.750000
#
# Coordination Sequence:
#
# PCOD8118494 Si02
#       7
#     4   4   4   4   4   4   4
#     4  10  20  33  52  77 104 136 171 209 253 305
#     4  10  20  34  53  76 102 137 177 217 257 300
#     4  10  20  32  47  70 103 136 165 204 250 302
#     4  10  20  34  52  74 103 137 171 210 257 304
#     4  10  20  33  52  77 104 136 171 209 253 305
#     4  10  20  34  53  76 102 137 177 217 257 300
#     4  10  20  34  52  74 103 137 171 210 257 304
#
# _framework density 17.258451999999998
#
# number of rings (size 3 to 8) (size 9 to 14) (size 15 to 20)
#    0.000    2.000    1.429    3.429    0.000    4.571 
#    0.000    0.000    0.000    0.857    0.000    6.000 
#    0.000    0.000    0.000    0.000    0.000    0.000 
#
# Total GULP energy -347316.427399 kJ/mol
# GULP energy per Si atom -12404.158121 kJ/mol
# Density = 1.721917 g / cm^3
# Si number density = 17.258452 Si / 1000 Ang^3
#
#
#
# Elastic Constant Matrix: (Units=GPa)
#
#
# Indices 1 2 3 4 5 6 
#
# 1 98.5865 71.4489 48.2095 0.0000 0.1240 0.0000
# 2 71.4489 156.0724 65.9500 0.0000 2.4648 0.0000
# 3 48.2095 65.9500 85.9929 0.0000 5.5208 0.0000
# 4 0.0000 0.0000 0.0000 35.8121 0.0000 -3.9950
# 5 0.1240 2.4648 5.5208 0.0000 22.6311 0.0000
# 6 0.0000 0.0000 0.0000 -3.9950 0.0000 26.8995
#
#
#
# Elastic Compliance Matrix: (Units=1/GPa)
#
#
# Indices 1 2 3 4 5 6 
#
# 1 0.016657 -0.005414 -0.005302 0.000000 0.001792 0.000000
# 2 -0.005414 0.011251 -0.005605 0.000000 0.000172 0.000000
# 3 -0.005302 -0.005605 0.019159 0.000000 -0.004034 0.000000
# 4 0.000000 0.000000 0.000000 0.028394 0.000000 0.004217
# 5 0.001792 0.000172 -0.004034 0.000000 0.045143 0.000000
# 6 0.000000 0.000000 0.000000 0.004217 0.000000 0.037802
#
#
# Mechanical properties :
#
#
# Convention : Reuss Voigt Hill
#
# Bulk Modulus (GPa) = 69.31526 79.09651 74.20588
# Shear Modulus (GPa) = 25.52922 27.40476 26.46699
#
# Velocity S-wave (km/s) = 3.85025 3.98917 3.92033
# Velocity P-wave (km/s) = 7.74701 8.19439 7.97384
#
# Compressibility (1/GPa) = 0.01442684
#
# Stress axis : x y z
#
# Youngs Moduli (GPa) = 60.03500 88.87886 52.19596
#
# Poissons Ratio (x) = 0.48115 0.27672
# Poissons Ratio (y) = 0.32500 0.29256
# Poissons Ratio (z) = 0.31828 0.49816
#
# Static dielectric constant tensor:
#      x y z
#    x 3.173360 0.000000 -0.023120 
#    y 0.000000 3.180050 0.000000 
#    z -0.023120 0.000000 3.224940 
# 
# 
# High freq. dielectric constant tensor:
#      x y z
#    x 1.653670 0.000000 -0.008030 
#    y 0.000000 1.667750 0.000000 
#    z -0.008030 0.000000 1.671580 
# 
# From -- ./inp_files/16542.got.cif
#   From: 2010.06.25/outbox.cif.g09.slc.cpg/sg13_9_cif.got.tgz:16542.got - 2010.06.28 04:50:58.
