data_PCOD8118765
_publ_section_title
;
Structure prediction by ZEFSAII (Michael W. Deem and Ramdas Pophale) SiO2 
 PCOD8118765
Probable space group: P 2/C
;
_chemical_formula_sum "Si O2"
_cell_formula_units_Z 30
_cell_length_a 19.926722
_cell_length_b 5.169619
_cell_length_c 17.821312
_cell_angle_alpha 90.000000
_cell_angle_beta 63.438052
_cell_angle_gamma 90.000000
_cell_volume 1642.066820
_symmetry_space_group_name_H-M "P 2/C"
_symmetry_group_IT_number 13
_symmetry_cell_setting 'monoclinic'
loop_
_space_group_symop_operation_xyz
x,y,z
-x,y,1/2-z
-x,-y,-z
x,-y,1/2+z
loop_
_atom_site_type_symbol
_atom_site_label
_atom_site_fract_x
_atom_site_fract_y
_atom_site_fract_z
Si Si1 0.500000 0.000019 0.250000
Si Si2 0.000006 0.750491 0.052740
Si Si3 0.643217 0.760790 0.722894
Si Si4 0.140801 0.753685 0.267477
Si Si5 0.236892 0.745069 0.545552
Si Si6 0.236879 0.254878 0.217579
Si Si7 0.859185 0.246261 0.908288
Si Si8 0.356791 0.760813 0.366124
O O1 0.446436 0.820586 0.329465
O O2 0.446428 0.179449 0.224109
O O3 0.070235 0.752521 0.072897
O O4 0.929794 0.752577 0.143139
O O5 0.000000 0.500000 0.000000
O O6 0.000000 0.000000 0.000000
O O7 0.682476 0.740247 0.783216
O O8 0.657394 0.500003 0.671286
O O9 0.681527 0.000003 0.659231
O O10 0.189011 0.503594 0.264258
O O11 0.116203 0.751770 0.191895
O O12 0.189174 0.004509 0.262988
O O13 0.258604 0.742557 0.620708
O O14 0.189069 0.496261 0.546710
O O15 0.317543 0.740324 0.465707
O O16 0.189149 0.995343 0.547857
#
# Coordination Sequence:
#
# PCOD8118765 Si02
#       8
#     2   4   4   4   4   4   4   4
#     4   8  22  36  56  84 114 146 188 212 282 352
#     4  12  25  38  57  86 118 146 192 242 277 320
#     4  10  20  35  58  81 113 148 182 227 276 338
#     4  10  22  40  58  79 115 155 188 227 285 339
#     4  10  21  37  59  86 111 145 194 235 273 329
#     4  10  21  37  59  86 111 145 194 235 273 329
#     4  10  22  40  58  79 115 155 188 227 285 339
#     4  10  20  35  58  81 113 148 182 227 276 338
#
# _framework density 18.269658
#
# number of rings (size 3 to 8) (size 9 to 14) (size 15 to 20)
#    0.800    1.067    0.000    4.000    0.000    6.400 
#    0.000    6.000    0.000    1.600    0.000    0.000 
#    0.000    0.000    0.000    0.000    0.000    0.000 
#
# Total GULP energy -371842.619785 kJ/mol
# GULP energy per Si atom -12394.753993 kJ/mol
# Density = 1.822808 g / cm^3
# Si number density = 18.269658 Si / 1000 Ang^3
#
#
#
# Elastic Constant Matrix: (Units=GPa)
#
#
# Indices 1 2 3 4 5 6 
#
# 1 164.9544 64.7683 82.0771 0.0000 3.0597 0.0000
# 2 64.7683 172.9916 58.5968 0.0000 -3.5655 0.0000
# 3 82.0771 58.5968 129.0763 0.0000 -24.2005 0.0000
# 4 0.0000 0.0000 0.0000 56.5893 0.0000 67.8702
# 5 3.0597 -3.5655 -24.2005 0.0000 27.9744 0.0000
# 6 0.0000 0.0000 0.0000 67.8702 0.0000 -58.9109
#
#
#
# Elastic Compliance Matrix: (Units=1/GPa)
#
#
# Indices 1 2 3 4 5 6 
#
# 1 0.010528 -0.001584 -0.007436 0.000000 -0.007786 0.000000
# 2 -0.001584 0.007181 -0.002445 0.000000 -0.001027 0.000000
# 3 -0.007436 -0.002445 0.016328 0.000000 0.014627 0.000000
# 4 0.000000 0.000000 0.000000 0.007419 0.000000 0.008548
# 5 -0.007786 -0.001027 0.014627 0.000000 0.049121 0.000000
# 6 0.000000 0.000000 0.000000 0.008548 0.000000 -0.007127
#
#
# Mechanical properties :
#
#
# Convention : Reuss Voigt Hill
#
# Bulk Modulus (GPa) = 90.02686 97.54520 93.78603
# Shear Modulus (GPa) = 45.42054 22.56922 33.99488
#
# Velocity S-wave (km/s) = 4.99151 3.51855 4.31830
# Velocity P-wave (km/s) = 9.08867 8.36748 8.73552
#
# Compressibility (1/GPa) = 0.01110780
#
# Stress axis : x y z
#
# Youngs Moduli (GPa) = 94.98260 139.26235 61.24457
#
# Poissons Ratio (x) = 0.22054 0.45539
# Poissons Ratio (y) = 0.15042 0.14977
# Poissons Ratio (z) = 0.70625 0.34055
#
# Static dielectric constant tensor:
#      x y z
#    x 3.293380 0.000000 0.045060 
#    y 0.000000 3.656240 0.000000 
#    z 0.045060 0.000000 3.369760 
# 
# 
# High freq. dielectric constant tensor:
#      x y z
#    x 1.703000 0.000000 -0.002050 
#    y 0.000000 1.734030 0.000000 
#    z -0.002050 0.000000 1.699530 
# 
# From -- ./inp_files/56549.got.cif
#   From: 2010.06.25/outbox.cif.g09.slc.cpg/sg13_29_cif.got.tgz:56549.got - 2010.06.28 04:50:58.
