data_PCOD8118070
_publ_section_title
;
Structure prediction by ZEFSAII (Michael W. Deem and Ramdas Pophale) SiO2 
 PCOD8118070
Probable space group: P 2/C
;
_chemical_formula_sum "Si O2"
_cell_formula_units_Z 30
_cell_length_a 17.383238
_cell_length_b 12.437893
_cell_length_c 13.798786
_cell_angle_alpha 90.000000
_cell_angle_beta 30.121641
_cell_angle_gamma 90.000000
_cell_volume 1497.205664
_symmetry_space_group_name_H-M "P 2/C"
_symmetry_group_IT_number 13
_symmetry_cell_setting 'monoclinic'
loop_
_space_group_symop_operation_xyz
x,y,z
-x,y,1/2-z
-x,-y,-z
x,-y,1/2+z
loop_
_atom_site_type_symbol
_atom_site_label
_atom_site_fract_x
_atom_site_fract_y
_atom_site_fract_z
Si Si1 0.002373 0.726798 0.636345
Si Si2 0.779372 0.131701 0.074161
Si Si3 0.569424 0.667752 0.842807
Si Si4 0.125605 0.935590 0.421595
Si Si5 0.731465 0.405919 0.357858
Si Si6 0.215112 0.635662 0.246640
Si Si7 0.872906 0.176872 0.764740
Si Si8 0.500000 0.513643 0.750000
O O1 0.036001 0.854567 0.591807
O O2 0.135676 0.664631 0.434532
O O3 0.000000 0.690817 0.750000
O O4 0.838309 0.694673 0.769592
O O5 0.640565 0.212738 0.248935
O O6 0.756371 0.012654 0.147178
O O7 0.791261 0.121816 0.944887
O O8 0.943349 0.169499 0.935186
O O9 0.648202 0.617838 0.849227
O O10 0.592922 0.591414 0.723163
O O11 0.391870 0.668765 0.063079
O O12 0.208737 0.870661 0.244145
O O13 0.000000 0.000000 0.500000
O O14 0.826515 0.513294 0.231915
O O15 0.613923 0.432606 0.571893
O O16 0.153283 0.696189 0.217496
#
# Coordination Sequence:
#
# PCOD8118070 Si02
#       8
#     4   4   4   4   4   4   4   2
#     4  11  25  38  61  92 124 163 207 256 311 374
#     4  10  19  35  62  90 110 163 201 252 306 365
#     4  11  22  38  64  88 124 160 211 249 309 372
#     4   9  19  36  58  86 119 150 202 251 308 356
#     4  11  23  39  62  87 129 164 205 246 315 371
#     4  10  21  41  56  88 123 161 196 261 300 366
#     4   9  19  35  57  85 120 150 204 253 296 367
#     4  10  22  38  64  94 124 174 204 254 312 380
#
# _framework density 20.037327000000001
#
# number of rings (size 3 to 8) (size 9 to 14) (size 15 to 20)
#    0.000    1.867    0.000    6.000    7.467    0.000 
#    2.400    2.667    0.000    0.000    0.000    0.000 
#    0.000    0.000    0.000    0.000    0.000    0.000 
#
# Total GULP energy -371657.179033 kJ/mol
# GULP energy per Si atom -12388.572634 kJ/mol
# Density = 1.999172 g / cm^3
# Si number density = 20.037327 Si / 1000 Ang^3
#
#
#
# Elastic Constant Matrix: (Units=GPa)
#
#
# Indices 1 2 3 4 5 6 
#
# 1 123.1002 37.4018 39.0565 0.0000 22.0186 0.0000
# 2 37.4018 103.6172 36.8396 0.0000 4.4954 0.0000
# 3 39.0565 36.8396 79.9445 0.0000 18.0990 0.0000
# 4 0.0000 0.0000 0.0000 27.5962 0.0000 -7.7271
# 5 22.0186 4.4954 18.0990 0.0000 30.8641 0.0000
# 6 0.0000 0.0000 0.0000 -7.7271 0.0000 36.9038
#
#
#
# Elastic Compliance Matrix: (Units=1/GPa)
#
#
# Indices 1 2 3 4 5 6 
#
# 1 0.010838 -0.002681 -0.002764 0.000000 -0.005721 0.000000
# 2 -0.002681 0.012279 -0.005047 0.000000 0.003084 0.000000
# 3 -0.002764 -0.005047 0.017956 0.000000 -0.007822 0.000000
# 4 0.000000 0.000000 0.000000 0.038494 0.000000 0.008060
# 5 -0.005721 0.003084 -0.007822 0.000000 0.040619 0.000000
# 6 0.000000 0.000000 0.000000 0.008060 0.000000 0.028785
#
#
# Mechanical properties :
#
#
# Convention : Reuss Voigt Hill
#
# Bulk Modulus (GPa) = 49.77920 59.25085 54.51502
# Shear Modulus (GPa) = 28.30423 31.96376 30.13400
#
# Velocity S-wave (km/s) = 3.76250 3.99834 3.88221
# Velocity P-wave (km/s) = 6.61607 7.13793 6.88195
#
# Compressibility (1/GPa) = 0.02008871
#
# Stress axis : x y z
#
# Youngs Moduli (GPa) = 92.26456 81.43850 55.69269
#
# Poissons Ratio (x) = 0.21835 0.15396
# Poissons Ratio (y) = 0.24738 0.28106
# Poissons Ratio (z) = 0.25506 0.41099
#
# Static dielectric constant tensor:
#      x y z
#    x 4.035720 0.000000 0.314880 
#    y 0.000000 3.904240 0.000000 
#    z 0.314880 0.000000 3.523250 
# 
# 
# High freq. dielectric constant tensor:
#      x y z
#    x 1.786070 0.000000 0.019990 
#    y 0.000000 1.786650 0.000000 
#    z 0.019990 0.000000 1.768980 
# 
# From -- ./inp_files/55663.got.cif
#   From: 2010.06.25/outbox.cif.g09.slc.cpg/sg13_28_cif.got.tgz:55663.got - 2010.06.28 04:50:58.
