data_PCOD8118414
_publ_section_title
;
Structure prediction by ZEFSAII (Michael W. Deem and Ramdas Pophale) SiO2 
 PCOD8118414
Probable space group: P 2/C
;
_chemical_formula_sum "Si O2"
_cell_formula_units_Z 24
_cell_length_a 26.615881
_cell_length_b 7.529420
_cell_length_c 17.282083
_cell_angle_alpha 90.000000
_cell_angle_beta 19.789330
_cell_angle_gamma 90.000000
_cell_volume 1172.566715
_symmetry_space_group_name_H-M "P 2/C"
_symmetry_group_IT_number 13
_symmetry_cell_setting 'monoclinic'
loop_
_space_group_symop_operation_xyz
x,y,z
-x,y,1/2-z
-x,-y,-z
x,-y,1/2+z
loop_
_atom_site_type_symbol
_atom_site_label
_atom_site_fract_x
_atom_site_fract_y
_atom_site_fract_z
Si Si1 0.332107 0.833768 0.687861
Si Si2 0.658384 0.359995 0.482691
Si Si3 0.750586 0.716065 0.302104
Si Si4 0.940685 0.917591 0.919641
Si Si5 0.537511 0.845035 0.844971
Si Si6 0.777945 0.009640 0.385622
O O1 0.352610 0.686811 0.592248
O O2 0.375523 0.752849 0.709251
O O3 0.445062 0.989510 0.507717
O O4 0.166610 0.912086 0.931385
O O5 0.767386 0.533450 0.326310
O O6 0.733817 0.206431 0.423264
O O7 0.500000 0.403598 0.750000
O O8 0.576892 0.709292 0.528989
O O9 0.799901 0.889578 0.278451
O O10 0.857440 0.739732 0.072502
O O11 0.000000 0.861359 0.750000
O O12 0.073519 0.980302 0.781275
O O13 0.649813 0.915315 0.618738
#
# Coordination Sequence:
#
# PCOD8118414 Si02
#       6
#     4   4   4   4   4   4
#     4  10  21  38  64  93 120 169 211 257 313 375
#     4  12  23  40  67  99 128 163 215 265 323 379
#     4  11  25  40  64  99 129 165 214 265 317 380
#     4  11  23  43  65  91 129 176 215 258 320 381
#     4  10  19  39  65  89 125 162 213 258 312 375
#     4  12  21  41  68  91 131 169 209 265 325 377
#
# _framework density 20.467919999999999
#
# number of rings (size 3 to 8) (size 9 to 14) (size 15 to 20)
#    0.000    1.000    6.667    2.000    0.000    1.333 
#    0.000    2.500    0.000    0.000    0.000    0.000 
#    0.000    0.000    0.000    0.000    0.000    0.000 
#
# Total GULP energy -297539.044947 kJ/mol
# GULP energy per Si atom -12397.460206 kJ/mol
# Density = 2.042133 g / cm^3
# Si number density = 20.467920 Si / 1000 Ang^3
#
#
#
# Elastic Constant Matrix: (Units=GPa)
#
#
# Indices 1 2 3 4 5 6 
#
# 1 155.0677 46.7162 70.4468 0.0000 -19.3886 0.0000
# 2 46.7162 90.2462 49.6585 0.0000 -0.8374 0.0000
# 3 70.4468 49.6585 129.8043 0.0000 8.2913 0.0000
# 4 0.0000 0.0000 0.0000 217.2499 0.0000 234.2087
# 5 -19.3886 -0.8374 8.2913 0.0000 49.0140 0.0000
# 6 0.0000 0.0000 0.0000 234.2087 0.0000 278.7462
#
#
#
# Elastic Compliance Matrix: (Units=1/GPa)
#
#
# Indices 1 2 3 4 5 6 
#
# 1 0.009940 -0.002494 -0.004740 0.000000 0.004691 0.000000
# 2 -0.002494 0.014727 -0.004280 0.000000 -0.000011 0.000000
# 3 -0.004740 -0.004280 0.012170 0.000000 -0.004007 0.000000
# 4 0.000000 0.000000 0.000000 0.048870 0.000000 -0.041061
# 5 0.004691 -0.000011 -0.004007 0.000000 0.022936 0.000000
# 6 0.000000 0.000000 0.000000 -0.041061 0.000000 0.038088
#
#
# Mechanical properties :
#
#
# Convention : Reuss Voigt Hill
#
# Bulk Modulus (GPa) = 72.41712 78.75125 75.58419
# Shear Modulus (GPa) = 28.67621 122.88848 75.78234
#
# Velocity S-wave (km/s) = 3.74710 7.75693 6.09141
# Velocity P-wave (km/s) = 7.36061 10.89888 9.29957
#
# Compressibility (1/GPa) = 0.01380889
#
# Stress axis : x y z
#
# Youngs Moduli (GPa) = 100.60242 67.90468 82.17040
#
# Poissons Ratio (x) = 0.16933 0.38952
# Poissons Ratio (y) = 0.25086 0.35168
# Poissons Ratio (z) = 0.47689 0.29062
#
# Static dielectric constant tensor:
#      x y z
#    x 4.434820 0.000000 0.264120 
#    y 0.000000 3.497950 0.000000 
#    z 0.264120 0.000000 4.243010 
# 
# 
# High freq. dielectric constant tensor:
#      x y z
#    x 1.815630 0.000000 0.009860 
#    y 0.000000 1.771820 0.000000 
#    z 0.009860 0.000000 1.810420 
# 
# From -- ./inp_files/71796.got.cif
#   From: 2010.06.25/outbox.cif.g09.slc.cpg/sg13_36_cif.got.tgz:71796.got - 2010.06.28 04:50:58.
