data_PCOD8118770
_publ_section_title
;
Structure prediction by ZEFSAII (Michael W. Deem and Ramdas Pophale) SiO2 
 PCOD8118770
Probable space group: P 2/C
;
_chemical_formula_sum "Si O2"
_cell_formula_units_Z 24
_cell_length_a 23.569004
_cell_length_b 9.367797
_cell_length_c 17.662621
_cell_angle_alpha 90.000000
_cell_angle_beta 160.817165
_cell_angle_gamma 90.000000
_cell_volume 1281.385722
_symmetry_space_group_name_H-M "P 2/C"
_symmetry_group_IT_number 13
_symmetry_cell_setting 'monoclinic'
loop_
_space_group_symop_operation_xyz
x,y,z
-x,y,1/2-z
-x,-y,-z
x,-y,1/2+z
loop_
_atom_site_type_symbol
_atom_site_label
_atom_site_fract_x
_atom_site_fract_y
_atom_site_fract_z
Si Si1 0.024714 0.193769 0.871241
Si Si2 0.326166 0.990874 0.233814
Si Si3 0.656593 0.495127 0.395615
Si Si4 0.013052 0.512610 0.427061
Si Si5 0.821534 0.317469 0.980393
Si Si6 0.349659 0.167299 0.114528
O O1 0.087005 0.334849 0.993310
O O2 0.834743 0.145566 0.660338
O O3 0.000000 0.225701 0.750000
O O4 0.164063 0.073106 0.067390
O O5 0.365724 0.064239 0.204997
O O6 0.500000 0.000000 0.500000
O O7 0.272365 0.828826 0.155539
O O8 0.500000 0.552959 0.250000
O O9 0.822103 0.507326 0.656343
O O10 0.685212 0.589261 0.356817
O O11 0.623675 0.332332 0.327495
O O12 0.000000 0.500000 0.500000
O O13 0.139460 0.393694 0.550644
O O14 0.000000 0.292149 0.250000
O O15 0.500000 0.114557 0.250000
#
# Coordination Sequence:
#
# PCOD8118770 Si02
#       6
#     4   4   4   4   4   4
#     4   9  18  38  59  75 106 150 181 211 269 340
#     4  11  23  36  53  80 110 145 185 226 270 314
#     4   9  19  36  60  84 107 140 181 219 268 332
#     4  10  20  35  58  85 108 137 180 228 274 317
#     4  10  20  37  57  79 110 144 178 222 273 324
#     4   9  18  36  59  79 104 144 184 214 263 339
#
# _framework density 18.729724000000001
#
# number of rings (size 3 to 8) (size 9 to 14) (size 15 to 20)
#    0.000    2.333    0.000    5.000    0.000    6.000 
#    0.000    7.500    0.000    0.000    0.000    0.000 
#    0.000    0.000    0.000    0.000    0.000    0.000 
#
# Total GULP energy -297538.315194 kJ/mol
# GULP energy per Si atom -12397.429800 kJ/mol
# Density = 1.868709 g / cm^3
# Si number density = 18.729724 Si / 1000 Ang^3
#
#
#
# Elastic Constant Matrix: (Units=GPa)
#
#
# Indices 1 2 3 4 5 6 
#
# 1 127.8367 80.7810 52.4543 0.0000 15.6259 0.0000
# 2 80.7810 140.4245 66.1949 0.0000 4.1507 0.0000
# 3 52.4543 66.1949 93.8627 0.0000 19.6859 0.0000
# 4 0.0000 0.0000 0.0000 27.7205 0.0000 6.1944
# 5 15.6259 4.1507 19.6859 0.0000 37.6026 0.0000
# 6 0.0000 0.0000 0.0000 6.1944 0.0000 17.7214
#
#
#
# Elastic Compliance Matrix: (Units=1/GPa)
#
#
# Indices 1 2 3 4 5 6 
#
# 1 0.013249 -0.006577 -0.001980 0.000000 -0.003743 0.000000
# 2 -0.006577 0.014265 -0.007445 0.000000 0.005056 0.000000
# 3 -0.001980 -0.007445 0.018722 0.000000 -0.008156 0.000000
# 4 0.000000 0.000000 0.000000 0.039131 0.000000 -0.013678
# 5 -0.003743 0.005056 -0.008156 0.000000 0.031861 0.000000
# 6 0.000000 0.000000 0.000000 -0.013678 0.000000 0.061210
#
#
# Mechanical properties :
#
#
# Convention : Reuss Voigt Hill
#
# Bulk Modulus (GPa) = 70.27353 84.55381 77.41367
# Shear Modulus (GPa) = 23.23568 27.45515 25.34541
#
# Velocity S-wave (km/s) = 3.52600 3.83281 3.68260
# Velocity P-wave (km/s) = 7.36058 8.05167 7.71387
#
# Compressibility (1/GPa) = 0.01423011
#
# Stress axis : x y z
#
# Youngs Moduli (GPa) = 75.47783 70.10174 53.41423
#
# Poissons Ratio (x) = 0.46109 0.10578
# Poissons Ratio (y) = 0.49645 0.39766
# Poissons Ratio (z) = 0.14948 0.52190
#
# Static dielectric constant tensor:
#      x y z
#    x 3.507200 0.000000 0.349050 
#    y 0.000000 3.516280 0.000000 
#    z 0.349050 0.000000 3.525720 
# 
# 
# High freq. dielectric constant tensor:
#      x y z
#    x 1.723080 0.000000 0.024270 
#    y 0.000000 1.729030 0.000000 
#    z 0.024270 0.000000 1.723090 
# 
# From -- ./inp_files/71331.got.cif
#   From: 2010.06.25/outbox.cif.g09.slc.cpg/sg13_36_cif.got.tgz:71331.got - 2010.06.28 04:50:58.
