data_PCOD8118964
_publ_section_title
;
Structure prediction by ZEFSAII (Michael W. Deem and Ramdas Pophale) SiO2 
 PCOD8118964
Probable space group: P 2/C
;
_chemical_formula_sum "Si O2"
_cell_formula_units_Z 22
_cell_length_a 6.326456
_cell_length_b 15.636101
_cell_length_c 9.204155
_cell_angle_alpha 90.000000
_cell_angle_beta 103.716457
_cell_angle_gamma 90.000000
_cell_volume 884.519105
_symmetry_space_group_name_H-M "P 2/C"
_symmetry_group_IT_number 13
_symmetry_cell_setting 'monoclinic'
loop_
_space_group_symop_operation_xyz
x,y,z
-x,y,1/2-z
-x,-y,-z
x,-y,1/2+z
loop_
_atom_site_type_symbol
_atom_site_label
_atom_site_fract_x
_atom_site_fract_y
_atom_site_fract_z
Si Si1 0.258932 0.905129 0.129326
Si Si2 0.251663 0.933616 0.450329
Si Si3 0.738012 0.770180 0.872316
Si Si4 0.420414 0.384268 0.988150
Si Si5 0.759460 0.257804 0.055359
Si Si6 0.500000 0.491130 0.750000
O O1 0.365511 0.915059 0.310222
O O2 0.006064 0.926189 0.112684
O O3 0.311152 0.810607 0.077970
O O4 0.333603 0.973775 0.019274
O O5 0.318487 0.864099 0.580748
O O6 0.701685 0.703423 0.998559
O O7 0.631062 0.759243 0.691334
O O8 0.988640 0.752530 0.877592
O O9 0.675773 0.354364 0.003687
O O10 0.374181 0.448481 0.115301
O O11 0.344954 0.430862 0.826323
#
# Coordination Sequence:
#
# PCOD8118964 Si02
#       6
#     4   4   4   4   4   2
#     4   9  17  30  51  82 119 156 194 234 276 328
#     4   9  17  30  51  82 119 156 194 234 276 328
#     4  10  20  36  60  87 117 154 193 233 282 337
#     4  11  22  44  61  86 114 150 184 242 289 352
#     4  10  20  36  60  87 117 154 193 233 282 337
#     4  10  24  42  66  82 114 148 188 232 306 350
#
# _framework density 24.872273
#
# number of rings (size 3 to 8) (size 9 to 14) (size 15 to 20)
#    0.000    2.182    1.818    1.091    2.545    4.364 
#    0.000    6.364    0.000    0.000    0.000    0.000 
#    0.000    0.000    0.000    0.000    0.000    0.000 
#
# Total GULP energy -272628.341077 kJ/mol
# GULP energy per Si atom -12392.197322 kJ/mol
# Density = 2.481566 g / cm^3
# Si number density = 24.872273 Si / 1000 Ang^3
#
#
#
# Elastic Constant Matrix: (Units=GPa)
#
#
# Indices 1 2 3 4 5 6 
#
# 1 40.9211 5.7388 29.1574 0.0000 -15.9166 0.0000
# 2 5.7388 146.9685 64.9216 0.0000 -4.1063 0.0000
# 3 29.1574 64.9216 169.9756 0.0000 -18.9091 0.0000
# 4 0.0000 0.0000 0.0000 14.0261 0.0000 -20.2158
# 5 -15.9166 -4.1063 -18.9091 0.0000 34.5023 0.0000
# 6 0.0000 0.0000 0.0000 -20.2158 0.0000 23.2799
#
#
#
# Elastic Compliance Matrix: (Units=1/GPa)
#
#
# Indices 1 2 3 4 5 6 
#
# 1 0.032447 0.001113 -0.004591 0.000000 0.012585 0.000000
# 2 0.001113 0.008243 -0.003379 0.000000 -0.000358 0.000000
# 3 -0.004591 -0.003379 0.008180 0.000000 0.001963 0.000000
# 4 0.000000 0.000000 0.000000 -0.283371 0.000000 -0.246074
# 5 0.012585 -0.000358 0.001963 0.000000 0.035823 0.000000
# 6 0.000000 0.000000 0.000000 -0.246074 0.000000 -0.170731
#
#
# Mechanical properties :
#
#
# Convention : Reuss Voigt Hill
#
# Bulk Modulus (GPa) = 28.44496 61.94455 45.19475
# Shear Modulus (GPa) = -14.53595 31.56481 8.51443
#
# Velocity S-wave (km/s) = -2.42011 3.56627 1.85221
# Velocity P-wave (km/s) = 1.91102 6.47432 4.77331
#
# Compressibility (1/GPa) = 0.03515562
#
# Stress axis : x y z
#
# Youngs Moduli (GPa) = 30.81909 121.30823 122.25306
#
# Poissons Ratio (x) = -0.13497 0.56125
# Poissons Ratio (y) = -0.03429 0.41312
# Poissons Ratio (z) = 0.14149 0.40993
#
# Static dielectric constant tensor:
#      x y z
#    x 5.085610 0.000000 -0.216110 
#    y 0.000000 4.467170 0.000000 
#    z -0.216110 0.000000 4.722620 
# 
# 
# High freq. dielectric constant tensor:
#      x y z
#    x 2.019220 0.000000 -0.023790 
#    y 0.000000 1.984910 0.000000 
#    z -0.023790 0.000000 2.008720 
# 
# From -- ./inp_files/12366.got.cif
#   From: 2010.06.25/outbox.cif.g09.slc.cpg/sg13_7_cif.got.tgz:12366.got - 2010.06.28 04:50:58.
