data_PCOD8118457
_publ_section_title
;
Structure prediction by ZEFSAII (Michael W. Deem and Ramdas Pophale) SiO2 
 PCOD8118457
Probable space group: P 2/C
;
_chemical_formula_sum "Si O2"
_cell_formula_units_Z 30
_cell_length_a 17.938485
_cell_length_b 9.479040
_cell_length_c 22.980733
_cell_angle_alpha 90.000000
_cell_angle_beta 157.470764
_cell_angle_gamma 90.000000
_cell_volume 1497.229141
_symmetry_space_group_name_H-M "P 2/C"
_symmetry_group_IT_number 13
_symmetry_cell_setting 'monoclinic'
loop_
_space_group_symop_operation_xyz
x,y,z
-x,y,1/2-z
-x,-y,-z
x,-y,1/2+z
loop_
_atom_site_type_symbol
_atom_site_label
_atom_site_fract_x
_atom_site_fract_y
_atom_site_fract_z
Si Si1 0.713584 0.947164 0.130844
Si Si2 0.189941 0.656974 0.140104
Si Si3 0.112436 0.618328 0.885165
Si Si4 0.806614 0.036367 0.824841
Si Si5 0.000000 0.888445 0.750000
Si Si6 0.453254 0.229311 0.376225
Si Si7 0.125709 0.585307 0.672425
Si Si8 0.499412 0.539161 0.814696
O O1 0.849702 0.939551 0.286458
O O2 0.837017 0.028396 0.169916
O O3 0.654327 0.800812 0.056150
O O4 0.500000 0.000000 0.000000
O O5 0.274016 0.813812 0.209475
O O6 0.182088 0.575255 0.196306
O O7 0.315271 0.562866 0.186632
O O8 0.977779 0.662617 0.957197
O O9 0.000000 0.546325 0.750000
O O10 0.003398 0.576202 0.864528
O O11 0.326414 0.559839 0.040801
O O12 0.117878 0.788388 0.880485
O O13 0.644233 0.916665 0.716592
O O14 0.000000 0.000000 0.000000
O O15 0.313480 0.316166 0.319580
O O16 0.496965 0.322157 0.351712
O O17 0.500000 0.596731 0.750000
#
# Coordination Sequence:
#
# PCOD8118457 Si02
#       8
#     4   4   4   4   2   4   4   4
#     4  10  23  44  67  90 139 173 214 275 338 400
#     4  10  22  36  67  92 124 168 216 264 336 389
#     4  10  23  37  66  89 126 165 219 266 328 393
#     4  11  22  38  68  97 123 170 222 269 328 407
#     4  10  24  44  64  98 130 180 218 274 338 410
#     4  10  23  42  64  91 130 172 213 267 336 399
#     4  10  19  42  62  93 125 165 213 275 326 393
#     4  11  23  42  62  93 134 167 214 283 331 390
#
# _framework density 20.037013000000002
#
# number of rings (size 3 to 8) (size 9 to 14) (size 15 to 20)
#    0.400    1.333    2.667    1.600    3.733    1.067 
#    6.000    3.333    0.000    0.000    0.000    0.000 
#    0.000    0.000    0.000    0.000    0.000    0.000 
#
# Total GULP energy -371648.036874 kJ/mol
# GULP energy per Si atom -12388.267896 kJ/mol
# Density = 1.999141 g / cm^3
# Si number density = 20.037013 Si / 1000 Ang^3
#
#
#
# Elastic Constant Matrix: (Units=GPa)
#
#
# Indices 1 2 3 4 5 6 
#
# 1 114.3270 55.7110 40.0435 0.0000 5.9912 0.0000
# 2 55.7110 127.2889 41.1490 0.0000 -2.1222 0.0000
# 3 40.0435 41.1490 97.2220 0.0000 -11.6785 0.0000
# 4 0.0000 0.0000 0.0000 37.1388 0.0000 2.7688
# 5 5.9912 -2.1222 -11.6785 0.0000 32.9357 0.0000
# 6 0.0000 0.0000 0.0000 2.7688 0.0000 18.4460
#
#
#
# Elastic Compliance Matrix: (Units=1/GPa)
#
#
# Indices 1 2 3 4 5 6 
#
# 1 0.012330 -0.004251 -0.003741 0.000000 -0.003843 0.000000
# 2 -0.004251 0.010588 -0.002669 0.000000 0.000509 0.000000
# 3 -0.003741 -0.002669 0.013596 0.000000 0.005330 0.000000
# 4 0.000000 0.000000 0.000000 0.027231 0.000000 -0.004087
# 5 -0.003843 0.000509 0.005330 0.000000 0.032984 0.000000
# 6 0.000000 0.000000 0.000000 -0.004087 0.000000 0.054826
#
#
# Mechanical properties :
#
#
# Convention : Reuss Voigt Hill
#
# Bulk Modulus (GPa) = 65.82408 68.07167 66.94787
# Shear Modulus (GPa) = 28.09903 31.16638 29.63271
#
# Velocity S-wave (km/s) = 3.74887 3.94819 3.84982
# Velocity P-wave (km/s) = 7.18758 7.40479 7.29699
#
# Compressibility (1/GPa) = 0.01519201
#
# Stress axis : x y z
#
# Youngs Moduli (GPa) = 81.10207 94.44442 73.54869
#
# Poissons Ratio (x) = 0.40152 0.27513
# Poissons Ratio (y) = 0.34479 0.19632
# Poissons Ratio (z) = 0.30339 0.25210
#
# Static dielectric constant tensor:
#      x y z
#    x 3.650550 0.000000 -0.174810 
#    y 0.000000 3.689140 0.000000 
#    z -0.174810 0.000000 3.805640 
# 
# 
# High freq. dielectric constant tensor:
#      x y z
#    x 1.780470 0.000000 -0.007100 
#    y 0.000000 1.779800 0.000000 
#    z -0.007100 0.000000 1.780450 
# 
# From -- ./inp_files/93527.got.cif
#   From: 2010.06.25/outbox.cif.g09.slc.cpg/sg13_47_cif.got.tgz:93527.got - 2010.06.28 04:50:58.
