data_PCOD8118752
_publ_section_title
;
Structure prediction by ZEFSAII (Michael W. Deem and Ramdas Pophale) SiO2 
 PCOD8118752
Probable space group: P 2/C
;
_chemical_formula_sum "Si O2"
_cell_formula_units_Z 32
_cell_length_a 16.347821
_cell_length_b 11.149416
_cell_length_c 18.565366
_cell_angle_alpha 90.000000
_cell_angle_beta 28.451378
_cell_angle_gamma 90.000000
_cell_volume 1612.125848
_symmetry_space_group_name_H-M "P 2/C"
_symmetry_group_IT_number 13
_symmetry_cell_setting 'monoclinic'
loop_
_space_group_symop_operation_xyz
x,y,z
-x,y,1/2-z
-x,-y,-z
x,-y,1/2+z
loop_
_atom_site_type_symbol
_atom_site_label
_atom_site_fract_x
_atom_site_fract_y
_atom_site_fract_z
Si Si1 0.823903 0.545398 0.928530
Si Si2 0.611846 0.168388 0.935295
Si Si3 0.941132 0.828249 0.092391
Si Si4 0.650220 0.560525 0.430351
Si Si5 0.668040 0.203480 0.576120
Si Si6 0.001590 0.563266 0.076422
Si Si7 0.043903 0.074389 0.073411
Si Si8 0.693254 0.080354 0.413929
O O1 0.671361 0.493793 0.994993
O O2 0.000000 0.531186 0.750000
O O3 0.843387 0.479552 0.991058
O O4 0.788408 0.682226 0.974628
O O5 0.612349 0.298354 0.971977
O O6 0.737887 0.170649 0.768093
O O7 0.679798 0.063754 0.936272
O O8 0.419077 0.127808 0.065935
O O9 0.029735 0.704956 0.046718
O O10 0.037390 0.934287 0.059897
O O11 0.967979 0.842211 0.987116
O O12 0.500000 0.500000 0.500000
O O13 0.820352 0.535030 0.253367
O O14 0.500000 0.239608 0.750000
O O15 0.773913 0.096797 0.531062
O O16 0.613801 0.152828 0.541318
O O17 0.000000 0.500000 0.000000
O O18 0.891044 0.113227 0.245557
#
# Coordination Sequence:
#
# PCOD8118752 Si02
#       8
#     4   4   4   4   4   4   4   4
#     4  10  22  39  58  82 110 145 191 234 277 338
#     4   9  19  36  57  82 111 142 179 224 275 329
#     4   9  19  36  57  82 111 142 179 224 275 329
#     4  10  21  37  58  83 113 149 187 229 277 329
#     4  12  24  37  54  78 110 143 181 230 279 326
#     4  10  21  37  58  83 113 149 187 229 277 329
#     4  10  20  35  57  82 109 143 181 223 273 331
#     4  10  20  35  57  82 109 143 181 223 273 331
#
# _framework density 19.849567
#
# number of rings (size 3 to 8) (size 9 to 14) (size 15 to 20)
#    0.000    2.000    0.000    3.375    0.000    8.000 
#    0.000    3.750    0.000    1.500    0.000    0.000 
#    0.000    0.000    0.000    0.000    0.000    0.000 
#
# Total GULP energy -396731.548648 kJ/mol
# GULP energy per Si atom -12397.860895 kJ/mol
# Density = 1.980439 g / cm^3
# Si number density = 19.849567 Si / 1000 Ang^3
#
#
#
# Elastic Constant Matrix: (Units=GPa)
#
#
# Indices 1 2 3 4 5 6 
#
# 1 115.5881 44.3309 33.7968 0.0000 -3.8993 0.0000
# 2 44.3309 109.9953 32.6305 0.0000 -0.8269 0.0000
# 3 33.7968 32.6305 30.7923 0.0000 1.7123 0.0000
# 4 0.0000 0.0000 0.0000 23.2161 0.0000 0.4693
# 5 -3.8993 -0.8269 1.7123 0.0000 32.8172 0.0000
# 6 0.0000 0.0000 0.0000 0.4693 0.0000 28.0602
#
#
#
# Elastic Compliance Matrix: (Units=1/GPa)
#
#
# Indices 1 2 3 4 5 6 
#
# 1 0.013053 -0.001397 -0.012968 0.000000 0.002192 0.000000
# 2 -0.001397 0.013447 -0.012763 0.000000 0.000839 0.000000
# 3 -0.012968 -0.012763 0.060512 0.000000 -0.005020 0.000000
# 4 0.000000 0.000000 0.000000 0.043088 0.000000 -0.000721
# 5 0.002192 0.000839 -0.005020 0.000000 0.031015 0.000000
# 6 0.000000 0.000000 0.000000 -0.000721 0.000000 0.035650
#
#
# Mechanical properties :
#
#
# Convention : Reuss Voigt Hill
#
# Bulk Modulus (GPa) = 30.52794 53.09912 41.81353
# Shear Modulus (GPa) = 19.08836 26.52653 22.80745
#
# Velocity S-wave (km/s) = 3.10441 3.65962 3.39339
# Velocity P-wave (km/s) = 5.31629 6.68326 6.03858
#
# Compressibility (1/GPa) = 0.03275688
#
# Stress axis : x y z
#
# Youngs Moduli (GPa) = 76.61144 74.36706 16.52551
#
# Poissons Ratio (x) = 0.10391 0.21430
# Poissons Ratio (y) = 0.10704 0.21091
# Poissons Ratio (z) = 0.99348 0.94912
#
# Static dielectric constant tensor:
#      x y z
#    x 3.688760 0.000000 0.044770 
#    y 0.000000 3.720100 0.000000 
#    z 0.044770 0.000000 3.510970 
# 
# 
# High freq. dielectric constant tensor:
#      x y z
#    x 1.769300 0.000000 -0.001740 
#    y 0.000000 1.785250 0.000000 
#    z -0.001740 0.000000 1.764870 
# 
# From -- ./inp_files/68659.got.cif
#   From: 2010.06.25/outbox.cif.g09.slc.cpg/sg13_35_cif.got.tgz:68659.got - 2010.06.28 04:50:58.
