data_PCOD8118994
_publ_section_title
;
Structure prediction by ZEFSAII (Michael W. Deem and Ramdas Pophale) SiO2 
 PCOD8118994
Probable space group: P 2/C
;
_chemical_formula_sum "Si O2"
_cell_formula_units_Z 30
_cell_length_a 14.655255
_cell_length_b 5.601529
_cell_length_c 19.226950
_cell_angle_alpha 90.000000
_cell_angle_beta 114.775066
_cell_angle_gamma 90.000000
_cell_volume 1433.101821
_symmetry_space_group_name_H-M "P 2/C"
_symmetry_group_IT_number 13
_symmetry_cell_setting 'monoclinic'
loop_
_space_group_symop_operation_xyz
x,y,z
-x,y,1/2-z
-x,-y,-z
x,-y,1/2+z
loop_
_atom_site_type_symbol
_atom_site_label
_atom_site_fract_x
_atom_site_fract_y
_atom_site_fract_z
Si Si1 0.465209 0.866309 0.556863
Si Si2 0.718761 0.486345 0.361787
Si Si3 0.278593 0.461127 0.978719
Si Si4 0.318198 0.768342 0.867503
Si Si5 0.000000 0.837163 0.750000
Si Si6 0.829185 0.844474 0.162696
Si Si7 0.397410 0.021631 0.675398
Si Si8 0.845219 0.473514 0.274399
O O1 0.384771 0.671027 0.510544
O O2 0.566383 0.744414 0.619605
O O3 0.420384 0.043808 0.600525
O O4 0.500000 0.000000 0.500000
O O5 0.754892 0.509761 0.453112
O O6 0.661722 0.231532 0.330569
O O7 0.820609 0.487830 0.348313
O O8 0.658317 0.730156 0.321927
O O9 0.299093 0.702475 0.942543
O O10 0.188674 0.320189 0.910466
O O11 0.258127 0.600033 0.796539
O O12 0.277229 0.037608 0.849848
O O13 0.059842 0.693250 0.709837
O O14 0.081305 0.971244 0.824606
O O15 0.871649 0.722833 0.246574
O O16 0.500000 0.006517 0.750000
#
# Coordination Sequence:
#
# PCOD8118994 Si02
#       8
#     4   4   4   4   2   4   4   4
#     4  11  20  34  59  90 129 177 221 261 305 367
#     4  11  25  41  63  93 137 178 213 268 338 380
#     4  10  22  38  59  95 133 176 213 266 318 390
#     4  10  20  36  61  90 125 174 220 267 308 371
#     4  10  22  42  70  98 118 154 218 284 336 396
#     4  10  21  40  67  92 126 157 217 272 329 387
#     4  11  25  40  59  91 137 181 229 266 311 382
#     4  10  23  40  65  94 123 165 216 276 330 396
#
# _framework density 20.933615
#
# number of rings (size 3 to 8) (size 9 to 14) (size 15 to 20)
#    0.000    1.600    1.333    2.800    7.467    2.133 
#    0.000    0.667    0.000   11.200    0.000    0.000 
#    0.000    0.000    0.000    0.000    0.000    0.000 
#
# Total GULP energy -371740.401783 kJ/mol
# GULP energy per Si atom -12391.346726 kJ/mol
# Density = 2.088597 g / cm^3
# Si number density = 20.933615 Si / 1000 Ang^3
#
#
#
# Elastic Constant Matrix: (Units=GPa)
#
#
# Indices 1 2 3 4 5 6 
#
# 1 125.7759 38.6820 41.5117 0.0000 -12.6075 0.0000
# 2 38.6820 106.8665 20.3542 0.0000 -4.8700 0.0000
# 3 41.5117 20.3542 71.6452 0.0000 -17.1315 0.0000
# 4 0.0000 0.0000 0.0000 21.4179 0.0000 4.1626
# 5 -12.6075 -4.8700 -17.1315 0.0000 35.3477 0.0000
# 6 0.0000 0.0000 0.0000 4.1626 0.0000 19.9499
#
#
#
# Elastic Compliance Matrix: (Units=1/GPa)
#
#
# Indices 1 2 3 4 5 6 
#
# 1 0.010600 -0.002820 -0.005123 0.000000 0.000909 0.000000
# 2 -0.002820 0.010643 -0.001448 0.000000 -0.000241 0.000000
# 3 -0.005123 -0.001448 0.019062 0.000000 0.007212 0.000000
# 4 0.000000 0.000000 0.000000 0.048663 0.000000 -0.010154
# 5 0.000909 -0.000241 0.007212 0.000000 0.032077 0.000000
# 6 0.000000 0.000000 0.000000 -0.010154 0.000000 0.052244
#
#
# Mechanical properties :
#
#
# Convention : Reuss Voigt Hill
#
# Bulk Modulus (GPa) = 46.46012 56.15372 51.30692
# Shear Modulus (GPa) = 25.09492 28.92575 27.01033
#
# Velocity S-wave (km/s) = 3.46610 3.72127 3.59595
# Velocity P-wave (km/s) = 6.18552 6.73400 6.46558
#
# Compressibility (1/GPa) = 0.02152384
#
# Stress axis : x y z
#
# Youngs Moduli (GPa) = 94.34136 93.96050 52.46113
#
# Poissons Ratio (x) = 0.26493 0.26877
# Poissons Ratio (y) = 0.26600 0.07594
# Poissons Ratio (z) = 0.48333 0.13601
#
# Static dielectric constant tensor:
#      x y z
#    x 4.915290 0.000000 0.002200 
#    y 0.000000 4.026630 0.000000 
#    z 0.002200 0.000000 3.895210 
# 
# 
# High freq. dielectric constant tensor:
#      x y z
#    x 1.807750 0.000000 0.000680 
#    y 0.000000 1.828350 0.000000 
#    z 0.000680 0.000000 1.815070 
# 
# From -- ./inp_files/67587.got.cif
#   From: 2010.06.25/outbox.cif.g09.slc.cpg/sg13_34_cif.got.tgz:67587.got - 2010.06.28 04:50:58.
