data_PCOD8118937
_publ_section_title
;
Structure prediction by ZEFSAII (Michael W. Deem and Ramdas Pophale) SiO2 
 PCOD8118937
Probable space group: P 2/C
;
_chemical_formula_sum "Si O2"
_cell_formula_units_Z 24
_cell_length_a 7.546867
_cell_length_b 12.059299
_cell_length_c 20.486882
_cell_angle_alpha 90.000000
_cell_angle_beta 143.157983
_cell_angle_gamma 90.000000
_cell_volume 1117.979803
_symmetry_space_group_name_H-M "P 2/C"
_symmetry_group_IT_number 13
_symmetry_cell_setting 'monoclinic'
loop_
_space_group_symop_operation_xyz
x,y,z
-x,y,1/2-z
-x,-y,-z
x,-y,1/2+z
loop_
_atom_site_type_symbol
_atom_site_label
_atom_site_fract_x
_atom_site_fract_y
_atom_site_fract_z
Si Si1 0.714968 0.389442 0.132226
Si Si2 0.231509 0.857815 0.867173
Si Si3 0.120910 0.134586 0.971145
Si Si4 0.834914 0.086855 0.366352
Si Si5 0.197073 0.357222 0.622664
Si Si6 0.214251 0.449379 0.492201
O O1 0.702556 0.260973 0.147469
O O2 0.443889 0.455891 0.082278
O O3 0.000000 0.445210 0.250000
O O4 0.703207 0.391523 0.050458
O O5 0.563039 0.908106 0.965444
O O6 0.000000 0.921044 0.750000
O O7 0.074553 0.850637 0.891152
O O8 0.111527 0.131769 0.046066
O O9 0.025790 0.258381 0.920345
O O10 0.885280 0.045429 0.874661
O O11 0.500000 0.116778 0.250000
O O12 0.500000 0.335729 0.750000
O O13 0.218419 0.355595 0.549679
O O14 0.088287 0.481765 0.607792
#
# Coordination Sequence:
#
# PCOD8118937 Si02
#       6
#     4   4   4   4   4   4
#     4  10  20  36  59  88 119 156 200 251 300 358
#     4  11  21  39  63  88 121 159 202 255 308 363
#     4  11  23  41  62  89 123 160 204 257 307 366
#     4  11  23  40  64  90 121 160 205 255 310 368
#     4  11  22  39  60  87 122 162 203 250 307 365
#     4  10  21  37  59  86 122 159 203 245 304 363
#
# _framework density 21.467293000000002
#
# number of rings (size 3 to 8) (size 9 to 14) (size 15 to 20)
#    0.000    1.333    3.333    3.000    0.000    0.000 
#    0.000    0.833    0.000    0.000    0.000    0.000 
#    0.000    0.000    0.000    0.000    0.000    0.000 
#
# Total GULP energy -297457.627700 kJ/mol
# GULP energy per Si atom -12394.067821 kJ/mol
# Density = 2.141843 g / cm^3
# Si number density = 21.467293 Si / 1000 Ang^3
#
#
#
# Elastic Constant Matrix: (Units=GPa)
#
#
# Indices 1 2 3 4 5 6 
#
# 1 105.7666 0.9397 20.8700 0.0000 17.7643 0.0000
# 2 0.9397 61.8152 15.9749 0.0000 6.0541 0.0000
# 3 20.8700 15.9749 95.5156 0.0000 18.7144 0.0000
# 4 0.0000 0.0000 0.0000 1.3217 0.0000 2.0170
# 5 17.7643 6.0541 18.7144 0.0000 27.7125 0.0000
# 6 0.0000 0.0000 0.0000 2.0170 0.0000 19.1837
#
#
#
# Elastic Compliance Matrix: (Units=1/GPa)
#
#
# Indices 1 2 3 4 5 6 
#
# 1 0.010738 0.000770 -0.001260 0.000000 -0.006200 0.000000
# 2 0.000770 0.017065 -0.002530 0.000000 -0.002513 0.000000
# 3 -0.001260 -0.002530 0.012564 0.000000 -0.007124 0.000000
# 4 0.000000 0.000000 0.000000 0.901174 0.000000 -0.094749
# 5 -0.006200 -0.002513 -0.007124 0.000000 0.045419 0.000000
# 6 0.000000 0.000000 0.000000 -0.094749 0.000000 0.062089
#
#
# Mechanical properties :
#
#
# Convention : Reuss Voigt Hill
#
# Bulk Modulus (GPa) = 29.13207 37.62962 33.38085
# Shear Modulus (GPa) = 4.68809 24.66443 14.67626
#
# Velocity S-wave (km/s) = 1.47938 3.39327 2.61752
# Velocity P-wave (km/s) = 4.06423 5.73753 4.97178
#
# Compressibility (1/GPa) = 0.03432643
#
# Stress axis : x y z
#
# Youngs Moduli (GPa) = 93.12718 58.59778 79.59405
#
# Poissons Ratio (x) = -0.04510 0.10030
# Poissons Ratio (y) = -0.07168 0.20137
# Poissons Ratio (z) = 0.11735 0.14825
#
# Static dielectric constant tensor:
#      x y z
#    x 3.830290 0.000000 0.201040 
#    y 0.000000 3.699270 0.000000 
#    z 0.201040 0.000000 3.994200 
# 
# 
# High freq. dielectric constant tensor:
#      x y z
#    x 1.842110 0.000000 0.009140 
#    y 0.000000 1.828010 0.000000 
#    z 0.009140 0.000000 1.847580 
# 
# From -- ./inp_files/80189.got.cif
#   From: 2010.06.25/outbox.cif.g09.slc.cpg/sg13_41_cif.got.tgz:80189.got - 2010.06.28 04:50:58.
