data_PCOD8118995
_publ_section_title
;
Structure prediction by ZEFSAII (Michael W. Deem and Ramdas Pophale) SiO2 
 PCOD8118995
Probable space group: P 2/C
;
_chemical_formula_sum "Si O2"
_cell_formula_units_Z 30
_cell_length_a 9.621927
_cell_length_b 5.600640
_cell_length_c 27.525745
_cell_angle_alpha 90.000000
_cell_angle_beta 104.965390
_cell_angle_gamma 90.000000
_cell_volume 1433.021758
_symmetry_space_group_name_H-M "P 2/C"
_symmetry_group_IT_number 13
_symmetry_cell_setting 'monoclinic'
loop_
_space_group_symop_operation_xyz
x,y,z
-x,y,1/2-z
-x,-y,-z
x,-y,1/2+z
loop_
_atom_site_type_symbol
_atom_site_label
_atom_site_fract_x
_atom_site_fract_y
_atom_site_fract_z
Si Si1 0.701636 0.514106 0.827574
Si Si2 0.953371 0.014025 0.051166
Si Si3 0.491833 0.145468 0.834893
Si Si4 0.680787 0.543102 0.111507
Si Si5 0.500000 0.172155 0.250000
Si Si6 0.352415 0.862959 0.482894
Si Si7 0.003993 0.492388 0.890517
Si Si8 0.583369 0.760355 0.908636
O O1 0.613973 0.270915 0.813054
O O2 0.640808 0.686191 0.780683
O O3 0.666250 0.589327 0.879592
O O4 0.873543 0.484135 0.839841
O O5 0.015014 0.259956 0.080175
O O6 0.780756 0.039399 0.039242
O O7 0.999635 0.758939 0.079901
O O8 0.000000 0.000000 0.000000
O O9 0.362466 0.306636 0.844144
O O10 0.429538 0.959770 0.790141
O O11 0.578019 0.029471 0.887970
O O12 0.636208 0.669295 0.057705
O O13 0.850200 0.488543 0.127875
O O14 0.586440 0.303511 0.102601
O O15 0.329774 0.737621 0.533236
O O16 0.500000 0.000000 0.500000
#
# Coordination Sequence:
#
# PCOD8118995 Si02
#       8
#     4   4   4   4   2   4   4   4
#     4  10  23  40  66  95 124 167 216 278 334 401
#     4  11  25  40  59  93 140 183 230 267 311 384
#     4  10  21  40  67  94 123 159 215 276 332 392
#     4  10  22  38  60  96 134 176 214 267 323 395
#     4  10  22  42  72  96 118 152 222 286 338 400
#     4  11  20  34  59  91 131 177 225 259 308 369
#     4  11  25  41  64  95 138 180 215 268 341 385
#     4  10  20  36  61  90 129 173 223 266 310 375
#
# _framework density 20.934785000000002
#
# number of rings (size 3 to 8) (size 9 to 14) (size 15 to 20)
#    0.000    1.600    1.333    2.800    7.467    2.133 
#    0.000    0.000    0.000   19.200    0.000    0.000 
#    0.000    0.000    0.000    0.000    0.000    0.000 
#
# Total GULP energy -371738.988908 kJ/mol
# GULP energy per Si atom -12391.299630 kJ/mol
# Density = 2.088714 g / cm^3
# Si number density = 20.934785 Si / 1000 Ang^3
#
#
#
# Elastic Constant Matrix: (Units=GPa)
#
#
# Indices 1 2 3 4 5 6 
#
# 1 96.1507 24.2406 39.5415 0.0000 24.9429 0.0000
# 2 24.2406 105.9923 34.5058 0.0000 7.5445 0.0000
# 3 39.5415 34.5058 110.3241 0.0000 14.5046 0.0000
# 4 0.0000 0.0000 0.0000 27.2725 0.0000 -2.3624
# 5 24.9429 7.5445 14.5046 0.0000 30.4231 0.0000
# 6 0.0000 0.0000 0.0000 -2.3624 0.0000 19.0698
#
#
#
# Elastic Compliance Matrix: (Units=1/GPa)
#
#
# Indices 1 2 3 4 5 6 
#
# 1 0.014859 -0.001533 -0.003515 0.000000 -0.010127 0.000000
# 2 -0.001533 0.010698 -0.002788 0.000000 -0.000067 0.000000
# 3 -0.003515 -0.002788 0.011443 0.000000 -0.001883 0.000000
# 4 0.000000 0.000000 0.000000 0.037065 0.000000 0.004592
# 5 -0.010127 -0.000067 -0.001883 0.000000 0.042087 0.000000
# 6 0.000000 0.000000 0.000000 0.004592 0.000000 0.053008
#
#
# Mechanical properties :
#
#
# Convention : Reuss Voigt Hill
#
# Bulk Modulus (GPa) = 46.88454 56.56032 51.72243
# Shear Modulus (GPa) = 26.04978 29.63170 27.84074
#
# Velocity S-wave (km/s) = 3.53133 3.76630 3.65071
# Velocity P-wave (km/s) = 6.25070 6.78155 6.52153
#
# Compressibility (1/GPa) = 0.02132899
#
# Stress axis : x y z
#
# Youngs Moduli (GPa) = 67.29761 93.47940 87.38707
#
# Poissons Ratio (x) = 0.14333 0.30715
# Poissons Ratio (y) = 0.10319 0.24359
# Poissons Ratio (z) = 0.23654 0.26058
#
# Static dielectric constant tensor:
#      x y z
#    x 3.969560 0.000000 0.210030 
#    y 0.000000 4.063320 0.000000 
#    z 0.210030 0.000000 4.596710 
# 
# 
# High freq. dielectric constant tensor:
#      x y z
#    x 1.814770 0.000000 -0.003400 
#    y 0.000000 1.828350 0.000000 
#    z -0.003400 0.000000 1.808810 
# 
# From -- ./inp_files/95539.got.cif
#   From: 2010.06.25/outbox.cif.g09.slc.cpg/sg13_48_cif.got.tgz:95539.got - 2010.06.28 04:50:58.
