data_PCOD8118176
_publ_section_title
;
Structure prediction by ZEFSAII (Michael W. Deem and Ramdas Pophale) SiO2 
 PCOD8118176
Probable space group: P 2/C
;
_chemical_formula_sum "Si O2"
_cell_formula_units_Z 24
_cell_length_a 12.789134
_cell_length_b 11.705978
_cell_length_c 12.632275
_cell_angle_alpha 90.000000
_cell_angle_beta 142.606250
_cell_angle_gamma 90.000000
_cell_volume 1148.486661
_symmetry_space_group_name_H-M "P 2/C"
_symmetry_group_IT_number 13
_symmetry_cell_setting 'monoclinic'
loop_
_space_group_symop_operation_xyz
x,y,z
-x,y,1/2-z
-x,-y,-z
x,-y,1/2+z
loop_
_atom_site_type_symbol
_atom_site_label
_atom_site_fract_x
_atom_site_fract_y
_atom_site_fract_z
Si Si1 0.634817 0.035080 0.765085
Si Si2 0.521803 0.246737 0.952122
Si Si3 0.642902 0.778881 0.773957
Si Si4 0.839725 0.802643 0.557501
Si Si5 0.205065 0.391839 0.623164
Si Si6 0.074173 0.387024 0.927366
O O1 0.500000 0.024065 0.750000
O O2 0.568408 0.120526 0.618653
O O3 0.679542 0.908107 0.762078
O O4 0.802202 0.092075 0.950348
O O5 0.395418 0.343676 0.802644
O O6 0.575508 0.284910 0.113704
O O7 0.683407 0.239447 0.004727
O O8 0.500000 0.770451 0.750000
O O9 0.822045 0.728845 0.962369
O O10 0.897905 0.694901 0.534905
O O11 0.000000 0.848809 0.750000
O O12 0.210419 0.511670 0.563620
O O13 0.097975 0.404123 0.643907
O O14 0.000000 0.385975 0.750000
#
# Coordination Sequence:
#
# PCOD8118176 Si02
#       6
#     4   4   4   4   4   4
#     4   8  18  35  55  83 117 151 187 232 282 335
#     4  10  20  38  62  84 111 151 196 237 278 329
#     4  11  22  36  56  85 120 153 187 231 289 347
#     4  10  19  36  62  88 112 146 196 241 277 325
#     4  10  22  41  60  81 113 150 192 240 282 331
#     4  11  24  40  58  84 118 151 186 234 289 342
#
# _framework density 20.897065000000001
#
# number of rings (size 3 to 8) (size 9 to 14) (size 15 to 20)
#    0.000    2.000    0.000    4.500    0.000    4.000 
#    0.000    9.167    0.000    0.000    0.000    0.000 
#    0.000    0.000    0.000    0.000    0.000    0.000 
#
# Total GULP energy -297489.255879 kJ/mol
# GULP energy per Si atom -12395.385662 kJ/mol
# Density = 2.084950 g / cm^3
# Si number density = 20.897065 Si / 1000 Ang^3
#
#
#
# Elastic Constant Matrix: (Units=GPa)
#
#
# Indices 1 2 3 4 5 6 
#
# 1 51.4436 17.1873 46.2930 0.0000 -19.0307 0.0000
# 2 17.1873 99.8939 49.8555 0.0000 -2.1810 0.0000
# 3 46.2930 49.8555 150.2098 0.0000 -14.3909 0.0000
# 4 0.0000 0.0000 0.0000 46.1544 0.0000 -1.4630
# 5 -19.0307 -2.1810 -14.3909 0.0000 37.5046 0.0000
# 6 0.0000 0.0000 0.0000 -1.4630 0.0000 22.6276
#
#
#
# Elastic Compliance Matrix: (Units=1/GPa)
#
#
# Indices 1 2 3 4 5 6 
#
# 1 0.032071 -0.001107 -0.008268 0.000000 0.013037 0.000000
# 2 -0.001107 0.012063 -0.003789 0.000000 -0.001314 0.000000
# 3 -0.008268 -0.003789 0.010423 0.000000 -0.000416 0.000000
# 4 0.000000 0.000000 0.000000 0.021711 0.000000 0.001404
# 5 0.013037 -0.001314 -0.000416 0.000000 0.033043 0.000000
# 6 0.000000 0.000000 0.000000 0.001404 0.000000 0.044284
#
#
# Mechanical properties :
#
#
# Convention : Reuss Voigt Hill
#
# Bulk Modulus (GPa) = 35.42215 58.69100 47.05658
# Shear Modulus (GPa) = 26.40860 33.80476 30.10668
#
# Velocity S-wave (km/s) = 3.55878 4.02640 3.79979
# Velocity P-wave (km/s) = 5.82015 7.05426 6.46671
#
# Compressibility (1/GPa) = 0.02823092
#
# Stress axis : x y z
#
# Youngs Moduli (GPa) = 31.18049 82.89660 95.94280
#
# Poissons Ratio (x) = 0.09179 0.79321
# Poissons Ratio (y) = 0.03452 0.36348
# Poissons Ratio (z) = 0.25779 0.31405
#
# Static dielectric constant tensor:
#      x y z
#    x 3.583730 0.000000 -0.170380 
#    y 0.000000 4.035440 0.000000 
#    z -0.170380 0.000000 3.731490 
# 
# 
# High freq. dielectric constant tensor:
#      x y z
#    x 1.809440 0.000000 -0.013350 
#    y 0.000000 1.816900 0.000000 
#    z -0.013350 0.000000 1.824510 
# 
# From -- ./inp_files/53576.got.cif
#   From: 2010.06.25/outbox.cif.g09.slc.cpg/sg13_27_cif.got.tgz:53576.got - 2010.06.28 04:50:58.
