data_PCOD8118225
_publ_section_title
;
Structure prediction by ZEFSAII (Michael W. Deem and Ramdas Pophale) SiO2 
 PCOD8118225
Probable space group: P 2/C
;
_chemical_formula_sum "Si O2"
_cell_formula_units_Z 20
_cell_length_a 7.833107
_cell_length_b 10.890832
_cell_length_c 9.624291
_cell_angle_alpha 90.000000
_cell_angle_beta 81.405518
_cell_angle_gamma 90.000000
_cell_volume 811.819514
_symmetry_space_group_name_H-M "P 2/C"
_symmetry_group_IT_number 13
_symmetry_cell_setting 'monoclinic'
loop_
_space_group_symop_operation_xyz
x,y,z
-x,y,1/2-z
-x,-y,-z
x,-y,1/2+z
loop_
_atom_site_type_symbol
_atom_site_label
_atom_site_fract_x
_atom_site_fract_y
_atom_site_fract_z
Si Si1 0.226221 0.853304 0.981479
Si Si2 0.614063 0.770011 0.904370
Si Si3 0.695918 0.013155 0.766981
Si Si4 0.842380 0.634223 0.669358
Si Si5 0.387927 0.567886 0.398519
O O1 0.214668 0.880508 0.148839
O O2 0.412084 0.798482 0.916222
O O3 0.198271 0.975113 0.885690
O O4 0.100983 0.741307 0.949294
O O5 0.707585 0.900112 0.874551
O O6 0.675266 0.676364 0.777509
O O7 0.659832 0.706162 0.045706
O O8 0.500000 0.050602 0.750000
O O9 0.789205 0.507760 0.600709
O O10 0.000000 0.605246 0.750000
O O11 0.500000 0.585503 0.250000
O O12 0.500000 0.500000 0.500000
#
# Coordination Sequence:
#
# PCOD8118225 Si02
#       5
#     4   4   4   4   4
#     4  10  19  37  59  88 117 153 200 249 293 349
#     4  10  20  37  59  84 119 149 198 238 296 344
#     4   9  18  32  58  89 118 145 191 252 293 335
#     4  11  23  40  59  82 122 165 192 239 307 355
#     4  12  22  40  64  91 115 151 201 247 294 352
#
# _framework density 24.636018
#
# number of rings (size 3 to 8) (size 9 to 14) (size 15 to 20)
#    0.000    1.600    4.000    4.200    0.000    3.200 
#    0.000    4.000    0.000    1.200    0.000    0.000 
#    0.000    0.000    0.000    0.000    0.000    0.000 
#
# Total GULP energy -247766.036251 kJ/mol
# GULP energy per Si atom -12388.301813 kJ/mol
# Density = 2.457995 g / cm^3
# Si number density = 24.636018 Si / 1000 Ang^3
#
#
#
# Elastic Constant Matrix: (Units=GPa)
#
#
# Indices 1 2 3 4 5 6 
#
# 1 44.4989 19.1366 20.9610 0.0000 32.5769 0.0000
# 2 19.1366 55.1630 46.0738 0.0000 25.0382 0.0000
# 3 20.9610 46.0738 147.4541 0.0000 32.0611 0.0000
# 4 0.0000 0.0000 0.0000 61.8547 0.0000 17.5058
# 5 32.5769 25.0382 32.0611 0.0000 36.2806 0.0000
# 6 0.0000 0.0000 0.0000 17.5058 0.0000 18.9508
#
#
#
# Elastic Compliance Matrix: (Units=1/GPa)
#
#
# Indices 1 2 3 4 5 6 
#
# 1 0.068314 0.003661 0.003753 0.000000 -0.067183 0.000000
# 2 0.003661 0.030436 -0.005878 0.000000 -0.019097 0.000000
# 3 0.003753 -0.005878 0.009823 0.000000 -0.007994 0.000000
# 4 0.000000 0.000000 0.000000 0.021890 0.000000 -0.020221
# 5 -0.067183 -0.019097 -0.007994 0.000000 0.108131 0.000000
# 6 0.000000 0.000000 0.000000 -0.020221 0.000000 0.071447
#
#
# Mechanical properties :
#
#
# Convention : Reuss Voigt Hill
#
# Bulk Modulus (GPa) = 8.95709 46.60654 27.78181
# Shear Modulus (GPa) = 14.52712 34.14687 24.33700
#
# Velocity S-wave (km/s) = 2.43095 3.72701 3.14644
# Velocity P-wave (km/s) = 3.39455 6.12209 4.94990
#
# Compressibility (1/GPa) = 0.11164346
#
# Stress axis : x y z
#
# Youngs Moduli (GPa) = 14.63833 32.85603 101.80133
#
# Poissons Ratio (x) = -0.12028 -0.38204
# Poissons Ratio (y) = -0.05359 0.59840
# Poissons Ratio (z) = -0.05493 0.19313
#
# Static dielectric constant tensor:
#      x y z
#    x 3.729730 0.000000 0.092710 
#    y 0.000000 4.929210 0.000000 
#    z 0.092710 0.000000 4.505750 
# 
# 
# High freq. dielectric constant tensor:
#      x y z
#    x 1.925890 0.000000 0.023210 
#    y 0.000000 1.977430 0.000000 
#    z 0.023210 0.000000 1.986880 
# 
# From -- ./inp_files/11782.got.cif
#   From: 2010.06.25/outbox.cif.g09.slc.cpg/sg13_6_cif.got.tgz:11782.got - 2010.06.28 04:50:58.
