data_PCOD8118207
_publ_section_title
;
Structure prediction by ZEFSAII (Michael W. Deem and Ramdas Pophale) SiO2 
 PCOD8118207
Probable space group: P 2/C
;
_chemical_formula_sum "Si O2"
_cell_formula_units_Z 26
_cell_length_a 6.274120
_cell_length_b 13.377267
_cell_length_c 18.848003
_cell_angle_alpha 90.000000
_cell_angle_beta 63.582483
_cell_angle_gamma 90.000000
_cell_volume 1416.732636
_symmetry_space_group_name_H-M "P 2/C"
_symmetry_group_IT_number 13
_symmetry_cell_setting 'monoclinic'
loop_
_space_group_symop_operation_xyz
x,y,z
-x,y,1/2-z
-x,-y,-z
x,-y,1/2+z
loop_
_atom_site_type_symbol
_atom_site_label
_atom_site_fract_x
_atom_site_fract_y
_atom_site_fract_z
Si Si1 0.643337 0.154118 0.870056
Si Si2 0.953765 0.643919 0.482963
Si Si3 0.830236 0.626980 0.338899
Si Si4 0.500000 0.945250 0.250000
Si Si5 0.138682 0.147459 0.993182
Si Si6 0.024776 0.993056 0.381049
Si Si7 0.608513 0.514518 0.059331
O O1 0.782197 0.256065 0.838905
O O2 0.537594 0.127459 0.810002
O O3 0.420125 0.173942 0.956052
O O4 0.816768 0.066464 0.871427
O O5 0.939595 0.615002 0.401536
O O6 0.736369 0.591685 0.559581
O O7 0.962432 0.761434 0.498644
O O8 0.198611 0.601301 0.475804
O O9 0.601738 0.554831 0.358854
O O10 0.000000 0.593208 0.250000
O O11 0.740824 0.010504 0.202828
O O12 0.106496 0.065118 0.938191
O O13 0.068260 0.102044 0.080428
O O14 0.500000 0.500000 0.000000
#
# Coordination Sequence:
#
# PCOD8118207 Si02
#       7
#     4   4   4   2   4   4   4
#     4  11  20  33  51  81 117 146 180 231 281 332
#     4  10  19  37  56  80 109 143 186 225 270 328
#     4  11  21  31  55  85 116 145 175 218 289 341
#     4  10  22  34  52  76 114 150 184 222 282 326
#     4  10  20  33  56  81 105 148 190 221 272 329
#     4  10  20  35  51  79 112 145 185 230 268 328
#     4   9  20  36  54  77 108 144 180 225 274 323
#
# _framework density 18.352087000000001
#
# number of rings (size 3 to 8) (size 9 to 14) (size 15 to 20)
#    0.000    1.846    3.077    1.846    2.154    0.615 
#    0.000    0.000    0.000    5.538    0.000    0.000 
#    0.000    0.000    0.000    0.000    0.000    0.000 
#
# Total GULP energy -322145.424292 kJ/mol
# GULP energy per Si atom -12390.208627 kJ/mol
# Density = 1.831032 g / cm^3
# Si number density = 18.352087 Si / 1000 Ang^3
#
#
#
# Elastic Constant Matrix: (Units=GPa)
#
#
# Indices 1 2 3 4 5 6 
#
# 1 95.7977 29.8087 43.2947 0.0000 -17.4959 0.0000
# 2 29.8087 74.2626 58.4652 0.0000 -21.8923 0.0000
# 3 43.2947 58.4652 93.6274 0.0000 -23.5783 0.0000
# 4 0.0000 0.0000 0.0000 22.7655 0.0000 -5.5140
# 5 -17.4959 -21.8923 -23.5783 0.0000 31.1609 0.0000
# 6 0.0000 0.0000 0.0000 -5.5140 0.0000 22.7596
#
#
#
# Elastic Compliance Matrix: (Units=1/GPa)
#
#
# Indices 1 2 3 4 5 6 
#
# 1 0.013508 -0.000340 -0.005169 0.000000 0.003434 0.000000
# 2 -0.000340 0.028007 -0.015349 0.000000 0.007871 0.000000
# 3 -0.005169 -0.015349 0.023731 0.000000 0.004271 0.000000
# 4 0.000000 0.000000 0.000000 0.046664 0.000000 0.011305
# 5 0.003434 0.007871 0.004271 0.000000 0.042781 0.000000
# 6 0.000000 0.000000 0.000000 0.011305 0.000000 0.046677
#
#
# Mechanical properties :
#
#
# Convention : Reuss Voigt Hill
#
# Bulk Modulus (GPa) = 42.50114 58.53609 50.51861
# Shear Modulus (GPa) = 19.92617 24.14516 22.03566
#
# Velocity S-wave (km/s) = 3.29868 3.63114 3.46890
# Velocity P-wave (km/s) = 6.14145 7.03887 6.60542
#
# Compressibility (1/GPa) = 0.02352878
#
# Stress axis : x y z
#
# Youngs Moduli (GPa) = 74.03166 35.70585 42.13909
#
# Poissons Ratio (x) = 0.01215 0.21781
# Poissons Ratio (y) = 0.02519 0.64680
# Poissons Ratio (z) = 0.38266 0.54805
#
# Static dielectric constant tensor:
#      x y z
#    x 3.764980 0.000000 -0.382850 
#    y 0.000000 3.514720 0.000000 
#    z -0.382850 0.000000 3.634810 
# 
# 
# High freq. dielectric constant tensor:
#      x y z
#    x 1.730960 0.000000 -0.013260 
#    y 0.000000 1.693560 0.000000 
#    z -0.013260 0.000000 1.690520 
# 
# From -- ./inp_files/61256.got.cif
#   From: 2010.06.25/outbox.cif.g09.slc.cpg/sg13_31_cif.got.tgz:61256.got - 2010.06.28 04:50:58.
