data_PCOD8118433
_publ_section_title
;
Structure prediction by ZEFSAII (Michael W. Deem and Ramdas Pophale) SiO2 
 PCOD8118433
Probable space group: P 2/C
;
_chemical_formula_sum "Si O2"
_cell_formula_units_Z 28
_cell_length_a 11.449298
_cell_length_b 8.338601
_cell_length_c 14.295724
_cell_angle_alpha 90.000000
_cell_angle_beta 74.050320
_cell_angle_gamma 90.000000
_cell_volume 1312.287625
_symmetry_space_group_name_H-M "P 2/C"
_symmetry_group_IT_number 13
_symmetry_cell_setting 'monoclinic'
loop_
_space_group_symop_operation_xyz
x,y,z
-x,y,1/2-z
-x,-y,-z
x,-y,1/2+z
loop_
_atom_site_type_symbol
_atom_site_label
_atom_site_fract_x
_atom_site_fract_y
_atom_site_fract_z
Si Si1 0.694180 0.798855 0.726837
Si Si2 0.000000 0.017354 0.750000
Si Si3 0.189960 0.888327 0.349668
Si Si4 0.500000 0.554949 0.750000
Si Si5 0.854417 0.159780 0.438454
Si Si6 0.671809 0.321549 0.804501
Si Si7 0.621438 0.001815 0.415449
Si Si8 0.862123 0.423204 0.304879
O O1 0.609036 0.672092 0.689759
O O2 0.811445 0.708289 0.742543
O O3 0.746173 0.938502 0.649070
O O4 0.614358 0.881217 0.826997
O O5 0.890793 0.118874 0.728331
O O6 0.955707 0.912919 0.847738
O O7 0.110912 0.847506 0.459117
O O8 0.291876 0.752550 0.305759
O O9 0.556465 0.441603 0.818383
O O10 0.846379 0.346713 0.411883
O O11 0.728739 0.063823 0.458124
O O12 0.640493 0.181510 0.882456
O O13 0.785339 0.415708 0.822198
O O14 0.500000 0.000000 0.500000
O O15 0.000000 0.466545 0.250000
#
# Coordination Sequence:
#
# PCOD8118433 Si02
#       8
#     4   2   4   2   4   4   4   4
#     4   9  20  40  61  90 129 175 215 276 327 382
#     4  12  20  44  66  94 138 164 224 290 318 390
#     4  11  23  39  69  98 125 173 232 270 330 394
#     4  10  22  38  62  92 130 176 216 254 346 402
#     4  11  22  40  67  97 126 179 223 267 336 397
#     4  10  23  41  62  96 134 177 211 283 331 386
#     4  10  22  40  64  92 128 174 223 273 326 382
#     4  10  19  40  65  87 137 179 203 272 348 389
#
# _framework density 21.336787999999999
#
# number of rings (size 3 to 8) (size 9 to 14) (size 15 to 20)
#    0.000    1.714    5.000    0.429    5.000    1.143 
#    2.571    2.857    0.000    0.000    0.000    0.000 
#    0.000    0.000    0.000    0.000    0.000    0.000 
#
# Total GULP energy -347030.730149 kJ/mol
# GULP energy per Si atom -12393.954648 kJ/mol
# Density = 2.128822 g / cm^3
# Si number density = 21.336788 Si / 1000 Ang^3
#
#
#
# Elastic Constant Matrix: (Units=GPa)
#
#
# Indices 1 2 3 4 5 6 
#
# 1 109.0175 54.8434 30.7674 0.0000 -15.1309 0.0000
# 2 54.8434 137.2925 42.5485 0.0000 -3.5321 0.0000
# 3 30.7674 42.5485 127.8076 0.0000 -10.0869 0.0000
# 4 0.0000 0.0000 0.0000 12.8318 0.0000 -0.1403
# 5 -15.1309 -3.5321 -10.0869 0.0000 30.8447 0.0000
# 6 0.0000 0.0000 0.0000 -0.1403 0.0000 27.8252
#
#
#
# Elastic Compliance Matrix: (Units=1/GPa)
#
#
# Indices 1 2 3 4 5 6 
#
# 1 0.012478 -0.004513 -0.001087 0.000000 0.005249 0.000000
# 2 -0.004513 0.009754 -0.002307 0.000000 -0.001851 0.000000
# 3 -0.001087 -0.002307 0.009024 0.000000 0.002153 0.000000
# 4 0.000000 0.000000 0.000000 0.077936 0.000000 0.000393
# 5 0.005249 -0.001851 0.002153 0.000000 0.035488 0.000000
# 6 0.000000 0.000000 0.000000 0.000393 0.000000 0.035941
#
#
# Mechanical properties :
#
#
# Convention : Reuss Voigt Hill
#
# Bulk Modulus (GPa) = 64.75737 70.04848 67.40292
# Shear Modulus (GPa) = 24.80389 30.69756 27.75073
#
# Velocity S-wave (km/s) = 3.41324 3.79715 3.61030
# Velocity P-wave (km/s) = 6.77861 7.21981 7.00269
#
# Compressibility (1/GPa) = 0.01544226
#
# Stress axis : x y z
#
# Youngs Moduli (GPa) = 80.13830 102.52563 110.81608
#
# Poissons Ratio (x) = 0.46266 0.12050
# Poissons Ratio (y) = 0.36164 0.25564
# Poissons Ratio (z) = 0.08714 0.23651
#
# Static dielectric constant tensor:
#      x y z
#    x 4.034600 0.000000 0.005540 
#    y 0.000000 4.045580 0.000000 
#    z 0.005540 0.000000 3.529040 
# 
# 
# High freq. dielectric constant tensor:
#      x y z
#    x 1.843790 0.000000 -0.011060 
#    y 0.000000 1.847530 0.000000 
#    z -0.011060 0.000000 1.802160 
# 
# From -- ./inp_files/50012.got.cif
#   From: 2010.06.25/outbox.cif.g09.slc.cpg/sg13_26_cif.got.tgz:50012.got - 2010.06.28 04:50:58.
