data_PCOD8118951
_publ_section_title
;
Structure prediction by ZEFSAII (Michael W. Deem and Ramdas Pophale) SiO2 
 PCOD8118951
Probable space group: P 2/C
;
_chemical_formula_sum "Si O2"
_cell_formula_units_Z 20
_cell_length_a 13.547780
_cell_length_b 6.238717
_cell_length_c 22.555160
_cell_angle_alpha 90.000000
_cell_angle_beta 150.743773
_cell_angle_gamma 90.000000
_cell_volume 931.678228
_symmetry_space_group_name_H-M "P 2/C"
_symmetry_group_IT_number 13
_symmetry_cell_setting 'monoclinic'
loop_
_space_group_symop_operation_xyz
x,y,z
-x,y,1/2-z
-x,-y,-z
x,-y,1/2+z
loop_
_atom_site_type_symbol
_atom_site_label
_atom_site_fract_x
_atom_site_fract_y
_atom_site_fract_z
Si Si1 0.568924 0.188950 0.683084
Si Si2 0.809391 0.566651 0.863426
Si Si3 0.391729 0.479995 0.005432
Si Si4 0.744047 0.193840 0.217249
Si Si5 0.000000 0.389120 0.250000
Si Si6 0.500000 0.112771 0.250000
O O1 0.683678 0.353371 0.785428
O O2 0.415302 0.309358 0.558822
O O3 0.728167 0.057464 0.724871
O O4 0.453910 0.028168 0.667273
O O5 0.870073 0.676906 0.832993
O O6 0.693237 0.737843 0.842786
O O7 0.000000 0.500000 0.000000
O O8 0.508469 0.279221 0.096302
O O9 0.500000 0.500000 0.000000
O O10 0.149869 0.457309 0.867144
O O11 0.859123 0.232718 0.215786
#
# Coordination Sequence:
#
# PCOD8118951 Si02
#       6
#     4   4   4   4   2   2
#     4  10  21  39  59  85 123 156 196 246 294 355
#     4  10  22  39  61  90 123 156 198 248 297 352
#     4   9  20  39  58  82 118 152 194 249 294 344
#     4   9  21  38  57  85 120 158 196 244 297 348
#     4  10  20  36  60  84 114 158 202 242 298 356
#     4  10  22  38  62  88 118 162 196 242 304 352
#
# _framework density 21.466640000000002
#
# number of rings (size 3 to 8) (size 9 to 14) (size 15 to 20)
#    0.000    2.400    0.000    0.600    0.000   14.400 
#    0.000   14.000    0.000    0.000    0.000    0.000 
#    0.000    0.000    0.000    0.000    0.000    0.000 
#
# Total GULP energy -247844.279522 kJ/mol
# GULP energy per Si atom -12392.213976 kJ/mol
# Density = 2.141778 g / cm^3
# Si number density = 21.466640 Si / 1000 Ang^3
#
#
#
# Elastic Constant Matrix: (Units=GPa)
#
#
# Indices 1 2 3 4 5 6 
#
# 1 110.7507 45.4867 39.0071 0.0000 -3.1893 0.0000
# 2 45.4867 109.9075 50.9044 0.0000 -4.5591 0.0000
# 3 39.0071 50.9044 169.4202 0.0000 -9.0359 0.0000
# 4 0.0000 0.0000 0.0000 8.7545 0.0000 -2.6526
# 5 -3.1893 -4.5591 -9.0359 0.0000 27.7214 0.0000
# 6 0.0000 0.0000 0.0000 -2.6526 0.0000 24.4974
#
#
#
# Elastic Compliance Matrix: (Units=1/GPa)
#
#
# Indices 1 2 3 4 5 6 
#
# 1 0.011147 -0.003975 -0.001362 0.000000 0.000185 0.000000
# 2 -0.003975 0.012001 -0.002656 0.000000 0.000651 0.000000
# 3 -0.001362 -0.002656 0.007106 0.000000 0.001723 0.000000
# 4 0.000000 0.000000 0.000000 0.118102 0.000000 0.012788
# 5 0.000185 0.000651 0.001723 0.000000 0.036763 0.000000
# 6 0.000000 0.000000 0.000000 0.012788 0.000000 0.042205
#
#
# Mechanical properties :
#
#
# Convention : Reuss Voigt Hill
#
# Bulk Modulus (GPa) = 70.08842 73.43055 71.75949
# Shear Modulus (GPa) = 20.15600 29.17334 24.66467
#
# Velocity S-wave (km/s) = 3.06755 3.69047 3.39333
# Velocity P-wave (km/s) = 6.72809 7.24158 6.98956
#
# Compressibility (1/GPa) = 0.01426769
#
# Stress axis : x y z
#
# Youngs Moduli (GPa) = 89.71130 83.32913 140.72545
#
# Poissons Ratio (x) = 0.33120 0.19172
# Poissons Ratio (y) = 0.35657 0.37376
# Poissons Ratio (z) = 0.12222 0.22132
#
# Static dielectric constant tensor:
#      x y z
#    x 3.870210 0.000000 -0.367300 
#    y 0.000000 4.049220 0.000000 
#    z -0.367300 0.000000 4.266620 
# 
# 
# High freq. dielectric constant tensor:
#      x y z
#    x 1.845120 0.000000 -0.025790 
#    y 0.000000 1.836870 0.000000 
#    z -0.025790 0.000000 1.835390 
# 
# From -- ./inp_files/39764.got.cif
#   From: 2010.06.25/outbox.cif.g09.slc.cpg/sg13_20_cif.got.tgz:39764.got - 2010.06.28 04:50:58.
