data_PCOD8118626
_publ_section_title
;
Structure prediction by ZEFSAII (Michael W. Deem and Ramdas Pophale) SiO2 
 PCOD8118626
Probable space group: P 2/C
;
_chemical_formula_sum "Si O2"
_cell_formula_units_Z 28
_cell_length_a 24.396572
_cell_length_b 9.608943
_cell_length_c 20.945124
_cell_angle_alpha 90.000000
_cell_angle_beta 17.026002
_cell_angle_gamma 90.000000
_cell_volume 1437.695242
_symmetry_space_group_name_H-M "P 2/C"
_symmetry_group_IT_number 13
_symmetry_cell_setting 'monoclinic'
loop_
_space_group_symop_operation_xyz
x,y,z
-x,y,1/2-z
-x,-y,-z
x,-y,1/2+z
loop_
_atom_site_type_symbol
_atom_site_label
_atom_site_fract_x
_atom_site_fract_y
_atom_site_fract_z
Si Si1 0.283433 0.168867 0.922594
Si Si2 0.000000 0.957704 0.250000
Si Si3 0.702617 0.118637 0.444547
Si Si4 0.815516 0.822464 0.340914
Si Si5 0.500000 0.648793 0.750000
Si Si6 0.653097 0.528840 0.187716
Si Si7 0.076206 0.587046 0.007400
Si Si8 0.762741 0.608677 0.809677
O O1 0.481781 0.111057 0.680011
O O2 0.248376 0.323567 0.935611
O O3 0.133963 0.060761 0.059124
O O4 0.255941 0.167276 0.029614
O O5 0.121748 0.857152 0.157611
O O6 0.787103 0.229995 0.301293
O O7 0.784459 0.966298 0.336978
O O8 0.620199 0.740396 0.566281
O O9 0.976268 0.736013 0.126545
O O10 0.359196 0.553636 0.865406
O O11 0.783790 0.443963 0.090440
O O12 0.444178 0.550284 0.447049
O O13 0.200380 0.589138 0.805865
O O14 0.913115 0.473015 0.184966
#
# Coordination Sequence:
#
# PCOD8118626 Si02
#       8
#     4   2   4   4   2   4   4   4
#     4   9  19  33  59  89 111 157 191 244 301 359
#     4  10  20  34  54  88 124 146 200 236 300 374
#     4   9  19  38  59  79 122 155 194 240 304 351
#     4  11  22  36  57  90 120 159 187 250 302 358
#     4  12  22  38  60  92 128 152 190 248 318 356
#     4  11  22  38  64  90 123 153 199 252 302 352
#     4  11  24  38  64  87 119 163 205 244 296 344
#     4  10  22  44  59  86 120 162 209 246 283 354
#
# _framework density 19.475615999999999
#
# number of rings (size 3 to 8) (size 9 to 14) (size 15 to 20)
#    0.000    1.714    1.429    4.714    4.000    0.571 
#    0.000    0.000    0.000    2.571    0.000    0.000 
#    0.000    0.000    0.000    0.000    0.000    0.000 
#
# Total GULP energy -347191.866141 kJ/mol
# GULP energy per Si atom -12399.709505 kJ/mol
# Density = 1.943129 g / cm^3
# Si number density = 19.475616 Si / 1000 Ang^3
#
#
#
# Elastic Constant Matrix: (Units=GPa)
#
#
# Indices 1 2 3 4 5 6 
#
# 1 69.2173 35.6989 18.1555 0.0000 -13.2426 0.0000
# 2 35.6989 118.7906 42.9256 0.0000 -5.0993 0.0000
# 3 18.1555 42.9256 76.7448 0.0000 -2.9040 0.0000
# 4 0.0000 0.0000 0.0000 28.8923 0.0000 2.9413
# 5 -13.2426 -5.0993 -2.9040 0.0000 22.6512 0.0000
# 6 0.0000 0.0000 0.0000 2.9413 0.0000 17.3038
#
#
#
# Elastic Compliance Matrix: (Units=1/GPa)
#
#
# Indices 1 2 3 4 5 6 
#
# 1 0.019225 -0.004816 -0.001477 0.000000 0.009966 0.000000
# 2 -0.004816 0.011817 -0.005503 0.000000 -0.000861 0.000000
# 3 -0.001477 -0.005503 0.016458 0.000000 0.000007 0.000000
# 4 0.000000 0.000000 0.000000 0.035221 0.000000 -0.005987
# 5 0.009966 -0.000861 0.000007 0.000000 0.049782 0.000000
# 6 0.000000 0.000000 0.000000 -0.005987 0.000000 0.058808
#
#
# Mechanical properties :
#
#
# Convention : Reuss Voigt Hill
#
# Bulk Modulus (GPa) = 41.82707 50.92363 46.37535
# Shear Modulus (GPa) = 22.43436 24.96763 23.70099
#
# Velocity S-wave (km/s) = 3.39768 3.58438 3.49228
# Velocity P-wave (km/s) = 6.07582 6.58290 6.33443
#
# Compressibility (1/GPa) = 0.02390796
#
# Stress axis : x y z
#
# Youngs Moduli (GPa) = 52.01478 84.62394 60.76119
#
# Poissons Ratio (x) = 0.40754 0.08976
# Poissons Ratio (y) = 0.25050 0.33436
# Poissons Ratio (z) = 0.07684 0.46567
#
# Static dielectric constant tensor:
#      x y z
#    x 3.300970 0.000000 -0.181240 
#    y 0.000000 3.833410 0.000000 
#    z -0.181240 0.000000 3.637350 
# 
# 
# High freq. dielectric constant tensor:
#      x y z
#    x 1.731490 0.000000 -0.017670 
#    y 0.000000 1.773200 0.000000 
#    z -0.017670 0.000000 1.764540 
# 
# From -- ./inp_files/82195.got.cif
#   From: 2010.06.25/outbox.cif.g09.slc.cpg/sg13_42_cif.got.tgz:82195.got - 2010.06.28 04:50:58.
