data_PCOD8118868
_publ_section_title
;
Structure prediction by ZEFSAII (Michael W. Deem and Ramdas Pophale) SiO2 
 PCOD8118868
Probable space group: P 2/C
;
_chemical_formula_sum "Si O2"
_cell_formula_units_Z 26
_cell_length_a 11.790265
_cell_length_b 20.533070
_cell_length_c 9.279521
_cell_angle_alpha 90.000000
_cell_angle_beta 37.794878
_cell_angle_gamma 90.000000
_cell_volume 1376.726196
_symmetry_space_group_name_H-M "P 2/C"
_symmetry_group_IT_number 13
_symmetry_cell_setting 'monoclinic'
loop_
_space_group_symop_operation_xyz
x,y,z
-x,y,1/2-z
-x,-y,-z
x,-y,1/2+z
loop_
_atom_site_type_symbol
_atom_site_label
_atom_site_fract_x
_atom_site_fract_y
_atom_site_fract_z
Si Si1 0.469980 0.756590 0.447349
Si Si2 0.518651 0.434636 0.394406
Si Si3 0.229867 0.027533 0.765374
Si Si4 0.429908 0.906281 0.480512
Si Si5 0.808148 0.330592 0.112735
Si Si6 0.000000 0.992264 0.250000
Si Si7 0.239025 0.320124 0.672793
O O1 0.500000 0.741020 0.250000
O O2 0.404817 0.830550 0.536284
O O3 0.292702 0.716628 0.675581
O O4 0.658722 0.739661 0.347005
O O5 0.500000 0.456371 0.250000
O O6 0.500000 0.500000 0.500000
O O7 0.720838 0.402674 0.220228
O O8 0.354858 0.384327 0.599227
O O9 0.415573 0.067744 0.563923
O O10 0.099432 0.054243 0.767774
O O11 0.251754 0.949968 0.700829
O O12 0.142049 0.036568 0.012753
O O13 0.500000 0.920332 0.250000
O O14 0.759268 0.306640 0.999960
O O15 0.025506 0.330259 0.933806
#
# Coordination Sequence:
#
# PCOD8118868 Si02
#       7
#     4   4   4   4   4   2   4
#     4  10  21  37  55  80 109 143 180 224 276 325
#     4   9  18  32  54  82 113 144 177 219 267 315
#     4  10  20  38  56  76 110 136 174 220 276 322
#     4  10  20  38  55  75 104 147 171 215 275 332
#     4   9  19  39  58  77 109 148 184 223 266 314
#     4  10  20  36  56  82 104 136 172 222 270 324
#     4   9  19  39  58  77 109 148 184 223 266 314
#
# _framework density 18.885382
#
# number of rings (size 3 to 8) (size 9 to 14) (size 15 to 20)
#    0.000    2.462    1.538    1.385    0.000    3.692 
#   11.077    0.000    0.000    0.000    0.000    0.000 
#    0.000    0.000    0.000    0.000    0.000    0.000 
#
# Total GULP energy -322151.193268 kJ/mol
# GULP energy per Si atom -12390.430510 kJ/mol
# Density = 1.884240 g / cm^3
# Si number density = 18.885382 Si / 1000 Ang^3
#
#
#
# Elastic Constant Matrix: (Units=GPa)
#
#
# Indices 1 2 3 4 5 6 
#
# 1 78.6937 27.2703 37.3882 0.0000 -3.7345 0.0000
# 2 27.2703 91.7151 49.0963 0.0000 9.9689 0.0000
# 3 37.3882 49.0963 110.8737 0.0000 -0.9656 0.0000
# 4 0.0000 0.0000 0.0000 20.3841 0.0000 6.7416
# 5 -3.7345 9.9689 -0.9656 0.0000 35.0312 0.0000
# 6 0.0000 0.0000 0.0000 6.7416 0.0000 17.4871
#
#
#
# Elastic Compliance Matrix: (Units=1/GPa)
#
#
# Indices 1 2 3 4 5 6 
#
# 1 0.015699 -0.002752 -0.004055 0.000000 0.002345 0.000000
# 2 -0.002752 0.015433 -0.005948 0.000000 -0.004849 0.000000
# 3 -0.004055 -0.005948 0.013035 0.000000 0.001620 0.000000
# 4 0.000000 0.000000 0.000000 0.056227 0.000000 -0.021677
# 5 0.002345 -0.004849 0.001620 0.000000 0.030221 0.000000
# 6 0.000000 0.000000 0.000000 -0.021677 0.000000 0.065542
#
#
# Mechanical properties :
#
#
# Convention : Reuss Voigt Hill
#
# Bulk Modulus (GPa) = 53.60101 56.53246 55.06674
# Shear Modulus (GPa) = 21.94099 25.74900 23.84500
#
# Velocity S-wave (km/s) = 3.41221 3.69648 3.55719
# Velocity P-wave (km/s) = 6.63085 6.94393 6.78919
#
# Compressibility (1/GPa) = 0.01865637
#
# Stress axis : x y z
#
# Youngs Moduli (GPa) = 63.69834 64.79731 76.71927
#
# Poissons Ratio (x) = 0.17834 0.31108
# Poissons Ratio (y) = 0.17531 0.45632
# Poissons Ratio (z) = 0.25828 0.38541
#
# Static dielectric constant tensor:
#      x y z
#    x 3.806840 0.000000 -0.155640 
#    y 0.000000 3.210290 0.000000 
#    z -0.155640 0.000000 3.601590 
# 
# 
# High freq. dielectric constant tensor:
#      x y z
#    x 1.746890 0.000000 -0.002840 
#    y 0.000000 1.703250 0.000000 
#    z -0.002840 0.000000 1.740750 
# 
# From -- ./inp_files/17252.got.cif
#   From: 2010.06.25/outbox.cif.g09.slc.cpg/sg13_9_cif.got.tgz:17252.got - 2010.06.28 04:50:58.
