data_PCOD8118773
_publ_section_title
;
Structure prediction by ZEFSAII (Michael W. Deem and Ramdas Pophale) SiO2 
 PCOD8118773
Probable space group: P 2/C
;
_chemical_formula_sum "Si O2"
_cell_formula_units_Z 28
_cell_length_a 6.427671
_cell_length_b 16.438668
_cell_length_c 14.061812
_cell_angle_alpha 90.000000
_cell_angle_beta 115.701031
_cell_angle_gamma 90.000000
_cell_volume 1338.812334
_symmetry_space_group_name_H-M "P 2/C"
_symmetry_group_IT_number 13
_symmetry_cell_setting 'monoclinic'
loop_
_space_group_symop_operation_xyz
x,y,z
-x,y,1/2-z
-x,-y,-z
x,-y,1/2+z
loop_
_atom_site_type_symbol
_atom_site_label
_atom_site_fract_x
_atom_site_fract_y
_atom_site_fract_z
Si Si1 0.723943 0.649502 0.354305
Si Si2 0.184597 0.223003 0.366773
Si Si3 0.381589 0.388911 0.448598
Si Si4 0.867734 0.459343 0.560038
Si Si5 0.393859 0.041802 0.625610
Si Si6 0.067379 0.189833 0.552452
Si Si7 0.389217 0.114013 0.010599
O O1 0.500000 0.629101 0.250000
O O2 0.659697 0.627459 0.448770
O O3 0.790717 0.744548 0.357900
O O4 0.940314 0.598671 0.353683
O O5 0.296584 0.311956 0.370329
O O6 0.056679 0.220636 0.442161
O O7 0.377569 0.153428 0.403131
O O8 0.000000 0.202280 0.250000
O O9 0.651885 0.404572 0.480773
O O10 0.232913 0.469731 0.390611
O O11 0.000000 0.500000 0.500000
O O12 0.500000 0.029585 0.750000
O O13 0.177653 0.101586 0.588697
O O14 0.581755 0.077791 0.589383
O O15 0.308569 0.954927 0.569028
O O16 0.804539 0.183635 0.536104
#
# Coordination Sequence:
#
# PCOD8118773 Si02
#       7
#     4   4   4   4   4   4   4
#     4  10  20  35  58  86 114 152 196 241 299 361
#     4  10  22  38  58  88 117 157 205 250 301 365
#     4   9  19  38  56  81 121 149 195 249 293 354
#     4   9  18  36  58  80 114 157 190 241 301 350
#     4  10  22  39  59  91 121 154 204 251 304 365
#     4  10  21  39  60  83 123 155 199 251 300 366
#     4  10  22  40  60  87 120 161 202 249 306 361
#
# _framework density 20.914059000000002
#
# number of rings (size 3 to 8) (size 9 to 14) (size 15 to 20)
#    0.000    2.286    0.000    1.714    2.000    1.143 
#    7.714    1.429    0.000    0.000    0.000    0.000 
#    0.000    0.000    0.000    0.000    0.000    0.000 
#
# Total GULP energy -347154.517447 kJ/mol
# GULP energy per Si atom -12398.375623 kJ/mol
# Density = 2.086646 g / cm^3
# Si number density = 20.914059 Si / 1000 Ang^3
#
#
#
# Elastic Constant Matrix: (Units=GPa)
#
#
# Indices 1 2 3 4 5 6 
#
# 1 104.9038 40.6454 36.4261 0.0000 28.8790 0.0000
# 2 40.6454 113.7629 30.5854 0.0000 13.6581 0.0000
# 3 36.4261 30.5854 93.3514 0.0000 13.4387 0.0000
# 4 0.0000 0.0000 0.0000 19.9505 0.0000 11.8197
# 5 28.8790 13.6581 13.4387 0.0000 27.3596 0.0000
# 6 0.0000 0.0000 0.0000 11.8197 0.0000 33.7691
#
#
#
# Elastic Compliance Matrix: (Units=1/GPa)
#
#
# Indices 1 2 3 4 5 6 
#
# 1 0.015458 -0.003097 -0.003111 0.000000 -0.013243 0.000000
# 2 -0.003097 0.010583 -0.002119 0.000000 -0.000974 0.000000
# 3 -0.003111 -0.002119 0.012908 0.000000 -0.001999 0.000000
# 4 0.000000 0.000000 0.000000 0.063238 0.000000 -0.022134
# 5 -0.013243 -0.000974 -0.001999 0.000000 0.051996 0.000000
# 6 0.000000 0.000000 0.000000 -0.022134 0.000000 0.037360
#
#
# Mechanical properties :
#
#
# Convention : Reuss Voigt Hill
#
# Bulk Modulus (GPa) = 44.85004 58.59241 51.72123
# Shear Modulus (GPa) = 23.18800 29.83990 26.51395
#
# Velocity S-wave (km/s) = 3.33337 3.78138 3.56442
# Velocity P-wave (km/s) = 6.02550 6.86598 6.45943
#
# Compressibility (1/GPa) = 0.02229652
#
# Stress axis : x y z
#
# Youngs Moduli (GPa) = 64.69081 94.48952 77.47085
#
# Poissons Ratio (x) = 0.29260 0.24100
# Poissons Ratio (y) = 0.20033 0.16416
# Poissons Ratio (z) = 0.20124 0.20022
#
# Static dielectric constant tensor:
#      x y z
#    x 3.862340 0.000000 0.134630 
#    y 0.000000 4.193160 0.000000 
#    z 0.134630 0.000000 3.386380 
# 
# 
# High freq. dielectric constant tensor:
#      x y z
#    x 1.823030 0.000000 0.014780 
#    y 0.000000 1.838860 0.000000 
#    z 0.014780 0.000000 1.786730 
# 
# From -- ./inp_files/44528.got.cif
#   From: 2010.06.25/outbox.cif.g09.slc.cpg/sg13_23_cif.got.tgz:44528.got - 2010.06.28 04:50:58.
