data_PCOD8118196
_publ_section_title
;
Structure prediction by ZEFSAII (Michael W. Deem and Ramdas Pophale) SiO2 
 PCOD8118196
Probable space group: P 2/C
;
_chemical_formula_sum "Si O2"
_cell_formula_units_Z 30
_cell_length_a 9.762194
_cell_length_b 10.421097
_cell_length_c 13.937050
_cell_angle_alpha 90.000000
_cell_angle_beta 96.784782
_cell_angle_gamma 90.000000
_cell_volume 1407.925363
_symmetry_space_group_name_H-M "P 2/C"
_symmetry_group_IT_number 13
_symmetry_cell_setting 'monoclinic'
loop_
_space_group_symop_operation_xyz
x,y,z
-x,y,1/2-z
-x,-y,-z
x,-y,1/2+z
loop_
_atom_site_type_symbol
_atom_site_label
_atom_site_fract_x
_atom_site_fract_y
_atom_site_fract_z
Si Si1 0.135089 0.085700 0.811139
Si Si2 0.656459 0.721442 0.247766
Si Si3 0.500000 0.212635 0.250000
Si Si4 0.234044 0.925635 0.665542
Si Si5 0.909417 0.784718 0.006941
Si Si6 0.222206 0.801802 0.058863
Si Si7 0.312867 0.596190 0.437099
Si Si8 0.583984 0.679987 0.560510
O O1 0.274340 0.161539 0.802563
O O2 0.112715 0.090599 0.924014
O O3 0.000000 0.150675 0.750000
O O4 0.159489 0.946097 0.763726
O O5 0.500000 0.761349 0.250000
O O6 0.729363 0.697836 0.356361
O O7 0.670239 0.600859 0.177458
O O8 0.610713 0.121217 0.309744
O O9 0.430930 0.301288 0.326255
O O10 0.147614 0.818228 0.602328
O O11 0.229923 0.057878 0.606106
O O12 0.833217 0.657195 0.041537
O O13 0.071407 0.759033 0.011610
O O14 0.328084 0.796760 0.978033
O O15 0.433192 0.675700 0.500280
O O16 0.327126 0.446104 0.460676
#
# Coordination Sequence:
#
# PCOD8118196 Si02
#       8
#     4   4   2   4   4   4   4   4
#     4  10  21  36  62  94 132 168 214 264 325 397
#     4  10  19  36  63  99 123 165 220 274 318 390
#     4  12  28  44  62 102 142 172 228 278 346 390
#     4  11  25  39  65  98 135 177 209 278 329 404
#     4  11  22  45  66  99 131 181 217 276 331 400
#     4  11  24  40  71  98 132 171 228 268 333 407
#     4  10  23  41  72  92 133 175 223 276 336 385
#     4  11  25  45  65 101 127 179 224 281 330 399
#
# _framework density 21.307946999999999
#
# number of rings (size 3 to 8) (size 9 to 14) (size 15 to 20)
#    0.000    1.333    5.333    0.400    6.533    1.067 
#    0.000    0.000    2.933    0.000    0.000    0.000 
#    0.000    0.000    0.000    0.000    0.000    0.000 
#
# Total GULP energy -371839.909397 kJ/mol
# GULP energy per Si atom -12394.663647 kJ/mol
# Density = 2.125945 g / cm^3
# Si number density = 21.307947 Si / 1000 Ang^3
#
#
#
# Elastic Constant Matrix: (Units=GPa)
#
#
# Indices 1 2 3 4 5 6 
#
# 1 127.8400 30.7878 31.0227 0.0000 17.5495 0.0000
# 2 30.7878 51.4555 14.6623 0.0000 6.2518 0.0000
# 3 31.0227 14.6623 98.8790 0.0000 6.4287 0.0000
# 4 0.0000 0.0000 0.0000 22.4827 0.0000 0.0073
# 5 17.5495 6.2518 6.4287 0.0000 46.0124 0.0000
# 6 0.0000 0.0000 0.0000 0.0073 0.0000 17.8200
#
#
#
# Elastic Compliance Matrix: (Units=1/GPa)
#
#
# Indices 1 2 3 4 5 6 
#
# 1 0.009940 -0.004980 -0.002198 0.000000 -0.002808 0.000000
# 2 -0.004980 0.023044 -0.001791 0.000000 -0.000981 0.000000
# 3 -0.002198 -0.001791 0.011099 0.000000 -0.000469 0.000000
# 4 0.000000 0.000000 0.000000 0.044479 0.000000 -0.000018
# 5 -0.002808 -0.000981 -0.000469 0.000000 0.023003 0.000000
# 6 0.000000 0.000000 0.000000 -0.000018 0.000000 0.056117
#
#
# Mechanical properties :
#
#
# Convention : Reuss Voigt Hill
#
# Bulk Modulus (GPa) = 38.24743 47.90222 43.07483
# Shear Modulus (GPa) = 25.72891 30.70982 28.21936
#
# Velocity S-wave (km/s) = 3.47865 3.80048 3.64312
# Velocity P-wave (km/s) = 5.84153 6.46436 6.16082
#
# Compressibility (1/GPa) = 0.02614555
#
# Stress axis : x y z
#
# Youngs Moduli (GPa) = 100.59918 43.39586 90.09883
#
# Poissons Ratio (x) = 0.21613 0.19801
# Poissons Ratio (y) = 0.50102 0.16134
# Poissons Ratio (z) = 0.22109 0.07771
#
# Static dielectric constant tensor:
#      x y z
#    x 3.959190 0.000000 -0.060890 
#    y 0.000000 3.479170 0.000000 
#    z -0.060890 0.000000 4.318930 
# 
# 
# High freq. dielectric constant tensor:
#      x y z
#    x 1.848290 0.000000 0.001910 
#    y 0.000000 1.790920 0.000000 
#    z 0.001910 0.000000 1.849520 
# 
# From -- ./inp_files/47293.got.cif
#   From: 2010.06.25/outbox.cif.g09.slc.cpg/sg13_24_cif.got.tgz:47293.got - 2010.06.28 04:50:58.
