data_PCOD8118674
_publ_section_title
;
Structure prediction by ZEFSAII (Michael W. Deem and Ramdas Pophale) SiO2 
 PCOD8118674
Probable space group: P 2/C
;
_chemical_formula_sum "Si O2"
_cell_formula_units_Z 28
_cell_length_a 11.185855
_cell_length_b 9.436706
_cell_length_c 13.288481
_cell_angle_alpha 90.000000
_cell_angle_beta 71.417907
_cell_angle_gamma 90.000000
_cell_volume 1329.574982
_symmetry_space_group_name_H-M "P 2/C"
_symmetry_group_IT_number 13
_symmetry_cell_setting 'monoclinic'
loop_
_space_group_symop_operation_xyz
x,y,z
-x,y,1/2-z
-x,-y,-z
x,-y,1/2+z
loop_
_atom_site_type_symbol
_atom_site_label
_atom_site_fract_x
_atom_site_fract_y
_atom_site_fract_z
Si Si1 0.842011 0.134106 0.114160
Si Si2 0.764981 0.119874 0.341184
Si Si3 0.597683 0.121771 0.805019
Si Si4 0.462447 0.724690 0.502440
Si Si5 0.114329 0.158595 0.983824
Si Si6 0.614774 0.669784 0.645258
Si Si7 0.313083 0.633301 0.359716
O O1 0.852493 0.182714 0.228420
O O2 0.713085 0.201027 0.105929
O O3 0.964852 0.188699 0.020277
O O4 0.838761 0.962502 0.105296
O O5 0.650617 0.223969 0.396169
O O6 0.849759 0.095873 0.416133
O O7 0.714005 0.978054 0.300581
O O8 0.500000 0.052355 0.750000
O O9 0.644033 0.272958 0.746870
O O10 0.528280 0.141578 0.930532
O O11 0.560469 0.642160 0.547431
O O12 0.414341 0.630267 0.422893
O O13 0.181056 0.306487 0.937969
O O14 0.500000 0.710976 0.750000
O O15 0.691277 0.532672 0.668137
#
# Coordination Sequence:
#
# PCOD8118674 Si02
#       7
#     4   4   4   4   4   4   4
#     4  11  23  40  64  89 120 152 205 252 287 357
#     4  11  20  36  61  90 118 153 196 251 293 352
#     4  10  20  34  58  90 123 154 191 243 302 356
#     4  10  21  35  57  90 124 155 193 242 302 355
#     4  10  23  43  62  87 115 164 203 242 302 339
#     4  12  23  38  60  93 124 158 194 244 303 354
#     4  10  22  40  60  86 123 160 197 240 294 361
#
# _framework density 21.059362
#
# number of rings (size 3 to 8) (size 9 to 14) (size 15 to 20)
#    0.000    1.429    2.857    3.429    2.000    0.571 
#    0.000    0.000    0.000    0.000    0.000    0.000 
#    0.000    0.000    0.000    0.000    0.000    0.000 
#
# Total GULP energy -346973.796765 kJ/mol
# GULP energy per Si atom -12391.921313 kJ/mol
# Density = 2.101143 g / cm^3
# Si number density = 21.059362 Si / 1000 Ang^3
#
#
#
# Elastic Constant Matrix: (Units=GPa)
#
#
# Indices 1 2 3 4 5 6 
#
# 1 77.4736 29.0651 21.4466 0.0000 -15.0883 0.0000
# 2 29.0651 70.1281 24.2327 0.0000 -23.5531 0.0000
# 3 21.4466 24.2327 85.8265 0.0000 -9.2441 0.0000
# 4 0.0000 0.0000 0.0000 15.3509 0.0000 -3.9476
# 5 -15.0883 -23.5531 -9.2441 0.0000 34.3928 0.0000
# 6 0.0000 0.0000 0.0000 -3.9476 0.0000 23.8216
#
#
#
# Elastic Compliance Matrix: (Units=1/GPa)
#
#
# Indices 1 2 3 4 5 6 
#
# 1 0.015939 -0.004766 -0.002302 0.000000 0.003110 0.000000
# 2 -0.004766 0.021364 -0.003595 0.000000 0.011574 0.000000
# 3 -0.002302 -0.003595 0.013251 0.000000 0.000090 0.000000
# 4 0.000000 0.000000 0.000000 0.068042 0.000000 0.011275
# 5 0.003110 0.011574 0.000090 0.000000 0.038390 0.000000
# 6 0.000000 0.000000 0.000000 0.011275 0.000000 0.043847
#
#
# Mechanical properties :
#
#
# Convention : Reuss Voigt Hill
#
# Bulk Modulus (GPa) = 34.21304 42.54633 38.37969
# Shear Modulus (GPa) = 21.56084 25.29199 23.42642
#
# Velocity S-wave (km/s) = 3.20318 3.46928 3.33888
# Velocity P-wave (km/s) = 5.47373 6.02452 5.75572
#
# Compressibility (1/GPa) = 0.02922862
#
# Stress axis : x y z
#
# Youngs Moduli (GPa) = 62.74106 46.80740 75.46421
#
# Poissons Ratio (x) = 0.22308 0.17373
# Poissons Ratio (y) = 0.29902 0.27126
# Poissons Ratio (z) = 0.14444 0.16825
#
# Static dielectric constant tensor:
#      x y z
#    x 3.716550 0.000000 0.040250 
#    y 0.000000 3.471080 0.000000 
#    z 0.040250 0.000000 4.015210 
# 
# 
# High freq. dielectric constant tensor:
#      x y z
#    x 1.808100 0.000000 -0.003010 
#    y 0.000000 1.798050 0.000000 
#    z -0.003010 0.000000 1.847080 
# 
# From -- ./inp_files/50245.got.cif
#   From: 2010.06.25/outbox.cif.g09.slc.cpg/sg13_26_cif.got.tgz:50245.got - 2010.06.28 04:50:58.
