data_PCOD8118761
_publ_section_title
;
Structure prediction by ZEFSAII (Michael W. Deem and Ramdas Pophale) SiO2 
 PCOD8118761
Probable space group: P 2/C
;
_chemical_formula_sum "Si O2"
_cell_formula_units_Z 26
_cell_length_a 9.367040
_cell_length_b 26.925661
_cell_length_c 5.074417
_cell_angle_alpha 90.000000
_cell_angle_beta 99.336400
_cell_angle_gamma 90.000000
_cell_volume 1262.883507
_symmetry_space_group_name_H-M "P 2/C"
_symmetry_group_IT_number 13
_symmetry_cell_setting 'monoclinic'
loop_
_space_group_symop_operation_xyz
x,y,z
-x,y,1/2-z
-x,-y,-z
x,-y,1/2+z
loop_
_atom_site_type_symbol
_atom_site_label
_atom_site_fract_x
_atom_site_fract_y
_atom_site_fract_z
Si Si1 0.207859 0.033137 0.580633
Si Si2 0.095849 0.277011 0.023876
Si Si3 0.900446 0.613459 0.974411
Si Si4 0.154574 0.825892 0.658325
Si Si5 0.666837 0.468333 0.294693
Si Si6 0.000000 0.896369 0.250000
Si Si7 0.592901 0.882750 0.515572
O O1 0.069464 0.070344 0.534576
O O2 0.353763 0.063404 0.567011
O O3 0.200707 0.988614 0.372929
O O4 0.167133 0.331150 0.994978
O O5 0.205237 0.230028 0.089640
O O6 0.000000 0.284647 0.250000
O O7 0.000000 0.260705 0.750000
O O8 0.763159 0.578590 0.897089
O O9 0.000000 0.610353 0.750000
O O10 0.000000 0.597021 0.250000
O O11 0.273993 0.846194 0.892266
O O12 0.000000 0.820542 0.750000
O O13 0.132318 0.863424 0.405908
O O14 0.500000 0.451379 0.250000
O O15 0.701921 0.511877 0.513682
O O16 0.500000 0.889989 0.750000
O O17 0.500000 0.858847 0.250000
#
# Coordination Sequence:
#
# PCOD8118761 Si02
#       7
#     4   4   4   4   4   2   4
#     4  12  26  43  65  91 125 159 197 248 300 360
#     4   9  19  35  59  92 120 151 194 249 306 357
#     4  10  20  35  57  87 122 154 199 255 303 354
#     4  11  22  41  70  92 121 158 206 248 300 363
#     4  10  21  36  55  81 118 165 209 249 297 354
#     4  12  22  40  68 102 120 150 206 260 296 350
#     4  12  27  45  64  93 128 161 199 247 304 366
#
# _framework density 20.587806
#
# number of rings (size 3 to 8) (size 9 to 14) (size 15 to 20)
#    0.000    1.231    2.308    4.154    0.000    3.692 
#    0.000    0.769    0.000    2.769    0.000    0.000 
#    0.000    0.000    0.000    0.000    0.000    0.000 
#
# Total GULP energy -322310.733268 kJ/mol
# GULP energy per Si atom -12396.566664 kJ/mol
# Density = 2.054095 g / cm^3
# Si number density = 20.587806 Si / 1000 Ang^3
#
#
#
# Elastic Constant Matrix: (Units=GPa)
#
#
# Indices 1 2 3 4 5 6 
#
# 1 91.7403 62.4407 44.6563 0.0000 13.5029 0.0000
# 2 62.4407 138.0229 40.1322 0.0000 24.0116 0.0000
# 3 44.6563 40.1322 131.7300 0.0000 13.3665 0.0000
# 4 0.0000 0.0000 0.0000 27.1677 0.0000 2.1944
# 5 13.5029 24.0116 13.3665 0.0000 39.9826 0.0000
# 6 0.0000 0.0000 0.0000 2.1944 0.0000 2.7447
#
#
#
# Elastic Compliance Matrix: (Units=1/GPa)
#
#
# Indices 1 2 3 4 5 6 
#
# 1 0.017361 -0.006644 -0.003800 0.000000 -0.000603 0.000000
# 2 -0.006644 0.011201 -0.000730 0.000000 -0.004239 0.000000
# 3 -0.003800 -0.000730 0.009241 0.000000 -0.001368 0.000000
# 4 0.000000 0.000000 0.000000 0.039349 0.000000 -0.031459
# 5 -0.000603 -0.004239 -0.001368 0.000000 0.028217 0.000000
# 6 0.000000 0.000000 0.000000 -0.031459 0.000000 0.389483
#
#
# Mechanical properties :
#
#
# Convention : Reuss Voigt Hill
#
# Bulk Modulus (GPa) = 64.70827 72.88353 68.79590
# Shear Modulus (GPa) = 9.57210 28.26327 18.91769
#
# Velocity S-wave (km/s) = 2.15859 3.70917 3.03459
# Velocity P-wave (km/s) = 6.14095 7.33636 6.76511
#
# Compressibility (1/GPa) = 0.01545397
#
# Stress axis : x y z
#
# Youngs Moduli (GPa) = 57.60036 89.28098 108.21814
#
# Poissons Ratio (x) = 0.59321 0.41123
# Poissons Ratio (y) = 0.38271 0.07898
# Poissons Ratio (z) = 0.21888 0.06516
#
# Static dielectric constant tensor:
#      x y z
#    x 3.546260 0.000000 -0.025060 
#    y 0.000000 4.108080 0.000000 
#    z -0.025060 0.000000 3.912910 
# 
# 
# High freq. dielectric constant tensor:
#      x y z
#    x 1.773380 0.000000 -0.006540 
#    y 0.000000 1.809720 0.000000 
#    z -0.006540 0.000000 1.827500 
# 
# From -- ./inp_files/2586.got.cif
#   From: 2010.06.25/outbox.cif.g09.slc.cpg/sg13_2_cif.got.tgz:2586.got - 2010.06.28 04:50:58.
