data_PCOD8118313
_publ_section_title
;
Structure prediction by ZEFSAII (Michael W. Deem and Ramdas Pophale) SiO2 
 PCOD8118313
Probable space group: P 2/C
;
_chemical_formula_sum "Si O2"
_cell_formula_units_Z 28
_cell_length_a 14.424148
_cell_length_b 8.521744
_cell_length_c 18.944768
_cell_angle_alpha 90.000000
_cell_angle_beta 142.955477
_cell_angle_gamma 90.000000
_cell_volume 1402.873323
_symmetry_space_group_name_H-M "P 2/C"
_symmetry_group_IT_number 13
_symmetry_cell_setting 'monoclinic'
loop_
_space_group_symop_operation_xyz
x,y,z
-x,y,1/2-z
-x,-y,-z
x,-y,1/2+z
loop_
_atom_site_type_symbol
_atom_site_label
_atom_site_fract_x
_atom_site_fract_y
_atom_site_fract_z
Si Si1 0.500000 0.444399 0.250000
Si Si2 0.993891 0.274153 0.880225
Si Si3 0.357104 0.746301 0.120922
Si Si4 0.239343 0.251522 0.151637
Si Si5 0.916012 0.627046 0.802627
Si Si6 0.835935 0.918906 0.390512
Si Si7 0.802996 0.781919 0.607960
Si Si8 0.000000 0.063546 0.750000
O O1 0.375660 0.556601 0.134665
O O2 0.403843 0.338319 0.246376
O O3 0.946477 0.443390 0.823881
O O4 0.845824 0.196271 0.829238
O O5 0.033733 0.168473 0.837908
O O6 0.142710 0.279898 0.021240
O O7 0.500000 0.825699 0.250000
O O8 0.204991 0.809471 0.067750
O O9 0.350723 0.792998 0.033863
O O10 0.137630 0.316195 0.153741
O O11 0.279206 0.066934 0.188288
O O12 0.784099 0.664150 0.663160
O O13 0.067733 0.717590 0.868292
O O14 0.000000 0.000000 0.500000
O O15 0.849399 0.952582 0.666322
#
# Coordination Sequence:
#
# PCOD8118313 Si02
#       8
#     2   4   4   4   4   4   4   2
#     4  10  24  36  58  84 128 170 204 232 302 372
#     4  11  20  34  60  90 121 148 204 260 306 349
#     4  10  22  39  62  87 124 160 202 240 310 364
#     4  11  21  37  57  88 121 159 205 244 301 368
#     4  10  20  33  62  88 119 153 204 258 309 344
#     4  10  20  36  63  90 114 154 204 258 299 345
#     4  10  19  38  59  89 122 155 201 258 310 361
#     4  10  20  34  58  94 120 154 194 260 314 348
#
# _framework density 19.959038
#
# number of rings (size 3 to 8) (size 9 to 14) (size 15 to 20)
#    0.429    1.429    0.000    8.143    1.000    0.000 
#    0.000    0.714    3.143    1.714    0.000    0.000 
#    0.000    0.000    0.000    0.000    0.000    0.000 
#
# Total GULP energy -346906.688887 kJ/mol
# GULP energy per Si atom -12389.524603 kJ/mol
# Density = 1.991361 g / cm^3
# Si number density = 19.959038 Si / 1000 Ang^3
#
#
#
# Elastic Constant Matrix: (Units=GPa)
#
#
# Indices 1 2 3 4 5 6 
#
# 1 84.5323 49.0351 29.3796 0.0000 -13.0915 0.0000
# 2 49.0351 134.2844 33.9051 0.0000 -6.3984 0.0000
# 3 29.3796 33.9051 112.8516 0.0000 -25.7818 0.0000
# 4 0.0000 0.0000 0.0000 18.2623 0.0000 -4.5499
# 5 -13.0915 -6.3984 -25.7818 0.0000 28.7759 0.0000
# 6 0.0000 0.0000 0.0000 -4.5499 0.0000 43.0800
#
#
#
# Elastic Compliance Matrix: (Units=1/GPa)
#
#
# Indices 1 2 3 4 5 6 
#
# 1 0.016175 -0.005293 -0.001519 0.000000 0.004820 0.000000
# 2 -0.005293 0.009795 -0.002034 0.000000 -0.002052 0.000000
# 3 -0.001519 -0.002034 0.012079 0.000000 0.009679 0.000000
# 4 0.000000 0.000000 0.000000 0.056238 0.000000 0.005940
# 5 0.004820 -0.002052 0.009679 0.000000 0.045160 0.000000
# 6 0.000000 0.000000 0.000000 0.005940 0.000000 0.023840
#
#
# Mechanical properties :
#
#
# Convention : Reuss Voigt Hill
#
# Bulk Modulus (GPa) = 49.12396 61.81197 55.46797
# Shear Modulus (GPa) = 26.62912 32.64686 29.63799
#
# Velocity S-wave (km/s) = 3.65662 4.04876 3.85767
# Velocity P-wave (km/s) = 6.51871 7.27277 6.90604
#
# Compressibility (1/GPa) = 0.02035667
#
# Stress axis : x y z
#
# Youngs Moduli (GPa) = 61.82461 102.08863 82.78861
#
# Poissons Ratio (x) = 0.54036 0.12579
# Poissons Ratio (y) = 0.32724 0.16837
# Poissons Ratio (z) = 0.09394 0.20763
#
# Static dielectric constant tensor:
#      x y z
#    x 3.547290 0.000000 -0.271140 
#    y 0.000000 4.054080 0.000000 
#    z -0.271140 0.000000 3.726090 
# 
# 
# High freq. dielectric constant tensor:
#      x y z
#    x 1.757200 0.000000 -0.023690 
#    y 0.000000 1.796640 0.000000 
#    z -0.023690 0.000000 1.758550 
# 
# From -- ./inp_files/68270.got.cif
#   From: 2010.06.25/outbox.cif.g09.slc.cpg/sg13_35_cif.got.tgz:68270.got - 2010.06.28 04:50:58.
