data_PCOD8118623
_publ_section_title
;
Structure prediction by ZEFSAII (Michael W. Deem and Ramdas Pophale) SiO2 
 PCOD8118623
Probable space group: P 2/C
;
_chemical_formula_sum "Si O2"
_cell_formula_units_Z 28
_cell_length_a 15.964857
_cell_length_b 12.768739
_cell_length_c 9.627309
_cell_angle_alpha 90.000000
_cell_angle_beta 44.419425
_cell_angle_gamma 90.000000
_cell_volume 1373.590814
_symmetry_space_group_name_H-M "P 2/C"
_symmetry_group_IT_number 13
_symmetry_cell_setting 'monoclinic'
loop_
_space_group_symop_operation_xyz
x,y,z
-x,y,1/2-z
-x,-y,-z
x,-y,1/2+z
loop_
_atom_site_type_symbol
_atom_site_label
_atom_site_fract_x
_atom_site_fract_y
_atom_site_fract_z
Si Si1 0.000000 0.266933 0.750000
Si Si2 0.669959 0.793968 0.714999
Si Si3 0.795376 0.406136 0.123551
Si Si4 0.132997 0.427018 0.154341
Si Si5 0.834243 0.159563 0.762788
Si Si6 0.861883 0.803411 0.927822
Si Si7 0.272711 0.948982 0.609245
Si Si8 0.500000 0.083174 0.250000
O O1 0.963661 0.190436 0.667801
O O2 0.103679 0.338283 0.569410
O O3 0.679047 0.673299 0.762818
O O4 0.736234 0.802113 0.488722
O O5 0.725287 0.871493 0.763023
O O6 0.538524 0.839285 0.832329
O O7 0.842362 0.454617 0.213354
O O8 0.772912 0.506197 0.049871
O O9 0.160091 0.304850 0.123958
O O10 0.000000 0.450653 0.250000
O O11 0.821748 0.219345 0.632465
O O12 0.827237 0.036157 0.739713
O O13 0.770504 0.887846 0.975287
O O14 0.000000 0.840558 0.750000
O O15 0.397679 0.006012 0.428449
#
# Coordination Sequence:
#
# PCOD8118623 Si02
#       8
#     2   4   4   4   4   4   4   2
#     4  10  20  34  54  84 126 164 212 240 286 362
#     4  10  22  40  62  93 120 151 211 268 305 364
#     4  11  22  37  58  88 122 162 209 254 297 358
#     4  11  22  36  60  85 124 171 209 246 295 358
#     4  10  22  34  57  85 124 170 198 245 303 361
#     4  11  24  38  57  92 135 170 207 246 298 372
#     4  11  22  43  62  94 123 161 209 253 312 371
#     4  10  22  42  74  88 114 162 206 260 316 376
#
# _framework density 20.384526000000001
#
# number of rings (size 3 to 8) (size 9 to 14) (size 15 to 20)
#    0.000    1.429    2.143    4.286    7.000    1.714 
#    0.000    0.000    0.000    1.714    0.000    0.000 
#    0.000    0.000    0.000    0.000    0.000    0.000 
#
# Total GULP energy -346922.488620 kJ/mol
# GULP energy per Si atom -12390.088879 kJ/mol
# Density = 2.033813 g / cm^3
# Si number density = 20.384526 Si / 1000 Ang^3
#
#
#
# Elastic Constant Matrix: (Units=GPa)
#
#
# Indices 1 2 3 4 5 6 
#
# 1 106.0339 40.8041 34.5476 0.0000 19.1146 0.0000
# 2 40.8041 76.0318 11.1667 0.0000 -3.1272 0.0000
# 3 34.5476 11.1667 74.0834 0.0000 21.6836 0.0000
# 4 0.0000 0.0000 0.0000 49.4976 0.0000 33.6588
# 5 19.1146 -3.1272 21.6836 0.0000 35.6371 0.0000
# 6 0.0000 0.0000 0.0000 33.6588 0.0000 73.0499
#
#
#
# Elastic Compliance Matrix: (Units=1/GPa)
#
#
# Indices 1 2 3 4 5 6 
#
# 1 0.014746 -0.007593 -0.003920 0.000000 -0.006190 0.000000
# 2 -0.007593 0.017617 -0.000924 0.000000 0.006180 0.000000
# 3 -0.003920 -0.000924 0.018097 0.000000 -0.008990 0.000000
# 4 0.000000 0.000000 0.000000 0.029421 0.000000 -0.013556
# 5 -0.006190 0.006180 -0.008990 0.000000 0.037393 0.000000
# 6 0.000000 0.000000 0.000000 -0.013556 0.000000 0.019936
#
#
# Mechanical properties :
#
#
# Convention : Reuss Voigt Hill
#
# Bulk Modulus (GPa) = 39.08286 47.68733 43.38509
# Shear Modulus (GPa) = 29.30634 42.94563 36.12598
#
# Velocity S-wave (km/s) = 3.79578 4.59494 4.21435
# Velocity P-wave (km/s) = 6.19879 7.18304 6.70899
#
# Compressibility (1/GPa) = 0.02558666
#
# Stress axis : x y z
#
# Youngs Moduli (GPa) = 67.81549 56.76351 55.25829
#
# Poissons Ratio (x) = 0.43098 0.21663
# Poissons Ratio (y) = 0.51489 0.05104
# Poissons Ratio (z) = 0.26585 0.05243
#
# Static dielectric constant tensor:
#      x y z
#    x 4.152340 0.000000 0.051430 
#    y 0.000000 4.118930 0.000000 
#    z 0.051430 0.000000 3.556230 
# 
# 
# High freq. dielectric constant tensor:
#      x y z
#    x 1.792110 0.000000 0.033600 
#    y 0.000000 1.805120 0.000000 
#    z 0.033600 0.000000 1.777550 
# 
# From -- ./inp_files/18994.got.cif
#   From: 2010.06.25/outbox.cif.g09.slc.cpg/sg13_10_cif.got.tgz:18994.got - 2010.06.28 04:50:58.
