data_PCOD8118486
_publ_section_title
;
Structure prediction by ZEFSAII (Michael W. Deem and Ramdas Pophale) SiO2 
 PCOD8118486
Probable space group: P 2/C
;
_chemical_formula_sum "Si O2"
_cell_formula_units_Z 24
_cell_length_a 19.078348
_cell_length_b 9.439875
_cell_length_c 9.886823
_cell_angle_alpha 90.000000
_cell_angle_beta 49.423627
_cell_angle_gamma 90.000000
_cell_volume 1352.428118
_symmetry_space_group_name_H-M "P 2/C"
_symmetry_group_IT_number 13
_symmetry_cell_setting 'monoclinic'
loop_
_space_group_symop_operation_xyz
x,y,z
-x,y,1/2-z
-x,-y,-z
x,-y,1/2+z
loop_
_atom_site_type_symbol
_atom_site_label
_atom_site_fract_x
_atom_site_fract_y
_atom_site_fract_z
Si Si1 0.743868 0.653062 0.238997
Si Si2 0.240353 0.614796 0.594460
Si Si3 0.542349 0.324464 0.061936
Si Si4 0.434275 0.340292 0.945259
Si Si5 0.111035 0.892668 0.467540
Si Si6 0.099027 0.858097 0.787671
O O1 0.769656 0.533598 0.316114
O O2 0.644982 0.726976 0.393649
O O3 0.818473 0.773557 0.166595
O O4 0.745408 0.588859 0.084472
O O5 0.328800 0.698366 0.543715
O O6 0.149847 0.707606 0.737859
O O7 0.500000 0.254753 0.250000
O O8 0.551856 0.491922 0.067307
O O9 0.466686 0.276971 0.046842
O O10 0.500000 0.272259 0.750000
O O11 0.120287 0.926737 0.614878
O O12 0.009920 0.832699 0.557718
O O13 0.134777 0.035941 0.357954
#
# Coordination Sequence:
#
# PCOD8118486 Si02
#       6
#     4   4   4   4   4   4
#     4  10  20  32  49  78 106 132 163 210 251 292
#     4  10  20  31  50  78 106 131 166 206 252 292
#     4   9  17  27  44  69 100 133 166 201 240 292
#     4   9  15  27  44  67  98 135 163 198 242 291
#     4   9  19  37  57  73  99 131 170 207 249 300
#     4   9  19  37  56  75  97 133 169 206 249 303
#
# _framework density 17.745861000000001
#
# number of rings (size 3 to 8) (size 9 to 14) (size 15 to 20)
#    0.000    2.667    1.667    0.000    7.000    2.000 
#    0.000    0.000    0.000    2.000    0.000    0.000 
#    0.000    0.000    0.000    0.000    0.000    0.000 
#
# Total GULP energy -297493.100959 kJ/mol
# GULP energy per Si atom -12395.545873 kJ/mol
# Density = 1.770547 g / cm^3
# Si number density = 17.745861 Si / 1000 Ang^3
#
#
#
# Elastic Constant Matrix: (Units=GPa)
#
#
# Indices 1 2 3 4 5 6 
#
# 1 86.8064 25.2081 46.5946 0.0000 4.7974 0.0000
# 2 25.2081 34.0577 32.0790 0.0000 -2.8438 0.0000
# 3 46.5946 32.0790 115.2376 0.0000 -0.6509 0.0000
# 4 0.0000 0.0000 0.0000 14.6625 0.0000 8.6858
# 5 4.7974 -2.8438 -0.6509 0.0000 29.6711 0.0000
# 6 0.0000 0.0000 0.0000 8.6858 0.0000 15.2930
#
#
#
# Elastic Compliance Matrix: (Units=1/GPa)
#
#
# Indices 1 2 3 4 5 6 
#
# 1 0.016493 -0.008410 -0.004348 0.000000 -0.003568 0.000000
# 2 -0.008410 0.044467 -0.008947 0.000000 0.005425 0.000000
# 3 -0.004348 -0.008947 0.012927 0.000000 0.000129 0.000000
# 4 0.000000 0.000000 0.000000 0.102782 0.000000 -0.058377
# 5 -0.003568 0.005425 0.000129 0.000000 0.034803 0.000000
# 6 0.000000 0.000000 0.000000 -0.058377 0.000000 0.098545
#
#
# Mechanical properties :
#
#
# Convention : Reuss Voigt Hill
#
# Bulk Modulus (GPa) = 32.81169 49.31835 41.06502
# Shear Modulus (GPa) = 13.75186 20.73999 17.24592
#
# Velocity S-wave (km/s) = 2.78678 3.42237 3.12080
# Velocity P-wave (km/s) = 5.37446 6.59307 6.01471
#
# Compressibility (1/GPa) = 0.03047694
#
# Stress axis : x y z
#
# Youngs Moduli (GPa) = 60.63151 22.48837 77.35726
#
# Poissons Ratio (x) = 0.18914 0.33632
# Poissons Ratio (y) = 0.50993 0.69214
# Poissons Ratio (z) = 0.26360 0.20121
#
# Static dielectric constant tensor:
#      x y z
#    x 3.511470 0.000000 0.026690 
#    y 0.000000 2.726360 0.000000 
#    z 0.026690 0.000000 3.608800 
# 
# 
# High freq. dielectric constant tensor:
#      x y z
#    x 1.701220 0.000000 0.002110 
#    y 0.000000 1.627020 0.000000 
#    z 0.002110 0.000000 1.703610 
# 
# From -- ./inp_files/18607.got.cif
#   From: 2010.06.25/outbox.cif.g09.slc.cpg/sg13_10_cif.got.tgz:18607.got - 2010.06.28 04:50:58.
