data_PCOD8118462
_publ_section_title
;
Structure prediction by ZEFSAII (Michael W. Deem and Ramdas Pophale) SiO2 
 PCOD8118462
Probable space group: P 2/C
;
_chemical_formula_sum "Si O2"
_cell_formula_units_Z 22
_cell_length_a 11.902394
_cell_length_b 6.959844
_cell_length_c 17.838747
_cell_angle_alpha 90.000000
_cell_angle_beta 44.519719
_cell_angle_gamma 90.000000
_cell_volume 1036.124686
_symmetry_space_group_name_H-M "P 2/C"
_symmetry_group_IT_number 13
_symmetry_cell_setting 'monoclinic'
loop_
_space_group_symop_operation_xyz
x,y,z
-x,y,1/2-z
-x,-y,-z
x,-y,1/2+z
loop_
_atom_site_type_symbol
_atom_site_label
_atom_site_fract_x
_atom_site_fract_y
_atom_site_fract_z
Si Si1 0.602984 0.656255 0.127039
Si Si2 0.000000 0.470758 0.250000
Si Si3 0.226076 0.323067 0.542400
Si Si4 0.881683 0.946119 0.991062
Si Si5 0.603103 0.144568 0.903090
Si Si6 0.888474 0.113618 0.243371
O O1 0.500000 0.607583 0.250000
O O2 0.494297 0.747238 0.114063
O O3 0.679608 0.461735 0.058977
O O4 0.741779 0.804680 0.084938
O O5 0.944758 0.592628 0.348656
O O6 0.851543 0.326125 0.296572
O O7 0.199692 0.128551 0.509519
O O8 0.323166 0.295486 0.573713
O O9 0.000440 0.835421 0.879476
O O10 0.000000 0.000000 0.000000
O O11 0.735031 0.013762 0.797369
O O12 0.500000 0.000000 0.000000
O O13 0.000000 0.994453 0.250000
#
# Coordination Sequence:
#
# PCOD8118462 Si02
#       6
#     4   2   4   4   4   4
#     4  12  27  47  66 108 145 180 229 285 355 415
#     4  10  20  40  74 104 132 168 240 290 318 408
#     4  12  23  45  74 101 137 180 236 285 342 412
#     4  12  25  47  70  95 139 188 227 281 345 405
#     4  12  22  44  74 101 140 183 229 286 349 414
#     4  10  19  42  69  98 134 176 227 277 334 400
#
# _framework density 21.232966000000001
#
# number of rings (size 3 to 8) (size 9 to 14) (size 15 to 20)
#    0.545    0.000    5.455    3.818    0.000    1.455 
#    6.545    0.000    0.000    0.000    0.000    0.000 
#    0.000    0.000    0.000    0.000    0.000    0.000 
#
# Total GULP energy -272623.865146 kJ/mol
# GULP energy per Si atom -12391.993870 kJ/mol
# Density = 2.118464 g / cm^3
# Si number density = 21.232966 Si / 1000 Ang^3
#
#
#
# Elastic Constant Matrix: (Units=GPa)
#
#
# Indices 1 2 3 4 5 6 
#
# 1 95.5257 5.2160 12.1769 0.0000 5.5024 0.0000
# 2 5.2160 89.9990 40.4000 0.0000 -3.2403 0.0000
# 3 12.1769 40.4000 147.9675 0.0000 4.2021 0.0000
# 4 0.0000 0.0000 0.0000 31.4411 0.0000 -0.7564
# 5 5.5024 -3.2403 4.2021 0.0000 32.9877 0.0000
# 6 0.0000 0.0000 0.0000 -0.7564 0.0000 15.7826
#
#
#
# Elastic Compliance Matrix: (Units=1/GPa)
#
#
# Indices 1 2 3 4 5 6 
#
# 1 0.010680 -0.000352 -0.000734 0.000000 -0.001723 0.000000
# 2 -0.000352 0.012769 -0.003508 0.000000 0.001760 0.000000
# 3 -0.000734 -0.003508 0.007811 0.000000 -0.001217 0.000000
# 4 0.000000 0.000000 0.000000 0.031842 0.000000 0.001526
# 5 -0.001723 0.001760 -0.001217 0.000000 0.030930 0.000000
# 6 0.000000 0.000000 0.000000 0.001526 0.000000 0.063434
#
#
# Mechanical properties :
#
#
# Convention : Reuss Voigt Hill
#
# Bulk Modulus (GPa) = 45.30100 49.89754 47.59927
# Shear Modulus (GPa) = 28.73382 34.42222 31.57802
#
# Velocity S-wave (km/s) = 3.68267 4.03074 3.86063
# Velocity P-wave (km/s) = 6.28206 6.72410 6.50683
#
# Compressibility (1/GPa) = 0.02207457
#
# Stress axis : x y z
#
# Youngs Moduli (GPa) = 93.62970 78.31172 128.02645
#
# Poissons Ratio (x) = 0.02753 0.09398
# Poissons Ratio (y) = 0.03291 0.44906
# Poissons Ratio (z) = 0.06873 0.27468
#
# Static dielectric constant tensor:
#      x y z
#    x 3.663310 0.000000 0.103980 
#    y 0.000000 4.154490 0.000000 
#    z 0.103980 0.000000 4.110820 
# 
# 
# High freq. dielectric constant tensor:
#      x y z
#    x 1.819840 0.000000 0.000560 
#    y 0.000000 1.842210 0.000000 
#    z 0.000560 0.000000 1.843800 
# 
# From -- ./inp_files/78962.got.cif
#   From: 2010.06.25/outbox.cif.g09.slc.cpg/sg13_40_cif.got.tgz:78962.got - 2010.06.28 04:50:58.
