data_PCOD8118504
_publ_section_title
;
Structure prediction by ZEFSAII (Michael W. Deem and Ramdas Pophale) SiO2 
 PCOD8118504
Probable space group: P 2/C
;
_chemical_formula_sum "Si O2"
_cell_formula_units_Z 22
_cell_length_a 14.696608
_cell_length_b 11.002427
_cell_length_c 8.502383
_cell_angle_alpha 90.000000
_cell_angle_beta 121.694447
_cell_angle_gamma 90.000000
_cell_volume 1169.783297
_symmetry_space_group_name_H-M "P 2/C"
_symmetry_group_IT_number 13
_symmetry_cell_setting 'monoclinic'
loop_
_space_group_symop_operation_xyz
x,y,z
-x,y,1/2-z
-x,-y,-z
x,-y,1/2+z
loop_
_atom_site_type_symbol
_atom_site_label
_atom_site_fract_x
_atom_site_fract_y
_atom_site_fract_z
Si Si1 0.776394 0.592752 0.879080
Si Si2 0.500000 0.988849 0.750000
Si Si3 0.461271 0.624500 0.892383
Si Si4 0.400023 0.164519 0.896430
Si Si5 0.201402 0.333435 0.741508
Si Si6 0.987255 0.364826 0.424369
O O1 0.665208 0.643087 0.712420
O O2 0.778247 0.446839 0.857630
O O3 0.867421 0.670790 0.869517
O O4 0.787718 0.615526 0.073842
O O5 0.420415 0.904897 0.577945
O O6 0.416652 0.069812 0.771817
O O7 0.500000 0.633784 0.750000
O O8 0.500000 0.500000 0.000000
O O9 0.512860 0.729502 0.044369
O O10 0.281559 0.221917 0.783765
O O11 0.080582 0.285484 0.594305
O O12 0.000000 0.355914 0.250000
O O13 0.000000 0.500000 0.500000
#
# Coordination Sequence:
#
# PCOD8118504 Si02
#       6
#     4   2   4   4   4   4
#     4  11  19  33  52  83 125 156 180 230 293 367
#     4  10  24  40  58  80 114 162 216 254 284 342
#     4  12  22  35  55  90 128 154 189 233 305 370
#     4  11  22  40  58  84 115 156 205 248 297 343
#     4  11  20  34  56  82 118 156 193 231 292 357
#     4  10  20  32  50  79 118 157 193 220 278 360
#
# _framework density 18.806902000000001
#
# number of rings (size 3 to 8) (size 9 to 14) (size 15 to 20)
#    0.000    1.091    4.545    4.909    1.273    2.909 
#    0.000    0.000    0.000    0.000    0.000   31.818 
#    0.000    0.000    0.000    0.000    0.000    0.000 
#
# Total GULP energy -272733.297905 kJ/mol
# GULP energy per Si atom -12396.968087 kJ/mol
# Density = 1.876410 g / cm^3
# Si number density = 18.806902 Si / 1000 Ang^3
#
#
#
# Elastic Constant Matrix: (Units=GPa)
#
#
# Indices 1 2 3 4 5 6 
#
# 1 141.8040 44.6875 62.7794 0.0000 37.2138 0.0000
# 2 44.6875 89.6804 42.5934 0.0000 8.7444 0.0000
# 3 62.7794 42.5934 114.0148 0.0000 21.8593 0.0000
# 4 0.0000 0.0000 0.0000 3.3493 0.0000 23.1395
# 5 37.2138 8.7444 21.8593 0.0000 44.2422 0.0000
# 6 0.0000 0.0000 0.0000 23.1395 0.0000 7.0690
#
#
#
# Elastic Compliance Matrix: (Units=1/GPa)
#
#
# Indices 1 2 3 4 5 6 
#
# 1 0.011695 -0.003309 -0.003803 0.000000 -0.007304 0.000000
# 2 -0.003309 0.014494 -0.003951 0.000000 0.001871 0.000000
# 3 -0.003803 -0.003951 0.012789 0.000000 -0.002339 0.000000
# 4 0.000000 0.000000 0.000000 -0.013813 0.000000 0.045215
# 5 -0.007304 0.001871 -0.002339 0.000000 0.029533 0.000000
# 6 0.000000 0.000000 0.000000 0.045215 0.000000 -0.006545
#
#
# Mechanical properties :
#
#
# Convention : Reuss Voigt Hill
#
# Bulk Modulus (GPa) = 59.34148 71.73553 65.53851
# Shear Modulus (GPa) = 65.87777 23.96135 44.91956
#
# Velocity S-wave (km/s) = 5.92491 3.57329 4.89249
# Velocity P-wave (km/s) = 8.85594 7.43307 8.17552
#
# Compressibility (1/GPa) = 0.01685162
#
# Stress axis : x y z
#
# Youngs Moduli (GPa) = 85.50304 68.99464 78.18970
#
# Poissons Ratio (x) = 0.22833 0.29736
# Poissons Ratio (y) = 0.28296 0.30894
# Poissons Ratio (z) = 0.32518 0.27261
#
# Static dielectric constant tensor:
#      x y z
#    x 3.994710 0.000000 0.289300 
#    y 0.000000 2.982440 0.000000 
#    z 0.289300 0.000000 3.819190 
# 
# 
# High freq. dielectric constant tensor:
#      x y z
#    x 1.740770 0.000000 0.004170 
#    y 0.000000 1.685510 0.000000 
#    z 0.004170 0.000000 1.750800 
# 
# From -- ./inp_files/18398.got.cif
#   From: 2010.06.25/outbox.cif.g09.slc.cpg/sg13_10_cif.got.tgz:18398.got - 2010.06.28 04:50:58.
