data_PCOD8118720
_publ_section_title
;
Structure prediction by ZEFSAII (Michael W. Deem and Ramdas Pophale) SiO2 
 PCOD8118720
Probable space group: P 2/C
;
_chemical_formula_sum "Si O2"
_cell_formula_units_Z 32
_cell_length_a 8.961374
_cell_length_b 16.273320
_cell_length_c 24.083711
_cell_angle_alpha 90.000000
_cell_angle_beta 27.001527
_cell_angle_gamma 90.000000
_cell_volume 1594.570241
_symmetry_space_group_name_H-M "P 2/C"
_symmetry_group_IT_number 13
_symmetry_cell_setting 'monoclinic'
loop_
_space_group_symop_operation_xyz
x,y,z
-x,y,1/2-z
-x,-y,-z
x,-y,1/2+z
loop_
_atom_site_type_symbol
_atom_site_label
_atom_site_fract_x
_atom_site_fract_y
_atom_site_fract_z
Si Si1 0.636384 0.378035 0.263422
Si Si2 0.685043 0.116237 0.028129
Si Si3 0.651902 0.190777 0.257837
Si Si4 0.571306 0.803960 0.992694
Si Si5 0.617151 0.533451 0.877180
Si Si6 0.286581 0.952298 0.370797
Si Si7 0.367474 0.050068 0.634675
Si Si8 0.412058 0.618894 0.503457
O O1 0.500000 0.409186 0.250000
O O2 0.537552 0.283767 0.308598
O O3 0.476373 0.434001 0.365074
O O4 0.023331 0.387061 0.132336
O O5 0.491506 0.128197 0.149857
O O6 0.558225 0.183986 0.027080
O O7 0.600629 0.023551 0.035069
O O8 0.079625 0.121447 0.909008
O O9 0.500000 0.162240 0.250000
O O10 0.042013 0.182238 0.129699
O O11 0.470321 0.712138 0.044295
O O12 0.389339 0.868119 0.091523
O O13 0.450382 0.583396 0.983531
O O14 0.000000 0.552836 0.750000
O O15 0.549501 0.436276 0.907155
O O16 0.500000 0.996134 0.250000
O O17 0.547866 0.923079 0.330171
O O18 0.000000 0.000000 0.500000
O O19 0.000000 0.016338 0.750000
#
# Coordination Sequence:
#
# PCOD8118720 Si02
#       8
#     4   4   4   4   4   4   4   4
#     4   9  18  32  53  81 111 139 176 231 283 332
#     4  11  22  36  58  82 110 149 192 239 288 340
#     4  10  20  35  55  83 113 145 188 238 293 346
#     4  11  21  35  54  80 111 144 189 238 288 343
#     4   9  17  33  54  76 104 137 178 222 275 341
#     4  10  23  41  60  83 113 151 194 242 296 349
#     4  11  23  37  55  79 112 150 191 238 288 342
#     4   9  19  33  53  78 104 140 181 225 274 335
#
# _framework density 20.068103000000001
#
# number of rings (size 3 to 8) (size 9 to 14) (size 15 to 20)
#    0.000    2.000    0.000    3.750    0.000   10.000 
#    0.000    0.000    0.000    0.750    0.000    0.000 
#    0.000    0.000    0.000    0.000    0.000    0.000 
#
# Total GULP energy -396628.272108 kJ/mol
# GULP energy per Si atom -12394.633503 kJ/mol
# Density = 2.002243 g / cm^3
# Si number density = 20.068103 Si / 1000 Ang^3
#
#
#
# Elastic Constant Matrix: (Units=GPa)
#
#
# Indices 1 2 3 4 5 6 
#
# 1 136.8553 31.6810 24.8781 0.0000 -1.7276 0.0000
# 2 31.6810 90.2180 12.8139 0.0000 10.5059 0.0000
# 3 24.8781 12.8139 55.0784 0.0000 8.4866 0.0000
# 4 0.0000 0.0000 0.0000 29.3715 0.0000 7.9030
# 5 -1.7276 10.5059 8.4866 0.0000 37.3650 0.0000
# 6 0.0000 0.0000 0.0000 7.9030 0.0000 24.4603
#
#
#
# Elastic Compliance Matrix: (Units=1/GPa)
#
#
# Indices 1 2 3 4 5 6 
#
# 1 0.008615 -0.002751 -0.003556 0.000000 0.001980 0.000000
# 2 -0.002751 0.012613 -0.001167 0.000000 -0.003409 0.000000
# 3 -0.003556 -0.001167 0.020734 0.000000 -0.004546 0.000000
# 4 0.000000 0.000000 0.000000 0.037288 0.000000 -0.012048
# 5 0.001980 -0.003409 -0.004546 0.000000 0.028845 0.000000
# 6 0.000000 0.000000 0.000000 -0.012048 0.000000 0.044775
#
#
# Mechanical properties :
#
#
# Convention : Reuss Voigt Hill
#
# Bulk Modulus (GPa) = 37.01711 46.76642 41.89177
# Shear Modulus (GPa) = 28.27678 32.42462 30.35070
#
# Velocity S-wave (km/s) = 3.75779 4.02397 3.89316
# Velocity P-wave (km/s) = 6.10850 6.70405 6.41319
#
# Compressibility (1/GPa) = 0.02701453
#
# Stress axis : x y z
#
# Youngs Moduli (GPa) = 116.07322 79.28422 48.22956
#
# Poissons Ratio (x) = 0.21809 0.17153
# Poissons Ratio (y) = 0.31928 0.05627
# Poissons Ratio (z) = 0.41281 0.09250
#
# Static dielectric constant tensor:
#      x y z
#    x 4.199460 0.000000 -0.024140 
#    y 0.000000 3.601700 0.000000 
#    z -0.024140 0.000000 3.490010 
# 
# 
# High freq. dielectric constant tensor:
#      x y z
#    x 1.799900 0.000000 0.002830 
#    y 0.000000 1.767020 0.000000 
#    z 0.002830 0.000000 1.764370 
# 
# From -- ./inp_files/85314.got.cif
#   From: 2010.06.25/outbox.cif.g09.slc.cpg/sg13_43_cif.got.tgz:85314.got - 2010.06.28 04:50:58.
