data_PCOD8118948
_publ_section_title
;
Structure prediction by ZEFSAII (Michael W. Deem and Ramdas Pophale) SiO2 
 PCOD8118948
Probable space group: P 2/C
;
_chemical_formula_sum "Si O2"
_cell_formula_units_Z 24
_cell_length_a 14.090290
_cell_length_b 8.763517
_cell_length_c 13.938874
_cell_angle_alpha 90.000000
_cell_angle_beta 140.429517
_cell_angle_gamma 90.000000
_cell_volume 1096.437475
_symmetry_space_group_name_H-M "P 2/C"
_symmetry_group_IT_number 13
_symmetry_cell_setting 'monoclinic'
loop_
_space_group_symop_operation_xyz
x,y,z
-x,y,1/2-z
-x,-y,-z
x,-y,1/2+z
loop_
_atom_site_type_symbol
_atom_site_label
_atom_site_fract_x
_atom_site_fract_y
_atom_site_fract_z
Si Si1 0.295789 0.168933 0.538150
Si Si2 0.856498 0.677325 0.747336
Si Si3 0.500000 0.571152 0.250000
Si Si4 0.982810 0.653090 0.340173
Si Si5 0.500000 0.921156 0.750000
Si Si6 0.908976 0.847255 0.450600
Si Si7 0.302770 0.668507 0.689685
O O1 0.169760 0.202376 0.360331
O O2 0.383658 0.327522 0.601586
O O3 0.238803 0.125345 0.601663
O O4 0.408538 0.029014 0.603172
O O5 0.717510 0.683497 0.711952
O O6 0.895292 0.503999 0.748195
O O7 0.001982 0.732448 0.913905
O O8 0.586060 0.470721 0.239349
O O9 0.144576 0.634277 0.515206
O O10 0.000000 0.735138 0.250000
O O11 0.878615 0.760566 0.326038
O O12 0.378207 0.822365 0.711093
O O13 0.000000 0.000000 0.500000
#
# Coordination Sequence:
#
# PCOD8118948 Si02
#       7
#     4   4   2   4   2   4   4
#     4  11  22  39  60  88 120 160 203 243 302 360
#     4  11  22  38  64  90 119 153 199 256 306 355
#     4  10  20  36  60  82 120 160 198 244 284 364
#     4  11  22  39  65  93 120 152 197 256 309 353
#     4  10  24  42  58  80 128 172 202 242 290 370
#     4  11  23  39  61  88 120 154 197 254 305 357
#     4  10  21  40  60  88 122 160 200 244 303 358
#
# _framework density 21.889071999999999
#
# number of rings (size 3 to 8) (size 9 to 14) (size 15 to 20)
#    0.000    1.333    0.000    8.500    0.000    4.000 
#    0.000    6.667    0.000    0.000    0.000    0.000 
#    0.000    0.000    0.000    0.000    0.000    0.000 
#
# Total GULP energy -297454.330575 kJ/mol
# GULP energy per Si atom -12393.930441 kJ/mol
# Density = 2.183925 g / cm^3
# Si number density = 21.889072 Si / 1000 Ang^3
#
#
#
# Elastic Constant Matrix: (Units=GPa)
#
#
# Indices 1 2 3 4 5 6 
#
# 1 141.2895 37.6120 37.5152 0.0000 -9.4731 0.0000
# 2 37.6120 121.8536 26.4453 0.0000 1.5449 0.0000
# 3 37.5152 26.4453 60.9394 0.0000 -9.5066 0.0000
# 4 0.0000 0.0000 0.0000 25.5411 0.0000 6.9970
# 5 -9.4731 1.5449 -9.5066 0.0000 37.8082 0.0000
# 6 0.0000 0.0000 0.0000 6.9970 0.0000 29.6102
#
#
#
# Elastic Compliance Matrix: (Units=1/GPa)
#
#
# Indices 1 2 3 4 5 6 
#
# 1 0.008814 -0.001763 -0.004481 0.000000 0.001154 0.000000
# 2 -0.001763 0.009486 -0.003290 0.000000 -0.001656 0.000000
# 3 -0.004481 -0.003290 0.021276 0.000000 0.004361 0.000000
# 4 0.000000 0.000000 0.000000 0.041863 0.000000 -0.009892
# 5 0.001154 -0.001656 0.004361 0.000000 0.027903 0.000000
# 6 0.000000 0.000000 0.000000 -0.009892 0.000000 0.036110
#
#
# Mechanical properties :
#
#
# Convention : Reuss Voigt Hill
#
# Bulk Modulus (GPa) = 48.75895 58.58086 53.66990
# Shear Modulus (GPa) = 29.17928 33.42590 31.30259
#
# Velocity S-wave (km/s) = 3.65506 3.91200 3.78571
# Velocity P-wave (km/s) = 6.33533 6.87209 6.60917
#
# Compressibility (1/GPa) = 0.02050905
#
# Stress axis : x y z
#
# Youngs Moduli (GPa) = 113.45459 105.42299 47.00050
#
# Poissons Ratio (x) = 0.18583 0.21062
# Poissons Ratio (y) = 0.19999 0.15461
# Poissons Ratio (z) = 0.50841 0.34680
#
# Static dielectric constant tensor:
#      x y z
#    x 3.146660 0.000000 1.179690 
#    y 0.000000 4.081620 0.000000 
#    z 1.179690 0.000000 2.679490 
# 
# 
# High freq. dielectric constant tensor:
#      x y z
#    x 1.877810 0.000000 0.008620 
#    y 0.000000 1.871000 0.000000 
#    z 0.008620 0.000000 1.833740 
# 
# From -- ./inp_files/49591.got.cif
#   From: 2010.06.25/outbox.cif.g09.slc.cpg/sg13_25_cif.got.tgz:49591.got - 2010.06.28 04:50:58.
