data_PCOD8118779
_publ_section_title
;
Structure prediction by ZEFSAII (Michael W. Deem and Ramdas Pophale) SiO2 
 PCOD8118779
Probable space group: P 2/C
;
_chemical_formula_sum "Si O2"
_cell_formula_units_Z 32
_cell_length_a 8.617980
_cell_length_b 11.568662
_cell_length_c 29.533212
_cell_angle_alpha 90.000000
_cell_angle_beta 31.579105
_cell_angle_gamma 90.000000
_cell_volume 1541.918263
_symmetry_space_group_name_H-M "P 2/C"
_symmetry_group_IT_number 13
_symmetry_cell_setting 'monoclinic'
loop_
_space_group_symop_operation_xyz
x,y,z
-x,y,1/2-z
-x,-y,-z
x,-y,1/2+z
loop_
_atom_site_type_symbol
_atom_site_label
_atom_site_fract_x
_atom_site_fract_y
_atom_site_fract_z
Si Si1 0.604172 0.191317 0.956531
Si Si2 0.161718 0.773681 0.439850
Si Si3 0.668735 0.925373 0.347194
Si Si4 0.695222 0.395897 0.515074
Si Si5 0.809863 0.288033 0.665418
Si Si6 0.482095 0.165220 0.418780
Si Si7 0.780364 0.407437 0.344073
Si Si8 0.831573 0.546088 0.670735
O O1 0.554130 0.107946 0.926364
O O2 0.461582 0.317565 0.984257
O O3 0.955727 0.204528 0.870264
O O4 0.496350 0.143616 0.032016
O O5 0.432658 0.865880 0.371957
O O6 0.206896 0.682036 0.467855
O O7 0.142801 0.696231 0.399685
O O8 0.849743 0.841142 0.519286
O O9 0.000000 0.885087 0.250000
O O10 0.656930 0.064209 0.349047
O O11 0.473056 0.497055 0.585112
O O12 0.997706 0.446852 0.419436
O O13 0.500000 0.223969 0.750000
O O14 0.809692 0.411944 0.690350
O O15 0.626940 0.286963 0.369155
O O16 0.000000 0.450094 0.250000
O O17 0.981135 0.386409 0.338274
O O18 0.500000 0.599755 0.750000
#
# Coordination Sequence:
#
# PCOD8118779 Si02
#       8
#     4   4   4   4   4   4   4   4
#     4  10  20  39  65  88 117 167 212 259 317 382
#     4  10  24  38  65  93 120 165 215 268 314 383
#     4  11  23  41  64  92 124 159 212 276 324 376
#     4  11  22  41  64  90 130 168 212 261 320 372
#     4  10  20  35  58  91 126 159 204 261 322 366
#     4  11  23  43  64  88 128 172 212 253 324 387
#     4  12  26  40  66  98 135 172 213 259 317 393
#     4  11  24  40  61  91 135 172 208 260 314 391
#
# _framework density 20.753368999999999
#
# number of rings (size 3 to 8) (size 9 to 14) (size 15 to 20)
#    0.000    1.250    2.500    3.750    5.250    3.000 
#    0.000    0.000    0.000    0.750    0.000    0.000 
#    0.000    0.000    0.000    0.000    0.000    0.000 
#
# Total GULP energy -396709.588434 kJ/mol
# GULP energy per Si atom -12397.174639 kJ/mol
# Density = 2.070613 g / cm^3
# Si number density = 20.753369 Si / 1000 Ang^3
#
#
#
# Elastic Constant Matrix: (Units=GPa)
#
#
# Indices 1 2 3 4 5 6 
#
# 1 85.5210 20.6832 19.2547 0.0000 -15.0910 0.0000
# 2 20.6832 88.7723 26.4324 0.0000 -6.0464 0.0000
# 3 19.2547 26.4324 121.7678 0.0000 -20.1621 0.0000
# 4 0.0000 0.0000 0.0000 21.3502 0.0000 -0.1443
# 5 -15.0910 -6.0464 -20.1621 0.0000 21.4183 0.0000
# 6 0.0000 0.0000 0.0000 -0.1443 0.0000 9.4709
#
#
#
# Elastic Compliance Matrix: (Units=1/GPa)
#
#
# Indices 1 2 3 4 5 6 
#
# 1 0.013932 -0.002589 -0.000162 0.000000 0.008933 0.000000
# 2 -0.002589 0.012547 -0.002405 0.000000 -0.000546 0.000000
# 3 -0.000162 -0.002405 0.010222 0.000000 0.008830 0.000000
# 4 0.000000 0.000000 0.000000 0.046843 0.000000 0.000714
# 5 0.008933 -0.000546 0.008830 0.000000 0.061140 0.000000
# 6 0.000000 0.000000 0.000000 0.000714 0.000000 0.105597
#
#
# Mechanical properties :
#
#
# Convention : Reuss Voigt Hill
#
# Bulk Modulus (GPa) = 37.89425 47.64463 42.76944
# Shear Modulus (GPa) = 18.56050 25.76061 22.16055
#
# Velocity S-wave (km/s) = 2.99379 3.52699 3.27127
# Velocity P-wave (km/s) = 5.49994 6.29235 5.90944
#
# Compressibility (1/GPa) = 0.02638923
#
# Stress axis : x y z
#
# Youngs Moduli (GPa) = 71.77708 79.70124 97.82944
#
# Poissons Ratio (x) = 0.20638 0.01583
# Poissons Ratio (y) = 0.18586 0.23523
# Poissons Ratio (z) = 0.01162 0.19164
#
# Static dielectric constant tensor:
#      x y z
#    x 3.910280 0.000000 -0.195420 
#    y 0.000000 3.509640 0.000000 
#    z -0.195420 0.000000 3.913030 
# 
# 
# High freq. dielectric constant tensor:
#      x y z
#    x 1.818070 0.000000 -0.009680 
#    y 0.000000 1.795870 0.000000 
#    z -0.009680 0.000000 1.819360 
# 
# From -- ./inp_files/68663.got.cif
#   From: 2010.06.25/outbox.cif.g09.slc.cpg/sg13_35_cif.got.tgz:68663.got - 2010.06.28 04:50:58.
