data_PCOD8118024
_publ_section_title
;
Structure prediction by ZEFSAII (Michael W. Deem and Ramdas Pophale) SiO2 
 PCOD8118024
Probable space group: P 2/C
;
_chemical_formula_sum "Si O2"
_cell_formula_units_Z 28
_cell_length_a 9.136295
_cell_length_b 10.886530
_cell_length_c 16.905637
_cell_angle_alpha 90.000000
_cell_angle_beta 118.748808
_cell_angle_gamma 90.000000
_cell_volume 1474.213366
_symmetry_space_group_name_H-M "P 2/C"
_symmetry_group_IT_number 13
_symmetry_cell_setting 'monoclinic'
loop_
_space_group_symop_operation_xyz
x,y,z
-x,y,1/2-z
-x,-y,-z
x,-y,1/2+z
loop_
_atom_site_type_symbol
_atom_site_label
_atom_site_fract_x
_atom_site_fract_y
_atom_site_fract_z
Si Si1 0.687689 0.572703 0.803102
Si Si2 0.135610 0.930153 0.610692
Si Si3 0.193334 0.841691 0.037786
Si Si4 0.190982 0.215036 0.275215
Si Si5 0.944348 0.396262 0.926589
Si Si6 0.738390 0.268026 0.472366
Si Si7 0.556830 0.139550 0.024110
O O1 0.500000 0.520503 0.750000
O O2 0.729345 0.661068 0.740148
O O3 0.819206 0.458832 0.830766
O O4 0.695087 0.640756 0.889430
O O5 0.207537 0.888861 0.712775
O O6 0.209577 0.860017 0.553748
O O7 0.936945 0.904547 0.557951
O O8 0.189607 0.072471 0.615150
O O9 0.152119 0.703039 0.047049
O O10 0.373395 0.829569 0.044320
O O11 0.296748 0.161128 0.374439
O O12 0.000000 0.241484 0.250000
O O13 0.000000 0.500000 0.000000
O O14 0.111606 0.329139 0.935945
O O15 0.589333 0.236275 0.493417
O O16 0.500000 0.000000 0.000000
#
# Coordination Sequence:
#
# PCOD8118024 Si02
#       7
#     4   4   4   4   4   4   4
#     4  10  19  37  60  85 115 155 211 248 290 349
#     4   9  18  34  58  84 118 157 190 238 312 371
#     4  10  19  35  58  87 118 155 196 243 302 369
#     4  11  22  36  60  89 119 156 202 258 306 357
#     4   9  20  36  58  81 112 160 200 237 293 359
#     4   9  18  35  56  87 118 152 191 247 301 363
#     4  12  22  35  58  98 126 149 200 257 311 361
#
# _framework density 18.993179999999999
#
# number of rings (size 3 to 8) (size 9 to 14) (size 15 to 20)
#    0.000    2.000    4.286    0.857    0.000    0.000 
#    0.000    5.714    0.000    0.857    0.000    0.000 
#    0.000    0.000    0.000    0.000    0.000    0.000 
#
# Total GULP energy -346909.095231 kJ/mol
# GULP energy per Si atom -12389.610544 kJ/mol
# Density = 1.894995 g / cm^3
# Si number density = 18.993180 Si / 1000 Ang^3
#
#
#
# Elastic Constant Matrix: (Units=GPa)
#
#
# Indices 1 2 3 4 5 6 
#
# 1 135.7552 48.8073 32.6275 0.0000 11.1123 0.0000
# 2 48.8073 109.3488 32.2262 0.0000 3.3541 0.0000
# 3 32.6275 32.2262 57.6003 0.0000 14.4746 0.0000
# 4 0.0000 0.0000 0.0000 22.4965 0.0000 12.1600
# 5 11.1123 3.3541 14.4746 0.0000 29.1668 0.0000
# 6 0.0000 0.0000 0.0000 12.1600 0.0000 27.6487
#
#
#
# Elastic Compliance Matrix: (Units=1/GPa)
#
#
# Indices 1 2 3 4 5 6 
#
# 1 0.009412 -0.003236 -0.003100 0.000000 -0.001675 0.000000
# 2 -0.003236 0.012170 -0.005637 0.000000 0.002631 0.000000
# 3 -0.003100 -0.005637 0.024919 0.000000 -0.010537 0.000000
# 4 0.000000 0.000000 0.000000 0.058314 0.000000 -0.025647
# 5 -0.001675 0.002631 -0.010537 0.000000 0.039851 0.000000
# 6 0.000000 0.000000 0.000000 -0.025647 0.000000 0.047448
#
#
# Mechanical properties :
#
#
# Convention : Reuss Voigt Hill
#
# Bulk Modulus (GPa) = 44.33635 58.89181 51.61408
# Shear Modulus (GPa) = 22.36371 28.46528 25.41449
#
# Velocity S-wave (km/s) = 3.43514 3.87552 3.66195
# Velocity P-wave (km/s) = 6.25520 7.14845 6.71669
#
# Compressibility (1/GPa) = 0.02255486
#
# Stress axis : x y z
#
# Youngs Moduli (GPa) = 106.25019 82.16939 40.13071
#
# Poissons Ratio (x) = 0.26590 0.12440
# Poissons Ratio (y) = 0.34382 0.22622
# Poissons Ratio (z) = 0.32935 0.46319
#
# Static dielectric constant tensor:
#      x y z
#    x 3.724080 0.000000 0.272620 
#    y 0.000000 3.638740 0.000000 
#    z 0.272620 0.000000 3.189850 
# 
# 
# High freq. dielectric constant tensor:
#      x y z
#    x 1.748370 0.000000 0.016290 
#    y 0.000000 1.737070 0.000000 
#    z 0.016290 0.000000 1.703290 
# 
# From -- ./inp_files/47313.got.cif
#   From: 2010.06.25/outbox.cif.g09.slc.cpg/sg13_24_cif.got.tgz:47313.got - 2010.06.28 04:50:58.
