data_PCOD8118892
_publ_section_title
;
Structure prediction by ZEFSAII (Michael W. Deem and Ramdas Pophale) SiO2 
 PCOD8118892
Probable space group: P 2/C
;
_chemical_formula_sum "Si O2"
_cell_formula_units_Z 28
_cell_length_a 9.121832
_cell_length_b 20.925067
_cell_length_c 15.246545
_cell_angle_alpha 90.000000
_cell_angle_beta 152.445189
_cell_angle_gamma 90.000000
_cell_volume 1346.241974
_symmetry_space_group_name_H-M "P 2/C"
_symmetry_group_IT_number 13
_symmetry_cell_setting 'monoclinic'
loop_
_space_group_symop_operation_xyz
x,y,z
-x,y,1/2-z
-x,-y,-z
x,-y,1/2+z
loop_
_atom_site_type_symbol
_atom_site_label
_atom_site_fract_x
_atom_site_fract_y
_atom_site_fract_z
Si Si1 0.376988 0.346472 0.456349
Si Si2 0.405517 0.859078 0.793456
Si Si3 0.289590 0.893582 0.053323
Si Si4 0.634228 0.557424 0.224585
Si Si5 0.248354 0.441265 0.957264
Si Si6 0.724450 0.024137 0.545119
Si Si7 0.624847 0.201541 0.046567
O O1 0.482563 0.380767 0.600574
O O2 0.562635 0.376512 0.470197
O O3 0.485476 0.273645 0.529213
O O4 0.000000 0.352791 0.250000
O O5 0.500000 0.829212 0.750000
O O6 0.524008 0.816699 0.938148
O O7 0.028015 0.858043 0.588104
O O8 0.566545 0.928307 0.891558
O O9 0.500000 0.905178 0.250000
O O10 0.483573 0.849112 0.086153
O O11 0.171117 0.961290 0.952650
O O12 0.500000 0.553961 0.250000
O O13 0.021788 0.563933 0.424330
O O14 0.516510 0.494629 0.110498
O O15 0.000000 0.460977 0.750000
O O16 0.000000 0.056514 0.750000
O O17 0.500000 0.000000 0.500000
O O18 0.000000 0.195753 0.250000
#
# Coordination Sequence:
#
# PCOD8118892 Si02
#       7
#     4   4   4   4   4   4   4
#     4  10  20  38  62  80 111 159 198 233 290 350
#     4  11  24  40  61  88 118 150 199 246 296 355
#     4  11  23  40  61  87 119 156 194 242 298 357
#     4  11  21  35  57  88 120 147 189 243 292 341
#     4  10  20  36  57  84 116 153 193 231 287 352
#     4  12  22  39  64  88 119 156 194 243 301 356
#     4   9  20  42  61  80 115 158 196 239 290 351
#
# _framework density 20.798636999999999
#
# number of rings (size 3 to 8) (size 9 to 14) (size 15 to 20)
#    0.000    1.429    2.857    4.286    2.000    1.714 
#    0.000   11.429    0.000    0.000    0.000    0.000 
#    0.000    0.000    0.000    0.000    0.000    0.000 
#
# Total GULP energy -346975.411682 kJ/mol
# GULP energy per Si atom -12391.978989 kJ/mol
# Density = 2.075130 g / cm^3
# Si number density = 20.798637 Si / 1000 Ang^3
#
#
#
# Elastic Constant Matrix: (Units=GPa)
#
#
# Indices 1 2 3 4 5 6 
#
# 1 132.9768 28.9719 25.3000 0.0000 -4.5045 0.0000
# 2 28.9719 117.0512 20.9221 0.0000 -8.8310 0.0000
# 3 25.3000 20.9221 75.4651 0.0000 -1.0585 0.0000
# 4 0.0000 0.0000 0.0000 19.0161 0.0000 6.3205
# 5 -4.5045 -8.8310 -1.0585 0.0000 36.4517 0.0000
# 6 0.0000 0.0000 0.0000 6.3205 0.0000 16.2653
#
#
#
# Elastic Compliance Matrix: (Units=1/GPa)
#
#
# Indices 1 2 3 4 5 6 
#
# 1 0.008334 -0.001601 -0.002342 0.000000 0.000574 0.000000
# 2 -0.001601 0.009461 -0.002058 0.000000 0.002034 0.000000
# 3 -0.002342 -0.002058 0.014602 0.000000 -0.000364 0.000000
# 4 0.000000 0.000000 0.000000 0.060386 0.000000 -0.023465
# 5 0.000574 0.002034 -0.000364 0.000000 0.027987 0.000000
# 6 0.000000 0.000000 0.000000 -0.023465 0.000000 0.070599
#
#
# Mechanical properties :
#
#
# Convention : Reuss Voigt Hill
#
# Bulk Modulus (GPa) = 49.03124 52.87568 50.95346
# Shear Modulus (GPa) = 23.79049 31.03324 27.41187
#
# Velocity S-wave (km/s) = 3.38575 3.86694 3.63432
# Velocity P-wave (km/s) = 6.23778 6.73910 6.49328
#
# Compressibility (1/GPa) = 0.02039516
#
# Stress axis : x y z
#
# Youngs Moduli (GPa) = 119.99136 105.69938 68.48496
#
# Poissons Ratio (x) = 0.16921 0.16040
# Poissons Ratio (y) = 0.19209 0.14092
# Poissons Ratio (z) = 0.28103 0.21750
#
# Static dielectric constant tensor:
#      x y z
#    x 4.071450 0.000000 0.155260 
#    y 0.000000 3.579960 0.000000 
#    z 0.155260 0.000000 3.588450 
# 
# 
# High freq. dielectric constant tensor:
#      x y z
#    x 1.825420 0.000000 0.007010 
#    y 0.000000 1.799090 0.000000 
#    z 0.007010 0.000000 1.804960 
# 
# From -- ./inp_files/48262.got.cif
#   From: 2010.06.25/outbox.cif.g09.slc.cpg/sg13_25_cif.got.tgz:48262.got - 2010.06.28 04:50:58.
