data_PCOD8118585
_publ_section_title
;
Structure prediction by ZEFSAII (Michael W. Deem and Ramdas Pophale) SiO2 
 PCOD8118585
Probable space group: P 2/C
;
_chemical_formula_sum "Si O2"
_cell_formula_units_Z 22
_cell_length_a 21.191066
_cell_length_b 9.966837
_cell_length_c 13.655130
_cell_angle_alpha 90.000000
_cell_angle_beta 25.354997
_cell_angle_gamma 90.000000
_cell_volume 1235.032823
_symmetry_space_group_name_H-M "P 2/C"
_symmetry_group_IT_number 13
_symmetry_cell_setting 'monoclinic'
loop_
_space_group_symop_operation_xyz
x,y,z
-x,y,1/2-z
-x,-y,-z
x,-y,1/2+z
loop_
_atom_site_type_symbol
_atom_site_label
_atom_site_fract_x
_atom_site_fract_y
_atom_site_fract_z
Si Si1 0.290653 0.103617 0.770015
Si Si2 0.534118 0.105584 0.590083
Si Si3 0.000000 0.122054 0.250000
Si Si4 0.886314 0.632569 0.796263
Si Si5 0.211697 0.407017 0.859581
Si Si6 0.637846 0.389372 0.487637
O O1 0.387077 0.100274 0.732702
O O2 0.266982 0.254697 0.764830
O O3 0.357645 0.013769 0.591103
O O4 0.130060 0.035808 0.018314
O O5 0.500000 0.080254 0.750000
O O6 0.606776 0.251405 0.473981
O O7 0.914736 0.214979 0.290548
O O8 0.785085 0.627912 0.843933
O O9 0.046930 0.569214 0.546555
O O10 0.800767 0.559009 0.006705
O O11 0.331978 0.499870 0.637738
O O12 0.500000 0.430717 0.750000
#
# Coordination Sequence:
#
# PCOD8118585 Si02
#       6
#     4   4   2   4   4   4
#     4   9  19  35  52  70  97 128 160 199 238 284
#     4  10  20  34  50  71 100 129 157 196 245 285
#     4   8  14  32  54  70  92 130 164 190 236 290
#     4   8  17  33  51  70  99 129 156 196 242 284
#     4   9  18  34  53  71  95 129 163 195 237 284
#     4  11  20  30  50  76  99 126 161 197 237 286
#
# _framework density 17.813291
#
# number of rings (size 3 to 8) (size 9 to 14) (size 15 to 20)
#    0.000    3.273    0.000    4.909    0.000    3.636 
#    0.000   11.818    0.000    0.000    0.000    0.000 
#    0.000    0.000    0.000    0.000    0.000    0.000 
#
# Total GULP energy -272573.229357 kJ/mol
# GULP energy per Si atom -12389.692243 kJ/mol
# Density = 1.777275 g / cm^3
# Si number density = 17.813291 Si / 1000 Ang^3
#
#
#
# Elastic Constant Matrix: (Units=GPa)
#
#
# Indices 1 2 3 4 5 6 
#
# 1 44.8743 23.5886 45.8501 0.0000 -5.6665 0.0000
# 2 23.5886 90.6944 82.8652 0.0000 5.7090 0.0000
# 3 45.8501 82.8652 127.2214 0.0000 -0.9682 0.0000
# 4 0.0000 0.0000 0.0000 -118.8152 0.0000 -71.1554
# 5 -5.6665 5.7090 -0.9682 0.0000 18.9350 0.0000
# 6 0.0000 0.0000 0.0000 -71.1554 0.0000 -27.7598
#
#
#
# Elastic Compliance Matrix: (Units=1/GPa)
#
#
# Indices 1 2 3 4 5 6 
#
# 1 0.038063 0.004945 -0.016870 0.000000 0.009037 0.000000
# 2 0.004945 0.029547 -0.021092 0.000000 -0.008507 0.000000
# 3 -0.016870 -0.021092 0.027699 0.000000 0.002727 0.000000
# 4 0.000000 0.000000 0.000000 0.015730 0.000000 -0.040319
# 5 0.009037 -0.008507 0.002727 0.000000 0.058221 0.000000
# 6 0.000000 0.000000 0.000000 -0.040319 0.000000 0.067325
#
#
# Mechanical properties :
#
#
# Convention : Reuss Voigt Hill
#
# Bulk Modulus (GPa) = 34.15900 63.04424 48.60162
# Shear Modulus (GPa) = 16.00636 -18.16224 -1.07794
#
# Velocity S-wave (km/s) = 3.00086 -3.19657 -0.77875
# Velocity P-wave (km/s) = 5.58790 4.67381 5.15117
#
# Compressibility (1/GPa) = 0.02927486
#
# Stress axis : x y z
#
# Youngs Moduli (GPa) = 26.27226 33.84488 36.10240
#
# Poissons Ratio (x) = -0.16736 0.60904
# Poissons Ratio (y) = -0.12991 0.76147
# Poissons Ratio (z) = 0.44321 0.71385
#
# Static dielectric constant tensor:
#      x y z
#    x 3.223370 0.000000 -0.174820 
#    y 0.000000 3.106520 0.000000 
#    z -0.174820 0.000000 3.646770 
# 
# 
# High freq. dielectric constant tensor:
#      x y z
#    x 1.690100 0.000000 -0.014990 
#    y 0.000000 1.654900 0.000000 
#    z -0.014990 0.000000 1.702880 
# 
# From -- ./inp_files/40589.got.cif
#   From: 2010.06.25/outbox.cif.g09.slc.cpg/sg13_21_cif.got.tgz:40589.got - 2010.06.28 04:50:58.
