data_PCOD8118154
_publ_section_title
;
Structure prediction by ZEFSAII (Michael W. Deem and Ramdas Pophale) SiO2 
 PCOD8118154
Probable space group: P 2/C
;
_chemical_formula_sum "Si O2"
_cell_formula_units_Z 32
_cell_length_a 13.881491
_cell_length_b 12.204928
_cell_length_c 9.414545
_cell_angle_alpha 90.000000
_cell_angle_beta 87.564147
_cell_angle_gamma 90.000000
_cell_volume 1593.595448
_symmetry_space_group_name_H-M "P 2/C"
_symmetry_group_IT_number 13
_symmetry_cell_setting 'monoclinic'
loop_
_space_group_symop_operation_xyz
x,y,z
-x,y,1/2-z
-x,-y,-z
x,-y,1/2+z
loop_
_atom_site_type_symbol
_atom_site_label
_atom_site_fract_x
_atom_site_fract_y
_atom_site_fract_z
Si Si1 0.205187 0.178407 0.212048
Si Si2 0.071219 0.005200 0.625782
Si Si3 0.064128 0.346716 0.113816
Si Si4 0.894347 0.775409 0.490269
Si Si5 0.700792 0.471110 0.231866
Si Si6 0.177650 0.452339 0.526849
Si Si7 0.549093 0.404824 0.593236
Si Si8 0.410100 0.734451 0.666222
O O1 0.165526 0.291506 0.148636
O O2 0.173069 0.176064 0.378986
O O3 0.321103 0.179758 0.181886
O O4 0.163981 0.074451 0.126532
O O5 0.106145 0.131433 0.631710
O O6 0.000000 0.964830 0.750000
O O7 0.000000 0.000000 0.500000
O O8 0.092094 0.457910 0.029260
O O9 0.000000 0.384765 0.250000
O O10 0.003069 0.254797 0.033283
O O11 0.856337 0.665998 0.416276
O O12 0.731186 0.516360 0.382591
O O13 0.657277 0.563029 0.130606
O O14 0.620951 0.378000 0.255350
O O15 0.794553 0.430307 0.139630
O O16 0.500000 0.382871 0.750000
O O17 0.500000 0.500000 0.500000
O O18 0.557034 0.293509 0.498128
O O19 0.500000 0.783363 0.750000
#
# Coordination Sequence:
#
# PCOD8118154 Si02
#       8
#     4   4   4   4   4   4   4   4
#     4  11  21  42  66  92 127 166 215 267 324 379
#     4  12  23  43  72  97 123 164 223 274 316 374
#     4  10  19  36  60  88 134 175 203 250 322 388
#     4  11  23  38  64  94 128 172 213 266 322 381
#     4  12  20  35  56  87 130 171 216 248 308 380
#     4  12  23  36  57  92 137 176 205 255 316 392
#     4  12  20  33  57  87 126 168 216 268 305 376
#     4  12  23  39  65  89 120 172 217 257 321 384
#
# _framework density 20.080379000000001
#
# number of rings (size 3 to 8) (size 9 to 14) (size 15 to 20)
#    0.000    0.500    8.750    1.500    0.000    1.500 
#    2.250    0.000    0.000    0.750    0.000    1.750 
#    0.000    0.000    0.000    0.000    0.000    0.000 
#
# Total GULP energy -396554.223579 kJ/mol
# GULP energy per Si atom -12392.319487 kJ/mol
# Density = 2.003468 g / cm^3
# Si number density = 20.080379 Si / 1000 Ang^3
#
#
#
# Elastic Constant Matrix: (Units=GPa)
#
#
# Indices 1 2 3 4 5 6 
#
# 1 125.2141 42.0877 42.5134 0.0000 4.5390 0.0000
# 2 42.0877 101.2998 25.1962 0.0000 -0.4703 0.0000
# 3 42.5134 25.1962 90.6388 0.0000 -3.6861 0.0000
# 4 0.0000 0.0000 0.0000 20.6392 0.0000 -3.6547
# 5 4.5390 -0.4703 -3.6861 0.0000 28.2241 0.0000
# 6 0.0000 0.0000 0.0000 -3.6547 0.0000 25.2647
#
#
#
# Elastic Compliance Matrix: (Units=1/GPa)
#
#
# Indices 1 2 3 4 5 6 
#
# 1 0.010612 -0.003393 -0.004128 0.000000 -0.002302 0.000000
# 2 -0.003393 0.011691 -0.001637 0.000000 0.000527 0.000000
# 3 -0.004128 -0.001637 0.013522 0.000000 0.002403 0.000000
# 4 0.000000 0.000000 0.000000 0.049725 0.000000 0.007193
# 5 -0.002302 0.000527 0.002403 0.000000 0.036124 0.000000
# 6 0.000000 0.000000 0.000000 0.007193 0.000000 0.040622
#
#
# Mechanical properties :
#
#
# Convention : Reuss Voigt Hill
#
# Bulk Modulus (GPa) = 57.11398 59.63860 58.37629
# Shear Modulus (GPa) = 26.81736 28.64929 27.73332
#
# Velocity S-wave (km/s) = 3.65841 3.78131 3.72037
# Velocity P-wave (km/s) = 6.80807 6.98776 6.89850
#
# Compressibility (1/GPa) = 0.01750885
#
# Stress axis : x y z
#
# Youngs Moduli (GPa) = 94.23548 85.53592 73.95516
#
# Poissons Ratio (x) = 0.29022 0.30527
# Poissons Ratio (y) = 0.31973 0.12107
# Poissons Ratio (z) = 0.38899 0.14003
#
# Static dielectric constant tensor:
#      x y z
#    x 3.718970 0.000000 -0.052490 
#    y 0.000000 3.693890 0.000000 
#    z -0.052490 0.000000 3.596490 
# 
# 
# High freq. dielectric constant tensor:
#      x y z
#    x 1.787630 0.000000 0.000780 
#    y 0.000000 1.753050 0.000000 
#    z 0.000780 0.000000 1.782080 
# 
# From -- ./inp_files/19022.got.cif
#   From: 2010.06.25/outbox.cif.g09.slc.cpg/sg13_10_cif.got.tgz:19022.got - 2010.06.28 04:50:58.
