data_PCOD8118717
_publ_section_title
;
Structure prediction by ZEFSAII (Michael W. Deem and Ramdas Pophale) SiO2 
 PCOD8118717
Probable space group: P 2/C
;
_chemical_formula_sum "Si O2"
_cell_formula_units_Z 26
_cell_length_a 18.859054
_cell_length_b 6.723084
_cell_length_c 12.665226
_cell_angle_alpha 90.000000
_cell_angle_beta 127.089512
_cell_angle_gamma 90.000000
_cell_volume 1280.966853
_symmetry_space_group_name_H-M "P 2/C"
_symmetry_group_IT_number 13
_symmetry_cell_setting 'monoclinic'
loop_
_space_group_symop_operation_xyz
x,y,z
-x,y,1/2-z
-x,-y,-z
x,-y,1/2+z
loop_
_atom_site_type_symbol
_atom_site_label
_atom_site_fract_x
_atom_site_fract_y
_atom_site_fract_z
Si Si1 0.554378 0.190893 0.583935
Si Si2 0.863622 0.490012 0.973910
Si Si3 0.243324 0.832300 0.250997
Si Si4 0.549078 0.498549 0.390907
Si Si5 0.000000 0.708312 0.750000
Si Si6 0.858916 0.775257 0.782837
Si Si7 0.253794 0.462090 0.945046
O O1 0.656733 0.137287 0.705436
O O2 0.551448 0.351724 0.489902
O O3 0.503708 0.294711 0.635803
O O4 0.500000 0.000000 0.500000
O O5 0.817304 0.297721 0.880951
O O6 0.896724 0.647111 0.915616
O O7 0.790465 0.593742 0.983103
O O8 0.946122 0.432555 0.121674
O O9 0.252002 0.736877 0.374214
O O10 0.193662 0.040317 0.217732
O O11 0.500000 0.388992 0.250000
O O12 0.648766 0.546682 0.445257
O O13 0.937680 0.841070 0.771838
O O14 0.793695 0.640182 0.657487
#
# Coordination Sequence:
#
# PCOD8118717 Si02
#       7
#     4   4   4   4   2   4   4
#     4  10  21  36  55  82 116 151 192 235 275 329
#     4  10  21  39  61  83 111 146 186 233 285 344
#     4  10  21  37  58  84 112 151 191 228 285 339
#     4  10  20  35  55  81 113 150 190 233 278 327
#     4  10  22  40  60  86 114 144 184 236 296 346
#     4  10  21  39  60  82 112 146 186 234 284 344
#     4   9  20  37  56  81 114 148 186 233 282 332
#
# _framework density 20.297169
#
# number of rings (size 3 to 8) (size 9 to 14) (size 15 to 20)
#    0.000    2.154    0.000    2.308    0.000    7.385 
#    0.000   12.308    0.000    0.000    0.000    0.000 
#    0.000    0.000    0.000    0.000    0.000    0.000 
#
# Total GULP energy -322300.162813 kJ/mol
# GULP energy per Si atom -12396.160108 kJ/mol
# Density = 2.025097 g / cm^3
# Si number density = 20.297169 Si / 1000 Ang^3
#
#
#
# Elastic Constant Matrix: (Units=GPa)
#
#
# Indices 1 2 3 4 5 6 
#
# 1 107.7849 18.0775 42.8311 0.0000 14.1405 0.0000
# 2 18.0775 70.9746 22.6799 0.0000 13.8757 0.0000
# 3 42.8311 22.6799 114.0122 0.0000 7.7082 0.0000
# 4 0.0000 0.0000 0.0000 7.1098 0.0000 8.6134
# 5 14.1405 13.8757 7.7082 0.0000 31.4348 0.0000
# 6 0.0000 0.0000 0.0000 8.6134 0.0000 22.6277
#
#
#
# Elastic Compliance Matrix: (Units=1/GPa)
#
#
# Indices 1 2 3 4 5 6 
#
# 1 0.011470 -0.000945 -0.003864 0.000000 -0.003795 0.000000
# 2 -0.000945 0.016329 -0.002476 0.000000 -0.006176 0.000000
# 3 -0.003864 -0.002476 0.010701 0.000000 0.000207 0.000000
# 4 0.000000 0.000000 0.000000 0.261025 0.000000 -0.099361
# 5 -0.003795 -0.006176 0.000207 0.000000 0.036194 0.000000
# 6 0.000000 0.000000 0.000000 -0.099361 0.000000 0.082016
#
#
# Mechanical properties :
#
#
# Convention : Reuss Voigt Hill
#
# Bulk Modulus (GPa) = 41.78856 51.10543 46.44699
# Shear Modulus (GPa) = 11.35638 26.18000 18.76819
#
# Velocity S-wave (km/s) = 2.36795 3.59532 3.04414
# Velocity P-wave (km/s) = 5.30182 6.51678 5.94044
#
# Compressibility (1/GPa) = 0.02393000
#
# Stress axis : x y z
#
# Youngs Moduli (GPa) = 87.18683 61.24218 93.44738
#
# Poissons Ratio (x) = 0.05785 0.36111
# Poissons Ratio (y) = 0.08236 0.23136
# Poissons Ratio (z) = 0.33692 0.15162
#
# Static dielectric constant tensor:
#      x y z
#    x 4.295610 0.000000 0.031050 
#    y 0.000000 3.406590 0.000000 
#    z 0.031050 0.000000 3.696490 
# 
# 
# High freq. dielectric constant tensor:
#      x y z
#    x 1.812940 0.000000 0.001790 
#    y 0.000000 1.766260 0.000000 
#    z 0.001790 0.000000 1.803900 
# 
# From -- ./inp_files/56269.got.cif
#   From: 2010.06.25/outbox.cif.g09.slc.cpg/sg13_29_cif.got.tgz:56269.got - 2010.06.28 04:50:58.
