data_PCOD8118204
_publ_section_title
;
Structure prediction by ZEFSAII (Michael W. Deem and Ramdas Pophale) SiO2 
 PCOD8118204
Probable space group: P 2/C
;
_chemical_formula_sum "Si O2"
_cell_formula_units_Z 32
_cell_length_a 11.993725
_cell_length_b 15.337142
_cell_length_c 18.684650
_cell_angle_alpha 90.000000
_cell_angle_beta 153.545060
_cell_angle_gamma 90.000000
_cell_volume 1531.176353
_symmetry_space_group_name_H-M "P 2/C"
_symmetry_group_IT_number 13
_symmetry_cell_setting 'monoclinic'
loop_
_space_group_symop_operation_xyz
x,y,z
-x,y,1/2-z
-x,-y,-z
x,-y,1/2+z
loop_
_atom_site_type_symbol
_atom_site_label
_atom_site_fract_x
_atom_site_fract_y
_atom_site_fract_z
Si Si1 0.146833 0.889205 0.649217
Si Si2 0.269584 0.603011 0.668167
Si Si3 0.645200 0.299281 0.997705
Si Si4 0.696646 0.600611 0.300282
Si Si5 0.998235 0.075046 0.584335
Si Si6 0.503881 0.887354 0.433349
Si Si7 0.160954 0.290756 0.236448
Si Si8 0.652380 0.927359 0.006958
O O1 0.119827 0.868858 0.548835
O O2 0.101971 0.807537 0.675982
O O3 0.425512 0.921996 0.821396
O O4 0.953297 0.969730 0.552382
O O5 0.500000 0.631375 0.750000
O O6 0.301959 0.502722 0.707832
O O7 0.312172 0.657605 0.763793
O O8 0.988381 0.627717 0.478723
O O9 0.404065 0.352315 0.829881
O O10 0.640961 0.196036 0.979513
O O11 0.662474 0.302945 0.093338
O O12 0.893479 0.335493 0.101002
O O13 0.500000 0.628525 0.250000
O O14 0.890385 0.106229 0.599141
O O15 0.290764 0.093943 0.753046
O O16 0.387909 0.868526 0.445888
O O17 0.688630 0.970306 0.549427
#
# Coordination Sequence:
#
# PCOD8118204 Si02
#       8
#     4   4   4   4   4   4   4   4
#     4  10  21  37  53  84 120 156 215 260 315 376
#     4  10  23  43  70 100 131 167 204 260 337 398
#     4  11  23  40  65  94 128 166 222 267 310 390
#     4  10  21  44  72  99 129 166 214 261 320 400
#     4  10  21  34  56  81 115 167 211 263 317 369
#     4  10  21  35  55  85 116 159 216 257 308 374
#     4  11  23  41  63  94 129 172 212 268 326 377
#     4  10  19  37  54  76 120 167 207 257 318 374
#
# _framework density 20.898966000000001
#
# number of rings (size 3 to 8) (size 9 to 14) (size 15 to 20)
#    0.000    1.750    2.500    1.500    1.750    1.500 
#    0.000    1.875    0.000    0.000    0.000    0.000 
#    0.000    0.000    0.000    0.000    0.000    0.000 
#
# Total GULP energy -396481.605698 kJ/mol
# GULP energy per Si atom -12390.050178 kJ/mol
# Density = 2.085140 g / cm^3
# Si number density = 20.898966 Si / 1000 Ang^3
#
#
#
# Elastic Constant Matrix: (Units=GPa)
#
#
# Indices 1 2 3 4 5 6 
#
# 1 119.7761 35.6330 46.6058 0.0000 -3.8377 0.0000
# 2 35.6330 54.6773 37.8347 0.0000 -6.8466 0.0000
# 3 46.6058 37.8347 117.4117 0.0000 -9.4341 0.0000
# 4 0.0000 0.0000 0.0000 28.3947 0.0000 -6.6407
# 5 -3.8377 -6.8466 -9.4341 0.0000 35.6793 0.0000
# 6 0.0000 0.0000 0.0000 -6.6407 0.0000 27.1173
#
#
#
# Elastic Compliance Matrix: (Units=1/GPa)
#
#
# Indices 1 2 3 4 5 6 
#
# 1 0.010967 -0.005371 -0.002667 0.000000 -0.000556 0.000000
# 2 -0.005371 0.026400 -0.006145 0.000000 0.002863 0.000000
# 3 -0.002667 -0.006145 0.011686 0.000000 0.001624 0.000000
# 4 0.000000 0.000000 0.000000 0.037357 0.000000 0.009148
# 5 -0.000556 0.002863 0.001624 0.000000 0.028947 0.000000
# 6 0.000000 0.000000 0.000000 0.009148 0.000000 0.039117
#
#
# Mechanical properties :
#
#
# Convention : Reuss Voigt Hill
#
# Bulk Modulus (GPa) = 48.34011 59.11247 53.72629
# Shear Modulus (GPa) = 26.35234 29.69103 28.02168
#
# Velocity S-wave (km/s) = 3.55482 3.77330 3.66569
# Velocity P-wave (km/s) = 6.32690 6.87968 6.60907
#
# Compressibility (1/GPa) = 0.02068675
#
# Stress axis : x y z
#
# Youngs Moduli (GPa) = 91.18456 37.87854 85.56959
#
# Poissons Ratio (x) = 0.20345 0.22822
# Poissons Ratio (y) = 0.48976 0.52583
# Poissons Ratio (z) = 0.24320 0.23277
#
# Static dielectric constant tensor:
#      x y z
#    x 3.709320 0.000000 -0.042140 
#    y 0.000000 3.562710 0.000000 
#    z -0.042140 0.000000 3.790480 
# 
# 
# High freq. dielectric constant tensor:
#      x y z
#    x 1.814870 0.000000 -0.006540 
#    y 0.000000 1.790570 0.000000 
#    z -0.006540 0.000000 1.823480 
# 
# From -- ./inp_files/66950.got.cif
#   From: 2010.06.25/outbox.cif.g09.slc.cpg/sg13_34_cif.got.tgz:66950.got - 2010.06.28 04:50:58.
