data_PCOD8118069
_publ_section_title
;
Structure prediction by ZEFSAII (Michael W. Deem and Ramdas Pophale) SiO2 
 PCOD8118069
Probable space group: P 2/C
;
_chemical_formula_sum "Si O2"
_cell_formula_units_Z 24
_cell_length_a 19.196089
_cell_length_b 9.193218
_cell_length_c 19.488838
_cell_angle_alpha 90.000000
_cell_angle_beta 20.964921
_cell_angle_gamma 90.000000
_cell_volume 1230.558057
_symmetry_space_group_name_H-M "P 2/C"
_symmetry_group_IT_number 13
_symmetry_cell_setting 'monoclinic'
loop_
_space_group_symop_operation_xyz
x,y,z
-x,y,1/2-z
-x,-y,-z
x,-y,1/2+z
loop_
_atom_site_type_symbol
_atom_site_label
_atom_site_fract_x
_atom_site_fract_y
_atom_site_fract_z
Si Si1 0.324569 0.487536 0.078669
Si Si2 0.856741 0.834101 0.574637
Si Si3 0.059958 0.613462 0.121664
Si Si4 0.627850 0.615185 0.193133
Si Si5 0.803921 0.159767 0.635871
Si Si6 0.519875 0.257516 0.474650
O O1 0.368521 0.622172 0.087820
O O2 0.111867 0.509749 0.245345
O O3 0.491537 0.477641 0.868326
O O4 0.321267 0.335459 0.122797
O O5 0.889025 0.745369 0.475533
O O6 0.016333 0.781901 0.483545
O O7 0.871597 0.004851 0.543146
O O8 0.637392 0.814600 0.804583
O O9 0.000000 0.682930 0.250000
O O10 0.239334 0.504708 0.965814
O O11 0.500000 0.691173 0.250000
O O12 0.755630 0.733054 0.117121
O O13 0.611783 0.143152 0.861201
#
# Coordination Sequence:
#
# PCOD8118069 Si02
#       6
#     4   4   4   4   4   4
#     4  10  20  34  58  93 113 148 194 251 292 346
#     4  11  22  39  61  88 120 157 195 243 298 351
#     4  12  23  37  60  87 118 155 198 246 297 351
#     4  11  22  40  60  85 119 156 200 243 299 351
#     4  10  23  39  61  88 120 155 197 244 294 356
#     4  10  19  35  62  88 116 147 197 245 296 343
#
# _framework density 19.503346000000001
#
# number of rings (size 3 to 8) (size 9 to 14) (size 15 to 20)
#    0.000    1.333    5.000    1.500    0.000    1.333 
#    0.000    3.333    3.667    0.000    0.000    0.000 
#    0.000    0.000    0.000    0.000    0.000    0.000 
#
# Total GULP energy -297540.946414 kJ/mol
# GULP energy per Si atom -12397.539434 kJ/mol
# Density = 1.945896 g / cm^3
# Si number density = 19.503346 Si / 1000 Ang^3
#
#
#
# Elastic Constant Matrix: (Units=GPa)
#
#
# Indices 1 2 3 4 5 6 
#
# 1 113.4496 45.6622 32.4621 0.0000 5.3956 0.0000
# 2 45.6622 75.9996 34.9155 0.0000 3.2864 0.0000
# 3 32.4621 34.9155 79.8494 0.0000 12.0365 0.0000
# 4 0.0000 0.0000 0.0000 19.8993 0.0000 -3.0442
# 5 5.3956 3.2864 12.0365 0.0000 33.1005 0.0000
# 6 0.0000 0.0000 0.0000 -3.0442 0.0000 11.9628
#
#
#
# Elastic Compliance Matrix: (Units=1/GPa)
#
#
# Indices 1 2 3 4 5 6 
#
# 1 0.011923 -0.006197 -0.002050 0.000000 -0.000583 0.000000
# 2 -0.006197 0.019720 -0.006307 0.000000 0.001346 0.000000
# 3 -0.002050 -0.006307 0.016896 0.000000 -0.005184 0.000000
# 4 0.000000 0.000000 0.000000 0.052289 0.000000 0.013306
# 5 -0.000583 0.001346 -0.005184 0.000000 0.032057 0.000000
# 6 0.000000 0.000000 0.000000 0.013306 0.000000 0.086979
#
#
# Mechanical properties :
#
#
# Convention : Reuss Voigt Hill
#
# Bulk Modulus (GPa) = 51.45858 55.04200 53.25029
# Shear Modulus (GPa) = 19.57353 23.40977 21.49165
#
# Velocity S-wave (km/s) = 3.17140 3.46829 3.32316
# Velocity P-wave (km/s) = 6.31285 6.65746 6.48745
#
# Compressibility (1/GPa) = 0.01943310
#
# Stress axis : x y z
#
# Youngs Moduli (GPa) = 83.87326 50.70939 59.18586
#
# Poissons Ratio (x) = 0.31423 0.12131
# Poissons Ratio (y) = 0.51973 0.37326
# Poissons Ratio (z) = 0.17191 0.31981
#
# Static dielectric constant tensor:
#      x y z
#    x 3.575970 0.000000 -0.030570 
#    y 0.000000 3.262080 0.000000 
#    z -0.030570 0.000000 3.636350 
# 
# 
# High freq. dielectric constant tensor:
#      x y z
#    x 1.754650 0.000000 -0.003140 
#    y 0.000000 1.739750 0.000000 
#    z -0.003140 0.000000 1.774480 
# 
# From -- ./inp_files/81643.got.cif
#   From: 2010.06.25/outbox.cif.g09.slc.cpg/sg13_41_cif.got.tgz:81643.got - 2010.06.28 04:50:58.
