data_PCOD8118268
_publ_section_title
;
Structure prediction by ZEFSAII (Michael W. Deem and Ramdas Pophale) SiO2 
 PCOD8118268
Probable space group: P 2/C
;
_chemical_formula_sum "Si O2"
_cell_formula_units_Z 32
_cell_length_a 15.416362
_cell_length_b 11.798391
_cell_length_c 17.805806
_cell_angle_alpha 90.000000
_cell_angle_beta 149.974756
_cell_angle_gamma 90.000000
_cell_volume 1620.569193
_symmetry_space_group_name_H-M "P 2/C"
_symmetry_group_IT_number 13
_symmetry_cell_setting 'monoclinic'
loop_
_space_group_symop_operation_xyz
x,y,z
-x,y,1/2-z
-x,-y,-z
x,-y,1/2+z
loop_
_atom_site_type_symbol
_atom_site_label
_atom_site_fract_x
_atom_site_fract_y
_atom_site_fract_z
Si Si1 0.180345 0.367010 0.173929
Si Si2 0.073540 0.988484 0.174212
Si Si3 0.837963 0.763145 0.177199
Si Si4 0.725117 0.988484 0.825788
Si Si5 0.013270 0.764205 0.675365
Si Si6 0.662541 0.235795 0.824635
Si Si7 0.832488 0.367010 0.826071
Si Si8 0.516435 0.236855 0.177199
O O1 0.153620 0.309729 0.235198
O O2 0.198328 0.500000 0.198327
O O3 0.355262 0.320424 0.269625
O O4 0.021323 0.334336 0.000000
O O5 0.132442 0.891959 0.275115
O O6 0.213214 1.000000 0.213214
O O7 0.069750 0.104923 0.217344
O O8 0.886551 0.956725 1.000000
O O9 0.816012 0.679576 0.230375
O O10 0.000000 0.720138 0.250000
O O11 0.669261 0.757276 0.000000
O O12 0.582212 0.891959 0.724885
O O13 0.635061 0.104923 0.782656
O O14 0.000000 0.719197 0.750000
O O15 0.828342 0.746152 0.500000
O O16 0.500000 0.280804 0.750000
O O17 0.683223 0.309729 0.764802
O O18 0.500000 0.279862 0.250000
#
# Coordination Sequence:
#
# PCOD8118268 Si02
#       8
#     4   4   4   4   4   4   4   4
#     4  10  22  43  66  87 117 160 207 253 305 357
#     4  10  19  37  63  89 122 157 197 246 303 364
#     4  12  25  40  62  91 125 161 204 251 302 364
#     4  10  19  37  63  89 122 157 197 246 303 364
#     4  10  21  37  60  89 120 155 192 243 300 359
#     4  10  21  37  60  89 120 155 192 243 300 359
#     4  10  22  43  66  87 117 160 207 253 305 357
#     4  12  25  40  62  91 125 161 204 251 302 364
#
# _framework density 19.746148000000002
#
# number of rings (size 3 to 8) (size 9 to 14) (size 15 to 20)
#    0.000    1.500    2.500    3.000    0.000    6.000 
#    0.000    2.500    0.000    0.000    0.000    0.000 
#    0.000    0.000    0.000    0.000    0.000    0.000 
#
# Total GULP energy -396979.471575 kJ/mol
# GULP energy per Si atom -12405.608487 kJ/mol
# Density = 1.970121 g / cm^3
# Si number density = 19.746148 Si / 1000 Ang^3
#
#
#
# Elastic Constant Matrix: (Units=GPa)
#
#
# Indices 1 2 3 4 5 6 
#
# 1 179.7801 60.6164 74.1331 0.0000 0.9927 0.0000
# 2 60.6164 93.6868 49.7509 0.0000 0.3624 0.0000
# 3 74.1331 49.7509 104.6724 0.0000 1.5117 0.0000
# 4 0.0000 0.0000 0.0000 -2.7316 0.0000 0.2681
# 5 0.9927 0.3624 1.5117 0.0000 37.9201 0.0000
# 6 0.0000 0.0000 0.0000 0.2681 0.0000 5.3025
#
#
#
# Elastic Compliance Matrix: (Units=1/GPa)
#
#
# Indices 1 2 3 4 5 6 
#
# 1 0.008469 -0.003069 -0.004539 0.000000 -0.000011 0.000000
# 2 -0.003069 0.015390 -0.005143 0.000000 0.000138 0.000000
# 3 -0.004539 -0.005143 0.015219 0.000000 -0.000439 0.000000
# 4 0.000000 0.000000 0.000000 -0.364280 0.000000 0.018419
# 5 -0.000011 0.000138 -0.000439 0.000000 0.026388 0.000000
# 6 0.000000 0.000000 0.000000 0.018419 0.000000 0.187659
#
#
# Mechanical properties :
#
#
# Convention : Reuss Voigt Hill
#
# Bulk Modulus (GPa) = 73.66215 83.01556 78.33885
# Shear Modulus (GPa) = -61.63230 21.00746 -20.31242
#
# Velocity S-wave (km/s) = -5.59286 3.26525 -3.21078
# Velocity P-wave (km/s) = 2.07875 7.50656 5.10036
#
# Compressibility (1/GPa) = 0.01357549
#
# Stress axis : x y z
#
# Youngs Moduli (GPa) = 118.07868 64.97579 65.70528
#
# Poissons Ratio (x) = 0.19941 0.29825
# Poissons Ratio (y) = 0.36238 0.33795
# Poissons Ratio (z) = 0.53598 0.33420
#
# Static dielectric constant tensor:
#      x y z
#    x 3.766280 0.000000 0.011320 
#    y 0.000000 3.617160 0.000000 
#    z 0.011320 0.000000 3.426850 
# 
# 
# High freq. dielectric constant tensor:
#      x y z
#    x 1.789120 0.000000 0.001080 
#    y 0.000000 1.768730 0.000000 
#    z 0.001080 0.000000 1.756860 
# 
# From -- ./inp_files/68701.got.cif
#   From: 2010.06.25/outbox.cif.g09.slc.cpg/sg13_35_cif.got.tgz:68701.got - 2010.06.28 04:50:58.
