data_PCOD8118371
_publ_section_title
;
Structure prediction by ZEFSAII (Michael W. Deem and Ramdas Pophale) SiO2 
 PCOD8118371
Probable space group: P 2/C
;
_chemical_formula_sum "Si O2"
_cell_formula_units_Z 32
_cell_length_a 13.889351
_cell_length_b 8.323676
_cell_length_c 24.796233
_cell_angle_alpha 90.000000
_cell_angle_beta 32.174883
_cell_angle_gamma 90.000000
_cell_volume 1526.534920
_symmetry_space_group_name_H-M "P 2/C"
_symmetry_group_IT_number 13
_symmetry_cell_setting 'monoclinic'
loop_
_space_group_symop_operation_xyz
x,y,z
-x,y,1/2-z
-x,-y,-z
x,-y,1/2+z
loop_
_atom_site_type_symbol
_atom_site_label
_atom_site_fract_x
_atom_site_fract_y
_atom_site_fract_z
Si Si1 0.041042 0.625562 0.873063
Si Si2 0.873858 0.181782 0.353913
Si Si3 0.437934 0.880325 0.220104
Si Si4 0.257968 0.963180 0.996840
Si Si5 0.709228 0.496268 0.392573
Si Si6 0.927843 0.055428 0.090734
Si Si7 0.263212 0.402988 0.508189
Si Si8 0.640927 0.570575 0.309993
O O1 0.039710 0.752604 0.922587
O O2 0.244496 0.558697 0.777676
O O3 0.990997 0.722261 0.842567
O O4 0.898845 0.479482 0.950642
O O5 0.767461 0.310062 0.367297
O O6 0.000000 0.090094 0.250000
O O7 0.736133 0.055611 0.447970
O O8 0.500000 0.820803 0.250000
O O9 0.356894 0.736451 0.223210
O O10 0.282001 0.013964 0.299995
O O11 0.611229 0.951341 0.107595
O O12 0.315895 0.778607 0.970590
O O13 0.048951 0.968071 0.078392
O O14 0.500000 0.500000 0.500000
O O15 0.801195 0.591407 0.398618
O O16 0.748532 0.582146 0.316502
O O17 0.000000 0.000000 0.000000
O O18 0.436385 0.513820 0.415101
#
# Coordination Sequence:
#
# PCOD8118371 Si02
#       8
#     4   4   4   4   4   4   4   4
#     4  10  21  40  66  92 128 168 210 261 327 388
#     4  10  19  38  66  94 132 176 208 260 329 399
#     4  12  25  44  68  92 126 176 224 277 336 383
#     4  11  23  44  65  94 134 169 217 272 326 394
#     4   9  18  36  61  89 126 166 206 257 323 388
#     4  11  23  44  69  89 126 171 216 276 333 384
#     4  10  22  39  63  96 129 165 212 264 319 395
#     4  11  21  41  63  92 128 166 217 267 323 392
#
# _framework density 20.962506999999999
#
# number of rings (size 3 to 8) (size 9 to 14) (size 15 to 20)
#    0.000    1.500    2.500    4.500    0.000    0.000 
#    9.000    4.375    0.000    0.000    0.000    0.000 
#    0.000    0.000    0.000    0.000    0.000    0.000 
#
# Total GULP energy -396585.863202 kJ/mol
# GULP energy per Si atom -12393.308225 kJ/mol
# Density = 2.091480 g / cm^3
# Si number density = 20.962507 Si / 1000 Ang^3
#
#
#
# Elastic Constant Matrix: (Units=GPa)
#
#
# Indices 1 2 3 4 5 6 
#
# 1 84.3797 50.0135 37.2467 0.0000 8.2692 0.0000
# 2 50.0135 124.2243 36.9908 0.0000 18.7585 0.0000
# 3 37.2467 36.9908 112.0596 0.0000 10.9227 0.0000
# 4 0.0000 0.0000 0.0000 36.8462 0.0000 -2.4468
# 5 8.2692 18.7585 10.9227 0.0000 34.3742 0.0000
# 6 0.0000 0.0000 0.0000 -2.4468 0.0000 28.4499
#
#
#
# Elastic Compliance Matrix: (Units=1/GPa)
#
#
# Indices 1 2 3 4 5 6 
#
# 1 0.016866 -0.005713 -0.003744 0.000000 0.000250 0.000000
# 2 -0.005713 0.011448 -0.001450 0.000000 -0.004412 0.000000
# 3 -0.003744 -0.001450 0.010817 0.000000 -0.001745 0.000000
# 4 0.000000 0.000000 0.000000 0.027296 0.000000 0.002348
# 5 0.000250 -0.004412 -0.001745 0.000000 0.031994 0.000000
# 6 0.000000 0.000000 0.000000 0.002348 0.000000 0.035351
#
#
# Mechanical properties :
#
#
# Convention : Reuss Voigt Hill
#
# Bulk Modulus (GPa) = 57.74981 63.24062 60.49521
# Shear Modulus (GPa) = 30.98683 33.02825 32.00754
#
# Velocity S-wave (km/s) = 3.84891 3.97367 3.91179
# Velocity P-wave (km/s) = 6.88194 7.16152 7.02312
#
# Compressibility (1/GPa) = 0.01731608
#
# Stress axis : x y z
#
# Youngs Moduli (GPa) = 59.29172 87.35052 92.44580
#
# Poissons Ratio (x) = 0.49904 0.34615
# Poissons Ratio (y) = 0.33874 0.13405
# Poissons Ratio (z) = 0.22201 0.12666
#
# Static dielectric constant tensor:
#      x y z
#    x 4.266380 0.000000 0.159460 
#    y 0.000000 3.552660 0.000000 
#    z 0.159460 0.000000 3.907210 
# 
# 
# High freq. dielectric constant tensor:
#      x y z
#    x 1.811950 0.000000 -0.002220 
#    y 0.000000 1.808180 0.000000 
#    z -0.002220 0.000000 1.832490 
# 
# From -- ./inp_files/92826.got.cif
#   From: 2010.06.25/outbox.cif.g09.slc.cpg/sg13_47_cif.got.tgz:92826.got - 2010.06.28 04:50:58.
