data_PCOD8118491
_publ_section_title
;
Structure prediction by ZEFSAII (Michael W. Deem and Ramdas Pophale) SiO2 
 PCOD8118491
Probable space group: P 2/C
;
_chemical_formula_sum "Si O2"
_cell_formula_units_Z 32
_cell_length_a 26.955025
_cell_length_b 15.293771
_cell_length_c 8.974307
_cell_angle_alpha 90.000000
_cell_angle_beta 146.339924
_cell_angle_gamma 90.000000
_cell_volume 2050.559485
_symmetry_space_group_name_H-M "P 2/C"
_symmetry_group_IT_number 13
_symmetry_cell_setting 'monoclinic'
loop_
_space_group_symop_operation_xyz
x,y,z
-x,y,1/2-z
-x,-y,-z
x,-y,1/2+z
loop_
_atom_site_type_symbol
_atom_site_label
_atom_site_fract_x
_atom_site_fract_y
_atom_site_fract_z
Si Si1 0.894051 0.260535 0.156007
Si Si2 0.219046 0.406280 0.123815
Si Si3 0.583125 0.406530 0.880543
Si Si4 0.893427 0.914083 0.151682
Si Si5 0.416875 0.406532 0.964917
Si Si6 0.105948 0.260535 0.685749
Si Si7 0.219046 0.406281 0.471416
Si Si8 0.106573 0.914083 0.684546
O O1 0.852620 0.342262 0.136761
O O2 0.858834 0.171229 0.142329
O O3 1.000000 0.268444 0.435864
O O4 0.863163 0.260685 0.907908
O O5 0.318645 0.364406 0.349448
O O6 0.197962 0.418122 0.244904
O O7 0.147380 0.342261 0.873661
O O8 0.209582 0.499999 0.023955
O O9 0.500000 0.353220 0.750000
O O10 0.561131 0.416940 0.652829
O O11 0.587025 0.499999 0.967564
O O12 0.858835 0.828772 0.151846
O O13 0.000000 0.916784 0.417870
O O14 0.855154 0.000000 0.137884
O O15 0.856118 0.911726 0.890297
O O16 0.318645 0.364408 0.743777
O O17 0.500000 0.353222 0.250000
#
# Coordination Sequence:
#
# PCOD8118491 Si02
#       8
#     4   4   4   4   4   4   4   4
#     4  10  20  32  45  62  85 115 150 184 217 254
#     4  10  20  32  45  62  85 115 149 182 216 255
#     4   9  16  26  42  62  82 105 135 172 215 259
#     4   9  16  27  44  64  85 109 138 175 218 260
#     4   9  16  26  42  62  82 105 135 172 215 259
#     4  10  20  32  45  62  85 115 150 184 217 254
#     4  10  20  32  45  62  85 115 149 182 216 255
#     4   9  16  27  44  64  85 109 138 175 218 260
#
# _framework density 15.605496
#
# number of rings (size 3 to 8) (size 9 to 14) (size 15 to 20)
#    0.000    2.500    0.000    3.750    0.000    8.000 
#    0.000    0.000    0.000    0.000    0.000    0.000 
#    0.000    1.000    0.000   10.500    0.000    6.250 
#
# Total GULP energy -396598.569443 kJ/mol
# GULP energy per Si atom -12393.705295 kJ/mol
# Density = 1.556998 g / cm^3
# Si number density = 15.605496 Si / 1000 Ang^3
#
#
#
# Elastic Constant Matrix: (Units=GPa)
#
#
# Indices 1 2 3 4 5 6 
#
# 1 101.9410 47.9627 39.9299 0.0000 -28.3876 0.0000
# 2 47.9627 96.1710 39.8209 0.0000 -13.5222 0.0000
# 3 39.9299 39.8209 69.1805 0.0000 -26.0190 0.0000
# 4 0.0000 0.0000 0.0000 9.9563 0.0000 -13.4085
# 5 -28.3876 -13.5222 -26.0190 0.0000 26.3931 0.0000
# 6 0.0000 0.0000 0.0000 -13.4085 0.0000 18.0305
#
#
#
# Elastic Compliance Matrix: (Units=1/GPa)
#
#
# Indices 1 2 3 4 5 6 
#
# 1 0.017013 -0.006084 -0.000966 0.000000 0.014229 0.000000
# 2 -0.006084 0.015851 -0.007977 0.000000 -0.006286 0.000000
# 3 -0.000966 -0.007977 0.028092 0.000000 0.022568 0.000000
# 4 0.000000 0.000000 0.000000-66.036755 0.000000-49.108884
# 5 0.014229 -0.006286 0.022568 0.000000 0.072221 0.000000
# 6 0.000000 0.000000 0.000000-49.108884 0.000000-36.464844
#
#
# Mechanical properties :
#
#
# Convention : Reuss Voigt Hill
#
# Bulk Modulus (GPa) = 32.35985 58.07994 45.21990
# Shear Modulus (GPa) = -0.04886 20.18123 10.06618
#
# Velocity S-wave (km/s) = -0.17714 3.60003 2.54252
# Velocity P-wave (km/s) = 4.55405 7.38774 6.13670
#
# Compressibility (1/GPa) = 0.03090250
#
# Stress axis : x y z
#
# Youngs Moduli (GPa) = 58.77902 63.08558 35.59746
#
# Poissons Ratio (x) = 0.38382 0.03438
# Poissons Ratio (y) = 0.35762 0.28396
# Poissons Ratio (z) = 0.05677 0.50323
#
# Static dielectric constant tensor:
#      x y z
#    x 3.286600 0.000000 0.040270 
#    y 0.000000 2.831430 0.000000 
#    z 0.040270 0.000000 3.310850 
# 
# 
# High freq. dielectric constant tensor:
#      x y z
#    x 1.606670 0.000000 -0.025640 
#    y 0.000000 1.566940 0.000000 
#    z -0.025640 0.000000 1.591240 
# 
# From -- ./inp_files/24960.got.cif
#   From: 2010.06.25/outbox.cif.g09.slc.cpg/sg13_13_cif.got.tgz:24960.got - 2010.06.28 04:50:58.
