data_PCOD8118064
_publ_section_title
;
Structure prediction by ZEFSAII (Michael W. Deem and Ramdas Pophale) SiO2 
 PCOD8118064
Probable space group: P 2/C
;
_chemical_formula_sum "Si O2"
_cell_formula_units_Z 32
_cell_length_a 15.275079
_cell_length_b 15.538839
_cell_length_c 21.884713
_cell_angle_alpha 90.000000
_cell_angle_beta 18.183980
_cell_angle_gamma 90.000000
_cell_volume 1621.040718
_symmetry_space_group_name_H-M "P 2/C"
_symmetry_group_IT_number 13
_symmetry_cell_setting 'monoclinic'
loop_
_space_group_symop_operation_xyz
x,y,z
-x,y,1/2-z
-x,-y,-z
x,-y,1/2+z
loop_
_atom_site_type_symbol
_atom_site_label
_atom_site_fract_x
_atom_site_fract_y
_atom_site_fract_z
Si Si1 0.178814 0.055865 0.464284
Si Si2 0.238180 0.139445 0.550192
Si Si3 0.986523 0.701161 0.929511
Si Si4 0.972351 0.415175 0.674154
Si Si5 0.376470 0.667027 0.987434
Si Si6 0.193456 0.420514 0.848987
Si Si7 0.868273 0.892247 0.638900
Si Si8 0.157586 0.593483 0.583890
O O1 0.500000 0.026668 0.250000
O O2 0.141788 0.123099 0.544233
O O3 0.072718 0.101909 0.472839
O O4 0.003664 0.968368 0.588862
O O5 0.255316 0.239364 0.553926
O O6 0.536238 0.098157 0.369293
O O7 0.000000 0.095810 0.750000
O O8 0.841586 0.675360 0.961819
O O9 0.294316 0.661529 0.727339
O O10 0.995427 0.803900 0.928203
O O11 0.814876 0.658731 0.098571
O O12 0.926850 0.385546 0.635206
O O13 0.281792 0.389149 0.492023
O O14 0.962320 0.518670 0.684518
O O15 0.744584 0.370871 0.869262
O O16 0.523298 0.441838 0.619321
O O17 0.000000 0.500000 0.000000
O O18 0.000000 0.622835 0.750000
#
# Coordination Sequence:
#
# PCOD8118064 Si02
#       8
#     4   4   4   4   4   4   4   4
#     4   9  19  38  62  87 119 156 197 242 301 368
#     4  10  19  35  61  92 123 145 196 257 296 351
#     4  11  24  39  61  86 124 154 204 257 298 351
#     4  11  22  38  62  82 118 158 202 240 307 360
#     4  10  21  39  60  90 116 160 200 248 301 367
#     4  12  26  39  59  90 120 155 205 263 299 345
#     4   9  21  39  60  88 118 163 197 237 308 369
#     4  12  25  42  60  83 121 166 204 244 303 370
#
# _framework density 19.740404999999999
#
# number of rings (size 3 to 8) (size 9 to 14) (size 15 to 20)
#    0.000    1.500    3.750    1.875    1.750    4.000 
#    0.000    0.625    0.000    0.000    0.000    0.000 
#    0.000    0.000    0.000    0.000    0.000    0.000 
#
# Total GULP energy -396697.579206 kJ/mol
# GULP energy per Si atom -12396.799350 kJ/mol
# Density = 1.969547 g / cm^3
# Si number density = 19.740405 Si / 1000 Ang^3
#
#
#
# Elastic Constant Matrix: (Units=GPa)
#
#
# Indices 1 2 3 4 5 6 
#
# 1 117.1349 39.1738 43.5773 0.0000 14.7778 0.0000
# 2 39.1738 90.5537 39.8632 0.0000 4.5027 0.0000
# 3 43.5773 39.8632 107.4424 0.0000 8.3082 0.0000
# 4 0.0000 0.0000 0.0000 27.4606 0.0000 -3.7955
# 5 14.7778 4.5027 8.3082 0.0000 24.0865 0.0000
# 6 0.0000 0.0000 0.0000 -3.7955 0.0000 30.4225
#
#
#
# Elastic Compliance Matrix: (Units=1/GPa)
#
#
# Indices 1 2 3 4 5 6 
#
# 1 0.011451 -0.003376 -0.002977 0.000000 -0.005368 0.000000
# 2 -0.003376 0.014210 -0.003963 0.000000 0.000782 0.000000
# 3 -0.002977 -0.003963 0.012109 0.000000 -0.001610 0.000000
# 4 0.000000 0.000000 0.000000 0.037055 0.000000 0.004623
# 5 -0.005368 0.000782 -0.001610 0.000000 0.045219 0.000000
# 6 0.000000 0.000000 0.000000 0.004623 0.000000 0.033447
#
#
# Mechanical properties :
#
#
# Convention : Reuss Voigt Hill
#
# Bulk Modulus (GPa) = 58.35081 62.26219 60.30650
# Shear Modulus (GPa) = 27.80316 29.22838 28.51577
#
# Velocity S-wave (km/s) = 3.75699 3.85208 3.80483
# Velocity P-wave (km/s) = 6.96012 7.16894 7.06530
#
# Compressibility (1/GPa) = 0.01713772
#
# Stress axis : x y z
#
# Youngs Moduli (GPa) = 87.32936 70.37525 82.58031
#
# Poissons Ratio (x) = 0.23762 0.24580
# Poissons Ratio (y) = 0.29486 0.32727
# Poissons Ratio (z) = 0.25994 0.27890
#
# Static dielectric constant tensor:
#      x y z
#    x 3.618460 0.000000 0.000440 
#    y 0.000000 3.472580 0.000000 
#    z 0.000440 0.000000 3.833180 
# 
# 
# High freq. dielectric constant tensor:
#      x y z
#    x 1.771580 0.000000 -0.004080 
#    y 0.000000 1.756720 0.000000 
#    z -0.004080 0.000000 1.776980 
# 
# From -- ./inp_files/80358.got.cif
#   From: 2010.06.25/outbox.cif.g09.slc.cpg/sg13_41_cif.got.tgz:80358.got - 2010.06.28 04:50:58.
