data_PCOD8118432
_publ_section_title
;
Structure prediction by ZEFSAII (Michael W. Deem and Ramdas Pophale) SiO2 
 PCOD8118432
Probable space group: P 2/C
;
_chemical_formula_sum "Si O2"
_cell_formula_units_Z 18
_cell_length_a 7.695486
_cell_length_b 9.217911
_cell_length_c 20.715531
_cell_angle_alpha 90.000000
_cell_angle_beta 138.822668
_cell_angle_gamma 90.000000
_cell_volume 967.495603
_symmetry_space_group_name_H-M "P 2/C"
_symmetry_group_IT_number 13
_symmetry_cell_setting 'monoclinic'
loop_
_space_group_symop_operation_xyz
x,y,z
-x,y,1/2-z
-x,-y,-z
x,-y,1/2+z
loop_
_atom_site_type_symbol
_atom_site_label
_atom_site_fract_x
_atom_site_fract_y
_atom_site_fract_z
Si Si1 0.803923 0.272167 0.248016
Si Si2 0.741782 0.662496 0.966065
Si Si3 0.604772 0.153164 0.549033
Si Si4 0.122381 0.656177 0.960470
Si Si5 0.000000 0.988366 0.250000
O O1 0.000000 0.343785 0.250000
O O2 0.892745 0.326403 0.342964
O O3 0.511476 0.328337 0.151591
O O4 0.825382 0.095075 0.247639
O O5 0.724985 0.775564 0.019017
O O6 0.767658 0.506190 0.006231
O O7 0.998905 0.699048 0.995103
O O8 0.367645 0.243014 0.513241
O O9 0.829162 0.127631 0.663682
O O10 0.500000 0.000000 0.500000
#
# Coordination Sequence:
#
# PCOD8118432 Si02
#       5
#     4   4   4   4   2
#     4  10  19  40  65  87 125 166 203 250 308 370
#     4  11  24  41  65  94 125 163 206 255 309 367
#     4  12  21  42  63  91 125 159 207 251 305 363
#     4  11  24  41  65  94 125 163 206 255 309 367
#     4  10  22  38  62  96 122 160 212 246 306 370
#
# _framework density 18.604735000000002
#
# number of rings (size 3 to 8) (size 9 to 14) (size 15 to 20)
#    0.667    0.444    6.667    1.333    0.000    2.667 
#    0.000    3.333    0.000    0.000    0.000    0.000 
#    0.000    0.000    0.000    0.000    0.000    0.000 
#
# Total GULP energy -223139.913527 kJ/mol
# GULP energy per Si atom -12396.661863 kJ/mol
# Density = 1.856239 g / cm^3
# Si number density = 18.604735 Si / 1000 Ang^3
#
#
#
# Elastic Constant Matrix: (Units=GPa)
#
#
# Indices 1 2 3 4 5 6 
#
# 1 115.6083 67.2235 29.6644 0.0000 -10.7537 0.0000
# 2 67.2235 117.2222 59.1639 0.0000 -22.6848 0.0000
# 3 29.6644 59.1639 153.0990 0.0000 -27.3365 0.0000
# 4 0.0000 0.0000 0.0000 32.1922 0.0000 -15.7394
# 5 -10.7537 -22.6848 -27.3365 0.0000 8.4824 0.0000
# 6 0.0000 0.0000 0.0000 -15.7394 0.0000 -29.8683
#
#
#
# Elastic Compliance Matrix: (Units=1/GPa)
#
#
# Indices 1 2 3 4 5 6 
#
# 1 0.013247 -0.009248 -0.000966 0.000000 -0.011052 0.000000
# 2 -0.009248 0.025125 0.004679 0.000000 0.070548 0.000000
# 3 -0.000966 0.004679 0.016314 0.000000 0.063864 0.000000
# 4 0.000000 0.000000 0.000000 0.024700 0.000000 -0.013016
# 5 -0.011052 0.070548 0.063864 0.000000 0.498364 0.000000
# 6 0.000000 0.000000 0.000000 -0.013016 0.000000 -0.026621
#
#
# Mechanical properties :
#
#
# Convention : Reuss Voigt Hill
#
# Bulk Modulus (GPa) = 22.92750 77.55925 50.24338
# Shear Modulus (GPa) = 8.66946 17.48643 13.07794
#
# Velocity S-wave (km/s) = 2.16100 3.06909 2.65417
# Velocity P-wave (km/s) = 4.31008 7.37140 6.03798
#
# Compressibility (1/GPa) = 0.04361575
#
# Stress axis : x y z
#
# Youngs Moduli (GPa) = 75.48696 39.80087 61.29762
#
# Poissons Ratio (x) = 0.36808 0.05924
# Poissons Ratio (y) = 0.69811 -0.28682
# Poissons Ratio (z) = 0.07295 -0.18624
#
# Static dielectric constant tensor:
#      x y z
#    x 3.462410 0.000000 -0.107060 
#    y 0.000000 3.248350 0.000000 
#    z -0.107060 0.000000 3.646010 
# 
# 
# High freq. dielectric constant tensor:
#      x y z
#    x 1.724180 0.000000 -0.003210 
#    y 0.000000 1.717470 0.000000 
#    z -0.003210 0.000000 1.733210 
# 
# From -- ./inp_files/84922.got.cif
#   From: 2010.06.25/outbox.cif.g09.slc.cpg/sg13_43_cif.got.tgz:84922.got - 2010.06.28 04:50:58.
