data_PCOD8118646
_publ_section_title
;
Structure prediction by ZEFSAII (Michael W. Deem and Ramdas Pophale) SiO2 
 PCOD8118646
Probable space group: P 2/C
;
_chemical_formula_sum "Si O2"
_cell_formula_units_Z 22
_cell_length_a 23.032299
_cell_length_b 11.344148
_cell_length_c 11.367390
_cell_angle_alpha 90.000000
_cell_angle_beta 22.050880
_cell_angle_gamma 90.000000
_cell_volume 1115.061147
_symmetry_space_group_name_H-M "P 2/C"
_symmetry_group_IT_number 13
_symmetry_cell_setting 'monoclinic'
loop_
_space_group_symop_operation_xyz
x,y,z
-x,y,1/2-z
-x,-y,-z
x,-y,1/2+z
loop_
_atom_site_type_symbol
_atom_site_label
_atom_site_fract_x
_atom_site_fract_y
_atom_site_fract_z
Si Si1 0.156480 0.491209 0.129299
Si Si2 0.000000 0.645709 0.250000
Si Si3 0.669971 0.679804 0.571236
Si Si4 0.937328 0.828918 0.184736
Si Si5 0.675308 0.721601 0.289422
Si Si6 0.884961 0.925513 0.864657
O O1 0.136701 0.560389 0.040961
O O2 0.000000 0.500000 0.500000
O O3 0.293742 0.550509 0.945800
O O4 0.204342 0.356896 0.013033
O O5 0.962618 0.732714 0.429681
O O6 0.791107 0.772778 0.394896
O O7 0.682332 0.674627 0.408407
O O8 0.497757 0.713882 0.935882
O O9 0.867357 0.932718 0.399605
O O10 0.056886 0.885543 0.871353
O O11 0.723270 0.859002 0.192161
O O12 0.000000 0.882195 0.750000
#
# Coordination Sequence:
#
# PCOD8118646 Si02
#       6
#     4   2   4   4   4   4
#     4  11  22  36  59  85 116 153 197 238 283 335
#     4  10  20  34  56  84 112 144 188 242 274 336
#     4  10  22  38  57  82 119 155 187 235 291 349
#     4  10  21  38  59  86 112 150 194 239 293 329
#     4  11  22  37  57  85 118 152 190 235 293 345
#     4  11  21  36  62  85 115 145 195 246 281 346
#
# _framework density 19.729861
#
# number of rings (size 3 to 8) (size 9 to 14) (size 15 to 20)
#    0.000    1.455    2.727    3.818    1.273    0.727 
#    0.000    0.000    0.000    9.818    0.000    0.000 
#    0.000    0.000    0.000    0.000    0.000    0.000 
#
# Total GULP energy -272683.897056 kJ/mol
# GULP energy per Si atom -12394.722593 kJ/mol
# Density = 1.968495 g / cm^3
# Si number density = 19.729861 Si / 1000 Ang^3
#
#
#
# Elastic Constant Matrix: (Units=GPa)
#
#
# Indices 1 2 3 4 5 6 
#
# 1 79.3388 10.0774 19.9988 0.0000 -10.5833 0.0000
# 2 10.0774 81.2289 16.1616 0.0000 -3.8047 0.0000
# 3 19.9988 16.1616 84.3917 0.0000 -10.3504 0.0000
# 4 0.0000 0.0000 0.0000 14.9286 0.0000 1.1406
# 5 -10.5833 -3.8047 -10.3504 0.0000 25.6145 0.0000
# 6 0.0000 0.0000 0.0000 1.1406 0.0000 32.4131
#
#
#
# Elastic Compliance Matrix: (Units=1/GPa)
#
#
# Indices 1 2 3 4 5 6 
#
# 1 0.013991 -0.001011 -0.002558 0.000000 0.004597 0.000000
# 2 -0.001011 0.012894 -0.002153 0.000000 0.000627 0.000000
# 3 -0.002558 -0.002153 0.013361 0.000000 0.004022 0.000000
# 4 0.000000 0.000000 0.000000 0.067166 0.000000 -0.002364
# 5 0.004597 0.000627 0.004022 0.000000 0.042658 0.000000
# 6 0.000000 0.000000 0.000000 -0.002364 0.000000 0.030935
#
#
# Mechanical properties :
#
#
# Convention : Reuss Voigt Hill
#
# Bulk Modulus (GPa) = 34.72004 37.49279 36.10641
# Shear Modulus (GPa) = 24.74634 27.83934 26.29284
#
# Velocity S-wave (km/s) = 3.54539 3.76044 3.65450
# Velocity P-wave (km/s) = 5.86478 6.15620 6.01226
#
# Compressibility (1/GPa) = 0.02880181
#
# Stress axis : x y z
#
# Youngs Moduli (GPa) = 71.47650 77.55505 74.84316
#
# Poissons Ratio (x) = 0.07844 0.19145
# Poissons Ratio (y) = 0.07230 0.16111
# Poissons Ratio (z) = 0.18283 0.16695
#
# Static dielectric constant tensor:
#      x y z
#    x 3.873850 0.000000 -0.031930 
#    y 0.000000 3.914540 0.000000 
#    z -0.031930 0.000000 3.324220 
# 
# 
# High freq. dielectric constant tensor:
#      x y z
#    x 1.782980 0.000000 0.001510 
#    y 0.000000 1.783730 0.000000 
#    z 0.001510 0.000000 1.734390 
# 
# From -- ./inp_files/29109.got.cif
#   From: 2010.06.25/outbox.cif.g09.slc.cpg/sg13_15_cif.got.tgz:29109.got - 2010.06.28 04:50:58.
