data_PCOD8118065
_publ_section_title
;
Structure prediction by ZEFSAII (Michael W. Deem and Ramdas Pophale) SiO2 
 PCOD8118065
Probable space group: P 2/C
;
_chemical_formula_sum "Si O2"
_cell_formula_units_Z 28
_cell_length_a 21.491014
_cell_length_b 11.471026
_cell_length_c 18.365136
_cell_angle_alpha 90.000000
_cell_angle_beta 161.061811
_cell_angle_gamma 90.000000
_cell_volume 1469.373387
_symmetry_space_group_name_H-M "P 2/C"
_symmetry_group_IT_number 13
_symmetry_cell_setting 'monoclinic'
loop_
_space_group_symop_operation_xyz
x,y,z
-x,y,1/2-z
-x,-y,-z
x,-y,1/2+z
loop_
_atom_site_type_symbol
_atom_site_label
_atom_site_fract_x
_atom_site_fract_y
_atom_site_fract_z
Si Si1 0.903814 0.912949 0.839353
Si Si2 0.676329 0.467200 0.642440
Si Si3 0.889729 0.994504 0.057858
Si Si4 0.964865 0.333066 0.472279
Si Si5 0.537979 0.040370 0.376113
Si Si6 0.494754 0.698315 0.659545
Si Si7 0.081304 0.730729 0.417349
O O1 0.888814 0.789676 0.861064
O O2 0.693500 0.954439 0.582154
O O3 0.049393 0.909279 0.933249
O O4 0.000000 0.000000 0.000000
O O5 0.500000 0.500000 0.500000
O O6 0.794175 0.583452 0.757138
O O7 0.603776 0.411746 0.487031
O O8 0.835891 0.372078 0.847005
O O9 0.976709 0.866160 0.137169
O O10 0.000000 0.041410 0.250000
O O11 0.661339 0.987533 0.805146
O O12 0.993178 0.335842 0.592450
O O13 0.500000 0.013386 0.250000
O O14 0.608866 0.175161 0.464386
O O15 0.500000 0.666489 0.750000
O O16 0.693873 0.714195 0.839189
O O17 0.000000 0.681703 0.250000
#
# Coordination Sequence:
#
# PCOD8118065 Si02
#       7
#     4   4   4   4   4   4   4
#     4  12  23  37  61  93 127 158 195 253 319 373
#     4  11  23  42  63  84 120 158 201 254 307 353
#     4  10  20  36  60  89 125 162 200 246 304 370
#     4  11  24  40  60  91 122 158 200 251 308 366
#     4  10  21  38  64  94 122 158 208 253 307 373
#     4  10  20  36  64  93 115 152 204 256 300 350
#     4  10  19  35  61  93 119 149 198 253 305 358
#
# _framework density 19.055741000000001
#
# number of rings (size 3 to 8) (size 9 to 14) (size 15 to 20)
#    0.000    1.429    4.286    1.714    2.000    1.714 
#    0.000    0.714    3.143    0.000    0.000    0.000 
#    0.000    0.000    0.000    0.000    0.000    0.000 
#
# Total GULP energy -346922.188683 kJ/mol
# GULP energy per Si atom -12390.078167 kJ/mol
# Density = 1.901237 g / cm^3
# Si number density = 19.055741 Si / 1000 Ang^3
#
#
#
# Elastic Constant Matrix: (Units=GPa)
#
#
# Indices 1 2 3 4 5 6 
#
# 1 110.3901 49.5252 56.8130 0.0000 -0.0959 0.0000
# 2 49.5252 110.3189 62.6104 0.0000 -16.8529 0.0000
# 3 56.8130 62.6104 114.8864 0.0000 -0.7526 0.0000
# 4 0.0000 0.0000 0.0000 31.3974 0.0000 -13.1163
# 5 -0.0959 -16.8529 -0.7526 0.0000 34.9961 0.0000
# 6 0.0000 0.0000 0.0000 -13.1163 0.0000 14.1284
#
#
#
# Elastic Compliance Matrix: (Units=1/GPa)
#
#
# Indices 1 2 3 4 5 6 
#
# 1 0.012955 -0.003537 -0.004491 0.000000 -0.001764 0.000000
# 2 -0.003537 0.015570 -0.006688 0.000000 0.007345 0.000000
# 3 -0.004491 -0.006688 0.014551 0.000000 -0.002920 0.000000
# 4 0.000000 0.000000 0.000000 0.052027 0.000000 0.048300
# 5 -0.001764 0.007345 -0.002920 0.000000 0.032044 0.000000
# 6 0.000000 0.000000 0.000000 0.048300 0.000000 0.115620
#
#
# Mechanical properties :
#
#
# Convention : Reuss Voigt Hill
#
# Bulk Modulus (GPa) = 73.28843 74.83251 74.06047
# Shear Modulus (GPa) = 18.06708 27.21417 22.64063
#
# Velocity S-wave (km/s) = 3.08249 3.78317 3.45066
# Velocity P-wave (km/s) = 7.15629 7.64452 7.40443
#
# Compressibility (1/GPa) = 0.01364472
#
# Stress axis : x y z
#
# Youngs Moduli (GPa) = 77.18964 64.22478 68.72513
#
# Poissons Ratio (x) = 0.22715 0.30861
# Poissons Ratio (y) = 0.27301 0.45965
# Poissons Ratio (z) = 0.34662 0.42956
#
# Static dielectric constant tensor:
#      x y z
#    x 3.586770 0.000000 0.065190 
#    y 0.000000 3.159760 0.000000 
#    z 0.065190 0.000000 3.798170 
# 
# 
# High freq. dielectric constant tensor:
#      x y z
#    x 1.743820 0.000000 0.011260 
#    y 0.000000 1.714810 0.000000 
#    z 0.011260 0.000000 1.757550 
# 
# From -- ./inp_files/70652.got.cif
#   From: 2010.06.25/outbox.cif.g09.slc.cpg/sg13_36_cif.got.tgz:70652.got - 2010.06.28 04:50:58.
