data_PCOD8118255
_publ_section_title
;
Structure prediction by ZEFSAII (Michael W. Deem and Ramdas Pophale) SiO2 
 PCOD8118255
Probable space group: P 2/C
;
_chemical_formula_sum "Si O2"
_cell_formula_units_Z 24
_cell_length_a 11.223602
_cell_length_b 14.750884
_cell_length_c 17.039085
_cell_angle_alpha 90.000000
_cell_angle_beta 26.796891
_cell_angle_gamma 90.000000
_cell_volume 1271.769842
_symmetry_space_group_name_H-M "P 2/C"
_symmetry_group_IT_number 13
_symmetry_cell_setting 'monoclinic'
loop_
_space_group_symop_operation_xyz
x,y,z
-x,y,1/2-z
-x,-y,-z
x,-y,1/2+z
loop_
_atom_site_type_symbol
_atom_site_label
_atom_site_fract_x
_atom_site_fract_y
_atom_site_fract_z
Si Si1 0.403832 0.452748 0.636908
Si Si2 0.782001 0.107362 0.813495
Si Si3 0.055616 0.436040 0.126349
Si Si4 0.188777 0.901305 0.713081
Si Si5 0.318627 0.742249 0.240671
Si Si6 0.884357 0.246692 0.472405
O O1 0.500000 0.500000 0.500000
O O2 0.633326 0.462099 0.568823
O O3 0.341237 0.345158 0.669804
O O4 0.129737 0.502320 0.820681
O O5 0.834053 0.177826 0.713663
O O6 0.000000 0.127286 0.750000
O O7 0.818051 0.006391 0.757663
O O8 0.489993 0.125455 0.018941
O O9 0.000000 0.454177 0.250000
O O10 0.990995 0.332089 0.145881
O O11 0.000000 0.883117 0.750000
O O12 0.080658 0.839026 0.847692
O O13 0.146071 0.722457 0.419534
O O14 0.604957 0.778904 0.097901
#
# Coordination Sequence:
#
# PCOD8118255 Si02
#       6
#     4   4   4   4   4   4
#     4   9  19  33  54  79 107 142 186 230 274 328
#     4  10  22  36  58  86 115 141 186 245 283 334
#     4   9  18  33  55  81 104 144 186 230 272 334
#     4  10  19  37  62  85 106 150 196 227 278 346
#     4  10  21  37  55  86 116 150 189 234 286 333
#     4  10  20  35  61  81 112 153 194 231 273 348
#
# _framework density 18.871338000000002
#
# number of rings (size 3 to 8) (size 9 to 14) (size 15 to 20)
#    0.000    2.333    1.667    0.500    4.667    3.333 
#    0.000    0.833    0.000    0.000    0.000    0.000 
#    0.000    0.000    0.000    0.000    0.000    0.000 
#
# Total GULP energy -297428.876879 kJ/mol
# GULP energy per Si atom -12392.869870 kJ/mol
# Density = 1.882839 g / cm^3
# Si number density = 18.871338 Si / 1000 Ang^3
#
#
#
# Elastic Constant Matrix: (Units=GPa)
#
#
# Indices 1 2 3 4 5 6 
#
# 1 73.4388 55.7856 41.9366 0.0000 -17.5772 0.0000
# 2 55.7856 119.7824 51.7520 0.0000 -9.7113 0.0000
# 3 41.9366 51.7520 78.9902 0.0000 -19.9804 0.0000
# 4 0.0000 0.0000 0.0000 28.9042 0.0000 -10.1792
# 5 -17.5772 -9.7113 -19.9804 0.0000 32.1513 0.0000
# 6 0.0000 0.0000 0.0000 -10.1792 0.0000 24.1777
#
#
#
# Elastic Compliance Matrix: (Units=1/GPa)
#
#
# Indices 1 2 3 4 5 6 
#
# 1 0.025369 -0.008662 -0.005870 0.000000 0.007605 0.000000
# 2 -0.008662 0.014660 -0.006032 0.000000 -0.004056 0.000000
# 3 -0.005870 -0.006032 0.021897 0.000000 0.008577 0.000000
# 4 0.000000 0.000000 0.000000 0.040620 0.000000 0.017102
# 5 0.007605 -0.004056 0.008577 0.000000 0.039366 0.000000
# 6 0.000000 0.000000 0.000000 0.017102 0.000000 0.048560
#
#
# Mechanical properties :
#
#
# Convention : Reuss Voigt Hill
#
# Bulk Modulus (GPa) = 48.07957 63.46222 55.77089
# Shear Modulus (GPa) = 20.96145 25.22911 23.09528
#
# Velocity S-wave (km/s) = 3.33642 3.66033 3.50212
# Velocity P-wave (km/s) = 6.35414 7.18094 6.78016
#
# Compressibility (1/GPa) = 0.02079885
#
# Stress axis : x y z
#
# Youngs Moduli (GPa) = 39.41829 68.21298 45.66736
#
# Poissons Ratio (x) = 0.59089 0.26805
# Poissons Ratio (y) = 0.34146 0.27546
# Poissons Ratio (z) = 0.23137 0.41145
#
# Static dielectric constant tensor:
#      x y z
#    x 3.526260 0.000000 -0.515420 
#    y 0.000000 3.500840 0.000000 
#    z -0.515420 0.000000 3.763670 
# 
# 
# High freq. dielectric constant tensor:
#      x y z
#    x 1.711000 0.000000 -0.019670 
#    y 0.000000 1.738400 0.000000 
#    z -0.019670 0.000000 1.726170 
# 
# From -- ./inp_files/29854.got.cif
#   From: 2010.06.25/outbox.cif.g09.slc.cpg/sg13_15_cif.got.tgz:29854.got - 2010.06.28 04:50:58.
