data_PCOD8118963
_publ_section_title
;
Structure prediction by ZEFSAII (Michael W. Deem and Ramdas Pophale) SiO2 
 PCOD8118963
Probable space group: P 2/C
;
_chemical_formula_sum "Si O2"
_cell_formula_units_Z 26
_cell_length_a 22.408303
_cell_length_b 8.251933
_cell_length_c 14.769536
_cell_angle_alpha 90.000000
_cell_angle_beta 27.949361
_cell_angle_gamma 90.000000
_cell_volume 1280.024085
_symmetry_space_group_name_H-M "P 2/C"
_symmetry_group_IT_number 13
_symmetry_cell_setting 'monoclinic'
loop_
_space_group_symop_operation_xyz
x,y,z
-x,y,1/2-z
-x,-y,-z
x,-y,1/2+z
loop_
_atom_site_type_symbol
_atom_site_label
_atom_site_fract_x
_atom_site_fract_y
_atom_site_fract_z
Si Si1 0.500000 0.340751 0.750000
Si Si2 0.200728 0.792044 0.223775
Si Si3 0.266974 0.835832 0.643001
Si Si4 0.027703 0.358513 0.394045
Si Si5 0.570726 0.404259 0.014692
Si Si6 0.891435 0.363379 0.831238
Si Si7 0.336624 0.669987 0.730103
O O1 0.622299 0.224914 0.573358
O O2 0.510310 0.459108 0.822788
O O3 0.123143 0.749613 0.237055
O O4 0.102315 0.750382 0.438701
O O5 0.244650 0.975257 0.163466
O O6 0.331351 0.689491 0.052100
O O7 0.139547 0.748300 0.784331
O O8 0.300049 0.803209 0.704042
O O9 0.070540 0.449215 0.244174
O O10 0.000000 0.500000 0.500000
O O11 0.471688 0.284002 0.097011
O O12 0.655454 0.494132 0.826407
O O13 0.000000 0.288496 0.750000
O O14 0.761882 0.351161 0.058298
#
# Coordination Sequence:
#
# PCOD8118963 Si02
#       7
#     2   4   4   4   4   4   4
#     4  10  20  38  60  86 120 164 212 240 288 364
#     4  11  23  39  62  89 124 160 195 248 315 367
#     4  11  23  39  61  91 126 160 195 251 313 361
#     4  10  20  39  63  83 112 157 203 240 292 363
#     4  10  20  37  61  86 115 160 205 244 290 353
#     4  11  21  37  62  87 113 154 208 252 291 354
#     4  10  20  36  60  87 117 152 203 252 290 351
#
# _framework density 20.312117000000001
#
# number of rings (size 3 to 8) (size 9 to 14) (size 15 to 20)
#    0.000    1.538    0.000    8.769    0.000    2.462 
#    0.000    6.923    0.000    1.846    0.000    0.000 
#    0.000    0.000    0.000    0.000    0.000    0.000 
#
# Total GULP energy -322236.867364 kJ/mol
# GULP energy per Si atom -12393.725668 kJ/mol
# Density = 2.026589 g / cm^3
# Si number density = 20.312117 Si / 1000 Ang^3
#
#
#
# Elastic Constant Matrix: (Units=GPa)
#
#
# Indices 1 2 3 4 5 6 
#
# 1 115.4674 48.5583 35.5502 0.0000 -21.3831 0.0000
# 2 48.5583 119.6877 66.0501 0.0000 -14.8312 0.0000
# 3 35.5502 66.0501 114.5677 0.0000 -6.1510 0.0000
# 4 0.0000 0.0000 0.0000 22.1434 0.0000 -13.0287
# 5 -21.3831 -14.8312 -6.1510 0.0000 34.2695 0.0000
# 6 0.0000 0.0000 0.0000 -13.0287 0.0000 19.6194
#
#
#
# Elastic Compliance Matrix: (Units=1/GPa)
#
#
# Indices 1 2 3 4 5 6 
#
# 1 0.011458 -0.003177 -0.001428 0.000000 0.005518 0.000000
# 2 -0.003177 0.013725 -0.006780 0.000000 0.002741 0.000000
# 3 -0.001428 -0.006780 0.013000 0.000000 -0.001492 0.000000
# 4 0.000000 0.000000 0.000000 0.074121 0.000000 0.049222
# 5 0.005518 0.002741 -0.001492 0.000000 0.033542 0.000000
# 6 0.000000 0.000000 0.000000 0.049222 0.000000 0.083657
#
#
# Mechanical properties :
#
#
# Convention : Reuss Voigt Hill
#
# Bulk Modulus (GPa) = 64.87433 72.22667 68.55050
# Shear Modulus (GPa) = 19.42429 28.51074 23.96752
#
# Velocity S-wave (km/s) = 3.09575 3.75057 3.43878
# Velocity P-wave (km/s) = 6.69226 7.37505 7.04193
#
# Compressibility (1/GPa) = 0.01541442
#
# Stress axis : x y z
#
# Youngs Moduli (GPa) = 87.27600 72.85931 76.92313
#
# Poissons Ratio (x) = 0.23147 0.10981
# Poissons Ratio (y) = 0.27728 0.52152
# Poissons Ratio (z) = 0.12459 0.49397
#
# Static dielectric constant tensor:
#      x y z
#    x 3.857200 0.000000 0.042900 
#    y 0.000000 3.480560 0.000000 
#    z 0.042900 0.000000 4.128600 
# 
# 
# High freq. dielectric constant tensor:
#      x y z
#    x 1.792680 0.000000 -0.006360 
#    y 0.000000 1.765870 0.000000 
#    z -0.006360 0.000000 1.816920 
# 
# From -- ./inp_files/57203.got.cif
#   From: 2010.06.25/outbox.cif.g09.slc.cpg/sg13_29_cif.got.tgz:57203.got - 2010.06.28 04:50:58.
