data_PCOD8118520
_publ_section_title
;
Structure prediction by ZEFSAII (Michael W. Deem and Ramdas Pophale) SiO2 
 PCOD8118520
Probable space group: P 2/C
;
_chemical_formula_sum "Si O2"
_cell_formula_units_Z 22
_cell_length_a 10.771171
_cell_length_b 21.705907
_cell_length_c 5.246882
_cell_angle_alpha 90.000000
_cell_angle_beta 112.255602
_cell_angle_gamma 90.000000
_cell_volume 1135.325025
_symmetry_space_group_name_H-M "P 2/C"
_symmetry_group_IT_number 13
_symmetry_cell_setting 'monoclinic'
loop_
_space_group_symop_operation_xyz
x,y,z
-x,y,1/2-z
-x,-y,-z
x,-y,1/2+z
loop_
_atom_site_type_symbol
_atom_site_label
_atom_site_fract_x
_atom_site_fract_y
_atom_site_fract_z
Si Si1 0.265494 0.326429 0.475530
Si Si2 0.500000 0.752834 0.250000
Si Si3 0.643503 0.828742 0.984609
Si Si4 0.655963 0.970108 0.913270
Si Si5 0.153176 0.729492 0.409601
Si Si6 0.341494 0.464436 0.618292
O O1 0.408965 0.294215 0.509618
O O2 0.212840 0.301400 0.704138
O O3 0.276112 0.398930 0.515798
O O4 0.163788 0.315250 0.162295
O O5 0.384386 0.799018 0.262792
O O6 0.500000 0.815739 0.750000
O O7 0.682544 0.900072 0.014091
O O8 0.766062 0.791961 0.953028
O O9 0.500000 0.984898 0.750000
O O10 0.720736 0.988033 0.689818
O O11 0.000000 0.748134 0.250000
O O12 0.500000 0.456925 0.750000
O O13 0.293056 0.509138 0.352318
#
# Coordination Sequence:
#
# PCOD8118520 Si02
#       6
#     4   2   4   4   4   4
#     4  11  21  38  60  82 120 146 189 233 287 339
#     4  10  20  32  54  90 110 146 184 238 282 334
#     4  10  20  34  57  82 115 143 191 235 282 336
#     4   9  19  30  48  76 111 145 179 225 280 331
#     4  11  24  39  59  85 116 153 189 235 289 340
#     4  10  20  34  56  88 119 147 184 236 286 330
#
# _framework density 19.37771
#
# number of rings (size 3 to 8) (size 9 to 14) (size 15 to 20)
#    0.000    1.818    2.727    1.636    6.364    0.000 
#    0.000    0.000    0.000   12.000    0.000    0.000 
#    0.000    0.000    0.000    0.000    0.000    0.000 
#
# Total GULP energy -272540.455645 kJ/mol
# GULP energy per Si atom -12388.202529 kJ/mol
# Density = 1.933361 g / cm^3
# Si number density = 19.377710 Si / 1000 Ang^3
#
#
#
# Elastic Constant Matrix: (Units=GPa)
#
#
# Indices 1 2 3 4 5 6 
#
# 1 44.6263 43.3260 29.5335 0.0000 10.4756 0.0000
# 2 43.3260 140.4828 51.8481 0.0000 6.1762 0.0000
# 3 29.5335 51.8481 121.5212 0.0000 -8.1987 0.0000
# 4 0.0000 0.0000 0.0000 249.4147 0.0000 58.6642
# 5 10.4756 6.1762 -8.1987 0.0000 29.2688 0.0000
# 6 0.0000 0.0000 0.0000 58.6642 0.0000 29.6395
#
#
#
# Elastic Compliance Matrix: (Units=1/GPa)
#
#
# Indices 1 2 3 4 5 6 
#
# 1 0.038576 -0.008890 -0.006510 0.000000 -0.013755 0.000000
# 2 -0.008890 0.010737 -0.002404 0.000000 0.000243 0.000000
# 3 -0.006510 -0.002404 0.011241 0.000000 0.005986 0.000000
# 4 0.000000 0.000000 0.000000 0.007502 0.000000 -0.014848
# 5 -0.013755 0.000243 0.005986 0.000000 0.040715 0.000000
# 6 0.000000 0.000000 0.000000 -0.014848 0.000000 0.063126
#
#
# Mechanical properties :
#
#
# Convention : Reuss Voigt Hill
#
# Bulk Modulus (GPa) = 40.08741 61.78282 50.93512
# Shear Modulus (GPa) = 23.16748 73.79278 48.48013
#
# Velocity S-wave (km/s) = 3.46146 6.17770 5.00728
# Velocity P-wave (km/s) = 6.05870 9.10153 7.73129
#
# Compressibility (1/GPa) = 0.02494549
#
# Stress axis : x y z
#
# Youngs Moduli (GPa) = 25.92263 93.13994 88.96168
#
# Poissons Ratio (x) = 0.82799 0.57917
# Poissons Ratio (y) = 0.23045 0.21386
# Poissons Ratio (z) = 0.16877 0.22391
#
# Static dielectric constant tensor:
#      x y z
#    x 3.398290 0.000000 -0.360050 
#    y 0.000000 3.505460 0.000000 
#    z -0.360050 0.000000 4.106330 
# 
# 
# High freq. dielectric constant tensor:
#      x y z
#    x 1.706690 0.000000 -0.013640 
#    y 0.000000 1.761570 0.000000 
#    z -0.013640 0.000000 1.762090 
# 
# From -- ./inp_files/2107.got.cif
#   From: 2010.06.25/outbox.cif.g09.slc.cpg/sg13_2_cif.got.tgz:2107.got - 2010.06.28 04:50:58.
