data_PCOD8118920
_publ_section_title
;
Structure prediction by ZEFSAII (Michael W. Deem and Ramdas Pophale) SiO2 
 PCOD8118920
Probable space group: P 2/C
;
_chemical_formula_sum "Si O2"
_cell_formula_units_Z 32
_cell_length_a 9.629251
_cell_length_b 15.495195
_cell_length_c 11.631426
_cell_angle_alpha 90.000000
_cell_angle_beta 100.525354
_cell_angle_gamma 90.000000
_cell_volume 1706.290511
_symmetry_space_group_name_H-M "P 2/C"
_symmetry_group_IT_number 13
_symmetry_cell_setting 'monoclinic'
loop_
_space_group_symop_operation_xyz
x,y,z
-x,y,1/2-z
-x,-y,-z
x,-y,1/2+z
loop_
_atom_site_type_symbol
_atom_site_label
_atom_site_fract_x
_atom_site_fract_y
_atom_site_fract_z
Si Si1 0.616057 0.387152 0.013293
Si Si2 0.421643 0.195890 0.488535
Si Si3 0.371022 0.064861 0.656577
Si Si4 0.316536 0.099887 0.033410
Si Si5 0.771857 0.173247 0.242673
Si Si6 0.160088 0.633528 0.757592
Si Si7 0.151605 0.011049 0.808752
Si Si8 0.616975 0.454833 0.364318
O O1 0.601476 0.290542 0.963868
O O2 0.745186 0.396183 0.121333
O O3 0.460422 0.405677 0.042626
O O4 0.656384 0.449416 0.913773
O O5 0.326167 0.135077 0.555014
O O6 0.584502 0.164986 0.523089
O O7 0.375940 0.190142 0.347268
O O8 0.500000 0.100957 0.750000
O O9 0.242368 0.044970 0.717919
O O10 0.416407 0.976073 0.599387
O O11 0.244801 0.151766 0.126003
O O12 0.197956 0.055116 0.935421
O O13 0.857051 0.262777 0.251339
O O14 0.847374 0.093968 0.186788
O O15 0.240936 0.595103 0.656569
O O16 0.000000 0.596569 0.750000
O O17 0.000000 0.045267 0.750000
O O18 0.500000 0.463433 0.250000
#
# Coordination Sequence:
#
# PCOD8118920 Si02
#       8
#     4   4   4   4   4   4   4   4
#     4   9  20  35  59  84 108 145 183 230 277 338
#     4  11  19  35  57  84 110 138 190 238 282 326
#     4  11  21  34  55  77 106 144 187 237 276 327
#     4  11  20  35  56  78 110 150 187 240 275 326
#     4  10  21  35  56  84 110 148 192 233 279 332
#     4  10  20  36  58  87 117 143 182 233 277 337
#     4  11  23  38  52  76 112 154 195 225 282 331
#     4   9  18  37  59  83 112 142 183 225 282 339
#
# _framework density 18.754131999999998
#
# number of rings (size 3 to 8) (size 9 to 14) (size 15 to 20)
#    0.000    1.750    2.500    3.375    0.000    5.000 
#    4.500    0.000    0.000    0.750    0.000    0.000 
#    0.000    0.000    0.000    0.000    0.000    0.000 
#
# Total GULP energy -396591.965550 kJ/mol
# GULP energy per Si atom -12393.498923 kJ/mol
# Density = 1.871145 g / cm^3
# Si number density = 18.754132 Si / 1000 Ang^3
#
#
#
# Elastic Constant Matrix: (Units=GPa)
#
#
# Indices 1 2 3 4 5 6 
#
# 1 106.4197 38.7520 28.9815 0.0000 -1.9356 0.0000
# 2 38.7520 94.6134 34.2924 0.0000 -0.6467 0.0000
# 3 28.9815 34.2924 69.9396 0.0000 -2.2818 0.0000
# 4 0.0000 0.0000 0.0000 36.5926 0.0000 -2.6955
# 5 -1.9356 -0.6467 -2.2818 0.0000 17.5358 0.0000
# 6 0.0000 0.0000 0.0000 -2.6955 0.0000 21.4607
#
#
#
# Elastic Compliance Matrix: (Units=1/GPa)
#
#
# Indices 1 2 3 4 5 6 
#
# 1 0.011548 -0.003647 -0.002972 0.000000 0.000753 0.000000
# 2 -0.003647 0.014008 -0.005376 0.000000 -0.000586 0.000000
# 3 -0.002972 -0.005376 0.018226 0.000000 0.001845 0.000000
# 4 0.000000 0.000000 0.000000 0.027583 0.000000 0.003464
# 5 0.000753 -0.000586 0.001845 0.000000 0.057328 0.000000
# 6 0.000000 0.000000 0.000000 0.003464 0.000000 0.047032
#
#
# Mechanical properties :
#
#
# Convention : Reuss Voigt Hill
#
# Bulk Modulus (GPa) = 50.52965 52.78049 51.65507
# Shear Modulus (GPa) = 24.23507 26.38094 25.30801
#
# Velocity S-wave (km/s) = 3.59869 3.75463 3.67749
# Velocity P-wave (km/s) = 6.65351 6.85572 6.75537
#
# Compressibility (1/GPa) = 0.01979036
#
# Stress axis : x y z
#
# Youngs Moduli (GPa) = 86.59429 71.38916 54.86731
#
# Poissons Ratio (x) = 0.26039 0.16308
# Poissons Ratio (y) = 0.31585 0.29496
# Poissons Ratio (z) = 0.25739 0.38378
#
# Static dielectric constant tensor:
#      x y z
#    x 3.002340 0.000000 -0.076490 
#    y 0.000000 3.514500 0.000000 
#    z -0.076490 0.000000 3.504560 
# 
# 
# High freq. dielectric constant tensor:
#      x y z
#    x 1.707580 0.000000 -0.001630 
#    y 0.000000 1.723940 0.000000 
#    z -0.001630 0.000000 1.726970 
# 
# From -- ./inp_files/30404.got.cif
#   From: 2010.06.25/outbox.cif.g09.slc.cpg/sg13_16_cif.got.tgz:30404.got - 2010.06.28 04:50:58.
