data_PCOD8118794
_publ_section_title
;
Structure prediction by ZEFSAII (Michael W. Deem and Ramdas Pophale) SiO2 
 PCOD8118794
Probable space group: P 2/C
;
_chemical_formula_sum "Si O2"
_cell_formula_units_Z 28
_cell_length_a 10.018040
_cell_length_b 25.465944
_cell_length_c 8.899660
_cell_angle_alpha 90.000000
_cell_angle_beta 40.096958
_cell_angle_gamma 90.000000
_cell_volume 1462.371802
_symmetry_space_group_name_H-M "P 2/C"
_symmetry_group_IT_number 13
_symmetry_cell_setting 'monoclinic'
loop_
_space_group_symop_operation_xyz
x,y,z
-x,y,1/2-z
-x,-y,-z
x,-y,1/2+z
loop_
_atom_site_type_symbol
_atom_site_label
_atom_site_fract_x
_atom_site_fract_y
_atom_site_fract_z
Si Si1 0.534428 0.650476 0.547124
Si Si2 0.085816 0.660339 0.839047
Si Si3 0.832702 0.854175 0.267251
Si Si4 0.500000 0.091319 0.250000
Si Si5 0.836370 0.570109 0.158078
Si Si6 0.861944 0.739165 0.221512
Si Si7 0.000000 0.509866 0.750000
Si Si8 0.925018 0.948546 0.482477
O O1 0.500000 0.634221 0.750000
O O2 0.330335 0.664862 0.631032
O O3 0.626435 0.601220 0.375627
O O4 0.665935 0.703457 0.428287
O O5 0.000000 0.646221 0.750000
O O6 0.021529 0.613129 0.008254
O O7 0.989847 0.715425 0.973299
O O8 0.616127 0.873801 0.524930
O O9 0.791031 0.797528 0.227164
O O10 0.000000 0.842739 0.250000
O O11 0.945451 0.897989 0.062051
O O12 0.326467 0.057609 0.305978
O O13 0.860611 0.525189 0.260930
O O14 0.840808 0.544667 0.987100
O O15 0.000000 0.740738 0.250000
O O16 0.000000 0.954827 0.250000
O O17 0.000000 0.000000 0.500000
#
# Coordination Sequence:
#
# PCOD8118794 Si02
#       8
#     4   4   4   2   4   4   2   4
#     4  11  22  37  65  91 112 154 198 232 287 354
#     4  11  23  41  60  84 122 153 185 239 293 346
#     4   8  17  30  51  81 111 142 188 237 286 335
#     4   8  16  30  52  78 112 144 188 244 280 334
#     4  10  22  40  62  85 118 148 195 233 293 341
#     4  10  20  35  59  88 115 144 192 241 285 346
#     4  10  20  42  64  84 120 152 182 256 278 336
#     4   9  18  32  51  78 109 147 192 235 285 338
#
# _framework density 19.146977
#
# number of rings (size 3 to 8) (size 9 to 14) (size 15 to 20)
#    0.000    2.571    2.143    0.857    3.000    5.714 
#    0.000    8.571    0.000    3.429    0.000    0.000 
#    0.000    0.000    0.000    0.000    0.000    0.000 
#
# Total GULP energy -346909.194223 kJ/mol
# GULP energy per Si atom -12389.614079 kJ/mol
# Density = 1.910340 g / cm^3
# Si number density = 19.146977 Si / 1000 Ang^3
#
#
#
# Elastic Constant Matrix: (Units=GPa)
#
#
# Indices 1 2 3 4 5 6 
#
# 1 77.4132 43.1261 51.2491 0.0000 -10.8356 0.0000
# 2 43.1261 167.2263 69.2818 0.0000 -3.8427 0.0000
# 3 51.2491 69.2818 124.1405 0.0000 -19.9808 0.0000
# 4 0.0000 0.0000 0.0000 18.1255 0.0000 6.5976
# 5 -10.8356 -3.8427 -19.9808 0.0000 33.2594 0.0000
# 6 0.0000 0.0000 0.0000 6.5976 0.0000 21.6242
#
#
#
# Elastic Compliance Matrix: (Units=1/GPa)
#
#
# Indices 1 2 3 4 5 6 
#
# 1 0.018443 -0.002204 -0.006042 0.000000 0.002124 0.000000
# 2 -0.002204 0.008151 -0.003989 0.000000 -0.002173 0.000000
# 3 -0.006042 -0.003989 0.013710 0.000000 0.005807 0.000000
# 4 0.000000 0.000000 0.000000 0.062063 0.000000 -0.018936
# 5 0.002124 -0.002173 0.005807 0.000000 0.033997 0.000000
# 6 0.000000 0.000000 0.000000 -0.018936 0.000000 0.052022
#
#
# Mechanical properties :
#
#
# Convention : Reuss Voigt Hill
#
# Bulk Modulus (GPa) = 63.15213 77.34377 70.24795
# Shear Modulus (GPa) = 22.92177 28.27669 25.59923
#
# Velocity S-wave (km/s) = 3.46374 3.84711 3.66045
# Velocity P-wave (km/s) = 7.00365 7.75991 7.39146
#
# Compressibility (1/GPa) = 0.01583478
#
# Stress axis : x y z
#
# Youngs Moduli (GPa) = 54.22191 122.68474 72.93779
#
# Poissons Ratio (x) = 0.27044 0.44066
# Poissons Ratio (y) = 0.11952 0.29092
# Poissons Ratio (z) = 0.32759 0.48935
#
# Static dielectric constant tensor:
#      x y z
#    x 3.308360 0.000000 -0.148790 
#    y 0.000000 5.548520 0.000000 
#    z -0.148790 0.000000 3.754900 
# 
# 
# High freq. dielectric constant tensor:
#      x y z
#    x 1.708570 0.000000 -0.009520 
#    y 0.000000 1.759170 0.000000 
#    z -0.009520 0.000000 1.747990 
# 
# From -- ./inp_files/13936.got.cif
#   From: 2010.06.25/outbox.cif.g09.slc.cpg/sg13_7_cif.got.tgz:13936.got - 2010.06.28 04:50:58.
