data_PCOD8118124
_publ_section_title
;
Structure prediction by ZEFSAII (Michael W. Deem and Ramdas Pophale) SiO2 
 PCOD8118124
Probable space group: P 2/C
;
_chemical_formula_sum "Si O2"
_cell_formula_units_Z 30
_cell_length_a 16.669470
_cell_length_b 6.568308
_cell_length_c 28.110571
_cell_angle_alpha 90.000000
_cell_angle_beta 29.447580
_cell_angle_gamma 90.000000
_cell_volume 1513.145713
_symmetry_space_group_name_H-M "P 2/C"
_symmetry_group_IT_number 13
_symmetry_cell_setting 'monoclinic'
loop_
_space_group_symop_operation_xyz
x,y,z
-x,y,1/2-z
-x,-y,-z
x,-y,1/2+z
loop_
_atom_site_type_symbol
_atom_site_label
_atom_site_fract_x
_atom_site_fract_y
_atom_site_fract_z
Si Si1 0.000000 0.995964 0.250000
Si Si2 0.921262 0.075125 0.602823
Si Si3 0.631096 0.363971 0.719976
Si Si4 0.803860 0.868052 0.264835
Si Si5 0.475066 0.589615 0.120429
Si Si6 0.121454 0.686881 0.932494
Si Si7 0.685596 0.835391 0.947099
Si Si8 0.454913 0.806402 0.576254
O O1 0.119829 0.145190 0.158458
O O2 0.093674 0.852452 0.239346
O O3 0.768381 0.192093 0.657272
O O4 0.924301 0.106659 0.657771
O O5 0.091348 0.169965 0.494543
O O6 0.911354 0.833944 0.596068
O O7 0.500000 0.279523 0.750000
O O8 0.532611 0.404266 0.819141
O O9 0.701760 0.581198 0.664274
O O10 0.693788 0.667109 0.316051
O O11 0.685808 0.061446 0.326428
O O12 0.505305 0.362561 0.087710
O O13 0.632280 0.721173 0.022651
O O14 0.000000 0.500000 0.000000
O O15 0.610656 0.716213 0.940052
O O16 0.616848 0.064945 0.981900
#
# Coordination Sequence:
#
# PCOD8118124 Si02
#       8
#     2   4   4   4   4   4   4   4
#     4  10  20  38  50  80 122 138 176 240 274 314
#     4   9  18  36  58  80 106 157 186 219 293 349
#     4  10  21  36  54  83 117 143 189 245 276 326
#     4   9  19  35  57  79 109 149 183 225 273 338
#     4  10  19  36  59  79 103 150 196 216 278 339
#     4   9  18  35  57  80 109 142 188 235 285 340
#     4   9  19  34  53  79 108 141 178 227 282 326
#     4   9  17  34  58  76 103 142 183 228 268 333
#
# _framework density 19.826246999999999
#
# number of rings (size 3 to 8) (size 9 to 14) (size 15 to 20)
#    0.000    2.667    0.000    2.000    0.000    0.533 
#    9.600    6.000    0.000    0.000    0.000    0.000 
#    0.000    0.000    0.000    0.000    0.000    0.000 
#
# Total GULP energy -371849.924239 kJ/mol
# GULP energy per Si atom -12394.997475 kJ/mol
# Density = 1.978112 g / cm^3
# Si number density = 19.826247 Si / 1000 Ang^3
#
#
#
# Elastic Constant Matrix: (Units=GPa)
#
#
# Indices 1 2 3 4 5 6 
#
# 1 99.7671 26.5046 43.5675 0.0000 10.1320 0.0000
# 2 26.5046 74.1302 23.9913 0.0000 3.3137 0.0000
# 3 43.5675 23.9913 126.4376 0.0000 18.3769 0.0000
# 4 0.0000 0.0000 0.0000 25.4505 0.0000 4.6767
# 5 10.1320 3.3137 18.3769 0.0000 28.8308 0.0000
# 6 0.0000 0.0000 0.0000 4.6767 0.0000 18.2328
#
#
#
# Elastic Compliance Matrix: (Units=1/GPa)
#
#
# Indices 1 2 3 4 5 6 
#
# 1 0.012593 -0.003305 -0.003443 0.000000 -0.001851 0.000000
# 2 -0.003305 0.015240 -0.001837 0.000000 0.000581 0.000000
# 3 -0.003443 -0.001837 0.010181 0.000000 -0.005068 0.000000
# 4 0.000000 0.000000 0.000000 0.041236 0.000000 -0.010577
# 5 -0.001851 0.000581 -0.005068 0.000000 0.038499 0.000000
# 6 0.000000 0.000000 0.000000 -0.010577 0.000000 0.057559
#
#
# Mechanical properties :
#
#
# Convention : Reuss Voigt Hill
#
# Bulk Modulus (GPa) = 47.97916 54.27350 51.12633
# Shear Modulus (GPa) = 25.07183 28.25425 26.66304
#
# Velocity S-wave (km/s) = 3.55995 3.77914 3.67118
# Velocity P-wave (km/s) = 6.41483 6.81737 6.61916
#
# Compressibility (1/GPa) = 0.02084238
#
# Stress axis : x y z
#
# Youngs Moduli (GPa) = 79.40904 65.61568 98.22554
#
# Poissons Ratio (x) = 0.21689 0.33819
# Poissons Ratio (y) = 0.26249 0.18047
# Poissons Ratio (z) = 0.27341 0.12055
#
# Static dielectric constant tensor:
#      x y z
#    x 3.266490 0.000000 0.247640 
#    y 0.000000 3.545160 0.000000 
#    z 0.247640 0.000000 3.953860 
# 
# 
# High freq. dielectric constant tensor:
#      x y z
#    x 1.736230 0.000000 0.025810 
#    y 0.000000 1.761870 0.000000 
#    z 0.025810 0.000000 1.792620 
# 
# From -- ./inp_files/97164.got.cif
#   From: 2010.06.25/outbox.cif.g09.slc.cpg/sg13_49_cif.got.tgz:97164.got - 2010.06.28 04:50:58.
