data_PCOD8118127
_publ_section_title
;
Structure prediction by ZEFSAII (Michael W. Deem and Ramdas Pophale) SiO2 
 PCOD8118127
Probable space group: P 2/C
;
_chemical_formula_sum "Si O2"
_cell_formula_units_Z 28
_cell_length_a 9.362726
_cell_length_b 14.246383
_cell_length_c 21.081836
_cell_angle_alpha 90.000000
_cell_angle_beta 150.739763
_cell_angle_gamma 90.000000
_cell_volume 1374.441406
_symmetry_space_group_name_H-M "P 2/C"
_symmetry_group_IT_number 13
_symmetry_cell_setting 'monoclinic'
loop_
_space_group_symop_operation_xyz
x,y,z
-x,y,1/2-z
-x,-y,-z
x,-y,1/2+z
loop_
_atom_site_type_symbol
_atom_site_label
_atom_site_fract_x
_atom_site_fract_y
_atom_site_fract_z
Si Si1 0.546605 0.434012 0.120113
Si Si2 0.247702 0.994398 0.998800
Si Si3 0.904847 0.415885 0.083684
Si Si4 0.717693 0.114145 0.608199
Si Si5 0.199731 0.872342 0.599664
Si Si6 0.782947 0.333651 0.402830
Si Si7 0.739206 0.267721 0.107894
O O1 0.296226 0.379679 0.061358
O O2 0.641360 0.365027 0.101418
O O3 0.831046 0.462550 0.272460
O O4 0.394358 0.524693 0.029486
O O5 0.014485 0.917587 0.931255
O O6 0.158306 0.045947 0.898867
O O7 0.550923 0.942394 0.099345
O O8 0.269642 0.067128 0.064619
O O9 0.858160 0.306708 0.087122
O O10 0.991340 0.404227 0.043663
O O11 0.515749 0.192865 0.498203
O O12 0.000000 0.161849 0.750000
O O13 0.500000 0.856646 0.750000
O O14 0.079413 0.770084 0.531739
O O15 0.500000 0.323927 0.250000
O O16 0.000000 0.219789 0.250000
#
# Coordination Sequence:
#
# PCOD8118127 Si02
#       7
#     4   4   4   4   4   4   4
#     4  10  20  35  55  80 108 140 180 224 274 332
#     4  10  22  36  56  84 114 150 192 236 280 336
#     4  10  20  35  55  80 108 140 180 224 274 332
#     4  11  23  38  57  85 119 153 191 236 287 338
#     4  10  19  36  59  81 110 150 191 232 280 334
#     4   9  18  32  53  78 104 137 178 221 269 329
#     4  10  22  38  57  80 108 145 188 231 276 333
#
# _framework density 20.371911000000001
#
# number of rings (size 3 to 8) (size 9 to 14) (size 15 to 20)
#    0.000    2.000    0.000    3.429    0.000    6.857 
#    0.000    0.000    0.000    3.429    0.000    0.000 
#    0.000    0.000    0.000    0.000    0.000    0.000 
#
# Total GULP energy -347020.385291 kJ/mol
# GULP energy per Si atom -12393.585189 kJ/mol
# Density = 2.032554 g / cm^3
# Si number density = 20.371911 Si / 1000 Ang^3
#
#
#
# Elastic Constant Matrix: (Units=GPa)
#
#
# Indices 1 2 3 4 5 6 
#
# 1 92.9039 12.9449 18.3320 0.0000 5.3145 0.0000
# 2 12.9449 76.8657 49.0325 0.0000 0.5922 0.0000
# 3 18.3320 49.0325 115.2585 0.0000 6.6000 0.0000
# 4 0.0000 0.0000 0.0000 32.7533 0.0000 8.8299
# 5 5.3145 0.5922 6.6000 0.0000 15.1864 0.0000
# 6 0.0000 0.0000 0.0000 8.8299 0.0000 26.6021
#
#
#
# Elastic Compliance Matrix: (Units=1/GPa)
#
#
# Indices 1 2 3 4 5 6 
#
# 1 0.011343 -0.001178 -0.001106 0.000000 -0.003443 0.000000
# 2 -0.001178 0.018084 -0.007680 0.000000 0.003045 0.000000
# 3 -0.001106 -0.007680 0.012388 0.000000 -0.004697 0.000000
# 4 0.000000 0.000000 0.000000 0.033532 0.000000 -0.011130
# 5 -0.003443 0.003045 -0.004697 0.000000 0.068976 0.000000
# 6 0.000000 0.000000 0.000000 -0.011130 0.000000 0.041285
#
#
# Mechanical properties :
#
#
# Convention : Reuss Voigt Hill
#
# Bulk Modulus (GPa) = 45.68957 49.51633 47.60295
# Shear Modulus (GPa) = 23.49271 28.55627 26.02449
#
# Velocity S-wave (km/s) = 3.39955 3.74805 3.57805
# Velocity P-wave (km/s) = 6.15513 6.56426 6.36299
#
# Compressibility (1/GPa) = 0.02188683
#
# Stress axis : x y z
#
# Youngs Moduli (GPa) = 88.15904 55.29821 80.72225
#
# Poissons Ratio (x) = 0.06517 0.08925
# Poissons Ratio (y) = 0.10389 0.61995
# Poissons Ratio (z) = 0.09747 0.42469
#
# Static dielectric constant tensor:
#      x y z
#    x 5.388160 0.000000 -0.533040 
#    y 0.000000 3.672570 0.000000 
#    z -0.533040 0.000000 3.780120 
# 
# 
# High freq. dielectric constant tensor:
#      x y z
#    x 1.821570 0.000000 0.005120 
#    y 0.000000 1.792070 0.000000 
#    z 0.005120 0.000000 1.769750 
# 
# From -- ./inp_files/76698.got.cif
#   From: 2010.06.25/outbox.cif.g09.slc.cpg/sg13_39_cif.got.tgz:76698.got - 2010.06.28 04:50:58.
