data_PCOD8118997
_publ_section_title
;
Structure prediction by ZEFSAII (Michael W. Deem and Ramdas Pophale) SiO2 
 PCOD8118997
Probable space group: P 2/C
;
_chemical_formula_sum "Si O2"
_cell_formula_units_Z 28
_cell_length_a 17.375493
_cell_length_b 7.123864
_cell_length_c 13.663596
_cell_angle_alpha 90.000000
_cell_angle_beta 45.752721
_cell_angle_gamma 90.000000
_cell_volume 1211.529486
_symmetry_space_group_name_H-M "P 2/C"
_symmetry_group_IT_number 13
_symmetry_cell_setting 'monoclinic'
loop_
_space_group_symop_operation_xyz
x,y,z
-x,y,1/2-z
-x,-y,-z
x,-y,1/2+z
loop_
_atom_site_type_symbol
_atom_site_label
_atom_site_fract_x
_atom_site_fract_y
_atom_site_fract_z
Si Si1 0.903592 0.050114 0.271152
Si Si2 0.067244 0.197871 0.456620
Si Si3 0.719177 0.957761 0.667055
Si Si4 0.381432 0.653509 0.874244
Si Si5 0.138443 0.587806 0.361028
Si Si6 0.780927 0.317305 0.507730
Si Si7 0.708947 0.158559 0.871948
O O1 0.955950 0.056880 0.114428
O O2 0.859854 0.250488 0.350342
O O3 0.000000 0.966625 0.250000
O O4 0.802300 0.911645 0.362392
O O5 0.154030 0.100763 0.451315
O O6 0.126010 0.370344 0.348469
O O7 0.958268 0.284735 0.600075
O O8 0.647186 0.788646 0.691357
O O9 0.707373 0.143813 0.611492
O O10 0.681609 0.001390 0.813483
O O11 0.500000 0.571915 0.750000
O O12 0.297732 0.482748 0.958907
O O13 0.385901 0.776484 0.971273
O O14 0.139822 0.610856 0.477482
O O15 0.251557 0.655134 0.218741
#
# Coordination Sequence:
#
# PCOD8118997 Si02
#       7
#     4   4   4   4   4   4   4
#     4  11  21  35  61  98 136 172 213 254 326 403
#     4  10  20  36  61  94 136 179 202 263 321 400
#     4  10  23  43  69  97 136 167 221 276 329 401
#     4  12  26  47  69  93 128 176 231 290 340 380
#     4  10  20  36  61  96 134 171 216 254 333 397
#     4  11  22  41  64  96 134 172 219 274 321 398
#     4  10  24  41  65  97 131 174 218 278 331 399
#
# _framework density 23.111283
#
# number of rings (size 3 to 8) (size 9 to 14) (size 15 to 20)
#    0.000    1.429    4.286    0.857    2.000    2.857 
#    0.000    2.857    0.000    0.000    0.000    0.000 
#    0.000    0.000    0.000    0.000    0.000    0.000 
#
# Total GULP energy -347073.471290 kJ/mol
# GULP energy per Si atom -12395.481118 kJ/mol
# Density = 2.305868 g / cm^3
# Si number density = 23.111283 Si / 1000 Ang^3
#
#
#
# Elastic Constant Matrix: (Units=GPa)
#
#
# Indices 1 2 3 4 5 6 
#
# 1 61.5614 8.2040 22.4835 0.0000 6.7825 0.0000
# 2 8.2040 81.3143 -4.3633 0.0000 -0.6695 0.0000
# 3 22.4835 -4.3633 93.6599 0.0000 6.6728 0.0000
# 4 0.0000 0.0000 0.0000 28.5070 0.0000 1.9225
# 5 6.7825 -0.6695 6.6728 0.0000 26.8582 0.0000
# 6 0.0000 0.0000 0.0000 1.9225 0.0000 25.5681
#
#
#
# Elastic Compliance Matrix: (Units=1/GPa)
#
#
# Indices 1 2 3 4 5 6 
#
# 1 0.018493 -0.002125 -0.004277 0.000000 -0.003660 0.000000
# 2 -0.002125 0.012574 0.001054 0.000000 0.000588 0.000000
# 3 -0.004277 0.001054 0.011884 0.000000 -0.001846 0.000000
# 4 0.000000 0.000000 0.000000 0.035258 0.000000 -0.002651
# 5 -0.003660 0.000588 -0.001846 0.000000 0.038630 0.000000
# 6 0.000000 0.000000 0.000000 -0.002651 0.000000 0.039311
#
#
# Mechanical properties :
#
#
# Convention : Reuss Voigt Hill
#
# Bulk Modulus (GPa) = 31.00467 32.13154 31.56811
# Shear Modulus (GPa) = 28.15343 30.20077 29.17710
#
# Velocity S-wave (km/s) = 3.49401 3.61883 3.55697
# Velocity P-wave (km/s) = 5.45179 5.60307 5.52795
#
# Compressibility (1/GPa) = 0.03225320
#
# Stress axis : x y z
#
# Youngs Moduli (GPa) = 54.07548 79.53041 84.14397
#
# Poissons Ratio (x) = 0.16904 0.35992
# Poissons Ratio (y) = 0.11493 -0.08869
# Poissons Ratio (z) = 0.23131 -0.08383
#
# Static dielectric constant tensor:
#      x y z
#    x 4.015010 0.000000 0.307840 
#    y 0.000000 4.369500 0.000000 
#    z 0.307840 0.000000 3.868680 
# 
# 
# High freq. dielectric constant tensor:
#      x y z
#    x 1.893300 0.000000 0.025540 
#    y 0.000000 1.927690 0.000000 
#    z 0.025540 0.000000 1.893060 
# 
# From -- ./inp_files/55240.got.cif
#   From: 2010.06.25/outbox.cif.g09.slc.cpg/sg13_28_cif.got.tgz:55240.got - 2010.06.28 04:50:58.
