data_PCOD8118171
_publ_section_title
;
Structure prediction by ZEFSAII (Michael W. Deem and Ramdas Pophale) SiO2 
 PCOD8118171
Probable space group: P 2/C
;
_chemical_formula_sum "Si O2"
_cell_formula_units_Z 26
_cell_length_a 8.746452
_cell_length_b 15.454775
_cell_length_c 13.964516
_cell_angle_alpha 90.000000
_cell_angle_beta 137.860074
_cell_angle_gamma 90.000000
_cell_volume 1266.503628
_symmetry_space_group_name_H-M "P 2/C"
_symmetry_group_IT_number 13
_symmetry_cell_setting 'monoclinic'
loop_
_space_group_symop_operation_xyz
x,y,z
-x,y,1/2-z
-x,-y,-z
x,-y,1/2+z
loop_
_atom_site_type_symbol
_atom_site_label
_atom_site_fract_x
_atom_site_fract_y
_atom_site_fract_z
Si Si1 0.596280 0.709740 0.197165
Si Si2 0.276507 0.561357 0.703871
Si Si3 0.736903 0.891095 0.234630
Si Si4 0.990389 0.398915 0.601658
Si Si5 0.446141 0.669762 0.526150
Si Si6 0.258660 0.859980 0.477129
Si Si7 0.500000 0.029697 0.250000
O O1 0.500000 0.667713 0.250000
O O2 0.568946 0.813045 0.186633
O O3 0.862717 0.686834 0.311665
O O4 0.466253 0.672638 0.042919
O O5 0.500000 0.528473 0.750000
O O6 0.096011 0.604128 0.547985
O O7 0.346560 0.634191 0.813693
O O8 0.151929 0.481413 0.698015
O O9 0.697004 0.909568 0.103030
O O10 0.991052 0.858655 0.372885
O O11 0.679884 0.973479 0.272897
O O12 0.770932 0.395944 0.569555
O O13 0.363970 0.763629 0.524357
O O14 0.368513 0.911199 0.614740
#
# Coordination Sequence:
#
# PCOD8118171 Si02
#       7
#     4   4   4   4   4   4   2
#     4  11  21  37  60  82 116 160 202 241 292 355
#     4   9  20  36  58  90 122 145 195 251 289 347
#     4  10  21  40  57  88 120 157 200 243 297 361
#     4  10  19  36  62  85 115 153 190 244 297 348
#     4  10  21  38  61  87 117 158 204 238 295 359
#     4  10  22  37  62  88 121 159 198 244 295 360
#     4  12  22  36  64  92 118 156 196 254 298 348
#
# _framework density 20.528959
#
# number of rings (size 3 to 8) (size 9 to 14) (size 15 to 20)
#    0.000    1.846    2.308    1.846    3.231    0.615 
#    0.000    3.846    0.000    0.000    0.000    0.000 
#    0.000    0.000    0.000    0.000    0.000    0.000 
#
# Total GULP energy -322300.032501 kJ/mol
# GULP energy per Si atom -12396.155096 kJ/mol
# Density = 2.048223 g / cm^3
# Si number density = 20.528959 Si / 1000 Ang^3
#
#
#
# Elastic Constant Matrix: (Units=GPa)
#
#
# Indices 1 2 3 4 5 6 
#
# 1 97.7108 45.3868 49.6808 0.0000 -30.8988 0.0000
# 2 45.3868 102.4574 62.3892 0.0000 -19.0217 0.0000
# 3 49.6808 62.3892 128.7819 0.0000 -22.7360 0.0000
# 4 0.0000 0.0000 0.0000 44.6591 0.0000 -20.0368
# 5 -30.8988 -19.0217 -22.7360 0.0000 28.0055 0.0000
# 6 0.0000 0.0000 0.0000 -20.0368 0.0000 79.8744
#
#
#
# Elastic Compliance Matrix: (Units=1/GPa)
#
#
# Indices 1 2 3 4 5 6 
#
# 1 0.018068 -0.003619 -0.002488 0.000000 0.015457 0.000000
# 2 -0.003619 0.015101 -0.005619 0.000000 0.001702 0.000000
# 3 -0.002488 -0.005619 0.012010 0.000000 0.003189 0.000000
# 4 0.000000 0.000000 0.000000 0.025232 0.000000 0.006329
# 5 0.015457 0.001702 0.003189 0.000000 0.056505 0.000000
# 6 0.000000 0.000000 0.000000 0.006329 0.000000 0.014107
#
#
# Mechanical properties :
#
#
# Convention : Reuss Voigt Hill
#
# Bulk Modulus (GPa) = 46.02677 71.54041 58.78359
# Shear Modulus (GPa) = 29.11736 41.94070 35.52903
#
# Velocity S-wave (km/s) = 3.77019 4.52486 4.16466
# Velocity P-wave (km/s) = 6.43596 7.88818 7.19878
#
# Compressibility (1/GPa) = 0.02172649
#
# Stress axis : x y z
#
# Youngs Moduli (GPa) = 55.34536 66.22081 83.26358
#
# Poissons Ratio (x) = 0.23967 0.20717
# Poissons Ratio (y) = 0.20031 0.46787
# Poissons Ratio (z) = 0.13770 0.37210
#
# Static dielectric constant tensor:
#      x y z
#    x 3.667200 0.000000 -0.191070 
#    y 0.000000 3.656290 0.000000 
#    z -0.191070 0.000000 3.757410 
# 
# 
# High freq. dielectric constant tensor:
#      x y z
#    x 1.797320 0.000000 -0.015950 
#    y 0.000000 1.796400 0.000000 
#    z -0.015950 0.000000 1.805490 
# 
# From -- ./inp_files/47961.got.cif
#   From: 2010.06.25/outbox.cif.g09.slc.cpg/sg13_24_cif.got.tgz:47961.got - 2010.06.28 04:50:58.
