data_PCOD8118001
_publ_section_title
;
Structure prediction by ZEFSAII (Michael W. Deem and Ramdas Pophale) SiO2 
 PCOD8118001
Probable space group: P 2/C
;
_chemical_formula_sum "Si O2"
_cell_formula_units_Z 28
_cell_length_a 21.480074
_cell_length_b 6.403478
_cell_length_c 16.761113
_cell_angle_alpha 90.000000
_cell_angle_beta 141.289064
_cell_angle_gamma 90.000000
_cell_volume 1441.805229
_symmetry_space_group_name_H-M "P 2/C"
_symmetry_group_IT_number 13
_symmetry_cell_setting 'monoclinic'
loop_
_space_group_symop_operation_xyz
x,y,z
-x,y,1/2-z
-x,-y,-z
x,-y,1/2+z
loop_
_atom_site_type_symbol
_atom_site_label
_atom_site_fract_x
_atom_site_fract_y
_atom_site_fract_z
Si Si1 0.363517 0.816862 0.348303
Si Si2 0.482671 0.135236 0.368492
Si Si3 0.863517 0.816861 0.378732
Si Si4 0.500000 0.175909 0.750000
Si Si5 0.636264 0.476554 0.798662
Si Si6 0.863736 0.476554 0.026134
Si Si7 0.000000 0.175908 0.250000
Si Si8 0.982672 0.135236 0.596851
O O1 0.427217 0.765165 0.490860
O O2 0.250000 0.853747 0.260326
O O3 0.373210 0.621969 0.298598
O O4 0.402427 0.029570 0.346898
O O5 0.427209 0.312178 0.262227
O O6 0.529229 0.965759 0.354839
O O7 0.873209 0.621965 0.447820
O O8 0.927218 0.765165 0.363576
O O9 0.902426 0.029568 0.457957
O O10 0.595265 0.318357 0.824617
O O11 0.750000 0.526451 0.934349
O O12 0.927210 0.687821 0.092191
O O13 0.904736 0.318355 0.134087
O O14 0.970769 0.034239 0.296378
#
# Coordination Sequence:
#
# PCOD8118001 Si02
#       8
#     4   4   4   2   4   4   2   4
#     4   9  19  34  55  82 106 137 183 229 273 321
#     4  10  19  35  57  78 110 144 179 225 274 323
#     4   9  19  34  55  82 106 137 183 229 273 321
#     4  10  22  36  52  80 110 142 182 220 264 322
#     4  10  20  36  56  78 108 145 182 222 272 325
#     4  10  20  36  56  78 108 145 182 222 272 325
#     4  10  22  36  52  80 110 142 182 220 264 322
#     4  10  19  35  57  78 110 144 179 225 274 323
#
# _framework density 19.420097999999999
#
# number of rings (size 3 to 8) (size 9 to 14) (size 15 to 20)
#    0.000    2.286    0.000    2.571    0.000    2.286 
#    0.000    4.286    0.000    0.000    0.000    0.000 
#    0.000    0.000    0.000    0.000    0.000    0.000 
#
# Total GULP energy -347307.274243 kJ/mol
# GULP energy per Si atom -12403.831223 kJ/mol
# Density = 1.937590 g / cm^3
# Si number density = 19.420098 Si / 1000 Ang^3
#
#
#
# Elastic Constant Matrix: (Units=GPa)
#
#
# Indices 1 2 3 4 5 6 
#
# 1 106.3384 42.2766 57.7165 0.0000 17.5414 0.0000
# 2 42.2766 98.1011 48.1434 0.0000 9.1161 0.0000
# 3 57.7165 48.1434 127.2424 0.0000 14.9392 0.0000
# 4 0.0000 0.0000 0.0000 24.7364 0.0000 0.8387
# 5 17.5414 9.1161 14.9392 0.0000 25.9128 0.0000
# 6 0.0000 0.0000 0.0000 0.8387 0.0000 24.1969
#
#
#
# Elastic Compliance Matrix: (Units=1/GPa)
#
#
# Indices 1 2 3 4 5 6 
#
# 1 0.014112 -0.003359 -0.004448 0.000000 -0.005806 0.000000
# 2 -0.003359 0.013396 -0.003495 0.000000 -0.000424 0.000000
# 3 -0.004448 -0.003495 0.011478 0.000000 -0.002377 0.000000
# 4 0.000000 0.000000 0.000000 0.040474 0.000000 -0.001403
# 5 -0.005806 -0.000424 -0.002377 0.000000 0.044041 0.000000
# 6 0.000000 0.000000 0.000000 -0.001403 0.000000 0.041376
#
#
# Mechanical properties :
#
#
# Convention : Reuss Voigt Hill
#
# Bulk Modulus (GPa) = 61.04654 69.77278 65.40966
# Shear Modulus (GPa) = 25.91467 27.20558 26.56012
#
# Velocity S-wave (km/s) = 3.65694 3.74692 3.70220
# Velocity P-wave (km/s) = 7.02381 7.39766 7.21316
#
# Compressibility (1/GPa) = 0.01638095
#
# Stress axis : x y z
#
# Youngs Moduli (GPa) = 70.86418 74.65130 87.12168
#
# Poissons Ratio (x) = 0.25073 0.38755
# Poissons Ratio (y) = 0.23801 0.30450
# Poissons Ratio (z) = 0.31523 0.26091
#
# Static dielectric constant tensor:
#      x y z
#    x 3.481470 0.000000 0.037560 
#    y 0.000000 3.498620 0.000000 
#    z 0.037560 0.000000 3.505630 
# 
# 
# High freq. dielectric constant tensor:
#      x y z
#    x 1.749210 0.000000 0.002010 
#    y 0.000000 1.758170 0.000000 
#    z 0.002010 0.000000 1.750500 
# 
# From -- ./inp_files/70336.got.cif
#   From: 2010.06.25/outbox.cif.g09.slc.cpg/sg13_36_cif.got.tgz:70336.got - 2010.06.28 04:50:58.
