data_PCOD8118223
_publ_section_title
;
Structure prediction by ZEFSAII (Michael W. Deem and Ramdas Pophale) SiO2 
 PCOD8118223
Probable space group: P 2/C
;
_chemical_formula_sum "Si O2"
_cell_formula_units_Z 18
_cell_length_a 21.158304
_cell_length_b 8.738492
_cell_length_c 17.075487
_cell_angle_alpha 90.000000
_cell_angle_beta 18.425213
_cell_angle_gamma 90.000000
_cell_volume 997.858573
_symmetry_space_group_name_H-M "P 2/C"
_symmetry_group_IT_number 13
_symmetry_cell_setting 'monoclinic'
loop_
_space_group_symop_operation_xyz
x,y,z
-x,y,1/2-z
-x,-y,-z
x,-y,1/2+z
loop_
_atom_site_type_symbol
_atom_site_label
_atom_site_fract_x
_atom_site_fract_y
_atom_site_fract_z
Si Si1 0.268270 0.845625 0.310542
Si Si2 0.305837 0.897379 0.640654
Si Si3 0.936163 0.326168 0.576992
Si Si4 0.000000 0.990849 0.750000
Si Si5 0.285740 0.147561 0.533156
O O1 0.207536 0.701619 0.328568
O O2 0.115302 0.872081 0.559951
O O3 0.259235 0.999925 0.270442
O O4 0.485863 0.810161 0.090344
O O5 0.319483 0.998685 0.546886
O O6 0.131687 0.776057 0.836170
O O7 0.819662 0.283673 0.793918
O O8 0.000000 0.500000 0.500000
O O9 0.149744 0.103285 0.619448
O O10 0.500000 0.206912 0.250000
#
# Coordination Sequence:
#
# PCOD8118223 Si02
#       5
#     4   4   4   2   4
#     4  10  20  34  62  86 108 150 201 242 285 329
#     4  10  19  37  59  86 111 149 201 241 281 340
#     4  11  23  40  56  83 130 163 182 226 300 371
#     4  12  18  34  62  90 112 136 198 264 286 314
#     4  11  21  36  62  90 111 148 203 252 285 331
#
# _framework density 18.038627000000002
#
# number of rings (size 3 to 8) (size 9 to 14) (size 15 to 20)
#    0.000    1.333    6.667    1.333    0.000    0.889 
#    0.000    4.444    0.000    0.000    0.000    0.000 
#    0.000    0.000    0.000    0.000    0.000    0.000 
#
# Total GULP energy -223250.382648 kJ/mol
# GULP energy per Si atom -12402.799036 kJ/mol
# Density = 1.799757 g / cm^3
# Si number density = 18.038627 Si / 1000 Ang^3
#
#
#
# Elastic Constant Matrix: (Units=GPa)
#
#
# Indices 1 2 3 4 5 6 
#
# 1 91.4236 11.3773 26.8676 0.0000 -11.3606 0.0000
# 2 11.3773 79.5025 31.1109 0.0000 -6.6157 0.0000
# 3 26.8676 31.1109 116.4477 0.0000 -0.6428 0.0000
# 4 0.0000 0.0000 0.0000 16.0654 0.0000 -2.6844
# 5 -11.3606 -6.6157 -0.6428 0.0000 37.7611 0.0000
# 6 0.0000 0.0000 0.0000 -2.6844 0.0000 12.6013
#
#
#
# Elastic Compliance Matrix: (Units=1/GPa)
#
#
# Indices 1 2 3 4 5 6 
#
# 1 0.012222 -0.000399 -0.002694 0.000000 0.003561 0.000000
# 2 -0.000399 0.014280 -0.003710 0.000000 0.002319 0.000000
# 3 -0.002694 -0.003710 0.010193 0.000000 -0.001287 0.000000
# 4 0.000000 0.000000 0.000000 0.064543 0.000000 0.013749
# 5 0.003561 0.002319 -0.001287 0.000000 0.027938 0.000000
# 6 0.000000 0.000000 0.000000 0.013749 0.000000 0.082286
#
#
# Mechanical properties :
#
#
# Convention : Reuss Voigt Hill
#
# Bulk Modulus (GPa) = 43.30916 47.34285 45.32600
# Shear Modulus (GPa) = 21.48094 27.82009 24.65052
#
# Velocity S-wave (km/s) = 3.45458 3.93141 3.70069
# Velocity P-wave (km/s) = 6.32246 6.84910 6.59104
#
# Compressibility (1/GPa) = 0.02308981
#
# Stress axis : x y z
#
# Youngs Moduli (GPa) = 81.82048 70.02718 98.10395
#
# Poissons Ratio (x) = 0.02791 0.26427
# Poissons Ratio (y) = 0.03261 0.36401
# Poissons Ratio (z) = 0.22041 0.25983
#
# Static dielectric constant tensor:
#      x y z
#    x 3.739670 0.000000 -0.137390 
#    y 0.000000 2.897130 0.000000 
#    z -0.137390 0.000000 3.575220 
# 
# 
# High freq. dielectric constant tensor:
#      x y z
#    x 1.718880 0.000000 -0.006890 
#    y 0.000000 1.650320 0.000000 
#    z -0.006890 0.000000 1.719100 
# 
# From -- ./inp_files/56974.got.cif
#   From: 2010.06.25/outbox.cif.g09.slc.cpg/sg13_29_cif.got.tgz:56974.got - 2010.06.28 04:50:58.
