data_PCOD8118292
_publ_section_title
;
Structure prediction by ZEFSAII (Michael W. Deem and Ramdas Pophale) SiO2 
 PCOD8118292
Probable space group: P 2/C
;
_chemical_formula_sum "Si O2"
_cell_formula_units_Z 28
_cell_length_a 14.759886
_cell_length_b 9.133207
_cell_length_c 16.772716
_cell_angle_alpha 90.000000
_cell_angle_beta 142.803559
_cell_angle_gamma 90.000000
_cell_volume 1366.915479
_symmetry_space_group_name_H-M "P 2/C"
_symmetry_group_IT_number 13
_symmetry_cell_setting 'monoclinic'
loop_
_space_group_symop_operation_xyz
x,y,z
-x,y,1/2-z
-x,-y,-z
x,-y,1/2+z
loop_
_atom_site_type_symbol
_atom_site_label
_atom_site_fract_x
_atom_site_fract_y
_atom_site_fract_z
Si Si1 0.347657 0.354777 0.112789
Si Si2 0.850893 0.149323 0.106310
Si Si3 0.148702 0.415202 0.124078
Si Si4 0.271776 0.686403 0.273285
Si Si5 0.827953 0.824127 0.134449
Si Si6 0.045952 0.152666 0.496329
Si Si7 0.437060 0.337286 0.619110
O O1 0.500000 0.276797 0.250000
O O2 0.252844 0.416273 0.119652
O O3 0.395955 0.491127 0.091292
O O4 0.253074 0.234258 0.000754
O O5 0.000000 0.222244 0.250000
O O6 0.815936 0.999228 0.128898
O O7 0.878414 0.114746 0.033668
O O8 0.711114 0.255856 0.014278
O O9 0.232440 0.512114 0.250385
O O10 0.000000 0.500000 0.000000
O O11 0.104249 0.252098 0.121734
O O12 0.255248 0.758982 0.347504
O O13 0.162237 0.766171 0.134683
O O14 0.441626 0.701663 0.363004
O O15 0.000000 0.772048 0.250000
O O16 0.000000 0.000000 0.500000
O O17 0.500000 0.287588 0.750000
#
# Coordination Sequence:
#
# PCOD8118292 Si02
#       7
#     4   4   4   4   4   4   4
#     4  11  22  42  64  96 135 168 214 275 331 391
#     4  11  24  43  62  93 131 170 221 278 334 394
#     4  10  19  37  65  92 124 171 220 263 322 392
#     4  11  22  42  67  94 132 178 220 270 339 393
#     4  11  25  44  65  94 134 170 221 283 330 396
#     4  11  21  38  66  96 127 174 228 272 325 401
#     4  11  21  43  68  94 135 175 217 277 329 399
#
# _framework density 20.484076999999999
#
# number of rings (size 3 to 8) (size 9 to 14) (size 15 to 20)
#    0.000    1.143    4.286    5.143    0.000    3.429 
#    5.143    0.000    0.000    0.000    0.000    0.000 
#    0.000    0.000    0.000    0.000    0.000    0.000 
#
# Total GULP energy -347188.553845 kJ/mol
# GULP energy per Si atom -12399.591209 kJ/mol
# Density = 2.043745 g / cm^3
# Si number density = 20.484077 Si / 1000 Ang^3
#
#
#
# Elastic Constant Matrix: (Units=GPa)
#
#
# Indices 1 2 3 4 5 6 
#
# 1 90.4132 23.9642 14.1147 0.0000 19.2219 0.0000
# 2 23.9642 98.6646 48.5383 0.0000 11.0229 0.0000
# 3 14.1147 48.5383 119.4739 0.0000 26.8885 0.0000
# 4 0.0000 0.0000 0.0000 10.2520 0.0000 -13.8441
# 5 19.2219 11.0229 26.8885 0.0000 36.0913 0.0000
# 6 0.0000 0.0000 0.0000 -13.8441 0.0000 25.7343
#
#
#
# Elastic Compliance Matrix: (Units=1/GPa)
#
#
# Indices 1 2 3 4 5 6 
#
# 1 0.013160 -0.003030 0.001256 0.000000 -0.007019 0.000000
# 2 -0.003030 0.013365 -0.005426 0.000000 0.001574 0.000000
# 3 0.001256 -0.005426 0.012259 0.000000 -0.008145 0.000000
# 4 0.000000 0.000000 0.000000 0.356587 0.000000 0.191831
# 5 -0.007019 0.001574 -0.008145 0.000000 0.037033 0.000000
# 6 0.000000 0.000000 0.000000 0.191831 0.000000 0.142056
#
#
# Mechanical properties :
#
#
# Convention : Reuss Voigt Hill
#
# Bulk Modulus (GPa) = 41.01141 53.53180 47.27161
# Shear Modulus (GPa) = 8.37538 29.21115 18.79326
#
# Velocity S-wave (km/s) = 2.02425 3.78039 3.03224
# Velocity P-wave (km/s) = 5.05253 6.72646 5.94867
#
# Compressibility (1/GPa) = 0.02438346
#
# Stress axis : x y z
#
# Youngs Moduli (GPa) = 75.99005 74.82375 81.57166
#
# Poissons Ratio (x) = 0.22672 -0.10245
# Poissons Ratio (y) = 0.23025 0.44261
# Poissons Ratio (z) = -0.09544 0.40600
#
# Static dielectric constant tensor:
#      x y z
#    x 3.798780 0.000000 0.160300 
#    y 0.000000 3.855780 0.000000 
#    z 0.160300 0.000000 3.864620 
# 
# 
# High freq. dielectric constant tensor:
#      x y z
#    x 1.808800 0.000000 0.012660 
#    y 0.000000 1.798030 0.000000 
#    z 0.012660 0.000000 1.799230 
# 
# From -- ./inp_files/68244.got.cif
#   From: 2010.06.25/outbox.cif.g09.slc.cpg/sg13_35_cif.got.tgz:68244.got - 2010.06.28 04:50:58.
