data_PCOD8118466
_publ_section_title
;
Structure prediction by ZEFSAII (Michael W. Deem and Ramdas Pophale) SiO2 
 PCOD8118466
Probable space group: P 2/C
;
_chemical_formula_sum "Si O2"
_cell_formula_units_Z 32
_cell_length_a 13.339801
_cell_length_b 11.696426
_cell_length_c 16.689011
_cell_angle_alpha 90.000000
_cell_angle_beta 35.465346
_cell_angle_gamma 90.000000
_cell_volume 1510.840703
_symmetry_space_group_name_H-M "P 2/C"
_symmetry_group_IT_number 13
_symmetry_cell_setting 'monoclinic'
loop_
_space_group_symop_operation_xyz
x,y,z
-x,y,1/2-z
-x,-y,-z
x,-y,1/2+z
loop_
_atom_site_type_symbol
_atom_site_label
_atom_site_fract_x
_atom_site_fract_y
_atom_site_fract_z
Si Si1 0.104928 0.876404 0.110071
Si Si2 0.854267 0.443330 0.980777
Si Si3 0.739585 0.714202 0.703108
Si Si4 0.953841 0.311509 0.375379
Si Si5 0.832960 0.697681 0.215739
Si Si6 0.190377 0.969602 0.901993
Si Si7 0.690953 0.204132 0.650720
Si Si8 0.646957 0.693626 0.492452
O O1 0.000000 0.936030 0.250000
O O2 0.973510 0.795009 0.146342
O O3 0.181875 0.972066 0.003619
O O4 0.272881 0.812975 0.033048
O O5 0.846434 0.579712 0.979617
O O6 0.059457 0.419286 0.847068
O O7 0.773781 0.377909 0.110399
O O8 0.755156 0.405026 0.965427
O O9 0.742970 0.846697 0.671867
O O10 0.552062 0.685159 0.857732
O O11 0.867663 0.701128 0.693575
O O12 0.822341 0.210080 0.488613
O O13 0.000000 0.311830 0.250000
O O14 0.762028 0.710932 0.172711
O O15 0.671437 0.686482 0.380771
O O16 0.315913 0.077134 0.803169
O O17 0.000000 0.000000 0.000000
O O18 0.500000 0.241644 0.750000
#
# Coordination Sequence:
#
# PCOD8118466 Si02
#       8
#     4   4   4   4   4   4   4   4
#     4   9  18  35  63  93 124 161 213 275 328 372
#     4  11  21  45  73  98 131 173 222 273 342 395
#     4  12  24  42  72 101 131 172 228 281 328 389
#     4  12  27  48  67  97 139 181 218 271 341 411
#     4  10  19  43  64  94 132 172 218 267 333 393
#     4  12  21  44  65  92 131 179 224 267 330 395
#     4  12  28  43  66  95 138 188 220 268 337 401
#     4  10  22  37  70 104 125 157 225 292 317 379
#
# _framework density 21.180261999999999
#
# number of rings (size 3 to 8) (size 9 to 14) (size 15 to 20)
#    0.000    1.000    6.250    2.625    3.500    1.500 
#    0.000    1.875    0.000    0.000    0.000    0.000 
#    0.000    0.000    0.000    0.000    0.000    0.000 
#
# Total GULP energy -396451.014178 kJ/mol
# GULP energy per Si atom -12389.094193 kJ/mol
# Density = 2.113205 g / cm^3
# Si number density = 21.180262 Si / 1000 Ang^3
#
#
#
# Elastic Constant Matrix: (Units=GPa)
#
#
# Indices 1 2 3 4 5 6 
#
# 1 108.9444 17.2470 56.3166 0.0000 4.4390 0.0000
# 2 17.2470 79.5984 29.2650 0.0000 5.4634 0.0000
# 3 56.3166 29.2650 140.4804 0.0000 3.6098 0.0000
# 4 0.0000 0.0000 0.0000 16.1200 0.0000 -0.8316
# 5 4.4390 5.4634 3.6098 0.0000 39.2809 0.0000
# 6 0.0000 0.0000 0.0000 -0.8316 0.0000 11.9184
#
#
#
# Elastic Compliance Matrix: (Units=1/GPa)
#
#
# Indices 1 2 3 4 5 6 
#
# 1 0.011658 -0.000824 -0.004482 0.000000 -0.000791 0.000000
# 2 -0.000824 0.013769 -0.002497 0.000000 -0.001592 0.000000
# 3 -0.004482 -0.002497 0.009436 0.000000 -0.000013 0.000000
# 4 0.000000 0.000000 0.000000 0.062259 0.000000 0.004344
# 5 -0.000791 -0.001592 -0.000013 0.000000 0.025770 0.000000
# 6 0.000000 0.000000 0.000000 0.004344 0.000000 0.084207
#
#
# Mechanical properties :
#
#
# Convention : Reuss Voigt Hill
#
# Bulk Modulus (GPa) = 51.92831 59.40894 55.66862
# Shear Modulus (GPa) = 21.82232 28.54352 25.18292
#
# Velocity S-wave (km/s) = 3.21333 3.67501 3.45190
# Velocity P-wave (km/s) = 6.19176 6.79100 6.49829
#
# Compressibility (1/GPa) = 0.01925732
#
# Stress axis : x y z
#
# Youngs Moduli (GPa) = 85.77500 72.62691 105.98147
#
# Poissons Ratio (x) = 0.05985 0.47498
# Poissons Ratio (y) = 0.07068 0.26464
# Poissons Ratio (z) = 0.38442 0.18136
#
# Static dielectric constant tensor:
#      x y z
#    x 3.876210 0.000000 0.157970 
#    y 0.000000 3.695400 0.000000 
#    z 0.157970 0.000000 3.839160 
# 
# 
# High freq. dielectric constant tensor:
#      x y z
#    x 1.833180 0.000000 0.006970 
#    y 0.000000 1.822690 0.000000 
#    z 0.006970 0.000000 1.828110 
# 
# From -- ./inp_files/68650.got.cif
#   From: 2010.06.25/outbox.cif.g09.slc.cpg/sg13_35_cif.got.tgz:68650.got - 2010.06.28 04:50:58.
