data_PCOD8118276
_publ_section_title
;
Structure prediction by ZEFSAII (Michael W. Deem and Ramdas Pophale) SiO2 
 PCOD8118276
Probable space group: P 2/C
;
_chemical_formula_sum "Si O2"
_cell_formula_units_Z 24
_cell_length_a 16.316986
_cell_length_b 9.377000
_cell_length_c 14.895888
_cell_angle_alpha 90.000000
_cell_angle_beta 27.503248
_cell_angle_gamma 90.000000
_cell_volume 1052.502522
_symmetry_space_group_name_H-M "P 2/C"
_symmetry_group_IT_number 13
_symmetry_cell_setting 'monoclinic'
loop_
_space_group_symop_operation_xyz
x,y,z
-x,y,1/2-z
-x,-y,-z
x,-y,1/2+z
loop_
_atom_site_type_symbol
_atom_site_label
_atom_site_fract_x
_atom_site_fract_y
_atom_site_fract_z
Si Si1 0.321467 0.072968 0.203243
Si Si2 0.725845 0.170875 0.626748
Si Si3 0.183159 0.517973 0.421267
Si Si4 0.208817 0.510930 0.190359
Si Si5 0.470670 0.685844 0.682236
Si Si6 0.307714 0.206445 0.038918
O O1 0.367151 0.209861 0.217766
O O2 0.220536 0.124186 0.209824
O O3 0.209124 0.960733 0.373176
O O4 0.500000 0.000000 0.000000
O O5 0.832492 0.311632 0.552408
O O6 0.763238 0.137002 0.485029
O O7 0.518442 0.196668 0.842692
O O8 0.228720 0.474994 0.275474
O O9 0.343482 0.451813 0.323841
O O10 0.995430 0.448177 0.633037
O O11 0.259346 0.372698 0.083591
O O12 0.338304 0.642346 0.042890
O O13 0.500000 0.761129 0.750000
#
# Coordination Sequence:
#
# PCOD8118276 Si02
#       6
#     4   4   4   4   4   4
#     4  10  22  38  62  90 129 167 211 262 315 385
#     4  10  21  37  63  93 124 170 214 256 321 386
#     4  11  23  41  66  95 129 164 218 266 316 386
#     4  11  22  40  67  95 127 169 211 268 325 373
#     4  12  24  39  66  96 127 166 209 267 322 378
#     4  10  19  37  64  87 126 168 211 259 315 384
#
# _framework density 22.802793000000001
#
# number of rings (size 3 to 8) (size 9 to 14) (size 15 to 20)
#    0.000    1.333    3.333    3.500    4.667    2.667 
#    0.000    0.833    7.333    2.000    0.000    0.000 
#    0.000    0.000    0.000    0.000    0.000    0.000 
#
# Total GULP energy -297551.692992 kJ/mol
# GULP energy per Si atom -12397.987208 kJ/mol
# Density = 2.275089 g / cm^3
# Si number density = 22.802793 Si / 1000 Ang^3
#
#
#
# Elastic Constant Matrix: (Units=GPa)
#
#
# Indices 1 2 3 4 5 6 
#
# 1 84.4569 27.1027 48.8574 0.0000 28.6178 0.0000
# 2 27.1027 100.5577 34.7864 0.0000 15.5037 0.0000
# 3 48.8574 34.7864 79.0183 0.0000 3.8211 0.0000
# 4 0.0000 0.0000 0.0000 29.0743 0.0000 9.8819
# 5 28.6178 15.5037 3.8211 0.0000 40.8522 0.0000
# 6 0.0000 0.0000 0.0000 9.8819 0.0000 29.3310
#
#
#
# Elastic Compliance Matrix: (Units=1/GPa)
#
#
# Indices 1 2 3 4 5 6 
#
# 1 0.026911 0.001112 -0.016270 0.000000 -0.017752 0.000000
# 2 0.001112 0.012461 -0.005934 0.000000 -0.004953 0.000000
# 3 -0.016270 -0.005934 0.024780 0.000000 0.011332 0.000000
# 4 0.000000 0.000000 0.000000 0.038842 0.000000 -0.013086
# 5 -0.017752 -0.004953 0.011332 0.000000 0.037734 0.000000
# 6 0.000000 0.000000 0.000000 -0.013086 0.000000 0.038503
#
#
# Mechanical properties :
#
#
# Convention : Reuss Voigt Hill
#
# Bulk Modulus (GPa) = 45.52164 53.94730 49.73447
# Shear Modulus (GPa) = 21.85918 30.07060 25.96489
#
# Velocity S-wave (km/s) = 3.09952 3.63536 3.37808
# Velocity P-wave (km/s) = 5.72851 6.42890 6.08878
#
# Compressibility (1/GPa) = 0.02196758
#
# Stress axis : x y z
#
# Youngs Moduli (GPa) = 37.16001 80.24892 40.35571
#
# Poissons Ratio (x) = -0.08926 0.65660
# Poissons Ratio (y) = -0.04133 0.23947
# Poissons Ratio (z) = 0.60460 0.47620
#
# Static dielectric constant tensor:
#      x y z
#    x 4.297180 0.000000 0.390500 
#    y 0.000000 3.833980 0.000000 
#    z 0.390500 0.000000 4.067390 
# 
# 
# High freq. dielectric constant tensor:
#      x y z
#    x 1.902280 0.000000 0.022940 
#    y 0.000000 1.883150 0.000000 
#    z 0.022940 0.000000 1.890830 
# 
# From -- ./inp_files/55204.got.cif
#   From: 2010.06.25/outbox.cif.g09.slc.cpg/sg13_28_cif.got.tgz:55204.got - 2010.06.28 04:50:58.
