data_PCOD8118282
_publ_section_title
;
Structure prediction by ZEFSAII (Michael W. Deem and Ramdas Pophale) SiO2 
 PCOD8118282
Probable space group: P 2/C
;
_chemical_formula_sum "Si O2"
_cell_formula_units_Z 22
_cell_length_a 12.890838
_cell_length_b 5.758209
_cell_length_c 14.176595
_cell_angle_alpha 90.000000
_cell_angle_beta 82.643359
_cell_angle_gamma 90.000000
_cell_volume 1043.640081
_symmetry_space_group_name_H-M "P 2/C"
_symmetry_group_IT_number 13
_symmetry_cell_setting 'monoclinic'
loop_
_space_group_symop_operation_xyz
x,y,z
-x,y,1/2-z
-x,-y,-z
x,-y,1/2+z
loop_
_atom_site_type_symbol
_atom_site_label
_atom_site_fract_x
_atom_site_fract_y
_atom_site_fract_z
Si Si1 0.675540 0.001652 0.312336
Si Si2 0.331243 0.377048 0.332792
Si Si3 0.244455 0.071569 0.497449
Si Si4 0.026445 0.750483 0.044846
Si Si5 0.500000 0.695905 0.250000
Si Si6 0.827599 0.756597 0.159888
O O1 0.694979 0.035434 0.420655
O O2 0.575337 0.839865 0.309350
O O3 0.781388 0.905052 0.251039
O O4 0.647921 0.244769 0.267756
O O5 0.327809 0.215142 0.425117
O O6 0.427797 0.553086 0.331537
O O7 0.218782 0.498387 0.333400
O O8 0.151204 0.240112 0.547075
O O9 0.202680 0.862275 0.438734
O O10 0.954641 0.747226 0.148585
O O11 0.000000 0.500000 0.000000
O O12 0.000000 0.000000 0.000000
#
# Coordination Sequence:
#
# PCOD8118282 Si02
#       6
#     4   4   4   4   2   4
#     4  10  22  39  60  89 120 160 214 261 316 382
#     4  10  20  40  61  84 124 158 201 268 316 376
#     4  10  21  37  64  91 121 163 212 250 316 384
#     4  10  19  37  64  94 131 169 205 252 314 374
#     4  10  22  40  60  84 120 160 200 268 334 370
#     4   9  20  37  60  89 126 165 198 254 314 371
#
# _framework density 21.080064
#
# number of rings (size 3 to 8) (size 9 to 14) (size 15 to 20)
#    0.000    2.182    1.818    0.545    0.000    4.364 
#    0.000   12.727    0.000    0.000    0.000    0.000 
#    0.000    0.000    0.000    0.000    0.000    0.000 
#
# Total GULP energy -272544.109560 kJ/mol
# GULP energy per Si atom -12388.368616 kJ/mol
# Density = 2.103208 g / cm^3
# Si number density = 21.080064 Si / 1000 Ang^3
#
#
#
# Elastic Constant Matrix: (Units=GPa)
#
#
# Indices 1 2 3 4 5 6 
#
# 1 87.6389 23.0004 25.8681 0.0000 -15.6008 0.0000
# 2 23.0004 107.1214 24.7418 0.0000 -2.9683 0.0000
# 3 25.8681 24.7418 100.4871 0.0000 9.6070 0.0000
# 4 0.0000 0.0000 0.0000 10.7925 0.0000 -2.8389
# 5 -15.6008 -2.9683 9.6070 0.0000 26.1390 0.0000
# 6 0.0000 0.0000 0.0000 -2.8389 0.0000 21.3000
#
#
#
# Elastic Compliance Matrix: (Units=1/GPa)
#
#
# Indices 1 2 3 4 5 6 
#
# 1 0.015064 -0.001931 -0.004395 0.000000 0.010387 0.000000
# 2 -0.001931 0.010257 -0.002103 0.000000 0.000785 0.000000
# 3 -0.004395 -0.002103 0.012307 0.000000 -0.007385 0.000000
# 4 0.000000 0.000000 0.000000 0.096023 0.000000 0.012798
# 5 0.010387 0.000785 -0.007385 0.000000 0.047260 0.000000
# 6 0.000000 0.000000 0.000000 0.012798 0.000000 0.048654
#
#
# Mechanical properties :
#
#
# Convention : Reuss Voigt Hill
#
# Bulk Modulus (GPa) = 48.15125 49.16311 48.65718
# Shear Modulus (GPa) = 19.73568 26.42210 23.07889
#
# Velocity S-wave (km/s) = 3.06310 3.54420 3.31240
# Velocity P-wave (km/s) = 5.94994 6.33413 6.14504
#
# Compressibility (1/GPa) = 0.02076789
#
# Stress axis : x y z
#
# Youngs Moduli (GPa) = 66.38507 97.48974 81.25485
#
# Poissons Ratio (x) = 0.18829 0.35713
# Poissons Ratio (y) = 0.12822 0.17092
# Poissons Ratio (z) = 0.29178 0.20507
#
# Static dielectric constant tensor:
#      x y z
#    x 4.139310 0.000000 -0.508770 
#    y 0.000000 3.981000 0.000000 
#    z -0.508770 0.000000 3.511540 
# 
# 
# High freq. dielectric constant tensor:
#      x y z
#    x 1.830100 0.000000 -0.038450 
#    y 0.000000 1.834720 0.000000 
#    z -0.038450 0.000000 1.795050 
# 
# From -- ./inp_files/35436.got.cif
#   From: 2010.06.25/outbox.cif.g09.slc.cpg/sg13_18_cif.got.tgz:35436.got - 2010.06.28 04:50:58.
