data_PCOD8118643
_publ_section_title
;
Structure prediction by ZEFSAII (Michael W. Deem and Ramdas Pophale) SiO2 
 PCOD8118643
Probable space group: P 2/C
;
_chemical_formula_sum "Si O2"
_cell_formula_units_Z 26
_cell_length_a 8.238692
_cell_length_b 12.565861
_cell_length_c 14.433366
_cell_angle_alpha 90.000000
_cell_angle_beta 120.369178
_cell_angle_gamma 90.000000
_cell_volume 1289.202423
_symmetry_space_group_name_H-M "P 2/C"
_symmetry_group_IT_number 13
_symmetry_cell_setting 'monoclinic'
loop_
_space_group_symop_operation_xyz
x,y,z
-x,y,1/2-z
-x,-y,-z
x,-y,1/2+z
loop_
_atom_site_type_symbol
_atom_site_label
_atom_site_fract_x
_atom_site_fract_y
_atom_site_fract_z
Si Si1 0.452937 0.719665 0.605233
Si Si2 0.098097 0.003361 0.626470
Si Si3 0.387796 0.268070 0.868445
Si Si4 0.806360 0.224964 0.311345
Si Si5 0.000000 0.394064 0.250000
Si Si6 0.000000 0.840324 0.250000
Si Si7 0.500000 0.889270 0.250000
Si Si8 0.606654 0.496098 0.125804
O O1 0.439991 0.736599 0.491787
O O2 0.262289 0.753527 0.602539
O O3 0.628934 0.788649 0.691382
O O4 0.502551 0.598081 0.651861
O O5 0.979239 0.084573 0.654455
O O6 0.317452 0.036618 0.689382
O O7 0.080809 0.884882 0.662168
O O8 0.000000 0.000000 0.500000
O O9 0.173221 0.237956 0.792389
O O10 0.510375 0.185036 0.844622
O O11 0.413158 0.387261 0.833823
O O12 0.946615 0.319553 0.321996
O O13 0.825705 0.468399 0.171447
O O14 0.500000 0.500000 0.000000
#
# Coordination Sequence:
#
# PCOD8118643 Si02
#       8
#     4   4   4   4   2   2   2   4
#     4   9  19  36  58  81 110 145 182 227 278 325
#     4  11  23  39  57  82 111 144 186 231 274 326
#     4  10  20  38  55  79 115 148 182 228 269 325
#     4  10  20  36  57  82 110 141 183 233 277 323
#     4  10  20  34  56  84 110 142 184 226 270 326
#     4  10  22  36  54  80 110 148 186 222 276 326
#     4  10  24  38  58  82 108 150 192 220 276 330
#     4   9  19  35  56  82 111 144 182 222 272 328
#
# _framework density 20.167508000000002
#
# number of rings (size 3 to 8) (size 9 to 14) (size 15 to 20)
#    0.000    2.154    0.000    2.769    0.000    7.385 
#    0.000    6.923    0.000    0.000    0.000    0.000 
#    0.000    0.000    0.000    0.000    0.000    0.000 
#
# Total GULP energy -322278.373143 kJ/mol
# GULP energy per Si atom -12395.322044 kJ/mol
# Density = 2.012161 g / cm^3
# Si number density = 20.167508 Si / 1000 Ang^3
#
#
#
# Elastic Constant Matrix: (Units=GPa)
#
#
# Indices 1 2 3 4 5 6 
#
# 1 44.2078 4.8177 9.4993 0.0000 -5.3346 0.0000
# 2 4.8177 97.0844 34.9476 0.0000 4.4826 0.0000
# 3 9.4993 34.9476 100.6621 0.0000 -9.7064 0.0000
# 4 0.0000 0.0000 0.0000 30.3930 0.0000 0.7677
# 5 -5.3346 4.4826 -9.7064 0.0000 31.7182 0.0000
# 6 0.0000 0.0000 0.0000 0.7677 0.0000 17.9621
#
#
#
# Elastic Compliance Matrix: (Units=1/GPa)
#
#
# Indices 1 2 3 4 5 6 
#
# 1 0.023478 -0.000749 -0.001612 0.000000 0.003561 0.000000
# 2 -0.000749 0.012080 -0.004431 0.000000 -0.003189 0.000000
# 3 -0.001612 -0.004431 0.012013 0.000000 0.004031 0.000000
# 4 0.000000 0.000000 0.000000 0.032938 0.000000 -0.001408
# 5 0.003561 -0.003189 0.004031 0.000000 0.033811 0.000000
# 6 0.000000 0.000000 0.000000 -0.001408 0.000000 0.055733
#
#
# Mechanical properties :
#
#
# Convention : Reuss Voigt Hill
#
# Bulk Modulus (GPa) = 29.42268 37.83149 33.62709
# Shear Modulus (GPa) = 25.64554 28.86064 27.25309
#
# Velocity S-wave (km/s) = 3.56986 3.78702 3.68004
# Velocity P-wave (km/s) = 5.62251 6.15804 5.89636
#
# Compressibility (1/GPa) = 0.03398738
#
# Stress axis : x y z
#
# Youngs Moduli (GPa) = 42.59267 82.78413 83.24132
#
# Poissons Ratio (x) = 0.06202 0.13419
# Poissons Ratio (y) = 0.03191 0.36881
# Poissons Ratio (z) = 0.06866 0.36678
#
# Static dielectric constant tensor:
#      x y z
#    x 3.336600 0.000000 0.283920 
#    y 0.000000 4.372510 0.000000 
#    z 0.283920 0.000000 3.330150 
# 
# 
# High freq. dielectric constant tensor:
#      x y z
#    x 1.779920 0.000000 0.002200 
#    y 0.000000 1.804280 0.000000 
#    z 0.002200 0.000000 1.781280 
# 
# From -- ./inp_files/46845.got.cif
#   From: 2010.06.25/outbox.cif.g09.slc.cpg/sg13_24_cif.got.tgz:46845.got - 2010.06.28 04:50:58.
