data_PCOD8118208
_publ_section_title
;
Structure prediction by ZEFSAII (Michael W. Deem and Ramdas Pophale) SiO2 
 PCOD8118208
Probable space group: P 2/C
;
_chemical_formula_sum "Si O2"
_cell_formula_units_Z 28
_cell_length_a 21.477484
_cell_length_b 11.908409
_cell_length_c 11.150634
_cell_angle_alpha 90.000000
_cell_angle_beta 148.087426
_cell_angle_gamma 90.000000
_cell_volume 1507.592979
_symmetry_space_group_name_H-M "P 2/C"
_symmetry_group_IT_number 13
_symmetry_cell_setting 'monoclinic'
loop_
_space_group_symop_operation_xyz
x,y,z
-x,y,1/2-z
-x,-y,-z
x,-y,1/2+z
loop_
_atom_site_type_symbol
_atom_site_label
_atom_site_fract_x
_atom_site_fract_y
_atom_site_fract_z
Si Si1 0.860956 0.663588 0.493713
Si Si2 0.512577 0.914969 0.408640
Si Si3 0.879829 0.206716 0.403327
Si Si4 0.138379 0.412265 0.979712
Si Si5 0.146519 0.253130 0.782149
Si Si6 0.268227 0.840190 0.059405
Si Si7 0.242047 0.913246 0.602260
O O1 0.810923 0.536817 0.419491
O O2 0.829490 0.711556 0.313192
O O3 0.782319 0.731935 0.457854
O O4 0.000000 0.674041 0.750000
O O5 0.500000 0.963659 0.250000
O O6 0.407301 0.824958 0.257022
O O7 0.642693 0.864185 0.639311
O O8 0.500000 0.000000 0.500000
O O9 0.829564 0.330739 0.356216
O O10 0.871932 0.127443 0.508395
O O11 0.012231 0.214954 0.575397
O O12 0.801404 0.146045 0.177067
O O13 0.180489 0.358042 0.923195
O O14 0.000000 0.424724 0.750000
O O15 0.230048 0.146637 0.952271
O O16 0.245199 0.952735 0.098525
#
# Coordination Sequence:
#
# PCOD8118208 Si02
#       7
#     4   4   4   4   4   4   4
#     4  11  22  34  55  88 117 149 191 238 285 338
#     4  10  21  39  61  84 110 154 199 241 282 337
#     4  10  19  37  56  82 114 149 185 227 286 346
#     4   8  19  34  56  79 111 152 190 231 281 337
#     4  10  21  37  55  83 118 152 186 228 293 348
#     4  11  23  34  57  86 113 143 197 232 280 341
#     4  10  22  37  57  81 115 153 186 234 288 343
#
# _framework density 18.572652000000001
#
# number of rings (size 3 to 8) (size 9 to 14) (size 15 to 20)
#    0.000    2.000    2.857    1.286    4.000    4.571 
#    0.000    0.000    0.000    3.429    7.429    0.000 
#    0.000    0.000    0.000    0.000    0.000    0.000 
#
# Total GULP energy -346916.688105 kJ/mol
# GULP energy per Si atom -12389.881718 kJ/mol
# Density = 1.853038 g / cm^3
# Si number density = 18.572652 Si / 1000 Ang^3
#
#
#
# Elastic Constant Matrix: (Units=GPa)
#
#
# Indices 1 2 3 4 5 6 
#
# 1 63.0074 15.0360 15.3104 0.0000 -6.6319 0.0000
# 2 15.0360 87.6609 18.6470 0.0000 7.0432 0.0000
# 3 15.3104 18.6470 83.9148 0.0000 -8.1090 0.0000
# 4 0.0000 0.0000 0.0000 16.3895 0.0000 -7.8381
# 5 -6.6319 7.0432 -8.1090 0.0000 26.5023 0.0000
# 6 0.0000 0.0000 0.0000 -7.8381 0.0000 16.8745
#
#
#
# Elastic Compliance Matrix: (Units=1/GPa)
#
#
# Indices 1 2 3 4 5 6 
#
# 1 0.017560 -0.002925 -0.002117 0.000000 0.004524 0.000000
# 2 -0.002925 0.012913 -0.002822 0.000000 -0.005027 0.000000
# 3 -0.002117 -0.002822 0.013346 0.000000 0.004304 0.000000
# 4 0.000000 0.000000 0.000000 0.078439 0.000000 0.036435
# 5 0.004524 -0.005027 0.004304 0.000000 0.041518 0.000000
# 6 0.000000 0.000000 0.000000 0.036435 0.000000 0.076185
#
#
# Mechanical properties :
#
#
# Convention : Reuss Voigt Hill
#
# Bulk Modulus (GPa) = 35.59706 36.95224 36.27465
# Shear Modulus (GPa) = 18.86427 24.32591 21.59509
#
# Velocity S-wave (km/s) = 3.19046 3.62300 3.41359
# Velocity P-wave (km/s) = 5.72539 6.11889 5.92540
#
# Compressibility (1/GPa) = 0.02809221
#
# Stress axis : x y z
#
# Youngs Moduli (GPa) = 56.94859 77.43859 74.92928
#
# Poissons Ratio (x) = 0.22652 0.15860
# Poissons Ratio (y) = 0.16658 0.21142
# Poissons Ratio (z) = 0.12054 0.21850
#
# Static dielectric constant tensor:
#      x y z
#    x 3.501540 0.000000 -0.049570 
#    y 0.000000 3.520590 0.000000 
#    z -0.049570 0.000000 3.755980 
# 
# 
# High freq. dielectric constant tensor:
#      x y z
#    x 1.721960 0.000000 -0.018490 
#    y 0.000000 1.704000 0.000000 
#    z -0.018490 0.000000 1.715390 
# 
# From -- ./inp_files/41790.got.cif
#   From: 2010.06.25/outbox.cif.g09.slc.cpg/sg13_21_cif.got.tgz:41790.got - 2010.06.28 04:50:58.
