data_PCOD8118117
_publ_section_title
;
Structure prediction by ZEFSAII (Michael W. Deem and Ramdas Pophale) SiO2 
 PCOD8118117
Probable space group: P 2/C
;
_chemical_formula_sum "Si O2"
_cell_formula_units_Z 24
_cell_length_a 8.589242
_cell_length_b 9.474702
_cell_length_c 21.454796
_cell_angle_alpha 90.000000
_cell_angle_beta 140.445627
_cell_angle_gamma 90.000000
_cell_volume 1111.872007
_symmetry_space_group_name_H-M "P 2/C"
_symmetry_group_IT_number 13
_symmetry_cell_setting 'monoclinic'
loop_
_space_group_symop_operation_xyz
x,y,z
-x,y,1/2-z
-x,-y,-z
x,-y,1/2+z
loop_
_atom_site_type_symbol
_atom_site_label
_atom_site_fract_x
_atom_site_fract_y
_atom_site_fract_z
Si Si1 0.472559 0.605211 0.311433
Si Si2 0.060408 0.842971 0.197080
Si Si3 0.766625 0.825730 0.460226
Si Si4 0.720778 0.560748 0.647681
Si Si5 0.245053 0.948038 0.651438
Si Si6 0.433907 0.727290 0.464957
O O1 0.500000 0.558443 0.250000
O O2 0.247136 0.711981 0.254376
O O3 0.726907 0.678523 0.411399
O O4 0.428054 0.458875 0.333973
O O5 0.168522 0.968194 0.189752
O O6 0.000000 0.885903 0.250000
O O7 0.803574 0.808925 0.083294
O O8 0.711816 0.952413 0.395452
O O9 0.573905 0.825254 0.457878
O O10 0.042246 0.831433 0.571729
O O11 0.617652 0.694761 0.578351
O O12 0.677587 0.416486 0.597050
O O13 0.000000 0.590304 0.750000
O O14 0.500000 0.873992 0.750000
#
# Coordination Sequence:
#
# PCOD8118117 Si02
#       6
#     4   4   4   4   4   4
#     4  11  18  36  61  86 109 154 198 243 279 348
#     4  12  18  35  59  85 113 150 199 240 280 342
#     4  10  20  37  57  84 115 153 190 239 291 345
#     4  10  19  36  58  82 112 151 193 241 292 339
#     4  11  21  36  60  86 117 156 194 241 286 348
#     4  10  20  35  58  85 113 151 190 242 292 341
#
# _framework density 21.585218000000001
#
# number of rings (size 3 to 8) (size 9 to 14) (size 15 to 20)
#    0.000    1.333    8.333    0.000    0.000    0.667 
#    0.000    6.667    0.000    0.000    0.000    0.000 
#    0.000    0.000    0.000    0.000    0.000    0.000 
#
# Total GULP energy -297422.818134 kJ/mol
# GULP energy per Si atom -12392.617422 kJ/mol
# Density = 2.153609 g / cm^3
# Si number density = 21.585218 Si / 1000 Ang^3
#
#
#
# Elastic Constant Matrix: (Units=GPa)
#
#
# Indices 1 2 3 4 5 6 
#
# 1 117.5297 29.5967 50.6059 0.0000 -13.9601 0.0000
# 2 29.5967 24.7659 30.5293 0.0000 1.9236 0.0000
# 3 50.6059 30.5293 190.1939 0.0000 13.2619 0.0000
# 4 0.0000 0.0000 0.0000 19.1991 0.0000 -2.7320
# 5 -13.9601 1.9236 13.2619 0.0000 33.9401 0.0000
# 6 0.0000 0.0000 0.0000 -2.7320 0.0000 14.7935
#
#
#
# Elastic Compliance Matrix: (Units=1/GPa)
#
#
# Indices 1 2 3 4 5 6 
#
# 1 0.013923 -0.014975 -0.001809 0.000000 0.007282 0.000000
# 2 -0.014975 0.066449 -0.006157 0.000000 -0.007520 0.000000
# 3 -0.001809 -0.006157 0.006944 0.000000 -0.003108 0.000000
# 4 0.000000 0.000000 0.000000 0.053492 0.000000 0.009878
# 5 0.007282 -0.007520 -0.003108 0.000000 0.034100 0.000000
# 6 0.000000 0.000000 0.000000 0.009878 0.000000 0.069421
#
#
# Mechanical properties :
#
#
# Convention : Reuss Voigt Hill
#
# Bulk Modulus (GPa) = 24.13494 61.55039 42.84266
# Shear Modulus (GPa) = 16.44615 28.37039 22.40827
#
# Velocity S-wave (km/s) = 2.76328 3.62932 3.22550
# Velocity P-wave (km/s) = 4.62455 6.79261 5.81060
#
# Compressibility (1/GPa) = 0.04143371
#
# Stress axis : x y z
#
# Youngs Moduli (GPa) = 71.82149 15.04921 144.00694
#
# Poissons Ratio (x) = 0.22537 0.26046
# Poissons Ratio (y) = 1.07555 0.88668
# Poissons Ratio (z) = 0.12990 0.09266
#
# Static dielectric constant tensor:
#      x y z
#    x 4.096230 0.000000 -0.066790 
#    y 0.000000 3.417670 0.000000 
#    z -0.066790 0.000000 4.386470 
# 
# 
# High freq. dielectric constant tensor:
#      x y z
#    x 1.855860 0.000000 -0.002040 
#    y 0.000000 1.789070 0.000000 
#    z -0.002040 0.000000 1.868660 
# 
# From -- ./inp_files/85255.got.cif
#   From: 2010.06.25/outbox.cif.g09.slc.cpg/sg13_43_cif.got.tgz:85255.got - 2010.06.28 04:50:58.
