data_PCOD8118926
_publ_section_title
;
Structure prediction by ZEFSAII (Michael W. Deem and Ramdas Pophale) SiO2 
 PCOD8118926
Probable space group: P 2/C
;
_chemical_formula_sum "Si O2"
_cell_formula_units_Z 28
_cell_length_a 19.599251
_cell_length_b 8.913022
_cell_length_c 16.820180
_cell_angle_alpha 90.000000
_cell_angle_beta 149.116301
_cell_angle_gamma 90.000000
_cell_volume 1508.217267
_symmetry_space_group_name_H-M "P 2/C"
_symmetry_group_IT_number 13
_symmetry_cell_setting 'monoclinic'
loop_
_space_group_symop_operation_xyz
x,y,z
-x,y,1/2-z
-x,-y,-z
x,-y,1/2+z
loop_
_atom_site_type_symbol
_atom_site_label
_atom_site_fract_x
_atom_site_fract_y
_atom_site_fract_z
Si Si1 0.817336 0.629869 0.014984
Si Si2 0.399674 0.556706 0.580512
Si Si3 0.399047 0.249358 0.492873
Si Si4 0.817338 0.129868 0.119691
Si Si5 0.399676 0.943296 0.218837
Si Si6 0.600950 0.749357 0.694776
Si Si7 0.000000 0.383115 0.250000
Si Si8 0.000000 0.883115 0.250000
O O1 0.903074 0.781577 0.100305
O O2 0.914355 0.487011 0.104179
O O3 0.735824 0.618980 0.016426
O O4 0.717815 0.636863 0.840580
O O5 0.500000 0.504618 0.750000
O O6 0.368975 0.414932 0.494672
O O7 0.460839 0.690305 0.588700
O O8 0.282181 0.136864 0.404944
O O9 0.539156 0.190305 0.667019
O O10 0.404732 0.250001 0.404733
O O11 0.903075 0.281577 0.205844
O O12 0.914358 0.987011 0.224536
O O13 0.735823 0.118978 0.955222
O O14 0.500000 0.995388 0.250000
O O15 0.368979 0.085068 0.243283
#
# Coordination Sequence:
#
# PCOD8118926 Si02
#       8
#     4   4   4   4   4   4   2   2
#     4  10  20  37  61  81 110 143 200 226 271 331
#     4  10  20  36  59  83 110 147 189 230 273 338
#     4  11  22  36  56  88 119 144 177 236 294 330
#     4  10  20  37  61  81 110 143 200 226 271 331
#     4  10  20  36  59  83 110 147 189 230 273 338
#     4  11  22  36  56  88 119 144 177 236 294 330
#     4  10  20  36  62  82 102 152 196 236 258 320
#     4  10  20  36  62  82 102 152 196 236 258 320
#
# _framework density 18.564964
#
# number of rings (size 3 to 8) (size 9 to 14) (size 15 to 20)
#    0.000    1.714    2.857    3.429    4.000    0.000 
#    0.000    1.429    0.000    0.000    0.000    0.000 
#    0.000    0.000    0.000    0.000    0.000    0.000 
#
# Total GULP energy -347234.287642 kJ/mol
# GULP energy per Si atom -12401.224559 kJ/mol
# Density = 1.852271 g / cm^3
# Si number density = 18.564964 Si / 1000 Ang^3
#
#
#
# Elastic Constant Matrix: (Units=GPa)
#
#
# Indices 1 2 3 4 5 6 
#
# 1 104.9839 40.3590 59.8058 0.0000 -15.2583 0.0000
# 2 40.3590 102.0107 44.2334 0.0000 3.4962 0.0000
# 3 59.8058 44.2334 92.7962 0.0000 4.2696 0.0000
# 4 0.0000 0.0000 0.0000 30.6004 0.0000 4.3658
# 5 -15.2583 3.4962 4.2696 0.0000 31.7481 0.0000
# 6 0.0000 0.0000 0.0000 4.3658 0.0000 25.7622
#
#
#
# Elastic Compliance Matrix: (Units=1/GPa)
#
#
# Indices 1 2 3 4 5 6 
#
# 1 0.018461 -0.002896 -0.011008 0.000000 0.010672 0.000000
# 2 -0.002896 0.012822 -0.004142 0.000000 -0.002247 0.000000
# 3 -0.011008 -0.004142 0.020193 0.000000 -0.007550 0.000000
# 4 0.000000 0.000000 0.000000 0.033489 0.000000 -0.005675
# 5 0.010672 -0.002247 -0.007550 0.000000 0.037890 0.000000
# 6 0.000000 0.000000 0.000000 -0.005675 0.000000 0.039778
#
#
# Mechanical properties :
#
#
# Convention : Reuss Voigt Hill
#
# Bulk Modulus (GPa) = 65.00818 65.39859 65.20339
# Shear Modulus (GPa) = 24.52768 27.98164 26.25466
#
# Velocity S-wave (km/s) = 3.63875 3.88652 3.76467
# Velocity P-wave (km/s) = 7.26269 7.44603 7.35493
#
# Compressibility (1/GPa) = 0.01538268
#
# Stress axis : x y z
#
# Youngs Moduli (GPa) = 54.16951 77.99293 49.52321
#
# Poissons Ratio (x) = 0.22588 0.54516
# Poissons Ratio (y) = 0.15688 0.20512
# Poissons Ratio (z) = 0.59630 0.32304
#
# Static dielectric constant tensor:
#      x y z
#    x 3.227420 0.000000 0.266120 
#    y 0.000000 3.527300 0.000000 
#    z 0.266120 0.000000 3.522330 
# 
# 
# High freq. dielectric constant tensor:
#      x y z
#    x 1.692360 0.000000 0.023280 
#    y 0.000000 1.734540 0.000000 
#    z 0.023280 0.000000 1.718160 
# 
# From -- ./inp_files/57477.got.cif
#   From: 2010.06.25/outbox.cif.g09.slc.cpg/sg13_29_cif.got.tgz:57477.got - 2010.06.28 04:50:58.
