data_PCOD8118852
_publ_section_title
;
Structure prediction by ZEFSAII (Michael W. Deem and Ramdas Pophale) SiO2 
 PCOD8118852
Probable space group: P 2/C
;
_chemical_formula_sum "Si O2"
_cell_formula_units_Z 32
_cell_length_a 20.324777
_cell_length_b 14.209015
_cell_length_c 8.927291
_cell_angle_alpha 90.000000
_cell_angle_beta 137.515345
_cell_angle_gamma 90.000000
_cell_volume 1741.268855
_symmetry_space_group_name_H-M "P 2/C"
_symmetry_group_IT_number 13
_symmetry_cell_setting 'monoclinic'
loop_
_space_group_symop_operation_xyz
x,y,z
-x,y,1/2-z
-x,-y,-z
x,-y,1/2+z
loop_
_atom_site_type_symbol
_atom_site_label
_atom_site_fract_x
_atom_site_fract_y
_atom_site_fract_z
Si Si1 0.899229 0.546912 0.881110
Si Si2 0.328720 0.988308 0.178739
Si Si3 0.394386 0.128455 0.058814
Si Si4 0.214356 0.093603 0.221710
Si Si5 0.107898 0.267933 0.940975
Si Si6 0.117273 0.381259 0.453547
Si Si7 0.064081 0.053558 0.488824
Si Si8 0.805593 0.774979 0.221021
O O1 0.843268 0.589518 0.644085
O O2 0.910847 0.630561 0.018929
O O3 0.842805 0.461969 0.867197
O O4 0.000000 0.500000 0.000000
O O5 0.378875 0.907457 0.362696
O O6 0.399799 0.037707 0.178223
O O7 0.294789 0.074580 0.228817
O O8 0.245504 0.934177 0.942680
O O9 0.500000 0.179097 0.250000
O O10 0.309090 0.200540 0.964328
O O11 0.130242 0.024635 0.021810
O O12 0.176693 0.201109 0.158060
O O13 0.161975 0.282543 0.872240
O O14 0.000000 0.221242 0.750000
O O15 0.166020 0.283698 0.583908
O O16 0.000000 0.371168 0.250000
O O17 0.133116 0.129388 0.683535
O O18 0.000000 0.000000 0.500000
O O19 0.000000 0.101759 0.250000
#
# Coordination Sequence:
#
# PCOD8118852 Si02
#       8
#     4   4   4   4   4   4   4   4
#     4  10  21  37  56  80 115 152 198 227 273 342
#     4  10  20  39  57  77 115 147 198 247 290 337
#     4  11  23  40  62  82 110 154 203 254 302 339
#     4  11  20  34  52  78 114 155 190 236 276 335
#     4  12  22  34  54  81 118 159 195 231 280 336
#     4  10  20  36  55  82 114 151 187 231 283 339
#     4  12  23  33  49  75 118 161 195 225 275 337
#     4  12  23  37  55  83 118 151 198 243 287 347
#
# _framework density 18.377403999999999
#
# number of rings (size 3 to 8) (size 9 to 14) (size 15 to 20)
#    0.000    1.000    3.750    6.750    1.750    0.000 
#    0.000    0.000    0.000    0.000    0.000    3.500 
#    0.000    0.000    0.000    0.000    0.000    0.000 
#
# Total GULP energy -396586.410352 kJ/mol
# GULP energy per Si atom -12393.325323 kJ/mol
# Density = 1.833558 g / cm^3
# Si number density = 18.377404 Si / 1000 Ang^3
#
#
#
# Elastic Constant Matrix: (Units=GPa)
#
#
# Indices 1 2 3 4 5 6 
#
# 1 82.3907 31.3188 56.0204 0.0000 -5.0541 0.0000
# 2 31.3188 87.4180 35.7307 0.0000 1.8900 0.0000
# 3 56.0204 35.7307 92.2480 0.0000 -0.0425 0.0000
# 4 0.0000 0.0000 0.0000 27.9256 0.0000 -11.9835
# 5 -5.0541 1.8900 -0.0425 0.0000 31.7787 0.0000
# 6 0.0000 0.0000 0.0000 -11.9835 0.0000 24.2349
#
#
#
# Elastic Compliance Matrix: (Units=1/GPa)
#
#
# Indices 1 2 3 4 5 6 
#
# 1 0.021629 -0.002921 -0.012002 0.000000 0.003598 0.000000
# 2 -0.002921 0.014007 -0.003652 0.000000 -0.001303 0.000000
# 3 -0.012002 -0.003652 0.019542 0.000000 -0.001665 0.000000
# 4 0.000000 0.000000 0.000000 0.045454 0.000000 0.022476
# 5 0.003598 -0.001303 -0.001665 0.000000 0.032115 0.000000
# 6 0.000000 0.000000 0.000000 0.022476 0.000000 0.052377
#
#
# Mechanical properties :
#
#
# Convention : Reuss Voigt Hill
#
# Bulk Modulus (GPa) = 55.46762 56.46627 55.96695
# Shear Modulus (GPa) = 21.90270 26.05362 23.97816
#
# Velocity S-wave (km/s) = 3.45603 3.76932 3.61607
# Velocity P-wave (km/s) = 6.79511 7.05240 6.92495
#
# Compressibility (1/GPa) = 0.01802854
#
# Stress axis : x y z
#
# Youngs Moduli (GPa) = 46.23498 71.39476 51.17084
#
# Poissons Ratio (x) = 0.20855 0.61413
# Poissons Ratio (y) = 0.13506 0.18687
# Poissons Ratio (z) = 0.55489 0.26073
#
# Static dielectric constant tensor:
#      x y z
#    x 3.464090 0.000000 -0.377420 
#    y 0.000000 3.282820 0.000000 
#    z -0.377420 0.000000 3.450680 
# 
# 
# High freq. dielectric constant tensor:
#      x y z
#    x 1.705610 0.000000 -0.037160 
#    y 0.000000 1.696640 0.000000 
#    z -0.037160 0.000000 1.697980 
# 
# From -- ./inp_files/23572.got.cif
#   From: 2010.06.25/outbox.cif.g09.slc.cpg/sg13_12_cif.got.tgz:23572.got - 2010.06.28 04:50:58.
