data_PCOD8118849
_publ_section_title
;
Structure prediction by ZEFSAII (Michael W. Deem and Ramdas Pophale) SiO2 
 PCOD8118849
Probable space group: P 2/C
;
_chemical_formula_sum "Si O2"
_cell_formula_units_Z 30
_cell_length_a 9.043314
_cell_length_b 15.769865
_cell_length_c 11.040503
_cell_angle_alpha 90.000000
_cell_angle_beta 89.921707
_cell_angle_gamma 90.000000
_cell_volume 1574.504988
_symmetry_space_group_name_H-M "P 2/C"
_symmetry_group_IT_number 13
_symmetry_cell_setting 'monoclinic'
loop_
_space_group_symop_operation_xyz
x,y,z
-x,y,1/2-z
-x,-y,-z
x,-y,1/2+z
loop_
_atom_site_type_symbol
_atom_site_label
_atom_site_fract_x
_atom_site_fract_y
_atom_site_fract_z
Si Si1 0.670075 0.023800 0.008088
Si Si2 0.500000 0.693221 0.750000
Si Si3 0.775346 0.593314 0.804591
Si Si4 0.661398 0.739997 0.296728
Si Si5 0.140015 0.411347 0.673854
Si Si6 0.676954 0.928572 0.244870
Si Si7 0.297118 0.215950 0.435855
Si Si8 0.066534 0.345821 0.415991
O O1 0.735392 0.021649 0.868328
O O2 0.699612 0.115761 0.061196
O O3 0.500000 0.000000 0.000000
O O4 0.739944 0.964296 0.115513
O O5 0.614437 0.634129 0.823726
O O6 0.585646 0.755609 0.662485
O O7 0.763518 0.496062 0.848592
O O8 0.825462 0.594455 0.664012
O O9 0.896155 0.650311 0.875963
O O10 0.500000 0.718874 0.250000
O O11 0.768503 0.662719 0.257847
O O12 0.725738 0.829845 0.248119
O O13 0.648088 0.742190 0.440605
O O14 0.074243 0.378168 0.550462
O O15 0.000000 0.440754 0.750000
O O16 0.500000 0.933067 0.250000
O O17 0.130998 0.249527 0.406016
#
# Coordination Sequence:
#
# PCOD8118849 Si02
#       8
#     4   2   4   4   4   4   4   4
#     4   9  16  27  50  76 106 142 176 218 262 324
#     4  10  22  34  52  84 106 132 176 232 266 310
#     4  10  20  36  55  75 107 135 177 226 268 312
#     4   9  19  35  48  76 111 140 170 222 273 309
#     4  11  21  33  57  77  98 144 187 212 260 331
#     4   8  15  28  47  72 105 140 174 214 270 316
#     4   9  19  34  51  78 109 140 179 215 265 317
#     4   9  19  38  53  72 107 143 176 217 266 318
#
# _framework density 19.053605000000001
#
# number of rings (size 3 to 8) (size 9 to 14) (size 15 to 20)
#    0.000    2.667    1.333    1.200    3.733    1.067 
#    0.000    2.000    0.000    0.000    6.933    3.733 
#    0.000    0.000    0.000    0.000    0.000    0.000 
#
# Total GULP energy -371673.676871 kJ/mol
# GULP energy per Si atom -12389.122562 kJ/mol
# Density = 1.901024 g / cm^3
# Si number density = 19.053605 Si / 1000 Ang^3
#
#
#
# Elastic Constant Matrix: (Units=GPa)
#
#
# Indices 1 2 3 4 5 6 
#
# 1 67.3388 38.9639 27.7357 0.0000 19.4106 0.0000
# 2 38.9639 114.4258 38.6311 0.0000 15.8379 0.0000
# 3 27.7357 38.6311 90.1739 0.0000 13.6552 0.0000
# 4 0.0000 0.0000 0.0000 15.8567 0.0000 -3.2194
# 5 19.4106 15.8379 13.6552 0.0000 14.7215 0.0000
# 6 0.0000 0.0000 0.0000 -3.2194 0.0000 10.4054
#
#
#
# Elastic Compliance Matrix: (Units=1/GPa)
#
#
# Indices 1 2 3 4 5 6 
#
# 1 0.026317 -0.004409 -0.001942 0.000000 -0.028155 0.000000
# 2 -0.004409 0.011851 -0.003107 0.000000 -0.004055 0.000000
# 3 -0.001942 -0.003107 0.014105 0.000000 -0.007180 0.000000
# 4 0.000000 0.000000 0.000000 0.067292 0.000000 0.020820
# 5 -0.028155 -0.004055 -0.007180 0.000000 0.116073 0.000000
# 6 0.000000 0.000000 0.000000 0.020820 0.000000 0.102546
#
#
# Mechanical properties :
#
#
# Convention : Reuss Voigt Hill
#
# Bulk Modulus (GPa) = 29.97852 53.62221 41.80036
# Shear Modulus (GPa) = 13.57891 19.30391 16.44141
#
# Velocity S-wave (km/s) = 2.67248 3.18643 2.94071
# Velocity P-wave (km/s) = 5.02900 6.46078 5.78932
#
# Compressibility (1/GPa) = 0.03335722
#
# Stress axis : x y z
#
# Youngs Moduli (GPa) = 37.99843 84.38383 70.89474
#
# Poissons Ratio (x) = 0.37202 0.13770
# Poissons Ratio (y) = 0.16752 0.22026
# Poissons Ratio (z) = 0.07381 0.26217
#
# Static dielectric constant tensor:
#      x y z
#    x 3.249140 0.000000 0.217400 
#    y 0.000000 3.652780 0.000000 
#    z 0.217400 0.000000 3.813160 
# 
# 
# High freq. dielectric constant tensor:
#      x y z
#    x 1.702890 0.000000 0.015250 
#    y 0.000000 1.741220 0.000000 
#    z 0.015250 0.000000 1.750890 
# 
# From -- ./inp_files/30131.got.cif
#   From: 2010.06.25/outbox.cif.g09.slc.cpg/sg13_16_cif.got.tgz:30131.got - 2010.06.28 04:50:58.
