data_PCOD8118539
_publ_section_title
;
Structure prediction by ZEFSAII (Michael W. Deem and Ramdas Pophale) SiO2 
 PCOD8118539
Probable space group: P 2/C
;
_chemical_formula_sum "Si O2"
_cell_formula_units_Z 28
_cell_length_a 5.060593
_cell_length_b 12.614066
_cell_length_c 24.067816
_cell_angle_alpha 90.000000
_cell_angle_beta 100.681351
_cell_angle_gamma 90.000000
_cell_volume 1509.740458
_symmetry_space_group_name_H-M "P 2/C"
_symmetry_group_IT_number 13
_symmetry_cell_setting 'monoclinic'
loop_
_space_group_symop_operation_xyz
x,y,z
-x,y,1/2-z
-x,-y,-z
x,-y,1/2+z
loop_
_atom_site_type_symbol
_atom_site_label
_atom_site_fract_x
_atom_site_fract_y
_atom_site_fract_z
Si Si1 0.367581 0.420863 0.538009
Si Si2 0.274560 0.510725 0.785838
Si Si3 0.726023 0.727903 0.211458
Si Si4 0.919528 0.699633 0.553538
Si Si5 0.392427 0.798135 0.414466
Si Si6 0.447663 0.386395 0.107435
Si Si7 0.068111 0.115127 0.524749
O O1 0.500000 0.500000 0.500000
O O2 0.082401 0.378670 0.501272
O O3 0.548107 0.319017 0.559757
O O4 0.337312 0.494065 0.590979
O O5 0.500000 0.495107 0.750000
O O6 0.227153 0.393020 0.808808
O O7 0.371950 0.602181 0.831295
O O8 0.000000 0.556438 0.750000
O O9 0.500000 0.738791 0.250000
O O10 0.658228 0.796326 0.153948
O O11 0.000000 0.770475 0.250000
O O12 0.630894 0.675515 0.570151
O O13 0.935934 0.818558 0.532675
O O14 0.172742 0.680005 0.603927
O O15 0.639013 0.878049 0.435681
O O16 0.136747 0.843535 0.436768
O O17 0.000000 0.000000 0.500000
#
# Coordination Sequence:
#
# PCOD8118539 Si02
#       7
#     4   4   4   4   4   4   4
#     4   9  18  31  47  76 111 142 172 207 253 319
#     4  10  20  33  49  75 109 148 184 214 254 310
#     4  10  20  35  53  80 113 146 183 221 260 324
#     4  10  21  33  51  77 104 139 181 213 259 327
#     4  11  21  36  57  82 110 150 179 219 283 327
#     4  11  19  33  51  76 109 145 173 214 259 310
#     4  11  23  39  57  81 110 138 185 231 280 333
#
# _framework density 18.546234999999999
#
# number of rings (size 3 to 8) (size 9 to 14) (size 15 to 20)
#    0.000    1.714    1.429    5.143    0.000    3.429 
#    0.000    0.000    0.000    0.000    0.000   20.000 
#    0.000    0.000    0.000    0.000    0.000    0.000 
#
# Total GULP energy -346938.720885 kJ/mol
# GULP energy per Si atom -12390.668603 kJ/mol
# Density = 1.850402 g / cm^3
# Si number density = 18.546235 Si / 1000 Ang^3
#
#
#
# Elastic Constant Matrix: (Units=GPa)
#
#
# Indices 1 2 3 4 5 6 
#
# 1 101.1828 18.7879 26.4767 0.0000 17.2533 0.0000
# 2 18.7879 89.3569 36.4682 0.0000 5.7009 0.0000
# 3 26.4767 36.4682 93.3409 0.0000 20.7769 0.0000
# 4 0.0000 0.0000 0.0000 19.1497 0.0000 3.4357
# 5 17.2533 5.7009 20.7769 0.0000 37.8941 0.0000
# 6 0.0000 0.0000 0.0000 3.4357 0.0000 20.9835
#
#
#
# Elastic Compliance Matrix: (Units=1/GPa)
#
#
# Indices 1 2 3 4 5 6 
#
# 1 0.011281 -0.001395 -0.001775 0.000000 -0.003953 0.000000
# 2 -0.001395 0.013518 -0.005210 0.000000 0.001458 0.000000
# 3 -0.001775 -0.005210 0.014691 0.000000 -0.006463 0.000000
# 4 0.000000 0.000000 0.000000 0.053800 0.000000 -0.008809
# 5 -0.003953 0.001458 -0.006463 0.000000 0.031513 0.000000
# 6 0.000000 0.000000 0.000000 -0.008809 0.000000 0.049099
#
#
# Mechanical properties :
#
#
# Convention : Reuss Voigt Hill
#
# Bulk Modulus (GPa) = 43.99667 49.70513 46.85090
# Shear Modulus (GPa) = 25.22205 29.08197 27.15201
#
# Velocity S-wave (km/s) = 3.69176 3.96419 3.83040
# Velocity P-wave (km/s) = 6.47660 6.91462 6.69919
#
# Compressibility (1/GPa) = 0.02272899
#
# Stress axis : x y z
#
# Youngs Moduli (GPa) = 88.64727 73.97653 68.06851
#
# Poissons Ratio (x) = 0.10322 0.12080
# Poissons Ratio (y) = 0.12369 0.35465
# Poissons Ratio (z) = 0.15733 0.38543
#
# Static dielectric constant tensor:
#      x y z
#    x 3.472960 0.000000 0.191290 
#    y 0.000000 3.288120 0.000000 
#    z 0.191290 0.000000 3.478570 
# 
# 
# High freq. dielectric constant tensor:
#      x y z
#    x 1.733780 0.000000 0.013480 
#    y 0.000000 1.678970 0.000000 
#    z 0.013480 0.000000 1.713900 
# 
# From -- ./inp_files/83564.got.cif
#   From: 2010.06.25/outbox.cif.g09.slc.cpg/sg13_42_cif.got.tgz:83564.got - 2010.06.28 04:50:58.
