data_PCOD8118266
_publ_section_title
;
Structure prediction by ZEFSAII (Michael W. Deem and Ramdas Pophale) SiO2 
 PCOD8118266
Probable space group: P 2/C
;
_chemical_formula_sum "Si O2"
_cell_formula_units_Z 26
_cell_length_a 5.171934
_cell_length_b 19.217906
_cell_length_c 14.312168
_cell_angle_alpha 90.000000
_cell_angle_beta 116.077662
_cell_angle_gamma 90.000000
_cell_volume 1277.723978
_symmetry_space_group_name_H-M "P 2/C"
_symmetry_group_IT_number 13
_symmetry_cell_setting 'monoclinic'
loop_
_space_group_symop_operation_xyz
x,y,z
-x,y,1/2-z
-x,-y,-z
x,-y,1/2+z
loop_
_atom_site_type_symbol
_atom_site_label
_atom_site_fract_x
_atom_site_fract_y
_atom_site_fract_z
Si Si1 0.214443 0.691264 0.571955
Si Si2 0.192427 0.771099 0.872371
Si Si3 0.621079 0.483518 0.622620
Si Si4 0.586562 0.004060 0.863696
Si Si5 0.500000 0.404309 0.250000
Si Si6 0.940443 0.432683 0.925264
Si Si7 0.155254 0.926756 0.924354
O O1 0.505874 0.730242 0.587671
O O2 0.251027 0.644183 0.669890
O O3 0.971435 0.746306 0.560507
O O4 0.095063 0.639522 0.474328
O O5 0.240611 0.852040 0.897998
O O6 0.000000 0.759565 0.750000
O O7 0.500000 0.500000 0.500000
O O8 0.639676 0.552138 0.688252
O O9 0.405659 0.426453 0.635485
O O10 0.941023 0.452211 0.659293
O O11 0.500000 0.037497 0.750000
O O12 0.305408 0.978474 0.874607
O O13 0.730604 0.063080 0.951481
O O14 0.812486 0.941537 0.875185
O O15 0.000000 0.500000 0.000000
#
# Coordination Sequence:
#
# PCOD8118266 Si02
#       7
#     4   4   4   4   2   4   4
#     4  12  24  35  55  80 112 146 187 215 287 358
#     4  12  23  35  51  83 120 154 174 223 280 354
#     4  10  21  34  54  75 103 130 173 236 279 310
#     4  10  19  37  63  88 116 156 197 242 268 326
#     4  12  22  36  56  84 104 142 188 222 282 366
#     4  10  20  37  52  74 104 137 177 234 275 315
#     4  10  22  36  57  91 124 152 192 229 291 322
#
# _framework density 20.348683999999999
#
# number of rings (size 3 to 8) (size 9 to 14) (size 15 to 20)
#    0.000    1.231    4.615    3.231    2.154    1.846 
#    0.000    0.000    0.000    0.000   12.000    0.000 
#    0.000    0.000    0.000    0.000    0.000    0.000 
#
# Total GULP energy -322154.718099 kJ/mol
# GULP energy per Si atom -12390.566081 kJ/mol
# Density = 2.030237 g / cm^3
# Si number density = 20.348684 Si / 1000 Ang^3
#
#
#
# Elastic Constant Matrix: (Units=GPa)
#
#
# Indices 1 2 3 4 5 6 
#
# 1 163.9584 22.4932 11.6545 0.0000 -3.3537 0.0000
# 2 22.4932 64.6614 6.6481 0.0000 0.6853 0.0000
# 3 11.6545 6.6481 62.1696 0.0000 -20.1952 0.0000
# 4 0.0000 0.0000 0.0000 27.8194 0.0000 -1.7614
# 5 -3.3537 0.6853 -20.1952 0.0000 23.4549 0.0000
# 6 0.0000 0.0000 0.0000 -1.7614 0.0000 23.7267
#
#
#
# Elastic Compliance Matrix: (Units=1/GPa)
#
#
# Indices 1 2 3 4 5 6 
#
# 1 0.006464 -0.002156 -0.000917 0.000000 0.000198 0.000000
# 2 -0.002156 0.016475 -0.002241 0.000000 -0.002719 0.000000
# 3 -0.000917 -0.002241 0.022873 0.000000 0.019628 0.000000
# 4 0.000000 0.000000 0.000000 0.036116 0.000000 0.002681
# 5 0.000198 -0.002719 0.019628 0.000000 0.059643 0.000000
# 6 0.000000 0.000000 0.000000 0.002681 0.000000 0.042346
#
#
# Mechanical properties :
#
#
# Convention : Reuss Voigt Hill
#
# Bulk Modulus (GPa) = 28.42274 41.37565 34.89920
# Shear Modulus (GPa) = 24.23991 31.66646 27.95318
#
# Velocity S-wave (km/s) = 3.45516 3.94914 3.71038
# Velocity P-wave (km/s) = 5.46952 6.41652 5.96185
#
# Compressibility (1/GPa) = 0.03518309
#
# Stress axis : x y z
#
# Youngs Moduli (GPa) = 154.69883 60.69978 43.72056
#
# Poissons Ratio (x) = 0.13090 0.04009
# Poissons Ratio (y) = 0.33360 0.09796
# Poissons Ratio (z) = 0.14185 0.13601
#
# Static dielectric constant tensor:
#      x y z
#    x 4.643180 0.000000 -0.151960 
#    y 0.000000 3.388020 0.000000 
#    z -0.151960 0.000000 3.707250 
# 
# 
# High freq. dielectric constant tensor:
#      x y z
#    x 1.828220 0.000000 -0.007000 
#    y 0.000000 1.757900 0.000000 
#    z -0.007000 0.000000 1.784220 
# 
# From -- ./inp_files/44344.got.cif
#   From: 2010.06.25/outbox.cif.g09.slc.cpg/sg13_23_cif.got.tgz:44344.got - 2010.06.28 04:50:58.
