data_PCOD8118723
_publ_section_title
;
Structure prediction by ZEFSAII (Michael W. Deem and Ramdas Pophale) SiO2 
 PCOD8118723
Probable space group: P 2/C
;
_chemical_formula_sum "Si O2"
_cell_formula_units_Z 30
_cell_length_a 22.573904
_cell_length_b 11.900442
_cell_length_c 13.093325
_cell_angle_alpha 90.000000
_cell_angle_beta 26.031045
_cell_angle_gamma 90.000000
_cell_volume 1543.632150
_symmetry_space_group_name_H-M "P 2/C"
_symmetry_group_IT_number 13
_symmetry_cell_setting 'monoclinic'
loop_
_space_group_symop_operation_xyz
x,y,z
-x,y,1/2-z
-x,-y,-z
x,-y,1/2+z
loop_
_atom_site_type_symbol
_atom_site_label
_atom_site_fract_x
_atom_site_fract_y
_atom_site_fract_z
Si Si1 0.000000 0.000348 0.250000
Si Si2 0.137112 0.302751 0.763407
Si Si3 0.636057 0.115069 0.590001
Si Si4 0.122964 0.809881 0.922014
Si Si5 0.743505 0.848267 0.137365
Si Si6 0.158300 0.381035 0.515945
Si Si7 0.142213 0.385399 0.974287
Si Si8 0.356630 0.129963 0.491653
O O1 0.879112 0.081570 0.399883
O O2 0.945095 0.921708 0.425853
O O3 0.201384 0.367756 0.567336
O O4 0.122492 0.384901 0.882488
O O5 0.231637 0.199421 0.644422
O O6 0.989823 0.258837 0.963203
O O7 0.500000 0.165105 0.750000
O O8 0.765903 0.160396 0.331625
O O9 0.643013 0.151098 0.697258
O O10 0.634752 0.981175 0.589409
O O11 0.195317 0.732081 0.896076
O O12 0.769864 0.718831 0.124120
O O13 0.666618 0.902462 0.353450
O O14 0.221794 0.497913 0.376146
O O15 0.000000 0.397354 0.750000
O O16 0.000000 0.377649 0.250000
O O17 0.500000 0.193991 0.250000
#
# Coordination Sequence:
#
# PCOD8118723 Si02
#       8
#     2   4   4   4   4   4   4   4
#     4  12  20  36  60  94 120 152 188 252 294 352
#     4  10  20  36  60  85 113 156 195 246 293 349
#     4  11  25  38  58  87 123 163 193 239 300 355
#     4  11  21  37  59  91 119 154 198 240 294 353
#     4  11  23  38  59  88 124 151 196 251 294 353
#     4   9  20  35  56  86 117 152 195 244 293 349
#     4  10  20  35  55  87 118 150 195 245 304 340
#     4  10  23  39  58  86 118 161 195 235 298 362
#
# _framework density 19.434681999999999
#
# number of rings (size 3 to 8) (size 9 to 14) (size 15 to 20)
#    0.000    1.600    4.000    1.600    1.867   10.133 
#    0.000    0.000    0.000   11.200    0.000    0.000 
#    0.000    0.000    0.000    0.000    0.000    0.000 
#
# Total GULP energy -371941.374642 kJ/mol
# GULP energy per Si atom -12398.045821 kJ/mol
# Density = 1.939045 g / cm^3
# Si number density = 19.434682 Si / 1000 Ang^3
#
#
#
# Elastic Constant Matrix: (Units=GPa)
#
#
# Indices 1 2 3 4 5 6 
#
# 1 154.7259 39.6962 40.7641 0.0000 23.6598 0.0000
# 2 39.6962 87.0888 14.8660 0.0000 10.4596 0.0000
# 3 40.7641 14.8660 74.0745 0.0000 8.0006 0.0000
# 4 0.0000 0.0000 0.0000 8.1749 0.0000 10.5086
# 5 23.6598 10.4596 8.0006 0.0000 28.6681 0.0000
# 6 0.0000 0.0000 0.0000 10.5086 0.0000 22.2292
#
#
#
# Elastic Compliance Matrix: (Units=1/GPa)
#
#
# Indices 1 2 3 4 5 6 
#
# 1 0.009007 -0.002812 -0.003815 0.000000 -0.005342 0.000000
# 2 -0.002812 0.013181 -0.000855 0.000000 -0.002249 0.000000
# 3 -0.003815 -0.000855 0.015876 0.000000 -0.000970 0.000000
# 4 0.000000 0.000000 0.000000 0.311811 0.000000 -0.147405
# 5 -0.005342 -0.002249 -0.000970 0.000000 0.040382 0.000000
# 6 0.000000 0.000000 0.000000 -0.147405 0.000000 0.114670
#
#
# Mechanical properties :
#
#
# Convention : Reuss Voigt Hill
#
# Bulk Modulus (GPa) = 43.29233 56.28243 49.78738
# Shear Modulus (GPa) = 9.47706 26.51864 17.99785
#
# Velocity S-wave (km/s) = 2.21065 3.69792 3.04644
# Velocity P-wave (km/s) = 5.37030 6.87426 6.16829
#
# Compressibility (1/GPa) = 0.02309878
#
# Stress axis : x y z
#
# Youngs Moduli (GPa) = 111.02932 75.86957 62.98959
#
# Poissons Ratio (x) = 0.21338 0.24031
# Poissons Ratio (y) = 0.31227 0.05382
# Poissons Ratio (z) = 0.42358 0.06483
#
# Static dielectric constant tensor:
#      x y z
#    x 3.705990 0.000000 0.198670 
#    y 0.000000 4.033320 0.000000 
#    z 0.198670 0.000000 3.625410 
# 
# 
# High freq. dielectric constant tensor:
#      x y z
#    x 1.759060 0.000000 0.019890 
#    y 0.000000 1.755010 0.000000 
#    z 0.019890 0.000000 1.741140 
# 
# From -- ./inp_files/40878.got.cif
#   From: 2010.06.25/outbox.cif.g09.slc.cpg/sg13_21_cif.got.tgz:40878.got - 2010.06.28 04:50:58.
