data_PCOD8118248
_publ_section_title
;
Structure prediction by ZEFSAII (Michael W. Deem and Ramdas Pophale) SiO2 
 PCOD8118248
Probable space group: P 2/C
;
_chemical_formula_sum "Si O2"
_cell_formula_units_Z 28
_cell_length_a 8.677401
_cell_length_b 9.098420
_cell_length_c 29.463031
_cell_angle_alpha 90.000000
_cell_angle_beta 36.683102
_cell_angle_gamma 90.000000
_cell_volume 1389.600760
_symmetry_space_group_name_H-M "P 2/C"
_symmetry_group_IT_number 13
_symmetry_cell_setting 'monoclinic'
loop_
_space_group_symop_operation_xyz
x,y,z
-x,y,1/2-z
-x,-y,-z
x,-y,1/2+z
loop_
_atom_site_type_symbol
_atom_site_label
_atom_site_fract_x
_atom_site_fract_y
_atom_site_fract_z
Si Si1 0.044554 0.845784 0.510355
Si Si2 0.783501 0.849854 0.928015
Si Si3 0.747287 0.684172 0.220575
Si Si4 0.451162 0.694176 0.137075
Si Si5 0.257048 0.825695 0.090717
Si Si6 0.216992 0.374279 0.319478
Si Si7 0.766550 0.568776 0.581717
O O1 0.124928 0.880625 0.542719
O O2 0.270048 0.769513 0.428536
O O3 0.782496 0.745944 0.569310
O O4 0.000000 0.000000 0.500000
O O5 0.986989 0.735085 0.858655
O O6 0.770444 0.996774 0.900422
O O7 0.491541 0.783856 0.000997
O O8 0.500000 0.727857 0.250000
O O9 0.710386 0.743269 0.280611
O O10 0.787352 0.508684 0.214735
O O11 0.986500 0.760383 0.137971
O O12 0.295383 0.746720 0.130160
O O13 0.505787 0.515605 0.127046
O O14 0.500000 0.295067 0.250000
O O15 0.179928 0.450052 0.377293
O O16 0.000000 0.500000 0.500000
#
# Coordination Sequence:
#
# PCOD8118248 Si02
#       7
#     4   4   4   4   4   4   4
#     4   9  19  33  59  88 119 157 209 256 299 371
#     4   9  21  40  58  84 125 167 202 252 314 375
#     4  11  22  36  62  91 118 155 213 262 306 374
#     4  10  19  38  56  85 124 161 197 253 319 362
#     4  10  22  39  59  85 125 167 202 249 313 382
#     4  10  19  37  61  94 122 154 208 267 304 368
#     4   9  17  33  58  84 120 158 196 249 306 360
#
# _framework density 20.14967
#
# number of rings (size 3 to 8) (size 9 to 14) (size 15 to 20)
#    0.000    2.286    2.857    1.286    2.000    1.143 
#    2.571    4.286    0.000    1.714    0.000    0.000 
#    0.000    0.000    0.000    0.000    0.000    0.000 
#
# Total GULP energy -346870.690376 kJ/mol
# GULP energy per Si atom -12388.238942 kJ/mol
# Density = 2.010381 g / cm^3
# Si number density = 20.149670 Si / 1000 Ang^3
#
#
#
# Elastic Constant Matrix: (Units=GPa)
#
#
# Indices 1 2 3 4 5 6 
#
# 1 71.0033 50.9451 40.9740 0.0000 -18.2597 0.0000
# 2 50.9451 104.6505 39.5098 0.0000 -10.8693 0.0000
# 3 40.9740 39.5098 105.0478 0.0000 -20.0727 0.0000
# 4 0.0000 0.0000 0.0000 31.2601 0.0000 -4.3311
# 5 -18.2597 -10.8693 -20.0727 0.0000 39.7137 0.0000
# 6 0.0000 0.0000 0.0000 -4.3311 0.0000 42.1320
#
#
#
# Elastic Compliance Matrix: (Units=1/GPa)
#
#
# Indices 1 2 3 4 5 6 
#
# 1 0.025884 -0.009999 -0.005074 0.000000 0.006600 0.000000
# 2 -0.009999 0.015038 -0.002045 0.000000 -0.001516 0.000000
# 3 -0.005074 -0.002045 0.012968 0.000000 0.003661 0.000000
# 4 0.000000 0.000000 0.000000 0.032452 0.000000 0.003336
# 5 0.006600 -0.001516 0.003661 0.000000 0.029651 0.000000
# 6 0.000000 0.000000 0.000000 0.003336 0.000000 0.024078
#
#
# Mechanical properties :
#
#
# Convention : Reuss Voigt Hill
#
# Bulk Modulus (GPa) = 50.88563 60.39548 55.64055
# Shear Modulus (GPa) = 27.64602 32.57268 30.10935
#
# Velocity S-wave (km/s) = 3.70812 4.02498 3.86979
# Velocity P-wave (km/s) = 6.60622 7.18604 6.90222
#
# Compressibility (1/GPa) = 0.01965191
#
# Stress axis : x y z
#
# Youngs Moduli (GPa) = 38.63436 66.49711 77.11564
#
# Poissons Ratio (x) = 0.66493 0.39128
# Poissons Ratio (y) = 0.38632 0.15773
# Poissons Ratio (z) = 0.19603 0.13601
#
# Static dielectric constant tensor:
#      x y z
#    x 2.786110 0.000000 -0.362370 
#    y 0.000000 5.589350 0.000000 
#    z -0.362370 0.000000 4.019680 
# 
# 
# High freq. dielectric constant tensor:
#      x y z
#    x 1.758980 0.000000 -0.007720 
#    y 0.000000 1.774350 0.000000 
#    z -0.007720 0.000000 1.801790 
# 
# From -- ./inp_files/91406.got.cif
#   From: 2010.06.25/outbox.cif.g09.slc.cpg/sg13_46_cif.got.tgz:91406.got - 2010.06.28 04:50:58.
