data_PCOD8118123
_publ_section_title
;
Structure prediction by ZEFSAII (Michael W. Deem and Ramdas Pophale) SiO2 
 PCOD8118123
Probable space group: P 2/C
;
_chemical_formula_sum "Si O2"
_cell_formula_units_Z 32
_cell_length_a 9.071773
_cell_length_b 15.226286
_cell_length_c 11.373913
_cell_angle_alpha 90.000000
_cell_angle_beta 85.856715
_cell_angle_gamma 90.000000
_cell_volume 1566.965874
_symmetry_space_group_name_H-M "P 2/C"
_symmetry_group_IT_number 13
_symmetry_cell_setting 'monoclinic'
loop_
_space_group_symop_operation_xyz
x,y,z
-x,y,1/2-z
-x,-y,-z
x,-y,1/2+z
loop_
_atom_site_type_symbol
_atom_site_label
_atom_site_fract_x
_atom_site_fract_y
_atom_site_fract_z
Si Si1 0.672472 0.405176 0.214744
Si Si2 0.704948 0.315324 0.443090
Si Si3 0.141061 0.925300 0.323842
Si Si4 0.335036 0.229170 0.707589
Si Si5 0.787676 0.119270 0.196253
Si Si6 0.660193 0.403165 0.683664
Si Si7 0.907599 0.162400 0.431694
Si Si8 0.611721 0.248609 0.064534
O O1 0.500000 0.413798 0.250000
O O2 0.755709 0.366970 0.323722
O O3 0.741328 0.502276 0.188463
O O4 0.690293 0.339517 0.102767
O O5 0.652756 0.382999 0.545757
O O6 0.845573 0.257535 0.475766
O O7 0.565030 0.253807 0.422867
O O8 0.244695 0.852046 0.262200
O O9 0.090798 0.901419 0.457307
O O10 0.000000 0.941572 0.250000
O O11 0.228166 0.016568 0.331624
O O12 0.500000 0.224246 0.750000
O O13 0.259925 0.321344 0.754690
O O14 0.329915 0.225187 0.567895
O O15 0.797510 0.128071 0.336403
O O16 0.646646 0.169738 0.152675
O O17 0.927295 0.166895 0.126742
O O18 0.500000 0.411734 0.750000
#
# Coordination Sequence:
#
# PCOD8118123 Si02
#       8
#     4   4   4   4   4   4   4   4
#     4   9  21  31  58  93 120 159 200 239 292 352
#     4  11  20  39  63  90 126 158 203 245 298 357
#     4  12  24  42  64  89 115 159 208 246 297 369
#     4  11  22  40  58  89 124 159 191 251 310 348
#     4  11  25  40  62  88 117 160 202 251 306 351
#     4  10  19  36  58  89 127 159 193 245 298 352
#     4  11  22  42  61  87 120 158 202 250 297 359
#     4  11  21  39  60  91 125 157 199 250 297 358
#
# _framework density 20.42163
#
# number of rings (size 3 to 8) (size 9 to 14) (size 15 to 20)
#    0.000    1.250    6.250    1.125    3.500    1.500 
#    2.250    1.250    0.000    2.250    0.000    0.000 
#    0.000    0.000    0.000    0.000    0.000    0.000 
#
# Total GULP energy -396710.858231 kJ/mol
# GULP energy per Si atom -12397.214320 kJ/mol
# Density = 2.037515 g / cm^3
# Si number density = 20.421630 Si / 1000 Ang^3
#
#
#
# Elastic Constant Matrix: (Units=GPa)
#
#
# Indices 1 2 3 4 5 6 
#
# 1 31.2419 38.0122 18.6490 0.0000 -0.4802 0.0000
# 2 38.0122 153.6450 35.5070 0.0000 0.5580 0.0000
# 3 18.6490 35.5070 139.4429 0.0000 3.9522 0.0000
# 4 0.0000 0.0000 0.0000 59.6722 0.0000 2.1862
# 5 -0.4802 0.5580 3.9522 0.0000 23.9905 0.0000
# 6 0.0000 0.0000 0.0000 2.1862 0.0000 18.6317
#
#
#
# Elastic Compliance Matrix: (Units=1/GPa)
#
#
# Indices 1 2 3 4 5 6 
#
# 1 0.047479 -0.010916 -0.003621 0.000000 0.001801 0.000000
# 2 -0.010916 0.009426 -0.000932 0.000000 -0.000284 0.000000
# 3 -0.003621 -0.000932 0.007932 0.000000 -0.001357 0.000000
# 4 0.000000 0.000000 0.000000 0.016831 0.000000 -0.001975
# 5 0.001801 -0.000284 -0.001357 0.000000 0.041950 0.000000
# 6 0.000000 0.000000 0.000000 -0.001975 0.000000 0.053904
#
#
# Mechanical properties :
#
#
# Convention : Reuss Voigt Hill
#
# Bulk Modulus (GPa) = 29.50077 56.51847 43.00962
# Shear Modulus (GPa) = 22.75222 35.93630 29.34426
#
# Velocity S-wave (km/s) = 3.34147 4.19945 3.79479
# Velocity P-wave (km/s) = 5.41890 7.15889 6.34878
#
# Compressibility (1/GPa) = 0.03389742
#
# Stress axis : x y z
#
# Youngs Moduli (GPa) = 21.06175 106.09340 126.07916
#
# Poissons Ratio (x) = 1.15814 0.45657
# Poissons Ratio (y) = 0.22991 0.11752
# Poissons Ratio (z) = 0.07627 0.09889
#
# Static dielectric constant tensor:
#      x y z
#    x 3.326150 0.000000 0.033830 
#    y 0.000000 4.166690 0.000000 
#    z 0.033830 0.000000 3.980920 
# 
# 
# High freq. dielectric constant tensor:
#      x y z
#    x 1.750360 0.000000 0.000350 
#    y 0.000000 1.808650 0.000000 
#    z 0.000350 0.000000 1.819550 
# 
# From -- ./inp_files/30417.got.cif
#   From: 2010.06.25/outbox.cif.g09.slc.cpg/sg13_16_cif.got.tgz:30417.got - 2010.06.28 04:50:58.
