data_PCOD8118269
_publ_section_title
;
Structure prediction by ZEFSAII (Michael W. Deem and Ramdas Pophale) SiO2 
 PCOD8118269
Probable space group: P 2/C
;
_chemical_formula_sum "Si O2"
_cell_formula_units_Z 32
_cell_length_a 12.431904
_cell_length_b 21.178083
_cell_length_c 18.111288
_cell_angle_alpha 90.000000
_cell_angle_beta 19.811762
_cell_angle_gamma 90.000000
_cell_volume 1616.162418
_symmetry_space_group_name_H-M "P 2/C"
_symmetry_group_IT_number 13
_symmetry_cell_setting 'monoclinic'
loop_
_space_group_symop_operation_xyz
x,y,z
-x,y,1/2-z
-x,-y,-z
x,-y,1/2+z
loop_
_atom_site_type_symbol
_atom_site_label
_atom_site_fract_x
_atom_site_fract_y
_atom_site_fract_z
Si Si1 0.632916 0.448677 0.472564
Si Si2 0.640776 0.374755 0.968770
Si Si3 0.251147 0.149975 0.763248
Si Si4 0.327196 0.227794 0.572045
Si Si5 0.845928 0.931231 0.424697
Si Si6 0.733899 0.069843 0.533374
Si Si7 0.768933 0.858404 0.699577
Si Si8 0.349444 0.471521 0.269004
O O1 0.500000 0.500000 0.500000
O O2 0.478835 0.385474 0.538489
O O3 0.522320 0.467047 0.625251
O O4 0.000000 0.440559 0.250000
O O5 0.403564 0.409918 0.180597
O O6 0.637862 0.300054 0.974777
O O7 0.000000 0.401216 0.750000
O O8 0.315099 0.209320 0.667107
O O9 0.586342 0.125078 0.577769
O O10 0.091390 0.088461 0.829661
O O11 0.015355 0.171663 0.981479
O O12 0.630947 0.197899 0.337288
O O13 0.000000 0.201338 0.750000
O O14 0.512666 0.897124 0.657586
O O15 0.000000 0.905852 0.250000
O O16 0.802654 0.006089 0.444844
O O17 0.500000 0.051276 0.750000
O O18 0.063857 0.094018 0.352241
O O19 0.500000 0.452771 0.250000
O O20 0.000000 0.500000 0.500000
#
# Coordination Sequence:
#
# PCOD8118269 Si02
#       8
#     4   4   4   4   4   4   4   4
#     4  10  19  37  63  89 125 166 194 237 299 354
#     4  10  22  42  62  88 128 169 213 249 296 366
#     4  11  22  41  62  84 120 163 204 260 323 374
#     4  11  23  43  62  90 118 166 223 250 299 377
#     4  12  22  36  61  92 119 153 211 260 328 393
#     4  10  24  38  58  90 118 156 205 265 333 390
#     4  11  22  41  61  85 122 159 206 266 319 373
#     4  11  20  35  63  99 130 154 195 248 303 349
#
# _framework density 19.799990000000001
#
# number of rings (size 3 to 8) (size 9 to 14) (size 15 to 20)
#    0.000    1.250    2.500    5.625    1.750    3.000 
#    9.000    0.000    0.000    0.000    0.000    0.000 
#    0.000    0.000    0.000    0.000    0.000    0.000 
#
# Total GULP energy -396509.907985 kJ/mol
# GULP energy per Si atom -12390.934625 kJ/mol
# Density = 1.975492 g / cm^3
# Si number density = 19.799990 Si / 1000 Ang^3
#
#
#
# Elastic Constant Matrix: (Units=GPa)
#
#
# Indices 1 2 3 4 5 6 
#
# 1 90.3249 29.9818 30.7205 0.0000 2.1878 0.0000
# 2 29.9818 86.0694 49.1123 0.0000 9.0315 0.0000
# 3 30.7205 49.1123 100.9701 0.0000 3.3950 0.0000
# 4 0.0000 0.0000 0.0000 17.5718 0.0000 3.5146
# 5 2.1878 9.0315 3.3950 0.0000 37.9046 0.0000
# 6 0.0000 0.0000 0.0000 3.5146 0.0000 26.9573
#
#
#
# Elastic Compliance Matrix: (Units=1/GPa)
#
#
# Indices 1 2 3 4 5 6 
#
# 1 0.012932 -0.003154 -0.002408 0.000000 0.000221 0.000000
# 2 -0.003154 0.017233 -0.007313 0.000000 -0.003269 0.000000
# 3 -0.002408 -0.007313 0.014173 0.000000 0.000612 0.000000
# 4 0.000000 0.000000 0.000000 0.058433 0.000000 -0.007618
# 5 0.000221 -0.003269 0.000612 0.000000 0.027093 0.000000
# 6 0.000000 0.000000 0.000000 -0.007618 0.000000 0.038089
#
#
# Mechanical properties :
#
#
# Convention : Reuss Voigt Hill
#
# Bulk Modulus (GPa) = 53.79643 55.22151 54.50897
# Shear Modulus (GPa) = 25.01279 27.65673 26.33476
#
# Velocity S-wave (km/s) = 3.55811 3.74144 3.65093
# Velocity P-wave (km/s) = 6.64147 6.82750 6.73513
#
# Compressibility (1/GPa) = 0.01858859
#
# Stress axis : x y z
#
# Youngs Moduli (GPa) = 77.32988 58.02850 70.55735
#
# Poissons Ratio (x) = 0.18301 0.16989
# Poissons Ratio (y) = 0.24389 0.51596
# Poissons Ratio (z) = 0.18620 0.42434
#
# Static dielectric constant tensor:
#      x y z
#    x 3.949460 0.000000 -0.155760 
#    y 0.000000 3.485500 0.000000 
#    z -0.155760 0.000000 3.624340 
# 
# 
# High freq. dielectric constant tensor:
#      x y z
#    x 1.779650 0.000000 -0.002920 
#    y 0.000000 1.751890 0.000000 
#    z -0.002920 0.000000 1.782680 
# 
# From -- ./inp_files/67022.got.cif
#   From: 2010.06.25/outbox.cif.g09.slc.cpg/sg13_34_cif.got.tgz:67022.got - 2010.06.28 04:50:58.
