data_PCOD8118177
_publ_section_title
;
Structure prediction by ZEFSAII (Michael W. Deem and Ramdas Pophale) SiO2 
 PCOD8118177
Probable space group: P 2/C
;
_chemical_formula_sum "Si O2"
_cell_formula_units_Z 28
_cell_length_a 13.410873
_cell_length_b 9.646495
_cell_length_c 15.368414
_cell_angle_alpha 90.000000
_cell_angle_beta 137.333148
_cell_angle_gamma 90.000000
_cell_volume 1347.457761
_symmetry_space_group_name_H-M "P 2/C"
_symmetry_group_IT_number 13
_symmetry_cell_setting 'monoclinic'
loop_
_space_group_symop_operation_xyz
x,y,z
-x,y,1/2-z
-x,-y,-z
x,-y,1/2+z
loop_
_atom_site_type_symbol
_atom_site_label
_atom_site_fract_x
_atom_site_fract_y
_atom_site_fract_z
Si Si1 0.743884 0.895821 0.436925
Si Si2 0.538407 0.187660 0.652367
Si Si3 0.895103 0.156093 0.602929
Si Si4 0.861955 0.609340 0.509492
Si Si5 0.093962 0.396746 0.662005
Si Si6 0.438322 0.505157 0.123363
Si Si7 0.655735 0.707777 0.060562
O O1 0.611025 0.895721 0.422468
O O2 0.672823 0.876859 0.294990
O O3 0.855348 0.770608 0.529850
O O4 0.846693 0.030395 0.509127
O O5 0.523264 0.349813 0.666575
O O6 0.574998 0.181573 0.572847
O O7 0.740567 0.211989 0.539470
O O8 0.000000 0.107604 0.750000
O O9 0.980116 0.268378 0.598803
O O10 0.843123 0.592605 0.394042
O O11 0.735217 0.527317 0.478389
O O12 0.014746 0.540593 0.637540
O O13 0.230520 0.384620 0.812710
O O14 0.500000 0.433013 0.250000
O O15 0.462171 0.398010 0.058626
#
# Coordination Sequence:
#
# PCOD8118177 Si02
#       7
#     4   4   4   4   4   4   4
#     4  10  20  41  62  84 120 161 205 246 298 358
#     4  10  20  39  65  84 116 164 199 245 308 356
#     4  10  23  40  58  88 124 163 201 248 301 356
#     4  10  19  36  62  89 118 153 206 240 303 358
#     4  10  20  38  61  89 121 158 195 251 299 362
#     4  11  19  36  61  92 120 156 197 252 299 361
#     4  11  21  38  63  89 123 158 201 253 307 358
#
# _framework density 20.779872999999998
#
# number of rings (size 3 to 8) (size 9 to 14) (size 15 to 20)
#    0.000    1.714    5.714    0.429    0.000    1.143 
#    7.714    0.000    0.000    0.000    0.000    0.000 
#    0.000    0.000    0.000    0.000    0.000    0.000 
#
# Total GULP energy -347099.028854 kJ/mol
# GULP energy per Si atom -12396.393888 kJ/mol
# Density = 2.073258 g / cm^3
# Si number density = 20.779873 Si / 1000 Ang^3
#
#
#
# Elastic Constant Matrix: (Units=GPa)
#
#
# Indices 1 2 3 4 5 6 
#
# 1 53.5802 -2.6126 -10.6346 0.0000 -4.7472 0.0000
# 2 -2.6126 73.3619 33.5435 0.0000 -0.6229 0.0000
# 3 -10.6346 33.5435 56.8991 0.0000 -4.1599 0.0000
# 4 0.0000 0.0000 0.0000 37.8054 0.0000 -7.8468
# 5 -4.7472 -0.6229 -4.1599 0.0000 24.9564 0.0000
# 6 0.0000 0.0000 0.0000 -7.8468 0.0000 13.2188
#
#
#
# Elastic Compliance Matrix: (Units=1/GPa)
#
#
# Indices 1 2 3 4 5 6 
#
# 1 0.019982 -0.001520 0.004967 0.000000 0.004591 0.000000
# 2 -0.001520 0.018824 -0.011509 0.000000 -0.001738 0.000000
# 3 0.004967 -0.011509 0.025649 0.000000 0.004933 0.000000
# 4 0.000000 0.000000 0.000000 0.030168 0.000000 0.017908
# 5 0.004591 -0.001738 0.004933 0.000000 0.041722 0.000000
# 6 0.000000 0.000000 0.000000 0.017908 0.000000 0.086280
#
#
# Mechanical properties :
#
#
# Convention : Reuss Voigt Hill
#
# Bulk Modulus (GPa) = 20.69099 24.93708 22.81404
# Shear Modulus (GPa) = 19.61860 26.09910 22.85885
#
# Velocity S-wave (km/s) = 3.07598 3.54783 3.32029
# Velocity P-wave (km/s) = 4.75335 5.36744 5.06970
#
# Compressibility (1/GPa) = 0.04833021
#
# Stress axis : x y z
#
# Youngs Moduli (GPa) = 50.04502 53.12289 38.98859
#
# Poissons Ratio (x) = 0.08076 -0.19364
# Poissons Ratio (y) = 0.07608 0.44870
# Poissons Ratio (z) = -0.24855 0.61137
#
# Static dielectric constant tensor:
#      x y z
#    x 4.128670 0.000000 0.028050 
#    y 0.000000 3.575370 0.000000 
#    z 0.028050 0.000000 3.546590 
# 
# 
# High freq. dielectric constant tensor:
#      x y z
#    x 1.824840 0.000000 0.003140 
#    y 0.000000 1.789690 0.000000 
#    z 0.003140 0.000000 1.797270 
# 
# From -- ./inp_files/68259.got.cif
#   From: 2010.06.25/outbox.cif.g09.slc.cpg/sg13_35_cif.got.tgz:68259.got - 2010.06.28 04:50:58.
