data_PCOD8118744
_publ_section_title
;
Structure prediction by ZEFSAII (Michael W. Deem and Ramdas Pophale) SiO2 
 PCOD8118744
Probable space group: P 2/C
;
_chemical_formula_sum "Si O2"
_cell_formula_units_Z 26
_cell_length_a 14.446950
_cell_length_b 12.387733
_cell_length_c 9.257237
_cell_angle_alpha 90.000000
_cell_angle_beta 123.298603
_cell_angle_gamma 90.000000
_cell_volume 1384.721820
_symmetry_space_group_name_H-M "P 2/C"
_symmetry_group_IT_number 13
_symmetry_cell_setting 'monoclinic'
loop_
_space_group_symop_operation_xyz
x,y,z
-x,y,1/2-z
-x,-y,-z
x,-y,1/2+z
loop_
_atom_site_type_symbol
_atom_site_label
_atom_site_fract_x
_atom_site_fract_y
_atom_site_fract_z
Si Si1 0.255643 0.673818 0.346784
Si Si2 0.500000 0.494450 0.750000
Si Si3 0.984354 0.612351 0.403845
Si Si4 0.391478 0.119527 0.962164
Si Si5 0.637455 0.094013 0.228654
Si Si6 0.642061 0.553313 0.617078
Si Si7 0.794662 0.284546 0.367385
O O1 0.135133 0.665469 0.168693
O O2 0.322174 0.777816 0.348810
O O3 0.326450 0.571755 0.360532
O O4 0.245890 0.679117 0.510276
O O5 0.565961 0.572118 0.694202
O O6 0.421103 0.417805 0.585991
O O7 0.000000 0.583631 0.250000
O O8 0.000000 0.500000 0.500000
O O9 0.072312 0.705182 0.528413
O O10 0.523603 0.143677 0.064070
O O11 0.366155 0.083802 0.102851
O O12 0.348040 0.024948 0.821613
O O13 0.744518 0.168019 0.280751
O O14 0.748808 0.628453 0.713912
#
# Coordination Sequence:
#
# PCOD8118744 Si02
#       7
#     4   2   4   4   4   4   4
#     4  10  20  35  57  77 109 147 178 222 271 324
#     4  10  24  30  48  76 118 138 178 220 262 336
#     4  10  20  36  55  80 108 144 187 219 266 321
#     4   9  19  36  55  77 104 140 179 221 271 323
#     4   9  19  36  55  77 104 140 179 221 271 323
#     4  11  20  35  48  80 110 145 177 212 278 322
#     4  10  20  35  57  77 109 147 178 222 271 324
#
# _framework density 18.776335
#
# number of rings (size 3 to 8) (size 9 to 14) (size 15 to 20)
#    0.000    2.154    3.077    0.000    4.308    0.000 
#    2.769    0.769    0.000    0.000    0.000    0.000 
#    0.000    0.000    0.000    0.000    0.000    0.000 
#
# Total GULP energy -322264.635595 kJ/mol
# GULP energy per Si atom -12394.793677 kJ/mol
# Density = 1.873360 g / cm^3
# Si number density = 18.776335 Si / 1000 Ang^3
#
#
#
# Elastic Constant Matrix: (Units=GPa)
#
#
# Indices 1 2 3 4 5 6 
#
# 1 74.2762 43.7353 38.5770 0.0000 26.2572 0.0000
# 2 43.7353 114.3621 46.2504 0.0000 23.9050 0.0000
# 3 38.5770 46.2504 103.1291 0.0000 25.0447 0.0000
# 4 0.0000 0.0000 0.0000 33.9781 0.0000 5.7177
# 5 26.2572 23.9050 25.0447 0.0000 32.9773 0.0000
# 6 0.0000 0.0000 0.0000 5.7177 0.0000 26.1042
#
#
#
# Elastic Compliance Matrix: (Units=1/GPa)
#
#
# Indices 1 2 3 4 5 6 
#
# 1 0.022053 -0.004649 -0.003333 0.000000 -0.011658 0.000000
# 2 -0.004649 0.012389 -0.003108 0.000000 -0.002919 0.000000
# 3 -0.003333 -0.003108 0.013666 0.000000 -0.005471 0.000000
# 4 0.000000 0.000000 0.000000 0.030557 0.000000 -0.006693
# 5 -0.011658 -0.002919 -0.005471 0.000000 0.045877 0.000000
# 6 0.000000 0.000000 0.000000 -0.006693 0.000000 0.039774
#
#
# Mechanical properties :
#
#
# Convention : Reuss Voigt Hill
#
# Bulk Modulus (GPa) = 38.56967 60.98807 49.77887
# Shear Modulus (GPa) = 25.62269 29.49225 27.55747
#
# Velocity S-wave (km/s) = 3.69809 3.96752 3.83517
# Velocity P-wave (km/s) = 6.23063 7.31712 6.79562
#
# Compressibility (1/GPa) = 0.02592711
#
# Stress axis : x y z
#
# Youngs Moduli (GPa) = 45.34564 80.71558 73.17287
#
# Poissons Ratio (x) = 0.37523 0.24391
# Poissons Ratio (y) = 0.21080 0.22745
# Poissons Ratio (z) = 0.15115 0.25090
#
# Static dielectric constant tensor:
#      x y z
#    x 3.486940 0.000000 0.253910 
#    y 0.000000 3.212760 0.000000 
#    z 0.253910 0.000000 3.690540 
# 
# 
# High freq. dielectric constant tensor:
#      x y z
#    x 1.716270 0.000000 0.014450 
#    y 0.000000 1.704870 0.000000 
#    z 0.014450 0.000000 1.738790 
# 
# From -- ./inp_files/18702.got.cif
#   From: 2010.06.25/outbox.cif.g09.slc.cpg/sg13_10_cif.got.tgz:18702.got - 2010.06.28 04:50:58.
