data_PCOD8118941
_publ_section_title
;
Structure prediction by ZEFSAII (Michael W. Deem and Ramdas Pophale) SiO2 
 PCOD8118941
Probable space group: P 2/C
;
_chemical_formula_sum "Si O2"
_cell_formula_units_Z 24
_cell_length_a 11.072620
_cell_length_b 9.071886
_cell_length_c 18.084961
_cell_angle_alpha 90.000000
_cell_angle_beta 44.377857
_cell_angle_gamma 90.000000
_cell_volume 1270.525002
_symmetry_space_group_name_H-M "P 2/C"
_symmetry_group_IT_number 13
_symmetry_cell_setting 'monoclinic'
loop_
_space_group_symop_operation_xyz
x,y,z
-x,y,1/2-z
-x,-y,-z
x,-y,1/2+z
loop_
_atom_site_type_symbol
_atom_site_label
_atom_site_fract_x
_atom_site_fract_y
_atom_site_fract_z
Si Si1 0.307060 0.568530 0.310761
Si Si2 0.934032 0.863017 0.628445
Si Si3 0.641949 0.317903 0.318910
Si Si4 0.256091 0.397770 0.476954
Si Si5 0.152983 0.353603 0.132088
Si Si6 0.037203 0.812066 0.415769
O O1 0.500000 0.606663 0.250000
O O2 0.297371 0.477128 0.238762
O O3 0.218442 0.469500 0.413294
O O4 0.215744 0.723476 0.337602
O O5 0.738460 0.808245 0.729154
O O6 0.073619 0.780535 0.619136
O O7 0.978239 0.837607 0.524684
O O8 0.939352 0.038030 0.640899
O O9 0.563913 0.308403 0.099905
O O10 0.694758 0.295977 0.381157
O O11 0.246472 0.526462 0.541058
O O12 0.108474 0.282092 0.561762
O O13 0.000000 0.421440 0.250000
#
# Coordination Sequence:
#
# PCOD8118941 Si02
#       6
#     4   4   4   4   4   4
#     4  10  20  36  59  90 114 146 194 250 285 336
#     4  10  21  36  54  81 117 156 186 233 286 350
#     4  10  21  38  57  88 116 152 190 240 294 338
#     4  11  20  36  63  87 113 148 197 246 282 340
#     4  10  20  37  59  83 117 157 191 235 292 339
#     4  11  20  36  57  83 113 151 195 231 288 341
#
# _framework density 18.889828000000001
#
# number of rings (size 3 to 8) (size 9 to 14) (size 15 to 20)
#    0.000    1.667    3.333    3.000    0.000    0.000 
#    6.000    8.333    0.000    0.000    0.000    0.000 
#    0.000    0.000    0.000    0.000    0.000    0.000 
#
# Total GULP energy -297574.712436 kJ/mol
# GULP energy per Si atom -12398.946352 kJ/mol
# Density = 1.884683 g / cm^3
# Si number density = 18.889828 Si / 1000 Ang^3
#
#
#
# Elastic Constant Matrix: (Units=GPa)
#
#
# Indices 1 2 3 4 5 6 
#
# 1 95.1119 55.4079 31.2631 0.0000 -5.9959 0.0000
# 2 55.4079 136.2071 47.3662 0.0000 -19.7575 0.0000
# 3 31.2631 47.3662 68.3938 0.0000 -9.2297 0.0000
# 4 0.0000 0.0000 0.0000 23.2139 0.0000 3.7520
# 5 -5.9959 -19.7575 -9.2297 0.0000 30.7420 0.0000
# 6 0.0000 0.0000 0.0000 3.7520 0.0000 13.9091
#
#
#
# Elastic Compliance Matrix: (Units=1/GPa)
#
#
# Indices 1 2 3 4 5 6 
#
# 1 0.014376 -0.004866 -0.003382 0.000000 -0.001339 0.000000
# 2 -0.004866 0.011920 -0.005341 0.000000 0.005108 0.000000
# 3 -0.003382 -0.005341 0.020130 0.000000 0.001951 0.000000
# 4 0.000000 0.000000 0.000000 0.045041 0.000000 -0.012150
# 5 -0.001339 0.005108 0.001951 0.000000 0.036136 0.000000
# 6 0.000000 0.000000 0.000000 -0.012150 0.000000 0.075173
#
#
# Mechanical properties :
#
#
# Convention : Reuss Voigt Hill
#
# Bulk Modulus (GPa) = 51.95796 63.08747 57.52272
# Shear Modulus (GPa) = 21.15329 24.61804 22.88566
#
# Velocity S-wave (km/s) = 3.35001 3.61396 3.48449
# Velocity P-wave (km/s) = 6.52142 7.13333 6.83423
#
# Compressibility (1/GPa) = 0.01924633
#
# Stress axis : x y z
#
# Youngs Moduli (GPa) = 69.56049 83.89503 49.67829
#
# Poissons Ratio (x) = 0.40825 0.16801
# Poissons Ratio (y) = 0.33849 0.26535
# Poissons Ratio (z) = 0.23525 0.44811
#
# Static dielectric constant tensor:
#      x y z
#    x 3.524490 0.000000 0.031690 
#    y 0.000000 3.509090 0.000000 
#    z 0.031690 0.000000 3.534350 
# 
# 
# High freq. dielectric constant tensor:
#      x y z
#    x 1.738840 0.000000 -0.002150 
#    y 0.000000 1.716700 0.000000 
#    z -0.002150 0.000000 1.734150 
# 
# From -- ./inp_files/65921.got.cif
#   From: 2010.06.25/outbox.cif.g09.slc.cpg/sg13_33_cif.got.tgz:65921.got - 2010.06.28 04:50:58.
