data_PCOD8118112
_publ_section_title
;
Structure prediction by ZEFSAII (Michael W. Deem and Ramdas Pophale) SiO2 
 PCOD8118112
Probable space group: P 2/C
;
_chemical_formula_sum "Si O2"
_cell_formula_units_Z 18
_cell_length_a 7.465369
_cell_length_b 22.017536
_cell_length_c 5.180323
_cell_angle_alpha 90.000000
_cell_angle_beta 67.521835
_cell_angle_gamma 90.000000
_cell_volume 786.793381
_symmetry_space_group_name_H-M "P 2/C"
_symmetry_group_IT_number 13
_symmetry_cell_setting 'monoclinic'
loop_
_space_group_symop_operation_xyz
x,y,z
-x,y,1/2-z
-x,-y,-z
x,-y,1/2+z
loop_
_atom_site_type_symbol
_atom_site_label
_atom_site_fract_x
_atom_site_fract_y
_atom_site_fract_z
Si Si1 0.000000 0.041247 0.750000
Si Si2 0.769999 0.671402 0.885042
Si Si3 0.378492 0.878321 0.065547
Si Si4 0.231329 0.464790 0.119056
Si Si5 0.230241 0.256338 0.615452
O O1 0.183554 0.084227 0.663721
O O2 0.000000 0.000000 0.500000
O O3 0.685287 0.603491 0.907497
O O4 0.697170 0.713478 0.690762
O O5 0.000000 0.668231 0.750000
O O6 0.699237 0.699948 0.193240
O O7 0.500000 0.896544 0.250000
O O8 0.333995 0.807344 0.091780
O O9 0.500000 0.897099 0.750000
O O10 0.309909 0.504238 0.314751
O O11 0.000000 0.463563 0.250000
O O12 0.000000 0.246854 0.750000
#
# Coordination Sequence:
#
# PCOD8118112 Si02
#       5
#     2   4   4   4   4
#     4  12  28  50  76 106 144 184 222 268 324 384
#     4   9  17  27  48  76 110 163 212 261 329 394
#     4  12  26  45  72 104 139 179 226 275 328 389
#     4   9  15  23  36  62 106 153 201 260 322 383
#     4  10  19  36  57  84 123 163 212 268 328 387
#
# _framework density 22.877669000000001
#
# number of rings (size 3 to 8) (size 9 to 14) (size 15 to 20)
#    0.000    1.778    1.111    4.000    0.000    8.000 
#    0.000    0.000    0.000    0.000    0.000    0.000 
#    0.000   62.222    0.000    0.000    0.000    0.000 
#
# Total GULP energy -223288.452057 kJ/mol
# GULP energy per Si atom -12404.914003 kJ/mol
# Density = 2.282560 g / cm^3
# Si number density = 22.877669 Si / 1000 Ang^3
#
#
#
# Elastic Constant Matrix: (Units=GPa)
#
#
# Indices 1 2 3 4 5 6 
#
# 1 113.7493 62.4971 55.4042 0.0000 12.6041 0.0000
# 2 62.4971 155.5898 58.3838 0.0000 14.1685 0.0000
# 3 55.4042 58.3838 148.2552 0.0000 56.0988 0.0000
# 4 0.0000 0.0000 0.0000 69.6035 0.0000 -48.9520
# 5 12.6041 14.1685 56.0988 0.0000 34.0412 0.0000
# 6 0.0000 0.0000 0.0000 -48.9520 0.0000 283.7663
#
#
#
# Elastic Compliance Matrix: (Units=1/GPa)
#
#
# Indices 1 2 3 4 5 6 
#
# 1 0.012867 -0.003578 -0.005739 0.000000 0.006183 0.000000
# 2 -0.003578 0.008826 -0.003320 0.000000 0.003123 0.000000
# 3 -0.005739 -0.003320 0.023565 0.000000 -0.035328 0.000000
# 4 0.000000 0.000000 0.000000 0.016351 0.000000 0.002821
# 5 0.006183 0.003123 -0.035328 0.000000 0.084006 0.000000
# 6 0.000000 0.000000 0.000000 0.002821 0.000000 0.004011
#
#
# Mechanical properties :
#
#
# Convention : Reuss Voigt Hill
#
# Bulk Modulus (GPa) = 50.04103 85.57382 67.80742
# Shear Modulus (GPa) = 27.53866 93.56948 60.55407
#
# Velocity S-wave (km/s) = 3.47325 6.40224 5.15035
# Velocity P-wave (km/s) = 6.16486 9.59884 8.06670
#
# Compressibility (1/GPa) = 0.01998360
#
# Stress axis : x y z
#
# Youngs Moduli (GPa) = 77.71563 113.30298 42.43514
#
# Poissons Ratio (x) = 0.40540 0.24354
# Poissons Ratio (y) = 0.27807 0.14090
# Poissons Ratio (z) = 0.44603 0.37620
#
# Static dielectric constant tensor:
#      x y z
#    x 4.040870 0.000000 0.116710 
#    y 0.000000 4.228180 0.000000 
#    z 0.116710 0.000000 4.317630 
# 
# 
# High freq. dielectric constant tensor:
#      x y z
#    x 1.910690 0.000000 0.003430 
#    y 0.000000 1.910130 0.000000 
#    z 0.003430 0.000000 1.915010 
# 
# From -- ./inp_files/1947.got.cif
#   From: 2010.06.25/outbox.cif.g09.slc.cpg/sg13_1_cif.got.tgz:1947.got - 2010.06.28 04:50:58.
