data_PCOD8118394
_publ_section_title
;
Structure prediction by ZEFSAII (Michael W. Deem and Ramdas Pophale) SiO2 
 PCOD8118394
Probable space group: P 2/C
;
_chemical_formula_sum "Si O2"
_cell_formula_units_Z 24
_cell_length_a 17.177553
_cell_length_b 7.481368
_cell_length_c 16.030349
_cell_angle_alpha 90.000000
_cell_angle_beta 145.642013
_cell_angle_gamma 90.000000
_cell_volume 1162.633738
_symmetry_space_group_name_H-M "P 2/C"
_symmetry_group_IT_number 13
_symmetry_cell_setting 'monoclinic'
loop_
_space_group_symop_operation_xyz
x,y,z
-x,y,1/2-z
-x,-y,-z
x,-y,1/2+z
loop_
_atom_site_type_symbol
_atom_site_label
_atom_site_fract_x
_atom_site_fract_y
_atom_site_fract_z
Si Si1 0.972883 0.061165 0.322414
Si Si2 0.524494 0.959714 0.926330
Si Si3 0.114381 0.452069 0.285384
Si Si4 0.250638 0.917829 0.139517
Si Si5 0.636364 0.720579 0.413292
Si Si6 0.767230 0.775362 0.198308
O O1 0.941838 0.271797 0.306826
O O2 0.000000 0.014022 0.250000
O O3 0.099145 0.997735 0.494007
O O4 0.841290 0.958749 0.239134
O O5 0.372031 0.930003 0.750492
O O6 0.592528 0.128647 0.940425
O O7 0.500000 0.000000 0.000000
O O8 0.625190 0.785375 0.016604
O O9 0.267167 0.427537 0.459245
O O10 0.138057 0.604643 0.237055
O O11 0.000000 0.522264 0.250000
O O12 0.265404 0.802930 0.069490
O O13 0.262503 0.784461 0.229211
O O14 0.500000 0.634082 0.250000
#
# Coordination Sequence:
#
# PCOD8118394 Si02
#       6
#     4   4   4   4   4   4
#     4  11  20  39  61  85 121 163 197 248 314 355
#     4   9  19  37  63  89 115 154 202 246 298 360
#     4  11  22  39  62  87 124 162 201 251 307 362
#     4  10  20  37  63  87 118 163 198 247 308 365
#     4  10  19  39  63  81 122 165 195 246 314 359
#     4  11  22  37  62  91 119 154 210 251 298 365
#
# _framework density 20.642786999999998
#
# number of rings (size 3 to 8) (size 9 to 14) (size 15 to 20)
#    0.000    1.667    5.000    1.000    0.000    0.667 
#    0.000   13.333    0.000    0.000    0.000    0.000 
#    0.000    0.000    0.000    0.000    0.000    0.000 
#
# Total GULP energy -297342.113949 kJ/mol
# GULP energy per Si atom -12389.254748 kJ/mol
# Density = 2.059580 g / cm^3
# Si number density = 20.642787 Si / 1000 Ang^3
#
#
#
# Elastic Constant Matrix: (Units=GPa)
#
#
# Indices 1 2 3 4 5 6 
#
# 1 110.4006 39.3672 18.6582 0.0000 -2.7821 0.0000
# 2 39.3672 55.0538 19.7813 0.0000 -0.0481 0.0000
# 3 18.6582 19.7813 146.0356 0.0000 15.5858 0.0000
# 4 0.0000 0.0000 0.0000 -34.5470 0.0000 -83.0911
# 5 -2.7821 -0.0481 15.5858 0.0000 30.3074 0.0000
# 6 0.0000 0.0000 0.0000 -83.0911 0.0000 -120.1059
#
#
#
# Elastic Compliance Matrix: (Units=1/GPa)
#
#
# Indices 1 2 3 4 5 6 
#
# 1 0.012235 -0.008549 -0.000554 0.000000 0.001395 0.000000
# 2 -0.008549 0.025126 -0.002361 0.000000 0.000469 0.000000
# 3 -0.000554 -0.002361 0.007665 0.000000 -0.003996 0.000000
# 4 0.000000 0.000000 0.000000 0.043598 0.000000 -0.030162
# 5 0.001395 0.000469 -0.003996 0.000000 0.035179 0.000000
# 6 0.000000 0.000000 0.000000 -0.030162 0.000000 0.012541
#
#
# Mechanical properties :
#
#
# Convention : Reuss Voigt Hill
#
# Bulk Modulus (GPa) = 45.25380 51.90040 48.57710
# Shear Modulus (GPa) = 30.00530 -9.29022 10.35754
#
# Velocity S-wave (km/s) = 3.81668 -2.12373 2.24241
# Velocity P-wave (km/s) = 6.43371 4.37985 5.50344
#
# Compressibility (1/GPa) = 0.02209759
#
# Stress axis : x y z
#
# Youngs Moduli (GPa) = 81.73284 39.79994 130.46662
#
# Poissons Ratio (x) = 0.34023 0.07229
# Poissons Ratio (y) = 0.69870 0.30807
# Poissons Ratio (z) = 0.04529 0.09398
#
# Static dielectric constant tensor:
#      x y z
#    x 4.051810 0.000000 0.322580 
#    y 0.000000 3.253650 0.000000 
#    z 0.322580 0.000000 4.500300 
# 
# 
# High freq. dielectric constant tensor:
#      x y z
#    x 1.825870 0.000000 0.016390 
#    y 0.000000 1.748760 0.000000 
#    z 0.016390 0.000000 1.830270 
# 
# From -- ./inp_files/53215.got.cif
#   From: 2010.06.25/outbox.cif.g09.slc.cpg/sg13_27_cif.got.tgz:53215.got - 2010.06.28 04:50:58.
