data_PCOD8118497
_publ_section_title
;
Structure prediction by ZEFSAII (Michael W. Deem and Ramdas Pophale) SiO2 
 PCOD8118497
Probable space group: P 2/C
;
_chemical_formula_sum "Si O2"
_cell_formula_units_Z 26
_cell_length_a 14.351562
_cell_length_b 20.273975
_cell_length_c 5.120022
_cell_angle_alpha 90.000000
_cell_angle_beta 65.816495
_cell_angle_gamma 90.000000
_cell_volume 1358.995780
_symmetry_space_group_name_H-M "P 2/C"
_symmetry_group_IT_number 13
_symmetry_cell_setting 'monoclinic'
loop_
_space_group_symop_operation_xyz
x,y,z
-x,y,1/2-z
-x,-y,-z
x,-y,1/2+z
loop_
_atom_site_type_symbol
_atom_site_label
_atom_site_fract_x
_atom_site_fract_y
_atom_site_fract_z
Si Si1 0.066219 0.848594 0.422929
Si Si2 0.232875 0.043507 0.783325
Si Si3 0.306066 0.683412 0.516403
Si Si4 0.602226 0.856730 0.503620
Si Si5 0.618148 0.457860 0.623992
Si Si6 0.759528 0.755072 0.431723
Si Si7 0.500000 0.245372 0.750000
O O1 0.136526 0.909278 0.432827
O O2 0.130792 0.784619 0.266911
O O3 0.000000 0.871223 0.250000
O O4 0.000000 0.828696 0.750000
O O5 0.338597 0.083548 0.703979
O O6 0.230016 0.014611 0.495515
O O7 0.307823 0.604466 0.503357
O O8 0.279350 0.710537 0.261893
O O9 0.418023 0.707880 0.488400
O O10 0.227132 0.709546 0.826633
O O11 0.683269 0.816873 0.593325
O O12 0.566780 0.800501 0.352904
O O13 0.500000 0.886747 0.750000
O O14 0.500000 0.435621 0.750000
O O15 0.643416 0.511742 0.376058
#
# Coordination Sequence:
#
# PCOD8118497 Si02
#       7
#     4   4   4   4   4   4   2
#     4  11  23  42  66  85 111 140 173 237 307 346
#     4  11  26  41  57  83 111 142 188 230 272 345
#     4  11  19  34  54  80 116 152 195 228 270 321
#     4  10  21  36  55  76 112 146 188 231 276 323
#     4  10  20  32  47  75 117 164 206 232 253 300
#     4  10  22  35  57  87 111 139 190 237 280 344
#     4  10  20  32  54  78 104 156 196 224 274 330
#
# _framework density 19.131772999999999
#
# number of rings (size 3 to 8) (size 9 to 14) (size 15 to 20)
#    0.000    1.538    2.308    2.769    2.154    4.923 
#    0.000    0.000    0.000    0.000    0.000    0.000 
#    0.000   43.077    0.000    0.000    0.000    0.000 
#
# Total GULP energy -322334.666936 kJ/mol
# GULP energy per Si atom -12397.487190 kJ/mol
# Density = 1.908823 g / cm^3
# Si number density = 19.131773 Si / 1000 Ang^3
#
#
#
# Elastic Constant Matrix: (Units=GPa)
#
#
# Indices 1 2 3 4 5 6 
#
# 1 54.5098 15.4634 22.0119 0.0000 -11.5296 0.0000
# 2 15.4634 85.9091 30.6882 0.0000 -13.3985 0.0000
# 3 22.0119 30.6882 109.5426 0.0000 -8.1164 0.0000
# 4 0.0000 0.0000 0.0000 31.9910 0.0000 2.1567
# 5 -11.5296 -13.3985 -8.1164 0.0000 33.0494 0.0000
# 6 0.0000 0.0000 0.0000 2.1567 0.0000 13.0221
#
#
#
# Elastic Compliance Matrix: (Units=1/GPa)
#
#
# Indices 1 2 3 4 5 6 
#
# 1 0.021463 -0.001724 -0.003389 0.000000 0.005956 0.000000
# 2 -0.001724 0.013744 -0.003194 0.000000 0.004186 0.000000
# 3 -0.003389 -0.003194 0.010716 0.000000 0.000155 0.000000
# 4 0.000000 0.000000 0.000000 0.031612 0.000000 -0.005236
# 5 0.005956 0.004186 0.000155 0.000000 0.034071 0.000000
# 6 0.000000 0.000000 0.000000 -0.005236 0.000000 0.077660
#
#
# Mechanical properties :
#
#
# Convention : Reuss Voigt Hill
#
# Bulk Modulus (GPa) = 34.11748 42.92092 38.51920
# Shear Modulus (GPa) = 23.18596 27.73236 25.45916
#
# Velocity S-wave (km/s) = 3.48502 3.81142 3.65187
# Velocity P-wave (km/s) = 5.83656 6.46933 6.16108
#
# Compressibility (1/GPa) = 0.02931049
#
# Stress axis : x y z
#
# Youngs Moduli (GPa) = 46.59278 72.75741 93.31840
#
# Poissons Ratio (x) = 0.12542 0.31621
# Poissons Ratio (y) = 0.08032 0.29805
# Poissons Ratio (z) = 0.15788 0.23238
#
# Static dielectric constant tensor:
#      x y z
#    x 3.185460 0.000000 -0.310430 
#    y 0.000000 3.385600 0.000000 
#    z -0.310430 0.000000 3.466980 
# 
# 
# High freq. dielectric constant tensor:
#      x y z
#    x 1.723420 0.000000 0.006460 
#    y 0.000000 1.738610 0.000000 
#    z 0.006460 0.000000 1.747220 
# 
# From -- ./inp_files/3885.got.cif
#   From: 2010.06.25/outbox.cif.g09.slc.cpg/sg13_2_cif.got.tgz:3885.got - 2010.06.28 04:50:58.
