data_PCOD8118230
_publ_section_title
;
Structure prediction by ZEFSAII (Michael W. Deem and Ramdas Pophale) SiO2 
 PCOD8118230
Probable space group: P 2/C
;
_chemical_formula_sum "Si O2"
_cell_formula_units_Z 26
_cell_length_a 23.662968
_cell_length_b 8.516209
_cell_length_c 15.540576
_cell_angle_alpha 90.000000
_cell_angle_beta 25.798118
_cell_angle_gamma 90.000000
_cell_volume 1362.928424
_symmetry_space_group_name_H-M "P 2/C"
_symmetry_group_IT_number 13
_symmetry_cell_setting 'monoclinic'
loop_
_space_group_symop_operation_xyz
x,y,z
-x,y,1/2-z
-x,-y,-z
x,-y,1/2+z
loop_
_atom_site_type_symbol
_atom_site_label
_atom_site_fract_x
_atom_site_fract_y
_atom_site_fract_z
Si Si1 0.096715 0.291178 0.517404
Si Si2 0.287753 0.646471 0.606983
Si Si3 0.829285 0.860191 0.416957
Si Si4 0.000000 0.575897 0.750000
Si Si5 0.360452 0.643673 0.912478
Si Si6 0.458291 0.594053 0.141128
Si Si7 0.233597 0.220908 0.998026
O O1 0.166624 0.299560 0.330298
O O2 0.190327 0.222201 0.463375
O O3 0.058126 0.468005 0.594893
O O4 0.971784 0.176898 0.683255
O O5 0.286858 0.459499 0.586616
O O6 0.421150 0.675640 0.475883
O O7 0.282146 0.751434 0.529111
O O8 0.724767 0.793545 0.493500
O O9 0.806175 0.042619 0.460653
O O10 0.107454 0.679005 0.649107
O O11 0.500000 0.708944 0.750000
O O12 0.379640 0.529109 0.806206
O O13 0.352064 0.732466 0.270451
O O14 0.500000 0.500000 0.000000
#
# Coordination Sequence:
#
# PCOD8118230 Si02
#       7
#     4   4   4   2   4   4   4
#     4  10  20  37  60  79 108 149 196 240 285 347
#     4  10  20  36  59  84 107 146 198 243 280 341
#     4  10  21  37  54  81 118 150 180 236 302 352
#     4  10  20  36  58  80 106 154 196 236 284 342
#     4   9  19  34  54  79 109 143 186 233 280 334
#     4  10  19  37  60  82 108 146 194 235 273 336
#     4  11  22  36  57  84 118 150 187 239 298 348
#
# _framework density 19.076571000000001
#
# number of rings (size 3 to 8) (size 9 to 14) (size 15 to 20)
#    0.000    2.154    0.000    7.846    0.000    4.308 
#    0.000    7.692    0.000    0.000    0.000    0.000 
#    0.000    0.000    0.000    0.000    0.000    0.000 
#
# Total GULP energy -322304.019983 kJ/mol
# GULP energy per Si atom -12396.308461 kJ/mol
# Density = 1.903315 g / cm^3
# Si number density = 19.076571 Si / 1000 Ang^3
#
#
#
# Elastic Constant Matrix: (Units=GPa)
#
#
# Indices 1 2 3 4 5 6 
#
# 1 89.1732 39.8728 58.1414 0.0000 -11.7929 0.0000
# 2 39.8728 129.4929 62.2325 0.0000 -14.8814 0.0000
# 3 58.1414 62.2325 112.3969 0.0000 6.6598 0.0000
# 4 0.0000 0.0000 0.0000 20.5787 0.0000 -4.8229
# 5 -11.7929 -14.8814 6.6598 0.0000 41.1954 0.0000
# 6 0.0000 0.0000 0.0000 -4.8229 0.0000 19.3300
#
#
#
# Elastic Compliance Matrix: (Units=1/GPa)
#
#
# Indices 1 2 3 4 5 6 
#
# 1 0.018727 -0.000161 -0.010008 0.000000 0.006920 0.000000
# 2 -0.000161 0.011551 -0.006620 0.000000 0.005197 0.000000
# 3 -0.010008 -0.006620 0.018225 0.000000 -0.008203 0.000000
# 4 0.000000 0.000000 0.000000 0.051612 0.000000 0.012878
# 5 0.006920 0.005197 -0.008203 0.000000 0.029459 0.000000
# 6 0.000000 0.000000 0.000000 0.012878 0.000000 0.054946
#
#
# Mechanical properties :
#
#
# Convention : Reuss Voigt Hill
#
# Bulk Modulus (GPa) = 67.00334 72.39517 69.69925
# Shear Modulus (GPa) = 22.41423 27.60856 25.01140
#
# Velocity S-wave (km/s) = 3.43149 3.80840 3.62485
# Velocity P-wave (km/s) = 7.13441 7.57435 7.35767
#
# Compressibility (1/GPa) = 0.01492463
#
# Stress axis : x y z
#
# Youngs Moduli (GPa) = 53.40013 86.57447 54.86881
#
# Poissons Ratio (x) = 0.01397 0.54911
# Poissons Ratio (y) = 0.00861 0.36323
# Poissons Ratio (z) = 0.53441 0.57312
#
# Static dielectric constant tensor:
#      x y z
#    x 3.568780 0.000000 -0.107730 
#    y 0.000000 3.350540 0.000000 
#    z -0.107730 0.000000 3.666370 
# 
# 
# High freq. dielectric constant tensor:
#      x y z
#    x 1.743580 0.000000 -0.016260 
#    y 0.000000 1.724110 0.000000 
#    z -0.016260 0.000000 1.745360 
# 
# From -- ./inp_files/71823.got.cif
#   From: 2010.06.25/outbox.cif.g09.slc.cpg/sg13_36_cif.got.tgz:71823.got - 2010.06.28 04:50:58.
