data_PCOD8118796
_publ_section_title
;
Structure prediction by ZEFSAII (Michael W. Deem and Ramdas Pophale) SiO2 
 PCOD8118796
Probable space group: P 2/C
;
_chemical_formula_sum "Si O2"
_cell_formula_units_Z 32
_cell_length_a 8.900449
_cell_length_b 23.769316
_cell_length_c 15.510131
_cell_angle_alpha 90.000000
_cell_angle_beta 29.388066
_cell_angle_gamma 90.000000
_cell_volume 1610.200076
_symmetry_space_group_name_H-M "P 2/C"
_symmetry_group_IT_number 13
_symmetry_cell_setting 'monoclinic'
loop_
_space_group_symop_operation_xyz
x,y,z
-x,y,1/2-z
-x,-y,-z
x,-y,1/2+z
loop_
_atom_site_type_symbol
_atom_site_label
_atom_site_fract_x
_atom_site_fract_y
_atom_site_fract_z
Si Si1 0.857856 0.441540 0.970553
Si Si2 0.857857 0.441540 0.171591
Si Si3 0.137653 0.060486 0.591380
Si Si4 0.862922 0.671121 0.906431
Si Si5 0.861969 0.258718 0.569016
Si Si6 0.858672 0.136917 0.070660
Si Si7 0.862924 0.671122 0.230647
Si Si8 0.862378 0.060493 0.229015
O O1 0.000006 0.499999 0.866869
O O2 0.022278 0.392412 0.836375
O O3 0.928110 0.432847 0.035945
O O4 0.500001 0.440907 0.129107
O O5 0.022306 0.392413 0.141331
O O6 0.041378 0.102839 0.564088
O O7 0.500017 0.054673 0.418807
O O8 0.000000 0.083501 0.750000
O O9 0.000039 0.999995 0.637123
O O10 0.000000 0.696764 0.750000
O O11 0.990277 0.709486 0.920577
O O12 0.500001 0.671757 0.084034
O O13 0.500000 0.261163 0.750000
O O14 0.990279 0.290515 0.589144
O O15 0.965547 0.194985 0.517238
O O16 0.500000 0.148861 0.250000
O O17 0.958641 0.102847 0.105454
O O18 0.000000 0.696767 0.250000
O O19 0.000000 0.083511 0.250000
#
# Coordination Sequence:
#
# PCOD8118796 Si02
#       8
#     4   4   4   4   4   4   4   4
#     4  10  20  35  59  89 119 153 189 234 292 351
#     4  10  20  35  59  89 119 153 189 234 292 351
#     4  10  20  36  58  88 121 156 192 236 286 340
#     4  11  23  41  62  87 116 151 195 243 293 351
#     4  10  24  43  62  83 115 154 196 244 293 342
#     4  10  23  39  59  85 117 154 197 240 286 342
#     4  11  23  41  62  87 116 151 195 243 293 351
#     4  10  20  36  58  88 121 156 192 236 286 340
#
# _framework density 19.873307
#
# number of rings (size 3 to 8) (size 9 to 14) (size 15 to 20)
#    0.000    1.750    1.250    3.375    0.000    6.500 
#    0.000    7.500    0.000    0.000    0.000    0.000 
#    0.000    0.000    0.000    0.000    0.000    0.000 
#
# Total GULP energy -396951.471824 kJ/mol
# GULP energy per Si atom -12404.733495 kJ/mol
# Density = 1.982807 g / cm^3
# Si number density = 19.873307 Si / 1000 Ang^3
#
#
#
# Elastic Constant Matrix: (Units=GPa)
#
#
# Indices 1 2 3 4 5 6 
#
# 1 135.7945 70.2661 54.3538 0.0000 21.4183 0.0000
# 2 70.2661 124.5884 49.0408 0.0000 21.6111 0.0000
# 3 54.3538 49.0408 97.7723 0.0000 17.3003 0.0000
# 4 0.0000 0.0000 0.0000 30.4671 0.0000 -9.2527
# 5 21.4183 21.6111 17.3003 0.0000 34.3962 0.0000
# 6 0.0000 0.0000 0.0000 -9.2527 0.0000 21.3862
#
#
#
# Elastic Compliance Matrix: (Units=1/GPa)
#
#
# Indices 1 2 3 4 5 6 
#
# 1 0.011659 -0.004697 -0.003692 0.000000 -0.002452 0.000000
# 2 -0.004697 0.012457 -0.003040 0.000000 -0.003373 0.000000
# 3 -0.003692 -0.003040 0.014336 0.000000 -0.003002 0.000000
# 4 0.000000 0.000000 0.000000 0.037787 0.000000 0.016349
# 5 -0.002452 -0.003373 -0.003002 0.000000 0.034229 0.000000
# 6 0.000000 0.000000 0.000000 0.016349 0.000000 0.053832
#
#
# Mechanical properties :
#
#
# Convention : Reuss Voigt Hill
#
# Bulk Modulus (GPa) = 64.12558 78.38629 71.25593
# Shear Modulus (GPa) = 25.99335 29.54954 27.77144
#
# Velocity S-wave (km/s) = 3.62049 3.86021 3.74227
# Velocity P-wave (km/s) = 7.05794 7.70694 7.38957
#
# Compressibility (1/GPa) = 0.01559440
#
# Stress axis : x y z
#
# Youngs Moduli (GPa) = 85.77150 80.27415 69.75343
#
# Poissons Ratio (x) = 0.37705 0.25750
# Poissons Ratio (y) = 0.40287 0.21208
# Poissons Ratio (z) = 0.31664 0.24406
#
# Static dielectric constant tensor:
#      x y z
#    x 3.843320 0.000000 0.164410 
#    y 0.000000 3.537350 0.000000 
#    z 0.164410 0.000000 3.681890 
# 
# 
# High freq. dielectric constant tensor:
#      x y z
#    x 1.786470 0.000000 0.003890 
#    y 0.000000 1.769320 0.000000 
#    z 0.003890 0.000000 1.782650 
# 
# From -- ./inp_files/48298.got.cif
#   From: 2010.06.25/outbox.cif.g09.slc.cpg/sg13_25_cif.got.tgz:48298.got - 2010.06.28 04:50:58.
