data_PCOD8118888
_publ_section_title
;
Structure prediction by ZEFSAII (Michael W. Deem and Ramdas Pophale) SiO2 
 PCOD8118888
Probable space group: P 2/C
;
_chemical_formula_sum "Si O2"
_cell_formula_units_Z 28
_cell_length_a 13.721522
_cell_length_b 12.340455
_cell_length_c 9.955007
_cell_angle_alpha 90.000000
_cell_angle_beta 69.170800
_cell_angle_gamma 90.000000
_cell_volume 1575.511293
_symmetry_space_group_name_H-M "P 2/C"
_symmetry_group_IT_number 13
_symmetry_cell_setting 'monoclinic'
loop_
_space_group_symop_operation_xyz
x,y,z
-x,y,1/2-z
-x,-y,-z
x,-y,1/2+z
loop_
_atom_site_type_symbol
_atom_site_label
_atom_site_fract_x
_atom_site_fract_y
_atom_site_fract_z
Si Si1 0.214313 0.811956 0.364389
Si Si2 0.080530 0.610023 0.822299
Si Si3 0.571992 0.123047 0.841694
Si Si4 0.434171 0.875487 0.648282
Si Si5 0.785867 0.801577 0.815144
Si Si6 0.073283 0.001525 0.337069
Si Si7 0.944797 0.635496 0.145271
O O1 0.327598 0.804263 0.240749
O O2 0.223006 0.823267 0.520966
O O3 0.151842 0.704892 0.357697
O O4 0.162972 0.915103 0.319190
O O5 0.183673 0.679087 0.740343
O O6 0.103323 0.482336 0.797678
O O7 0.000000 0.649789 0.750000
O O8 0.035602 0.633682 0.990927
O O9 0.500000 0.122414 0.750000
O O10 0.599951 0.999108 0.864629
O O11 0.508516 0.173872 0.996478
O O12 0.500000 0.859839 0.750000
O O13 0.325082 0.812591 0.703818
O O14 0.873482 0.881882 0.712218
O O15 0.000000 0.967373 0.250000
O O16 0.000000 0.000000 0.500000
O O17 0.000000 0.685222 0.250000
#
# Coordination Sequence:
#
# PCOD8118888 Si02
#       7
#     4   4   4   4   4   4   4
#     4  12  22  37  61  85 117 158 197 234 291 349
#     4  10  20  39  62  83 117 154 199 235 287 347
#     4  10  20  36  57  83 114 151 198 238 278 345
#     4  10  22  36  57  84 117 149 194 244 285 338
#     4  12  22  38  61  84 116 162 189 236 300 349
#     4  12  24  35  53  87 125 153 187 233 290 353
#     4  10  22  38  59  89 114 152 199 247 277 338
#
# _framework density 17.772010000000002
#
# number of rings (size 3 to 8) (size 9 to 14) (size 15 to 20)
#    0.000    1.143    5.714    1.714    0.000    2.286 
#    0.000    0.000    0.000    1.714    0.000    0.000 
#    0.000    0.000    0.000    0.000    0.000    0.000 
#
# Total GULP energy -347198.300955 kJ/mol
# GULP energy per Si atom -12399.939320 kJ/mol
# Density = 1.773156 g / cm^3
# Si number density = 17.772010 Si / 1000 Ang^3
#
#
#
# Elastic Constant Matrix: (Units=GPa)
#
#
# Indices 1 2 3 4 5 6 
#
# 1 90.3781 32.9108 29.7527 0.0000 -7.9305 0.0000
# 2 32.9108 59.0331 13.1833 0.0000 -4.7121 0.0000
# 3 29.7527 13.1833 110.0687 0.0000 -2.1963 0.0000
# 4 0.0000 0.0000 0.0000 21.4986 0.0000 1.9146
# 5 -7.9305 -4.7121 -2.1963 0.0000 33.9445 0.0000
# 6 0.0000 0.0000 0.0000 1.9146 0.0000 19.7228
#
#
#
# Elastic Compliance Matrix: (Units=1/GPa)
#
#
# Indices 1 2 3 4 5 6 
#
# 1 0.015019 -0.007496 -0.003117 0.000000 0.002267 0.000000
# 2 -0.007496 0.021325 -0.000504 0.000000 0.001176 0.000000
# 3 -0.003117 -0.000504 0.009985 0.000000 -0.000152 0.000000
# 4 0.000000 0.000000 0.000000 0.046920 0.000000 -0.004555
# 5 0.002267 0.001176 -0.000152 0.000000 0.030143 0.000000
# 6 0.000000 0.000000 0.000000 -0.004555 0.000000 0.051145
#
#
# Mechanical properties :
#
#
# Convention : Reuss Voigt Hill
#
# Bulk Modulus (GPa) = 41.50269 45.68596 43.59433
# Shear Modulus (GPa) = 24.41354 27.27539 25.84446
#
# Velocity S-wave (km/s) = 3.71038 3.92182 3.81756
# Velocity P-wave (km/s) = 6.46215 6.80221 6.63436
#
# Compressibility (1/GPa) = 0.02409482
#
# Stress axis : x y z
#
# Youngs Moduli (GPa) = 66.58092 46.89256 100.14899
#
# Poissons Ratio (x) = 0.35152 0.31214
# Poissons Ratio (y) = 0.49911 0.05052
# Poissons Ratio (z) = 0.20752 0.02365
#
# Static dielectric constant tensor:
#      x y z
#    x 3.300800 0.000000 0.027430 
#    y 0.000000 3.239100 0.000000 
#    z 0.027430 0.000000 3.372540 
# 
# 
# High freq. dielectric constant tensor:
#      x y z
#    x 1.688950 0.000000 0.006450 
#    y 0.000000 1.663510 0.000000 
#    z 0.006450 0.000000 1.705900 
# 
# From -- ./inp_files/18750.got.cif
#   From: 2010.06.25/outbox.cif.g09.slc.cpg/sg13_10_cif.got.tgz:18750.got - 2010.06.28 04:50:58.
