data_PCOD8118135
_publ_section_title
;
Structure prediction by ZEFSAII (Michael W. Deem and Ramdas Pophale) SiO2 
 PCOD8118135
Probable space group: P 2/C
;
_chemical_formula_sum "Si O2"
_cell_formula_units_Z 24
_cell_length_a 9.665041
_cell_length_b 8.736433
_cell_length_c 20.454160
_cell_angle_alpha 90.000000
_cell_angle_beta 131.912168
_cell_angle_gamma 90.000000
_cell_volume 1285.261456
_symmetry_space_group_name_H-M "P 2/C"
_symmetry_group_IT_number 13
_symmetry_cell_setting 'monoclinic'
loop_
_space_group_symop_operation_xyz
x,y,z
-x,y,1/2-z
-x,-y,-z
x,-y,1/2+z
loop_
_atom_site_type_symbol
_atom_site_label
_atom_site_fract_x
_atom_site_fract_y
_atom_site_fract_z
Si Si1 0.837325 0.869066 0.748912
Si Si2 0.030411 0.802997 0.938240
Si Si3 0.479296 0.310909 0.425792
Si Si4 0.402830 0.354386 0.552129
Si Si5 0.459775 0.893615 0.309373
Si Si6 0.767318 0.098400 0.462863
O O1 0.691977 0.756295 0.668624
O O2 0.000000 0.914898 0.750000
O O3 0.919378 0.774562 0.836193
O O4 0.739577 0.024397 0.744100
O O5 0.899131 0.795954 0.960069
O O6 0.185327 0.672632 0.999186
O O7 0.120619 0.972262 0.960629
O O8 0.425629 0.317375 0.483700
O O9 0.533435 0.474213 0.412042
O O10 0.660796 0.204277 0.480632
O O11 0.531016 0.242976 0.635575
O O12 0.500000 0.825726 0.250000
O O13 0.620706 0.018215 0.368957
#
# Coordination Sequence:
#
# PCOD8118135 Si02
#       6
#     4   4   4   4   4   4
#     4  11  21  35  60  86 107 142 192 237 275 323
#     4  10  19  36  59  85 108 142 188 236 272 323
#     4  10  22  39  56  80 115 154 184 221 282 338
#     4  10  22  39  56  79 117 153 183 222 279 345
#     4  10  20  37  56  83 113 143 182 233 283 327
#     4   9  20  35  60  81 112 144 183 230 280 328
#
# _framework density 18.673242999999999
#
# number of rings (size 3 to 8) (size 9 to 14) (size 15 to 20)
#    0.000    2.000    3.333    0.000    2.333    2.667 
#    3.000    2.500    0.000    0.000    0.000    0.000 
#    0.000    0.000    0.000    0.000    0.000    0.000 
#
# Total GULP energy -297619.894059 kJ/mol
# GULP energy per Si atom -12400.828919 kJ/mol
# Density = 1.863074 g / cm^3
# Si number density = 18.673243 Si / 1000 Ang^3
#
#
#
# Elastic Constant Matrix: (Units=GPa)
#
#
# Indices 1 2 3 4 5 6 
#
# 1 92.8216 35.5545 23.2441 0.0000 17.3130 0.0000
# 2 35.5545 70.3006 26.3155 0.0000 1.6259 0.0000
# 3 23.2441 26.3155 79.2081 0.0000 2.9356 0.0000
# 4 0.0000 0.0000 0.0000 17.8752 0.0000 -5.2543
# 5 17.3130 1.6259 2.9356 0.0000 24.7235 0.0000
# 6 0.0000 0.0000 0.0000 -5.2543 0.0000 24.1191
#
#
#
# Elastic Compliance Matrix: (Units=1/GPa)
#
#
# Indices 1 2 3 4 5 6 
#
# 1 0.015922 -0.007088 -0.001930 0.000000 -0.010454 0.000000
# 2 -0.007088 0.019405 -0.004523 0.000000 0.004225 0.000000
# 3 -0.001930 -0.004523 0.014698 0.000000 -0.000096 0.000000
# 4 0.000000 0.000000 0.000000 0.059771 0.000000 0.013021
# 5 -0.010454 0.004225 -0.000096 0.000000 0.047501 0.000000
# 6 0.000000 0.000000 0.000000 0.013021 0.000000 0.044297
#
#
# Mechanical properties :
#
#
# Convention : Reuss Voigt Hill
#
# Bulk Modulus (GPa) = 43.58962 45.83982 44.71472
# Shear Modulus (GPa) = 21.15738 23.82465 22.49102
#
# Velocity S-wave (km/s) = 3.36971 3.57581 3.47429
# Velocity P-wave (km/s) = 6.20757 6.45370 6.33183
#
# Compressibility (1/GPa) = 0.02294124
#
# Stress axis : x y z
#
# Youngs Moduli (GPa) = 62.80786 51.53307 68.03768
#
# Poissons Ratio (x) = 0.36527 0.13131
# Poissons Ratio (y) = 0.44519 0.30777
# Poissons Ratio (z) = 0.12122 0.23311
#
# Static dielectric constant tensor:
#      x y z
#    x 3.609010 0.000000 0.146910 
#    y 0.000000 3.286420 0.000000 
#    z 0.146910 0.000000 3.399810 
# 
# 
# High freq. dielectric constant tensor:
#      x y z
#    x 1.740920 0.000000 0.003410 
#    y 0.000000 1.700480 0.000000 
#    z 0.003410 0.000000 1.727700 
# 
# From -- ./inp_files/52862.got.cif
#   From: 2010.06.25/outbox.cif.g09.slc.cpg/sg13_27_cif.got.tgz:52862.got - 2010.06.28 04:50:58.
