data_PCOD8118038
_publ_section_title
;
Structure prediction by ZEFSAII (Michael W. Deem and Ramdas Pophale) SiO2 
 PCOD8118038
Probable space group: P 2/C
;
_chemical_formula_sum "Si O2"
_cell_formula_units_Z 24
_cell_length_a 10.519259
_cell_length_b 8.330547
_cell_length_c 32.154677
_cell_angle_alpha 90.000000
_cell_angle_beta 153.930664
_cell_angle_gamma 90.000000
_cell_volume 1238.285197
_symmetry_space_group_name_H-M "P 2/C"
_symmetry_group_IT_number 13
_symmetry_cell_setting 'monoclinic'
loop_
_space_group_symop_operation_xyz
x,y,z
-x,y,1/2-z
-x,-y,-z
x,-y,1/2+z
loop_
_atom_site_type_symbol
_atom_site_label
_atom_site_fract_x
_atom_site_fract_y
_atom_site_fract_z
Si Si1 0.913359 0.799564 0.769635
Si Si2 0.780760 0.400324 0.069492
Si Si3 0.308061 0.620046 0.229009
Si Si4 0.798653 0.832879 0.226879
Si Si5 0.740983 0.676085 0.466295
Si Si6 0.355621 0.385737 0.116582
O O1 0.582302 0.756072 0.679332
O O2 0.000000 0.731792 0.750000
O O3 0.126127 0.722541 0.866540
O O4 0.919415 0.991138 0.771942
O O5 0.040116 0.518811 0.132936
O O6 0.500000 0.500000 0.000000
O O7 0.718656 0.300260 0.009333
O O8 0.500000 0.710509 0.250000
O O9 0.162744 0.740381 0.218704
O O10 0.549301 0.503916 0.318981
O O11 0.466284 0.812919 0.114498
O O12 0.000000 0.754526 0.250000
O O13 0.653826 0.493026 0.428281
O O14 0.058789 0.704093 0.540722
#
# Coordination Sequence:
#
# PCOD8118038 Si02
#       6
#     4   4   4   4   4   4
#     4  10  22  40  56  81 121 160 190 233 302 357
#     4  11  21  35  63  91 111 148 204 252 285 341
#     4  10  19  37  58  87 120 153 192 246 301 343
#     4  10  22  40  57  79 122 164 190 231 303 366
#     4  10  19  35  59  87 109 146 198 246 286 346
#     4   9  19  35  60  81 116 148 192 245 294 342
#
# _framework density 19.381641999999999
#
# number of rings (size 3 to 8) (size 9 to 14) (size 15 to 20)
#    0.000    2.000    1.667    2.000    0.000    5.333 
#    3.000    9.167    0.000    0.000    0.000    0.000 
#    0.000    0.000    0.000    0.000    0.000    0.000 
#
# Total GULP energy -297473.144777 kJ/mol
# GULP energy per Si atom -12394.714366 kJ/mol
# Density = 1.933753 g / cm^3
# Si number density = 19.381642 Si / 1000 Ang^3
#
#
#
# Elastic Constant Matrix: (Units=GPa)
#
#
# Indices 1 2 3 4 5 6 
#
# 1 123.5790 38.0723 28.7623 0.0000 4.7844 0.0000
# 2 38.0723 57.9632 27.8794 0.0000 5.9981 0.0000
# 3 28.7623 27.8794 98.7423 0.0000 5.4144 0.0000
# 4 0.0000 0.0000 0.0000 26.0233 0.0000 0.4631
# 5 4.7844 5.9981 5.4144 0.0000 32.2132 0.0000
# 6 0.0000 0.0000 0.0000 0.4631 0.0000 24.4255
#
#
#
# Elastic Compliance Matrix: (Units=1/GPa)
#
#
# Indices 1 2 3 4 5 6 
#
# 1 0.010279 -0.006131 -0.001254 0.000000 -0.000174 0.000000
# 2 -0.006131 0.023873 -0.004805 0.000000 -0.002727 0.000000
# 3 -0.001254 -0.004805 0.011900 0.000000 -0.000919 0.000000
# 4 0.000000 0.000000 0.000000 0.038440 0.000000 -0.000729
# 5 -0.000174 -0.002727 -0.000919 0.000000 0.031731 0.000000
# 6 0.000000 0.000000 0.000000 -0.000729 0.000000 0.040955
#
#
# Mechanical properties :
#
#
# Convention : Reuss Voigt Hill
#
# Bulk Modulus (GPa) = 46.14109 52.19028 49.16568
# Shear Modulus (GPa) = 26.48578 28.90376 27.69477
#
# Velocity S-wave (km/s) = 3.70068 3.86592 3.78420
# Velocity P-wave (km/s) = 6.48987 6.84932 6.67202
#
# Compressibility (1/GPa) = 0.02167266
#
# Stress axis : x y z
#
# Youngs Moduli (GPa) = 97.28289 41.88913 84.03634
#
# Poissons Ratio (x) = 0.25681 0.10535
# Poissons Ratio (y) = 0.59642 0.40379
# Poissons Ratio (z) = 0.12196 0.20128
#
# Static dielectric constant tensor:
#      x y z
#    x 3.725860 0.000000 -0.009700 
#    y 0.000000 3.146570 0.000000 
#    z -0.009700 0.000000 3.732800 
# 
# 
# High freq. dielectric constant tensor:
#      x y z
#    x 1.771470 0.000000 0.004650 
#    y 0.000000 1.717020 0.000000 
#    z 0.004650 0.000000 1.767740 
# 
# From -- ./inp_files/52885.got.cif
#   From: 2010.06.25/outbox.cif.g09.slc.cpg/sg13_27_cif.got.tgz:52885.got - 2010.06.28 04:50:58.
