data_PCOD8118114
_publ_section_title
;
Structure prediction by ZEFSAII (Michael W. Deem and Ramdas Pophale) SiO2 
 PCOD8118114
Probable space group: P 2/C
;
_chemical_formula_sum "Si O2"
_cell_formula_units_Z 12
_cell_length_a 7.095551
_cell_length_b 5.282230
_cell_length_c 17.994123
_cell_angle_alpha 90.000000
_cell_angle_beta 62.621261
_cell_angle_gamma 90.000000
_cell_volume 598.880651
_symmetry_space_group_name_H-M "P 2/C"
_symmetry_group_IT_number 13
_symmetry_cell_setting 'monoclinic'
loop_
_space_group_symop_operation_xyz
x,y,z
-x,y,1/2-z
-x,-y,-z
x,-y,1/2+z
loop_
_atom_site_type_symbol
_atom_site_label
_atom_site_fract_x
_atom_site_fract_y
_atom_site_fract_z
Si Si1 0.454300 0.312521 0.171999
Si Si2 0.227570 0.918498 0.986241
Si Si3 0.636311 0.180795 0.883065
O O1 0.500000 0.326970 0.250000
O O2 0.677684 0.295220 0.086536
O O3 0.329146 0.564342 0.170048
O O4 0.312071 0.063518 0.178610
O O5 0.390990 0.158133 0.956543
O O6 0.208942 0.811774 0.073598
O O7 0.000000 0.000000 0.000000
#
# Coordination Sequence:
#
# PCOD8118114 Si02
#       3
#     4   4   4
#     4  10  19  36  58  78 114 145 178 227 279 314
#     4   9  20  36  60  79 108 143 190 218 271 323
#     4   9  20  36  57  78 108 145 182 222 268 329
#
# _framework density 20.037382000000001
#
# number of rings (size 3 to 8) (size 9 to 14) (size 15 to 20)
#    2.000    0.667    0.000    2.000    0.000    1.333 
#    0.000    1.667    0.000    0.000    0.000    0.000 
#    0.000    0.000    0.000    0.000    0.000    0.000 
#
# Total GULP energy -148671.154385 kJ/mol
# GULP energy per Si atom -12389.262865 kJ/mol
# Density = 1.999178 g / cm^3
# Si number density = 20.037382 Si / 1000 Ang^3
#
#
#
# Elastic Constant Matrix: (Units=GPa)
#
#
# Indices 1 2 3 4 5 6 
#
# 1 81.5106 23.1866 32.8725 0.0000 37.2886 0.0000
# 2 23.1866 163.2127 74.2069 0.0000 25.4418 0.0000
# 3 32.8725 74.2069 173.9562 0.0000 57.9488 0.0000
# 4 0.0000 0.0000 0.0000 20.5965 0.0000 4.2303
# 5 37.2886 25.4418 57.9488 0.0000 33.3038 0.0000
# 6 0.0000 0.0000 0.0000 4.2303 0.0000 7.1897
#
#
#
# Elastic Compliance Matrix: (Units=1/GPa)
#
#
# Indices 1 2 3 4 5 6 
#
# 1 0.039549 -0.002347 0.018273 0.000000 -0.074283 0.000000
# 2 -0.002347 0.007743 -0.004197 0.000000 0.004017 0.000000
# 3 0.018273 -0.004197 0.023393 0.000000 -0.057956 0.000000
# 4 0.000000 0.000000 0.000000 0.055226 0.000000 -0.032494
# 5 -0.074283 0.004017 -0.057956 0.000000 0.210973 0.000000
# 6 0.000000 0.000000 0.000000 -0.032494 0.000000 0.158206
#
#
# Mechanical properties :
#
#
# Convention : Reuss Voigt Hill
#
# Bulk Modulus (GPa) = 10.62239 75.46796 43.04517
# Shear Modulus (GPa) = 9.94013 31.44558 20.69285
#
# Velocity S-wave (km/s) = 2.22970 3.96579 3.21707
# Velocity P-wave (km/s) = 3.45565 7.66260 5.94378
#
# Compressibility (1/GPa) = 0.09414076
#
# Stress axis : x y z
#
# Youngs Moduli (GPa) = 25.28526 129.15367 42.74864
#
# Poissons Ratio (x) = 0.30316 -0.78115
# Poissons Ratio (y) = 0.05935 0.17943
# Poissons Ratio (z) = -0.46204 0.54211
#
# Static dielectric constant tensor:
#      x y z
#    x 3.067170 0.000000 0.224580 
#    y 0.000000 3.542310 0.000000 
#    z 0.224580 0.000000 3.579330 
# 
# 
# High freq. dielectric constant tensor:
#      x y z
#    x 1.732040 0.000000 0.030980 
#    y 0.000000 1.776990 0.000000 
#    z 0.030980 0.000000 1.785860 
# 
# From -- ./inp_files/44767.got.cif
#   From: 2010.06.25/outbox.cif.g09.slc.cpg/sg13_23_cif.got.tgz:44767.got - 2010.06.28 04:50:58.
