data_PCOD8118206
_publ_section_title
;
Structure prediction by ZEFSAII (Michael W. Deem and Ramdas Pophale) SiO2 
 PCOD8118206
Probable space group: P 2/C
;
_chemical_formula_sum "Si O2"
_cell_formula_units_Z 28
_cell_length_a 24.411271
_cell_length_b 9.396466
_cell_length_c 9.577173
_cell_angle_alpha 90.000000
_cell_angle_beta 137.776279
_cell_angle_gamma 90.000000
_cell_volume 1476.315376
_symmetry_space_group_name_H-M "P 2/C"
_symmetry_group_IT_number 13
_symmetry_cell_setting 'monoclinic'
loop_
_space_group_symop_operation_xyz
x,y,z
-x,y,1/2-z
-x,-y,-z
x,-y,1/2+z
loop_
_atom_site_type_symbol
_atom_site_label
_atom_site_fract_x
_atom_site_fract_y
_atom_site_fract_z
Si Si1 0.639055 0.878205 0.625001
Si Si2 0.038404 0.694176 0.683606
Si Si3 0.175093 0.137827 0.034923
Si Si4 0.905149 0.042987 0.341273
Si Si5 0.068329 0.382689 0.769720
Si Si6 0.422992 0.918503 0.290693
Si Si7 0.509045 0.356426 0.927163
O O1 0.730412 0.847306 0.748162
O O2 0.588410 0.939220 0.397098
O O3 0.593913 0.735657 0.601345
O O4 0.649335 0.006417 0.758600
O O5 0.104185 0.799403 0.740844
O O6 0.086958 0.550140 0.811527
O O7 0.000000 0.763565 0.750000
O O8 0.961201 0.662595 0.439083
O O9 0.123443 0.050850 0.052713
O O10 0.149162 0.301597 0.968679
O O11 0.156333 0.062111 0.852742
O O12 0.000000 0.000000 0.500000
O O13 0.000000 0.336242 0.750000
O O14 0.435340 0.748709 0.337213
O O15 0.500000 0.000000 0.500000
O O16 0.500000 0.403974 0.750000
O O17 0.500000 0.500000 0.000000
#
# Coordination Sequence:
#
# PCOD8118206 Si02
#       7
#     4   4   4   4   4   4   4
#     4  10  21  37  56  89 116 151 184 238 297 338
#     4  10  20  34  58  79 101 141 214 241 274 344
#     4  12  23  37  55  81 122 147 189 253 300 332
#     4  12  22  37  57  82 109 158 201 245 291 350
#     4  10  19  37  56  76 106 153 197 240 289 341
#     4   9  18  37  62  84 113 147 190 225 277 361
#     4   9  19  36  62  87 113 147 187 224 269 351
#
# _framework density 18.966137
#
# number of rings (size 3 to 8) (size 9 to 14) (size 15 to 20)
#    0.000    1.714    2.857    3.429    0.000    2.286 
#    0.000    4.286    0.000    0.000    0.000    0.000 
#    0.000    0.000    0.000    0.000    0.000    0.000 
#
# Total GULP energy -346948.589539 kJ/mol
# GULP energy per Si atom -12391.021055 kJ/mol
# Density = 1.892297 g / cm^3
# Si number density = 18.966137 Si / 1000 Ang^3
#
#
#
# Elastic Constant Matrix: (Units=GPa)
#
#
# Indices 1 2 3 4 5 6 
#
# 1 88.2004 48.8402 37.2891 0.0000 -0.4671 0.0000
# 2 48.8402 122.6186 37.7817 0.0000 -6.6666 0.0000
# 3 37.2891 37.7817 75.3207 0.0000 -2.1708 0.0000
# 4 0.0000 0.0000 0.0000 28.9627 0.0000 -6.5336
# 5 -0.4671 -6.6666 -2.1708 0.0000 37.1800 0.0000
# 6 0.0000 0.0000 0.0000 -6.5336 0.0000 28.2836
#
#
#
# Elastic Compliance Matrix: (Units=1/GPa)
#
#
# Indices 1 2 3 4 5 6 
#
# 1 0.016435 -0.004831 -0.005742 0.000000 -0.000995 0.000000
# 2 -0.004831 0.011145 -0.003148 0.000000 0.001754 0.000000
# 3 -0.005742 -0.003148 0.017710 0.000000 0.000397 0.000000
# 4 0.000000 0.000000 0.000000 0.036425 0.000000 0.008414
# 5 -0.000995 0.001754 0.000397 0.000000 0.027221 0.000000
# 6 0.000000 0.000000 0.000000 0.008414 0.000000 0.037300
#
#
# Mechanical properties :
#
#
# Convention : Reuss Voigt Hill
#
# Bulk Modulus (GPa) = 56.02990 59.32909 57.67949
# Shear Modulus (GPa) = 27.83517 29.70050 28.76784
#
# Velocity S-wave (km/s) = 3.83512 3.96153 3.89884
# Velocity P-wave (km/s) = 7.01548 7.23011 7.12361
#
# Compressibility (1/GPa) = 0.01784761
#
# Stress axis : x y z
#
# Youngs Moduli (GPa) = 60.84439 89.72573 56.46574
#
# Poissons Ratio (x) = 0.43349 0.32422
# Poissons Ratio (y) = 0.29395 0.17776
# Poissons Ratio (z) = 0.34937 0.28247
#
# Static dielectric constant tensor:
#      x y z
#    x 3.882720 0.000000 -0.299080 
#    y 0.000000 3.754020 0.000000 
#    z -0.299080 0.000000 3.440030 
# 
# 
# High freq. dielectric constant tensor:
#      x y z
#    x 1.724910 0.000000 -0.024660 
#    y 0.000000 1.741500 0.000000 
#    z -0.024660 0.000000 1.728110 
# 
# From -- ./inp_files/24582.got.cif
#   From: 2010.06.25/outbox.cif.g09.slc.cpg/sg13_13_cif.got.tgz:24582.got - 2010.06.28 04:50:58.
