data_PCOD8118979
_publ_section_title
;
Structure prediction by ZEFSAII (Michael W. Deem and Ramdas Pophale) SiO2 
 PCOD8118979
Probable space group: P 2/C
;
_chemical_formula_sum "Si O2"
_cell_formula_units_Z 26
_cell_length_a 9.087948
_cell_length_b 11.261857
_cell_length_c 19.838728
_cell_angle_alpha 90.000000
_cell_angle_beta 137.783132
_cell_angle_gamma 90.000000
_cell_volume 1364.329565
_symmetry_space_group_name_H-M "P 2/C"
_symmetry_group_IT_number 13
_symmetry_cell_setting 'monoclinic'
loop_
_space_group_symop_operation_xyz
x,y,z
-x,y,1/2-z
-x,-y,-z
x,-y,1/2+z
loop_
_atom_site_type_symbol
_atom_site_label
_atom_site_fract_x
_atom_site_fract_y
_atom_site_fract_z
Si Si1 0.244045 0.105223 0.355403
Si Si2 0.333830 0.971311 0.032830
Si Si3 0.902156 0.207821 0.571640
Si Si4 0.448756 0.398463 0.890429
Si Si5 0.466835 0.656337 0.931762
Si Si6 0.000000 0.263364 0.750000
Si Si7 0.675100 0.231747 0.864970
O O1 0.276719 0.101589 0.446493
O O2 0.303714 0.239101 0.352416
O O3 0.000000 0.072804 0.250000
O O4 0.410576 0.009773 0.379265
O O5 0.289384 0.885397 0.079243
O O6 0.176897 0.084445 0.986878
O O7 0.716565 0.306810 0.504482
O O8 0.959933 0.182595 0.670179
O O9 0.099652 0.262696 0.596047
O O10 0.422232 0.540045 0.871518
O O11 0.207811 0.344633 0.804928
O O12 0.599019 0.345266 0.882181
O O13 0.570387 0.371613 0.002003
O O14 0.500000 0.196924 0.750000
#
# Coordination Sequence:
#
# PCOD8118979 Si02
#       7
#     4   4   4   4   4   2   4
#     4  10  21  36  65  89 118 159 202 251 301 358
#     4  10  23  39  57  93 125 156 204 246 302 365
#     4  10  22  38  62  85 125 159 196 251 304 354
#     4  10  20  37  61  86 117 152 202 246 299 351
#     4   9  20  40  59  86 115 153 199 251 300 354
#     4  10  20  36  60  92 114 156 206 246 288 364
#     4  12  23  38  60  92 122 162 202 248 301 365
#
# _framework density 19.056978999999998
#
# number of rings (size 3 to 8) (size 9 to 14) (size 15 to 20)
#    0.000    1.846    3.077    0.462    6.462    0.615 
#    0.000    0.000    3.385    0.000    0.000    0.000 
#    0.000    0.000    0.000    0.000    0.000    0.000 
#
# Total GULP energy -322442.562184 kJ/mol
# GULP energy per Si atom -12401.637007 kJ/mol
# Density = 1.901360 g / cm^3
# Si number density = 19.056979 Si / 1000 Ang^3
#
#
#
# Elastic Constant Matrix: (Units=GPa)
#
#
# Indices 1 2 3 4 5 6 
#
# 1 120.3151 33.3329 35.8633 0.0000 10.0024 0.0000
# 2 33.3329 90.2919 35.4554 0.0000 -4.7334 0.0000
# 3 35.8633 35.4554 87.3651 0.0000 12.9413 0.0000
# 4 0.0000 0.0000 0.0000 14.8348 0.0000 4.2579
# 5 10.0024 -4.7334 12.9413 0.0000 30.1736 0.0000
# 6 0.0000 0.0000 0.0000 4.2579 0.0000 -68.0558
#
#
#
# Elastic Compliance Matrix: (Units=1/GPa)
#
#
# Indices 1 2 3 4 5 6 
#
# 1 0.010096 -0.002851 -0.002590 0.000000 -0.002683 0.000000
# 2 -0.002851 0.014622 -0.005599 0.000000 0.005640 0.000000
# 3 -0.002590 -0.005599 0.015788 0.000000 -0.006791 0.000000
# 4 0.000000 0.000000 0.000000 0.066220 0.000000 0.004143
# 5 -0.002683 0.005640 -0.006791 0.000000 0.037829 0.000000
# 6 0.000000 0.000000 0.000000 0.004143 0.000000 -0.014435
#
#
# Mechanical properties :
#
#
# Convention : Reuss Voigt Hill
#
# Bulk Modulus (GPa) = 54.27211 56.36392 55.31801
# Shear Modulus (GPa) = 31.57711 8.27856 19.92783
#
# Velocity S-wave (km/s) = 4.07502 2.08651 3.23723
# Velocity P-wave (km/s) = 7.11911 5.95361 6.56229
#
# Compressibility (1/GPa) = 0.01842567
#
# Stress axis : x y z
#
# Youngs Moduli (GPa) = 99.04451 68.38988 63.34005
#
# Poissons Ratio (x) = 0.19497 0.16406
# Poissons Ratio (y) = 0.28236 0.35466
# Poissons Ratio (z) = 0.25654 0.38294
#
# Static dielectric constant tensor:
#      x y z
#    x 3.481720 0.000000 0.044900 
#    y 0.000000 3.490860 0.000000 
#    z 0.044900 0.000000 3.453910 
# 
# 
# High freq. dielectric constant tensor:
#      x y z
#    x 1.736090 0.000000 0.010410 
#    y 0.000000 1.743520 0.000000 
#    z 0.010410 0.000000 1.734980 
# 
# From -- ./inp_files/76357.got.cif
#   From: 2010.06.25/outbox.cif.g09.slc.cpg/sg13_39_cif.got.tgz:76357.got - 2010.06.28 04:50:58.
