data_PCOD8118215
_publ_section_title
;
Structure prediction by ZEFSAII (Michael W. Deem and Ramdas Pophale) SiO2 
 PCOD8118215
Probable space group: P 2/C
;
_chemical_formula_sum "Si O2"
_cell_formula_units_Z 32
_cell_length_a 8.836713
_cell_length_b 15.370523
_cell_length_c 21.283516
_cell_angle_alpha 90.000000
_cell_angle_beta 34.853433
_cell_angle_gamma 90.000000
_cell_volume 1652.049774
_symmetry_space_group_name_H-M "P 2/C"
_symmetry_group_IT_number 13
_symmetry_cell_setting 'monoclinic'
loop_
_space_group_symop_operation_xyz
x,y,z
-x,y,1/2-z
-x,-y,-z
x,-y,1/2+z
loop_
_atom_site_type_symbol
_atom_site_label
_atom_site_fract_x
_atom_site_fract_y
_atom_site_fract_z
Si Si1 0.157917 0.087598 0.818137
Si Si2 0.666797 0.399922 0.497375
Si Si3 0.101760 0.559275 0.148162
Si Si4 0.562276 0.093378 0.007941
Si Si5 0.198405 0.085379 0.238783
Si Si6 0.644214 0.175720 0.622900
Si Si7 0.561474 0.368604 0.795176
Si Si8 0.156692 0.208983 0.075098
O O1 0.369643 0.127973 0.697159
O O2 0.222958 0.121242 0.866020
O O3 0.183850 0.983412 0.801013
O O4 0.867425 0.118483 0.898391
O O5 0.860663 0.476857 0.410116
O O6 0.387522 0.393980 0.555192
O O7 0.598472 0.414718 0.594019
O O8 0.828117 0.312533 0.428333
O O9 0.000000 0.524129 0.250000
O O10 0.880165 0.626434 0.197421
O O11 0.485712 0.093534 0.108581
O O12 0.407905 0.168815 0.024764
O O13 0.500000 0.000000 0.000000
O O14 0.000000 0.057038 0.250000
O O15 0.111049 0.177530 0.299171
O O16 0.552425 0.271758 0.673299
O O17 0.844036 0.175815 0.496594
O O18 0.500000 0.416833 0.750000
#
# Coordination Sequence:
#
# PCOD8118215 Si02
#       8
#     4   4   4   4   4   4   4   4
#     4  11  21  37  56  77 114 147 194 238 283 339
#     4   9  20  36  58  86 113 155 187 233 299 340
#     4   9  19  36  59  88 116 145 190 239 288 352
#     4  11  21  37  57  82 110 151 196 242 285 343
#     4  10  21  37  53  81 111 146 194 236 287 337
#     4  10  23  37  54  86 112 151 189 242 289 330
#     4  10  19  37  57  84 120 143 191 239 284 346
#     4  10  21  36  57  81 116 149 190 239 285 346
#
# _framework density 19.369876000000001
#
# number of rings (size 3 to 8) (size 9 to 14) (size 15 to 20)
#    0.000    2.000    3.750    0.750    1.750    2.500 
#    2.250    0.000    0.000    0.000    0.000    0.000 
#    0.000    0.000    0.000    0.000    0.000    0.000 
#
# Total GULP energy -396547.533677 kJ/mol
# GULP energy per Si atom -12392.110427 kJ/mol
# Density = 1.932579 g / cm^3
# Si number density = 19.369876 Si / 1000 Ang^3
#
#
#
# Elastic Constant Matrix: (Units=GPa)
#
#
# Indices 1 2 3 4 5 6 
#
# 1 74.5630 30.0031 28.6966 0.0000 15.7538 0.0000
# 2 30.0031 78.0730 39.1224 0.0000 19.6060 0.0000
# 3 28.6966 39.1224 89.6978 0.0000 14.8229 0.0000
# 4 0.0000 0.0000 0.0000 32.8648 0.0000 2.4356
# 5 15.7538 19.6060 14.8229 0.0000 27.7415 0.0000
# 6 0.0000 0.0000 0.0000 2.4356 0.0000 23.2901
#
#
#
# Elastic Compliance Matrix: (Units=1/GPa)
#
#
# Indices 1 2 3 4 5 6 
#
# 1 0.017232 -0.003742 -0.002962 0.000000 -0.005558 0.000000
# 2 -0.003742 0.019269 -0.005822 0.000000 -0.008382 0.000000
# 3 -0.002962 -0.005822 0.015002 0.000000 -0.002219 0.000000
# 4 0.000000 0.000000 0.000000 0.030665 0.000000 -0.003207
# 5 -0.005558 -0.008382 -0.002219 0.000000 0.046313 0.000000
# 6 0.000000 0.000000 0.000000 -0.003207 0.000000 0.043272
#
#
# Mechanical properties :
#
#
# Convention : Reuss Voigt Hill
#
# Bulk Modulus (GPa) = 37.80633 48.66421 43.23527
# Shear Modulus (GPa) = 24.31641 26.41339 25.36490
#
# Velocity S-wave (km/s) = 3.54697 3.69675 3.62263
# Velocity P-wave (km/s) = 6.02786 6.58782 6.31405
#
# Compressibility (1/GPa) = 0.02645060
#
# Stress axis : x y z
#
# Youngs Moduli (GPa) = 58.03308 51.89717 66.65650
#
# Poissons Ratio (x) = 0.19419 0.19746
# Poissons Ratio (y) = 0.21715 0.38807
# Poissons Ratio (z) = 0.17191 0.30214
#
# Static dielectric constant tensor:
#      x y z
#    x 3.523560 0.000000 0.114540 
#    y 0.000000 3.353230 0.000000 
#    z 0.114540 0.000000 3.993940 
# 
# 
# High freq. dielectric constant tensor:
#      x y z
#    x 1.736200 0.000000 0.011490 
#    y 0.000000 1.735620 0.000000 
#    z 0.011490 0.000000 1.768100 
# 
# From -- ./inp_files/76604.got.cif
#   From: 2010.06.25/outbox.cif.g09.slc.cpg/sg13_39_cif.got.tgz:76604.got - 2010.06.28 04:50:58.
