data_PCOD8118728
_publ_section_title
;
Structure prediction by ZEFSAII (Michael W. Deem and Ramdas Pophale) SiO2 
 PCOD8118728
Probable space group: P 2/C
;
_chemical_formula_sum "Si O2"
_cell_formula_units_Z 24
_cell_length_a 16.977445
_cell_length_b 9.680175
_cell_length_c 23.802087
_cell_angle_alpha 90.000000
_cell_angle_beta 19.357030
_cell_angle_gamma 90.000000
_cell_volume 1296.562293
_symmetry_space_group_name_H-M "P 2/C"
_symmetry_group_IT_number 13
_symmetry_cell_setting 'monoclinic'
loop_
_space_group_symop_operation_xyz
x,y,z
-x,y,1/2-z
-x,-y,-z
x,-y,1/2+z
loop_
_atom_site_type_symbol
_atom_site_label
_atom_site_fract_x
_atom_site_fract_y
_atom_site_fract_z
Si Si1 0.807069 0.619031 0.757748
Si Si2 0.354366 0.241105 0.402877
Si Si3 0.793019 0.835923 0.673154
Si Si4 0.072520 0.876672 0.374488
Si Si5 0.185937 0.483723 0.076815
Si Si6 0.443635 0.343531 0.595492
O O1 0.818997 0.695458 0.690594
O O2 0.753734 0.457254 0.785863
O O3 0.063364 0.621081 0.615205
O O4 0.605368 0.688383 0.932320
O O5 0.500000 0.287780 0.250000
O O6 0.525848 0.150717 0.328054
O O7 0.276701 0.377887 0.487030
O O8 0.127571 0.147366 0.538680
O O9 0.981403 0.825519 0.496154
O O10 0.856754 0.962660 0.671071
O O11 0.313632 0.797097 0.198444
O O12 0.000000 0.528436 0.250000
O O13 0.403731 0.398304 0.955177
#
# Coordination Sequence:
#
# PCOD8118728 Si02
#       6
#     4   4   4   4   4   4
#     4  10  20  35  57  83 110 142 182 227 273 323
#     4  10  20  35  56  80 108 146 186 223 274 330
#     4  10  22  38  56  81 114 148 184 227 274 327
#     4  10  22  38  56  81 114 148 184 227 274 327
#     4  10  20  35  56  84 114 142 180 229 276 322
#     4  10  20  35  57  83 110 142 182 227 273 323
#
# _framework density 18.510487999999999
#
# number of rings (size 3 to 8) (size 9 to 14) (size 15 to 20)
#    0.000    2.000    3.333    0.000    0.000    4.000 
#    0.000    1.667    0.000    0.000    0.000    0.000 
#    0.000    0.000    0.000    0.000    0.000    0.000 
#
# Total GULP energy -297646.468001 kJ/mol
# GULP energy per Si atom -12401.936167 kJ/mol
# Density = 1.846836 g / cm^3
# Si number density = 18.510488 Si / 1000 Ang^3
#
#
#
# Elastic Constant Matrix: (Units=GPa)
#
#
# Indices 1 2 3 4 5 6 
#
# 1 88.2552 11.3789 15.1572 0.0000 -13.7351 0.0000
# 2 11.3789 39.7126 18.0062 0.0000 1.8777 0.0000
# 3 15.1572 18.0062 56.4537 0.0000 -9.9399 0.0000
# 4 0.0000 0.0000 0.0000 24.7073 0.0000 4.9481
# 5 -13.7351 1.8777 -9.9399 0.0000 24.2098 0.0000
# 6 0.0000 0.0000 0.0000 4.9481 0.0000 20.0385
#
#
#
# Elastic Compliance Matrix: (Units=1/GPa)
#
#
# Indices 1 2 3 4 5 6 
#
# 1 0.013115 -0.003607 -0.001090 0.000000 0.007273 0.000000
# 2 -0.003607 0.031448 -0.010619 0.000000 -0.008846 0.000000
# 3 -0.001090 -0.010619 0.023099 0.000000 0.009689 0.000000
# 4 0.000000 0.000000 0.000000 0.042580 0.000000 -0.010514
# 5 0.007273 -0.008846 0.009689 0.000000 0.050096 0.000000
# 6 0.000000 0.000000 0.000000 -0.010514 0.000000 0.052500
#
#
# Mechanical properties :
#
#
# Convention : Reuss Voigt Hill
#
# Bulk Modulus (GPa) = 27.00631 30.38955 28.69793
# Shear Modulus (GPa) = 19.54542 23.11639 21.33090
#
# Velocity S-wave (km/s) = 3.25300 3.53771 3.39834
# Velocity P-wave (km/s) = 5.36011 5.75676 5.56197
#
# Compressibility (1/GPa) = 0.03702838
#
# Stress axis : x y z
#
# Youngs Moduli (GPa) = 76.24878 31.79878 43.29119
#
# Poissons Ratio (x) = 0.11471 0.04719
# Poissons Ratio (y) = 0.27507 0.45972
# Poissons Ratio (z) = 0.08312 0.33768
#
# Static dielectric constant tensor:
#      x y z
#    x 3.680620 0.000000 -0.142120 
#    y 0.000000 3.108190 0.000000 
#    z -0.142120 0.000000 3.456600 
# 
# 
# High freq. dielectric constant tensor:
#      x y z
#    x 1.734820 0.000000 -0.009750 
#    y 0.000000 1.695340 0.000000 
#    z -0.009750 0.000000 1.720680 
# 
# From -- ./inp_files/46105.got.cif
#   From: 2010.06.25/outbox.cif.g09.slc.cpg/sg13_24_cif.got.tgz:46105.got - 2010.06.28 04:50:58.
