data_PCOD8118522
_publ_section_title
;
Structure prediction by ZEFSAII (Michael W. Deem and Ramdas Pophale) SiO2 
 PCOD8118522
Probable space group: P 2/C
;
_chemical_formula_sum "Si O2"
_cell_formula_units_Z 32
_cell_length_a 14.692206
_cell_length_b 17.197559
_cell_length_c 14.231468
_cell_angle_alpha 90.000000
_cell_angle_beta 29.302735
_cell_angle_gamma 90.000000
_cell_volume 1759.903480
_symmetry_space_group_name_H-M "P 2/C"
_symmetry_group_IT_number 13
_symmetry_cell_setting 'monoclinic'
loop_
_space_group_symop_operation_xyz
x,y,z
-x,y,1/2-z
-x,-y,-z
x,-y,1/2+z
loop_
_atom_site_type_symbol
_atom_site_label
_atom_site_fract_x
_atom_site_fract_y
_atom_site_fract_z
Si Si1 0.962755 0.632050 0.686973
Si Si2 0.715276 0.456932 0.537974
Si Si3 0.098437 0.272357 0.442604
Si Si4 0.433362 0.090342 0.415388
Si Si5 0.179568 0.099966 0.357311
Si Si6 0.286463 0.637878 0.936112
Si Si7 0.160968 0.771997 0.170942
Si Si8 0.072869 0.999161 0.285221
O O1 0.150766 0.580232 0.501718
O O2 0.000000 0.681937 0.750000
O O3 0.931039 0.688998 0.630858
O O4 0.785031 0.575356 0.872407
O O5 0.500000 0.435250 0.750000
O O6 0.751764 0.548267 0.510195
O O7 0.208938 0.192502 0.329712
O O8 0.210815 0.334349 0.403234
O O9 0.904577 0.244396 0.663705
O O10 0.500000 0.076841 0.250000
O O11 0.608464 0.071642 0.324420
O O12 0.347489 0.176979 0.502645
O O13 0.281185 0.029248 0.584290
O O14 0.055900 0.070320 0.557341
O O15 0.080102 0.070835 0.351565
O O16 0.500000 0.658027 0.750000
O O17 0.189503 0.686256 0.104761
O O18 0.000000 0.812494 0.250000
O O19 0.000000 0.028643 0.250000
#
# Coordination Sequence:
#
# PCOD8118522 Si02
#       8
#     4   4   4   4   4   4   4   4
#     4   8  21  38  57  80 115 155 198 234 283 339
#     4   8  18  40  57  78 115 150 194 247 280 337
#     4  11  21  38  59  86 118 159 188 238 297 341
#     4  12  20  37  63  88 120 153 186 241 299 341
#     4  11  24  39  61  86 121 147 202 239 280 353
#     4  10  20  35  56  89 118 145 191 245 298 352
#     4  10  20  32  55  89 121 149 187 236 297 351
#     4  11  23  42  60  88 115 159 190 236 294 342
#
# _framework density 18.182815999999999
#
# number of rings (size 3 to 8) (size 9 to 14) (size 15 to 20)
#    0.750    1.000    2.500    3.375    5.250    1.000 
#    4.500    1.250    0.000    0.750    0.000    0.000 
#    0.000    0.000    0.000    0.000    0.000    0.000 
#
# Total GULP energy -396451.460492 kJ/mol
# GULP energy per Si atom -12389.108140 kJ/mol
# Density = 1.814143 g / cm^3
# Si number density = 18.182816 Si / 1000 Ang^3
#
#
#
# Elastic Constant Matrix: (Units=GPa)
#
#
# Indices 1 2 3 4 5 6 
#
# 1 101.7717 31.6739 41.2221 0.0000 11.5879 0.0000
# 2 31.6739 53.4073 29.7429 0.0000 8.2342 0.0000
# 3 41.2221 29.7429 108.7122 0.0000 -6.4790 0.0000
# 4 0.0000 0.0000 0.0000 23.0554 0.0000 5.0191
# 5 11.5879 8.2342 -6.4790 0.0000 31.9757 0.0000
# 6 0.0000 0.0000 0.0000 5.0191 0.0000 28.0552
#
#
#
# Elastic Compliance Matrix: (Units=1/GPa)
#
#
# Indices 1 2 3 4 5 6 
#
# 1 0.013540 -0.005129 -0.003993 0.000000 -0.004395 0.000000
# 2 -0.005129 0.025696 -0.005435 0.000000 -0.005860 0.000000
# 3 -0.003993 -0.005435 0.012520 0.000000 0.005383 0.000000
# 4 0.000000 0.000000 0.000000 0.045132 0.000000 -0.008074
# 5 -0.004395 -0.005860 0.005383 0.000000 0.035466 0.000000
# 6 0.000000 0.000000 0.000000 -0.008074 0.000000 0.037089
#
#
# Mechanical properties :
#
#
# Convention : Reuss Voigt Hill
#
# Bulk Modulus (GPa) = 44.16288 52.12988 48.14638
# Shear Modulus (GPa) = 24.25980 27.36742 25.81361
#
# Velocity S-wave (km/s) = 3.65665 3.88380 3.77194
# Velocity P-wave (km/s) = 6.49378 6.98885 6.74586
#
# Compressibility (1/GPa) = 0.02264345
#
# Stress axis : x y z
#
# Youngs Moduli (GPa) = 73.85628 38.91710 79.86990
#
# Poissons Ratio (x) = 0.19959 0.31891
# Poissons Ratio (y) = 0.37878 0.43406
# Poissons Ratio (z) = 0.29490 0.21150
#
# Static dielectric constant tensor:
#      x y z
#    x 3.063370 0.000000 0.000230 
#    y 0.000000 3.152780 0.000000 
#    z 0.000230 0.000000 3.450940 
# 
# 
# High freq. dielectric constant tensor:
#      x y z
#    x 1.688630 0.000000 -0.005960 
#    y 0.000000 1.693500 0.000000 
#    z -0.005960 0.000000 1.718630 
# 
# From -- ./inp_files/53925.got.cif
#   From: 2010.06.25/outbox.cif.g09.slc.cpg/sg13_27_cif.got.tgz:53925.got - 2010.06.28 04:50:58.
