data_PCOD8118121
_publ_section_title
;
Structure prediction by ZEFSAII (Michael W. Deem and Ramdas Pophale) SiO2 
 PCOD8118121
Probable space group: P 2/C
;
_chemical_formula_sum "Si O2"
_cell_formula_units_Z 32
_cell_length_a 19.058287
_cell_length_b 10.482518
_cell_length_c 24.532206
_cell_angle_alpha 90.000000
_cell_angle_beta 159.697637
_cell_angle_gamma 90.000000
_cell_volume 1700.526603
_symmetry_space_group_name_H-M "P 2/C"
_symmetry_group_IT_number 13
_symmetry_cell_setting 'monoclinic'
loop_
_space_group_symop_operation_xyz
x,y,z
-x,y,1/2-z
-x,-y,-z
x,-y,1/2+z
loop_
_atom_site_type_symbol
_atom_site_label
_atom_site_fract_x
_atom_site_fract_y
_atom_site_fract_z
Si Si1 0.074776 0.003796 0.616324
Si Si2 0.942659 0.544262 0.269243
Si Si3 0.513405 0.907058 0.559863
Si Si4 0.265780 0.258610 0.808958
Si Si5 0.380150 0.658985 0.001638
Si Si6 0.771445 0.076640 0.083916
Si Si7 0.672362 0.603328 0.412475
Si Si8 0.283148 0.120186 0.578809
O O1 0.255583 0.899686 0.751261
O O2 0.892681 0.960676 0.521776
O O3 0.156917 0.140715 0.697854
O O4 0.000000 0.000000 0.500000
O O5 0.898250 0.658664 0.278531
O O6 0.000000 0.592981 0.250000
O O7 0.128249 0.479131 0.435227
O O8 0.755794 0.446801 0.127347
O O9 0.425276 0.775124 0.473508
O O10 0.500000 0.000000 0.500000
O O11 0.369351 0.959158 0.502466
O O12 0.393558 0.339553 0.858215
O O13 0.411608 0.632900 0.088357
O O14 0.270045 0.796224 0.909927
O O15 0.000000 0.028614 0.250000
O O16 0.722891 0.117812 0.989155
O O17 0.500000 0.531985 0.250000
O O18 0.727128 0.728803 0.415661
O O19 0.500000 0.058545 0.750000
#
# Coordination Sequence:
#
# PCOD8118121 Si02
#       8
#     4   4   4   4   4   4   4   4
#     4  11  23  39  58  84 126 155 186 242 298 355
#     4  10  22  40  59  86 116 156 196 243 295 343
#     4  10  20  35  55  82 119 152 188 236 296 347
#     4  11  23  37  59  84 121 155 193 240 295 358
#     4  10  19  36  58  86 115 148 196 253 285 337
#     4  11  18  31  57  85 110 142 197 241 282 336
#     4   9  20  37  63  84 114 148 198 249 288 341
#     4  10  21  34  58  85 110 150 194 237 288 349
#
# _framework density 18.817701
#
# number of rings (size 3 to 8) (size 9 to 14) (size 15 to 20)
#    0.000    1.750    2.500    4.500    5.250    1.500 
#    0.000    3.750    0.000    0.000    0.000    0.000 
#    0.000    0.000    0.000    0.000    0.000    0.000 
#
# Total GULP energy -396499.433014 kJ/mol
# GULP energy per Si atom -12390.607282 kJ/mol
# Density = 1.877487 g / cm^3
# Si number density = 18.817701 Si / 1000 Ang^3
#
#
#
# Elastic Constant Matrix: (Units=GPa)
#
#
# Indices 1 2 3 4 5 6 
#
# 1 80.4457 43.5169 49.3993 0.0000 15.3007 0.0000
# 2 43.5169 63.3907 41.0820 0.0000 3.7616 0.0000
# 3 49.3993 41.0820 148.0730 0.0000 1.2312 0.0000
# 4 0.0000 0.0000 0.0000 25.1375 0.0000 1.6532
# 5 15.3007 3.7616 1.2312 0.0000 40.0188 0.0000
# 6 0.0000 0.0000 0.0000 1.6532 0.0000 7.1481
#
#
#
# Elastic Compliance Matrix: (Units=1/GPa)
#
#
# Indices 1 2 3 4 5 6 
#
# 1 0.023435 -0.012936 -0.004166 0.000000 -0.007616 0.000000
# 2 -0.012936 0.026483 -0.003053 0.000000 0.002551 0.000000
# 3 -0.004166 -0.003053 0.008977 0.000000 0.001604 0.000000
# 4 0.000000 0.000000 0.000000 0.040396 0.000000 -0.009342
# 5 -0.007616 0.002551 0.001604 0.000000 0.027611 0.000000
# 6 0.000000 0.000000 0.000000 -0.009342 0.000000 0.142057
#
#
# Mechanical properties :
#
#
# Convention : Reuss Voigt Hill
#
# Bulk Modulus (GPa) = 53.80740 62.21174 58.00957
# Shear Modulus (GPa) = 15.84964 24.98831 20.41898
#
# Velocity S-wave (km/s) = 2.90534 3.64801 3.29765
# Velocity P-wave (km/s) = 6.31750 7.13274 6.73746
#
# Compressibility (1/GPa) = 0.01858480
#
# Stress axis : x y z
#
# Youngs Moduli (GPa) = 42.67064 37.76006 111.39633
#
# Poissons Ratio (x) = 0.48847 0.46407
# Poissons Ratio (y) = 0.55200 0.34010
# Poissons Ratio (z) = 0.17776 0.11528
#
# Static dielectric constant tensor:
#      x y z
#    x 3.724150 0.000000 -0.688340 
#    y 0.000000 3.810960 0.000000 
#    z -0.688340 0.000000 3.936660 
# 
# 
# High freq. dielectric constant tensor:
#      x y z
#    x 1.738080 0.000000 0.003170 
#    y 0.000000 1.700120 0.000000 
#    z 0.003170 0.000000 1.740800 
# 
# From -- ./inp_files/88198.got.cif
#   From: 2010.06.25/outbox.cif.g09.slc.cpg/sg13_45_cif.got.tgz:88198.got - 2010.06.28 04:50:58.
