data_PCOD8118976
_publ_section_title
;
Structure prediction by ZEFSAII (Michael W. Deem and Ramdas Pophale) SiO2 
 PCOD8118976
Probable space group: P 2/C
;
_chemical_formula_sum "Si O2"
_cell_formula_units_Z 28
_cell_length_a 11.844128
_cell_length_b 8.801031
_cell_length_c 15.254713
_cell_angle_alpha 90.000000
_cell_angle_beta 119.919236
_cell_angle_gamma 90.000000
_cell_volume 1378.237885
_symmetry_space_group_name_H-M "P 2/C"
_symmetry_group_IT_number 13
_symmetry_cell_setting 'monoclinic'
loop_
_space_group_symop_operation_xyz
x,y,z
-x,y,1/2-z
-x,-y,-z
x,-y,1/2+z
loop_
_atom_site_type_symbol
_atom_site_label
_atom_site_fract_x
_atom_site_fract_y
_atom_site_fract_z
Si Si1 0.272415 0.254765 0.753580
Si Si2 0.645828 0.011446 0.329248
Si Si3 0.471364 0.670846 0.469029
Si Si4 0.868821 0.907039 0.156768
Si Si5 0.271185 0.179111 0.478135
Si Si6 0.257901 0.266363 0.028368
Si Si7 0.145205 0.428153 0.545110
O O1 0.409470 0.316336 0.846422
O O2 0.180716 0.227834 0.800134
O O3 0.204923 0.373349 0.660938
O O4 0.286675 0.085796 0.720188
O O5 0.500000 0.049754 0.250000
O O6 0.714760 0.173980 0.371458
O O7 0.652030 0.913150 0.418989
O O8 0.500000 0.500000 0.500000
O O9 0.615255 0.739726 0.531315
O O10 0.378359 0.748445 0.506272
O O11 0.870072 0.817269 0.063740
O O12 0.000000 0.964943 0.250000
O O13 0.791669 0.064379 0.115847
O O14 0.161317 0.291641 0.479787
O O15 0.236734 0.439759 0.044076
O O16 0.000000 0.500000 0.500000
#
# Coordination Sequence:
#
# PCOD8118976 Si02
#       7
#     4   4   4   4   4   4   4
#     4  10  23  39  65  87 122 166 197 258 302 365
#     4  10  20  36  60  91 121 150 197 246 308 363
#     4  11  21  40  63  92 125 153 205 252 317 358
#     4  10  22  42  62  88 122 165 211 245 298 361
#     4  10  22  40  64  88 122 162 198 257 304 360
#     4  10  23  37  63  92 120 161 197 257 304 360
#     4  11  23  43  61  89 125 163 204 245 305 363
#
# _framework density 20.315795999999999
#
# number of rings (size 3 to 8) (size 9 to 14) (size 15 to 20)
#    0.000    1.714    2.857    0.857    2.000    4.000 
#    2.571    5.000    0.000    0.000    0.000    0.000 
#    0.000    0.000    0.000    0.000    0.000    0.000 
#
# Total GULP energy -346885.003207 kJ/mol
# GULP energy per Si atom -12388.750115 kJ/mol
# Density = 2.026956 g / cm^3
# Si number density = 20.315796 Si / 1000 Ang^3
#
#
#
# Elastic Constant Matrix: (Units=GPa)
#
#
# Indices 1 2 3 4 5 6 
#
# 1 71.1758 26.9005 39.1576 0.0000 9.2894 0.0000
# 2 26.9005 125.0706 61.6011 0.0000 6.5055 0.0000
# 3 39.1576 61.6011 128.4091 0.0000 19.6964 0.0000
# 4 0.0000 0.0000 0.0000 28.7426 0.0000 -5.3966
# 5 9.2894 6.5055 19.6964 0.0000 26.1018 0.0000
# 6 0.0000 0.0000 0.0000 -5.3966 0.0000 34.0324
#
#
#
# Elastic Compliance Matrix: (Units=1/GPa)
#
#
# Indices 1 2 3 4 5 6 
#
# 1 0.017241 -0.001546 -0.004109 0.000000 -0.002650 0.000000
# 2 -0.001546 0.010649 -0.004879 0.000000 0.001578 0.000000
# 3 -0.004109 -0.004879 0.012406 0.000000 -0.006683 0.000000
# 4 0.000000 0.000000 0.000000 0.035859 0.000000 0.005686
# 5 -0.002650 0.001578 -0.006683 0.000000 0.043905 0.000000
# 6 0.000000 0.000000 0.000000 0.005686 0.000000 0.030285
#
#
# Mechanical properties :
#
#
# Convention : Reuss Voigt Hill
#
# Bulk Modulus (GPa) = 52.01073 64.44154 58.22613
# Shear Modulus (GPa) = 28.11773 30.90846 29.51310
#
# Velocity S-wave (km/s) = 3.72430 3.90475 3.81559
# Velocity P-wave (km/s) = 6.64459 7.21929 6.93789
#
# Compressibility (1/GPa) = 0.01922680
#
# Stress axis : x y z
#
# Youngs Moduli (GPa) = 58.00243 93.90435 80.60314
#
# Poissons Ratio (x) = 0.14522 0.33121
# Poissons Ratio (y) = 0.08970 0.39327
# Poissons Ratio (z) = 0.23834 0.45817
#
# Static dielectric constant tensor:
#      x y z
#    x 3.703060 0.000000 0.083100 
#    y 0.000000 3.845930 0.000000 
#    z 0.083100 0.000000 4.109380 
# 
# 
# High freq. dielectric constant tensor:
#      x y z
#    x 1.775100 0.000000 0.002620 
#    y 0.000000 1.804320 0.000000 
#    z 0.002620 0.000000 1.800890 
# 
# From -- ./inp_files/50228.got.cif
#   From: 2010.06.25/outbox.cif.g09.slc.cpg/sg13_26_cif.got.tgz:50228.got - 2010.06.28 04:50:58.
