data_PCOD8118788
_publ_section_title
;
Structure prediction by ZEFSAII (Michael W. Deem and Ramdas Pophale) SiO2 
 PCOD8118788
Probable space group: P 2/C
;
_chemical_formula_sum "Si O2"
_cell_formula_units_Z 24
_cell_length_a 8.622503
_cell_length_b 7.005039
_cell_length_c 20.014459
_cell_angle_alpha 90.000000
_cell_angle_beta 86.284609
_cell_angle_gamma 90.000000
_cell_volume 1206.351940
_symmetry_space_group_name_H-M "P 2/C"
_symmetry_group_IT_number 13
_symmetry_cell_setting 'monoclinic'
loop_
_space_group_symop_operation_xyz
x,y,z
-x,y,1/2-z
-x,-y,-z
x,-y,1/2+z
loop_
_atom_site_type_symbol
_atom_site_label
_atom_site_fract_x
_atom_site_fract_y
_atom_site_fract_z
Si Si1 0.137849 0.986220 0.075462
Si Si2 0.884138 0.030039 0.693248
Si Si3 0.305896 0.294741 0.357138
Si Si4 0.483024 0.996802 0.081119
Si Si5 0.944142 0.302768 0.027525
Si Si6 0.389033 0.709890 0.314925
O O1 0.302167 0.003790 0.108240
O O2 0.988787 0.946062 0.124985
O O3 0.158358 0.812771 0.023100
O O4 0.100601 0.183879 0.038984
O O5 0.782819 0.221593 0.701482
O O6 0.000000 0.001633 0.750000
O O7 0.765347 0.850259 0.695881
O O8 0.161654 0.353038 0.406735
O O9 0.382995 0.481888 0.323207
O O10 0.439840 0.189675 0.394794
O O11 0.559080 0.813428 0.116855
O O12 0.500000 0.000000 0.000000
O O13 0.000000 0.500000 0.000000
O O14 0.500000 0.762074 0.250000
#
# Coordination Sequence:
#
# PCOD8118788 Si02
#       6
#     4   4   4   4   4   4
#     4  10  21  37  59  89 117 158 206 248 303 370
#     4  10  22  42  65  87 123 166 211 257 311 376
#     4  10  23  40  62  92 125 163 208 259 312 376
#     4  11  23  41  65  92 129 168 210 257 317 372
#     4  10  20  35  59  85 120 156 200 253 306 355
#     4  11  25  42  63  93 129 166 209 261 317 379
#
# _framework density 19.894693
#
# number of rings (size 3 to 8) (size 9 to 14) (size 15 to 20)
#    0.000    1.667    1.667    2.000    4.667    6.667 
#    0.000    3.333    0.000    0.000    0.000    0.000 
#    0.000    0.000    0.000    0.000    0.000    0.000 
#
# Total GULP energy -297551.045436 kJ/mol
# GULP energy per Si atom -12397.960227 kJ/mol
# Density = 1.984941 g / cm^3
# Si number density = 19.894693 Si / 1000 Ang^3
#
#
#
# Elastic Constant Matrix: (Units=GPa)
#
#
# Indices 1 2 3 4 5 6 
#
# 1 123.1594 47.2677 28.6318 0.0000 16.8951 0.0000
# 2 47.2677 122.4861 35.6200 0.0000 6.6296 0.0000
# 3 28.6318 35.6200 90.9318 0.0000 12.5389 0.0000
# 4 0.0000 0.0000 0.0000 24.4253 0.0000 -7.6916
# 5 16.8951 6.6296 12.5389 0.0000 36.5252 0.0000
# 6 0.0000 0.0000 0.0000 -7.6916 0.0000 19.9111
#
#
#
# Elastic Compliance Matrix: (Units=1/GPa)
#
#
# Indices 1 2 3 4 5 6 
#
# 1 0.010229 -0.003340 -0.001410 0.000000 -0.003641 0.000000
# 2 -0.003340 0.010312 -0.003089 0.000000 0.000734 0.000000
# 3 -0.001410 -0.003089 0.013104 0.000000 -0.003286 0.000000
# 4 0.000000 0.000000 0.000000 0.046611 0.000000 0.018006
# 5 -0.003641 0.000734 -0.003286 0.000000 0.030057 0.000000
# 6 0.000000 0.000000 0.000000 0.018006 0.000000 0.057179
#
#
# Mechanical properties :
#
#
# Convention : Reuss Voigt Hill
#
# Bulk Modulus (GPa) = 55.65933 62.17960 58.91946
# Shear Modulus (GPa) = 26.43271 31.17617 28.80444
#
# Velocity S-wave (km/s) = 3.64899 3.96290 3.80918
# Velocity P-wave (km/s) = 6.76692 7.22923 7.00189
#
# Compressibility (1/GPa) = 0.01796644
#
# Stress axis : x y z
#
# Youngs Moduli (GPa) = 97.76302 96.97731 76.31062
#
# Poissons Ratio (x) = 0.32392 0.10762
# Poissons Ratio (y) = 0.32654 0.23571
# Poissons Ratio (z) = 0.13787 0.29954
#
# Static dielectric constant tensor:
#      x y z
#    x 3.878270 0.000000 0.106600 
#    y 0.000000 3.625370 0.000000 
#    z 0.106600 0.000000 3.579350 
# 
# 
# High freq. dielectric constant tensor:
#      x y z
#    x 1.790400 0.000000 -0.004200 
#    y 0.000000 1.773240 0.000000 
#    z -0.004200 0.000000 1.772430 
# 
# From -- ./inp_files/84335.got.cif
#   From: 2010.06.25/outbox.cif.g09.slc.cpg/sg13_43_cif.got.tgz:84335.got - 2010.06.28 04:50:58.
