data_PCOD8118954
_publ_section_title
;
Structure prediction by ZEFSAII (Michael W. Deem and Ramdas Pophale) SiO2 
 PCOD8118954
Probable space group: P 2/C
;
_chemical_formula_sum "Si O2"
_cell_formula_units_Z 24
_cell_length_a 11.814700
_cell_length_b 13.092881
_cell_length_c 12.639533
_cell_angle_alpha 90.000000
_cell_angle_beta 144.090794
_cell_angle_gamma 90.000000
_cell_volume 1146.723775
_symmetry_space_group_name_H-M "P 2/C"
_symmetry_group_IT_number 13
_symmetry_cell_setting 'monoclinic'
loop_
_space_group_symop_operation_xyz
x,y,z
-x,y,1/2-z
-x,-y,-z
x,-y,1/2+z
loop_
_atom_site_type_symbol
_atom_site_label
_atom_site_fract_x
_atom_site_fract_y
_atom_site_fract_z
Si Si1 0.652890 0.784693 0.200670
Si Si2 0.799379 0.010134 0.905909
Si Si3 0.000000 0.918828 0.750000
Si Si4 0.975595 0.667614 0.017438
Si Si5 0.283715 0.173979 0.288460
Si Si6 0.879393 0.474655 0.058900
Si Si7 0.500000 0.625420 0.250000
O O1 0.683262 0.887469 0.290729
O O2 0.861294 0.746386 0.315021
O O3 0.573290 0.695921 0.212538
O O4 0.498216 0.803938 0.991993
O O5 0.679180 0.914041 0.771780
O O6 0.847698 0.011552 0.068466
O O7 0.000000 0.000000 0.000000
O O8 0.871143 0.851921 0.734692
O O9 0.902790 0.595926 0.057451
O O10 0.061698 0.593257 0.995273
O O11 0.795137 0.727914 0.832448
O O12 0.000000 0.438576 0.250000
O O13 0.658943 0.449888 0.918900
#
# Coordination Sequence:
#
# PCOD8118954 Si02
#       7
#     4   4   2   4   4   4   2
#     4  11  20  36  63  92 121 159 207 252 297 361
#     4  10  20  37  57  90 126 157 197 245 301 356
#     4  10  20  36  60  84 126 166 204 260 286 356
#     4  10  22  39  60  91 121 158 206 253 311 359
#     4  11  22  37  61  89 125 164 206 247 302 363
#     4  10  22  40  61  87 124 156 200 263 310 356
#     4  10  22  36  66  96 112 154 220 246 302 368
#
# _framework density 20.929192
#
# number of rings (size 3 to 8) (size 9 to 14) (size 15 to 20)
#    0.000    1.667    3.333    2.500    3.500    1.333 
#    1.500    5.000    0.000    7.000    0.000    0.000 
#    0.000    0.000    0.000    0.000    0.000    0.000 
#
# Total GULP energy -297462.292510 kJ/mol
# GULP energy per Si atom -12394.262188 kJ/mol
# Density = 2.088156 g / cm^3
# Si number density = 20.929192 Si / 1000 Ang^3
#
#
#
# Elastic Constant Matrix: (Units=GPa)
#
#
# Indices 1 2 3 4 5 6 
#
# 1 27.3670 23.3304 23.8298 0.0000 3.5800 0.0000
# 2 23.3304 113.0916 66.7417 0.0000 1.3062 0.0000
# 3 23.8298 66.7417 201.2829 0.0000 6.8906 0.0000
# 4 0.0000 0.0000 0.0000 85.7871 0.0000 0.0750
# 5 3.5800 1.3062 6.8906 0.0000 17.1113 0.0000
# 6 0.0000 0.0000 0.0000 0.0750 0.0000 24.3540
#
#
#
# Elastic Compliance Matrix: (Units=1/GPa)
#
#
# Indices 1 2 3 4 5 6 
#
# 1 0.046686 -0.008006 -0.002595 0.000000 -0.008112 0.000000
# 2 -0.008006 0.012374 -0.003224 0.000000 0.002029 0.000000
# 3 -0.002595 -0.003224 0.006406 0.000000 -0.001791 0.000000
# 4 0.000000 0.000000 0.000000 0.011657 0.000000 -0.000036
# 5 -0.008112 0.002029 -0.001791 0.000000 0.060704 0.000000
# 6 0.000000 0.000000 0.000000 -0.000036 0.000000 0.041061
#
#
# Mechanical properties :
#
#
# Convention : Reuss Voigt Hill
#
# Bulk Modulus (GPa) = 26.44473 63.28280 44.86377
# Shear Modulus (GPa) = 22.81611 40.63979 31.72795
#
# Velocity S-wave (km/s) = 3.30534 4.41134 3.89777
# Velocity P-wave (km/s) = 5.21821 7.49992 6.46059
#
# Compressibility (1/GPa) = 0.03781471
#
# Stress axis : x y z
#
# Youngs Moduli (GPa) = 21.41960 80.81771 156.10887
#
# Poissons Ratio (x) = 0.64704 0.40507
# Poissons Ratio (y) = 0.17149 0.50336
# Poissons Ratio (z) = 0.05558 0.26059
#
# Static dielectric constant tensor:
#      x y z
#    x 3.484640 0.000000 -0.030100 
#    y 0.000000 4.327870 0.000000 
#    z -0.030100 0.000000 4.367900 
# 
# 
# High freq. dielectric constant tensor:
#      x y z
#    x 1.784670 0.000000 0.003300 
#    y 0.000000 1.824260 0.000000 
#    z 0.003300 0.000000 1.840480 
# 
# From -- ./inp_files/53765.got.cif
#   From: 2010.06.25/outbox.cif.g09.slc.cpg/sg13_27_cif.got.tgz:53765.got - 2010.06.28 04:50:58.
