data_PCOD8118909
_publ_section_title
;
Structure prediction by ZEFSAII (Michael W. Deem and Ramdas Pophale) SiO2 
 PCOD8118909
Probable space group: P 2/C
;
_chemical_formula_sum "Si O2"
_cell_formula_units_Z 14
_cell_length_a 11.503604
_cell_length_b 7.171356
_cell_length_c 13.922097
_cell_angle_alpha 90.000000
_cell_angle_beta 31.622151
_cell_angle_gamma 90.000000
_cell_volume 602.188238
_symmetry_space_group_name_H-M "P 2/C"
_symmetry_group_IT_number 13
_symmetry_cell_setting 'monoclinic'
loop_
_space_group_symop_operation_xyz
x,y,z
-x,y,1/2-z
-x,-y,-z
x,-y,1/2+z
loop_
_atom_site_type_symbol
_atom_site_label
_atom_site_fract_x
_atom_site_fract_y
_atom_site_fract_z
Si Si1 0.500000 0.391431 0.750000
Si Si2 0.065775 0.132822 0.309244
Si Si3 0.758357 0.840321 0.195689
Si Si4 0.026015 0.547352 0.125782
O O1 0.470706 0.261046 0.674332
O O2 0.715859 0.516216 0.581147
O O3 0.000000 0.062841 0.250000
O O4 0.860776 0.082494 0.523829
O O5 0.113785 0.353544 0.277164
O O6 0.272903 0.009431 0.205607
O O7 0.927178 0.685275 0.117440
O O8 0.000000 0.635845 0.250000
#
# Coordination Sequence:
#
# PCOD8118909 Si02
#       4
#     2   4   4   4
#     4  10  20  36  58  84 114 150 190 228 276 338
#     4   9  18  35  57  79 109 149 184 229 283 325
#     4  10  20  37  56  81 118 147 184 238 278 329
#     4  10  21  39  59  83 116 148 186 235 280 330
#
# _framework density 23.248545
#
# number of rings (size 3 to 8) (size 9 to 14) (size 15 to 20)
#    0.000    2.286    0.000    4.286    0.000    1.143 
#    0.000   38.571    0.000    0.000    0.000    0.000 
#    0.000    0.000    0.000    0.000    0.000    0.000 
#
# Total GULP energy -173473.110818 kJ/mol
# GULP energy per Si atom -12390.936487 kJ/mol
# Density = 2.319563 g / cm^3
# Si number density = 23.248545 Si / 1000 Ang^3
#
#
#
# Elastic Constant Matrix: (Units=GPa)
#
#
# Indices 1 2 3 4 5 6 
#
# 1 169.6425 54.3184 50.1123 0.0000 11.5142 0.0000
# 2 54.3184 93.8543 25.4025 0.0000 -9.5088 0.0000
# 3 50.1123 25.4025 50.9381 0.0000 -2.6237 0.0000
# 4 0.0000 0.0000 0.0000 12.9344 0.0000 0.6644
# 5 11.5142 -9.5088 -2.6237 0.0000 42.1500 0.0000
# 6 0.0000 0.0000 0.0000 0.6644 0.0000 36.3290
#
#
#
# Elastic Compliance Matrix: (Units=1/GPa)
#
#
# Indices 1 2 3 4 5 6 
#
# 1 0.009739 -0.003925 -0.007831 0.000000 -0.004033 0.000000
# 2 -0.003925 0.014147 -0.002983 0.000000 0.004078 0.000000
# 3 -0.007831 -0.002983 0.028992 0.000000 0.003271 0.000000
# 4 0.000000 0.000000 0.000000 0.077386 0.000000 -0.001415
# 5 -0.004033 0.004078 0.003271 0.000000 0.025950 0.000000
# 6 0.000000 0.000000 0.000000 -0.001415 0.000000 0.027552
#
#
# Mechanical properties :
#
#
# Convention : Reuss Voigt Hill
#
# Bulk Modulus (GPa) = 42.73784 63.78900 53.26342
# Shear Modulus (GPa) = 22.61981 30.58945 26.60463
#
# Velocity S-wave (km/s) = 3.12261 3.63127 3.38650
# Velocity P-wave (km/s) = 5.60570 6.71408 6.18477
#
# Compressibility (1/GPa) = 0.02339847
#
# Stress axis : x y z
#
# Youngs Moduli (GPa) = 102.68373 70.68493 34.49241
#
# Poissons Ratio (x) = 0.27747 0.27011
# Poissons Ratio (y) = 0.40307 0.10290
# Poissons Ratio (z) = 0.80411 0.21088
#
# Static dielectric constant tensor:
#      x y z
#    x 4.837800 0.000000 0.222380 
#    y 0.000000 4.268990 0.000000 
#    z 0.222380 0.000000 3.654860 
# 
# 
# High freq. dielectric constant tensor:
#      x y z
#    x 1.943350 0.000000 0.024070 
#    y 0.000000 1.916000 0.000000 
#    z 0.024070 0.000000 1.875140 
# 
# From -- ./inp_files/27303.got.cif
#   From: 2010.06.25/outbox.cif.g09.slc.cpg/sg13_14_cif.got.tgz:27303.got - 2010.06.28 04:50:58.
