data_PCOD8118974
_publ_section_title
;
Structure prediction by ZEFSAII (Michael W. Deem and Ramdas Pophale) SiO2 
 PCOD8118974
Probable space group: P 2/C
;
_chemical_formula_sum "Si O2"
_cell_formula_units_Z 28
_cell_length_a 15.546283
_cell_length_b 8.403620
_cell_length_c 12.171451
_cell_angle_alpha 90.000000
_cell_angle_beta 123.183949
_cell_angle_gamma 90.000000
_cell_volume 1330.816176
_symmetry_space_group_name_H-M "P 2/C"
_symmetry_group_IT_number 13
_symmetry_cell_setting 'monoclinic'
loop_
_space_group_symop_operation_xyz
x,y,z
-x,y,1/2-z
-x,-y,-z
x,-y,1/2+z
loop_
_atom_site_type_symbol
_atom_site_label
_atom_site_fract_x
_atom_site_fract_y
_atom_site_fract_z
Si Si1 0.700033 0.209961 0.129376
Si Si2 0.252372 0.080861 0.955003
Si Si3 0.741470 0.406598 0.955255
Si Si4 0.130077 0.862266 0.023641
Si Si5 0.890419 0.338053 0.619956
Si Si6 0.615937 0.294476 0.293838
Si Si7 0.902629 0.822495 0.890125
O O1 0.618258 0.252142 0.166557
O O2 0.815473 0.251469 0.251809
O O3 0.685100 0.020339 0.092192
O O4 0.677272 0.315649 0.005437
O O5 0.183464 0.224322 0.857082
O O6 0.327506 0.153963 0.100093
O O7 0.172005 0.951277 0.945569
O O8 0.789489 0.282925 0.898998
O O9 0.668353 0.533679 0.845960
O O10 0.839899 0.489533 0.079883
O O11 0.122236 0.987378 0.118596
O O12 0.015547 0.794927 0.918652
O O13 0.896088 0.260448 0.503687
O O14 0.000000 0.354642 0.750000
O O15 0.500000 0.307125 0.250000
#
# Coordination Sequence:
#
# PCOD8118974 Si02
#       7
#     4   4   4   4   4   4   4
#     4  11  22  41  66  89 129 162 206 263 315 374
#     4   9  21  39  60  93 122 159 217 254 307 372
#     4  10  23  40  59  94 128 161 212 255 313 383
#     4   9  19  35  57  88 129 157 214 236 293 383
#     4  10  21  34  52  89 133 165 208 249 291 376
#     4  11  24  48  66  87 126 161 211 278 321 370
#     4  10  20  36  60  90 127 181 198 238 321 357
#
# _framework density 21.039719000000002
#
# number of rings (size 3 to 8) (size 9 to 14) (size 15 to 20)
#    0.000    2.000    4.286    0.000    8.000    4.000 
#    2.571    2.857    0.000    0.000    0.000    0.000 
#    0.000    0.000    0.000    0.000    0.000    0.000 
#
# Total GULP energy -347014.941708 kJ/mol
# GULP energy per Si atom -12393.390775 kJ/mol
# Density = 2.099183 g / cm^3
# Si number density = 21.039719 Si / 1000 Ang^3
#
#
#
# Elastic Constant Matrix: (Units=GPa)
#
#
# Indices 1 2 3 4 5 6 
#
# 1 127.6789 54.5698 21.2882 0.0000 0.7680 0.0000
# 2 54.5698 81.4856 10.3679 0.0000 -7.1970 0.0000
# 3 21.2882 10.3679 30.7247 0.0000 -4.9101 0.0000
# 4 0.0000 0.0000 0.0000 20.2385 0.0000 -5.5188
# 5 0.7680 -7.1970 -4.9101 0.0000 24.1611 0.0000
# 6 0.0000 0.0000 0.0000 -5.5188 0.0000 27.5588
#
#
#
# Elastic Compliance Matrix: (Units=1/GPa)
#
#
# Indices 1 2 3 4 5 6 
#
# 1 0.012245 -0.007726 -0.006519 0.000000 -0.004015 0.000000
# 2 -0.007726 0.017916 0.000206 0.000000 0.005624 0.000000
# 3 -0.006519 0.000206 0.038281 0.000000 0.008048 0.000000
# 4 0.000000 0.000000 0.000000 0.052265 0.000000 0.010466
# 5 -0.004015 0.005624 0.008048 0.000000 0.044827 0.000000
# 6 0.000000 0.000000 0.000000 0.010466 0.000000 0.038382
#
#
# Mechanical properties :
#
#
# Convention : Reuss Voigt Hill
#
# Bulk Modulus (GPa) = 24.77415 45.81565 35.29490
# Shear Modulus (GPa) = 20.37086 24.63591 22.50338
#
# Velocity S-wave (km/s) = 3.11498 3.42559 3.27397
# Velocity P-wave (km/s) = 4.97373 6.12122 5.57706
#
# Compressibility (1/GPa) = 0.04036466
#
# Stress axis : x y z
#
# Youngs Moduli (GPa) = 81.66508 55.81485 26.12289
#
# Poissons Ratio (x) = 0.43120 0.17029
# Poissons Ratio (y) = 0.63091 -0.00538
# Poissons Ratio (z) = 0.53237 -0.01149
#
# Static dielectric constant tensor:
#      x y z
#    x 3.822910 0.000000 -0.029920 
#    y 0.000000 4.130160 0.000000 
#    z -0.029920 0.000000 3.532210 
# 
# 
# High freq. dielectric constant tensor:
#      x y z
#    x 1.812570 0.000000 -0.008480 
#    y 0.000000 1.837240 0.000000 
#    z -0.008480 0.000000 1.791090 
# 
# From -- ./inp_files/36146.got.cif
#   From: 2010.06.25/outbox.cif.g09.slc.cpg/sg13_19_cif.got.tgz:36146.got - 2010.06.28 04:50:58.
