data_PCOD8118791
_publ_section_title
;
Structure prediction by ZEFSAII (Michael W. Deem and Ramdas Pophale) SiO2 
 PCOD8118791
Probable space group: P 2/C
;
_chemical_formula_sum "Si O2"
_cell_formula_units_Z 28
_cell_length_a 9.747095
_cell_length_b 13.269615
_cell_length_c 22.081758
_cell_angle_alpha 90.000000
_cell_angle_beta 150.997049
_cell_angle_gamma 90.000000
_cell_volume 1384.773511
_symmetry_space_group_name_H-M "P 2/C"
_symmetry_group_IT_number 13
_symmetry_cell_setting 'monoclinic'
loop_
_space_group_symop_operation_xyz
x,y,z
-x,y,1/2-z
-x,-y,-z
x,-y,1/2+z
loop_
_atom_site_type_symbol
_atom_site_label
_atom_site_fract_x
_atom_site_fract_y
_atom_site_fract_z
Si Si1 0.668765 0.307623 0.254863
Si Si2 0.076395 0.782004 0.370430
Si Si3 0.427602 0.610239 0.541016
Si Si4 0.016981 0.108507 0.086706
Si Si5 0.534413 0.188884 0.581651
Si Si6 0.176849 0.110433 0.623345
Si Si7 0.252555 0.393195 0.455290
O O1 0.500000 0.339852 0.250000
O O2 0.485802 0.322375 0.123176
O O3 0.776800 0.192189 0.304192
O O4 0.923074 0.385397 0.343044
O O5 0.151311 0.662353 0.402397
O O6 0.346667 0.830650 0.439979
O O7 0.791290 0.815298 0.227314
O O8 0.044127 0.822455 0.425154
O O9 0.357726 0.494705 0.528853
O O10 0.690844 0.608485 0.595376
O O11 0.711929 0.106662 0.002678
O O12 0.952573 0.127332 0.992069
O O13 0.172004 0.001395 0.150616
O O14 0.408211 0.299118 0.545464
O O15 0.500000 0.149402 0.750000
#
# Coordination Sequence:
#
# PCOD8118791 Si02
#       7
#     4   4   4   4   4   4   4
#     4  11  22  38  58  85 125 151 189 248 298 344
#     4  10  20  35  59  86 115 149 190 242 291 340
#     4  10  21  38  61  89 114 158 200 237 290 354
#     4  10  22  39  60  85 114 154 196 241 291 352
#     4   9  19  38  58  83 118 146 189 245 289 339
#     4  11  21  37  61  86 113 154 199 235 291 359
#     4   9  21  38  62  85 116 156 200 236 284 356
#
# _framework density 20.219912000000001
#
# number of rings (size 3 to 8) (size 9 to 14) (size 15 to 20)
#    0.000    2.000    1.429    1.714    2.000    2.286 
#    0.000    0.714    6.286    0.000    0.000    0.000 
#    0.000    0.000    0.000    0.000    0.000    0.000 
#
# Total GULP energy -346974.804346 kJ/mol
# GULP energy per Si atom -12391.957298 kJ/mol
# Density = 2.017389 g / cm^3
# Si number density = 20.219912 Si / 1000 Ang^3
#
#
#
# Elastic Constant Matrix: (Units=GPa)
#
#
# Indices 1 2 3 4 5 6 
#
# 1 133.6382 35.6027 28.6104 0.0000 20.0531 0.0000
# 2 35.6027 58.5011 11.2938 0.0000 -0.3762 0.0000
# 3 28.6104 11.2938 54.6578 0.0000 9.4427 0.0000
# 4 0.0000 0.0000 0.0000 23.4022 0.0000 -0.3618
# 5 20.0531 -0.3762 9.4427 0.0000 28.0856 0.0000
# 6 0.0000 0.0000 0.0000 -0.3618 0.0000 31.5143
#
#
#
# Elastic Compliance Matrix: (Units=1/GPa)
#
#
# Indices 1 2 3 4 5 6 
#
# 1 0.010772 -0.005971 -0.003251 0.000000 -0.006678 0.000000
# 2 -0.005971 0.021179 -0.002162 0.000000 0.005274 0.000000
# 3 -0.003251 -0.002162 0.021284 0.000000 -0.004864 0.000000
# 4 0.000000 0.000000 0.000000 0.042739 0.000000 0.000491
# 5 -0.006678 0.005274 -0.004864 0.000000 0.042079 0.000000
# 6 0.000000 0.000000 0.000000 0.000491 0.000000 0.031737
#
#
# Mechanical properties :
#
#
# Convention : Reuss Voigt Hill
#
# Bulk Modulus (GPa) = 32.82179 44.20120 38.51150
# Shear Modulus (GPa) = 24.66547 28.01977 26.34262
#
# Velocity S-wave (km/s) = 3.49644 3.72661 3.61336
# Velocity P-wave (km/s) = 5.70682 6.35803 6.04120
#
# Compressibility (1/GPa) = 0.03046756
#
# Stress axis : x y z
#
# Youngs Moduli (GPa) = 92.83665 47.21738 46.98300
#
# Poissons Ratio (x) = 0.28192 0.15274
# Poissons Ratio (y) = 0.55430 0.10157
# Poissons Ratio (z) = 0.30181 0.10207
#
# Static dielectric constant tensor:
#      x y z
#    x 3.972400 0.000000 0.188590 
#    y 0.000000 3.518120 0.000000 
#    z 0.188590 0.000000 3.597460 
# 
# 
# High freq. dielectric constant tensor:
#      x y z
#    x 1.803340 0.000000 0.012440 
#    y 0.000000 1.773240 0.000000 
#    z 0.012440 0.000000 1.783740 
# 
# From -- ./inp_files/76736.got.cif
#   From: 2010.06.25/outbox.cif.g09.slc.cpg/sg13_39_cif.got.tgz:76736.got - 2010.06.28 04:50:58.
