data_PCOD8118355
_publ_section_title
;
Structure prediction by ZEFSAII (Michael W. Deem and Ramdas Pophale) SiO2 
 PCOD8118355
Probable space group: P 2/C
;
_chemical_formula_sum "Si O2"
_cell_formula_units_Z 18
_cell_length_a 6.393094
_cell_length_b 11.750555
_cell_length_c 9.241533
_cell_angle_alpha 90.000000
_cell_angle_beta 76.708384
_cell_angle_gamma 90.000000
_cell_volume 675.649062
_symmetry_space_group_name_H-M "P 2/C"
_symmetry_group_IT_number 13
_symmetry_cell_setting 'monoclinic'
loop_
_space_group_symop_operation_xyz
x,y,z
-x,y,1/2-z
-x,-y,-z
x,-y,1/2+z
loop_
_atom_site_type_symbol
_atom_site_label
_atom_site_fract_x
_atom_site_fract_y
_atom_site_fract_z
Si Si1 0.731511 0.410931 0.140165
Si Si2 0.221790 0.946336 0.517660
Si Si3 0.000000 0.772340 0.750000
Si Si4 0.291209 0.385305 0.686137
Si Si5 0.760723 0.128749 0.786086
O O1 0.500000 0.392188 0.250000
O O2 0.882990 0.303167 0.145856
O O3 0.845280 0.524231 0.194152
O O4 0.685477 0.434281 0.979011
O O5 0.181282 0.846316 0.640425
O O6 0.343900 0.889766 0.357823
O O7 0.358046 0.051168 0.570662
O O8 0.000000 0.000000 0.500000
O O9 0.500000 0.370612 0.750000
O O10 0.200000 0.259540 0.680674
O O11 0.000000 0.074050 0.750000
#
# Coordination Sequence:
#
# PCOD8118355 Si02
#       5
#     4   4   2   4   4
#     4  11  26  45  67  98 138 174 222 277 329 393
#     4  10  19  38  63  96 130 171 218 276 320 395
#     4  12  24  40  74  98 132 180 226 262 342 394
#     4  11  25  45  65  96 134 177 219 277 334 390
#     4  10  21  38  66  91 131 168 223 268 328 390
#
# _framework density 26.641045999999999
#
# number of rings (size 3 to 8) (size 9 to 14) (size 15 to 20)
#    0.000    1.333    3.333    5.333    7.778    0.889 
#    0.000    2.222    0.000    0.000    0.000    0.000 
#    0.000    0.000    0.000    0.000    0.000    0.000 
#
# Total GULP energy -222998.838228 kJ/mol
# GULP energy per Si atom -12388.824346 kJ/mol
# Density = 2.658041 g / cm^3
# Si number density = 26.641046 Si / 1000 Ang^3
#
#
#
# Elastic Constant Matrix: (Units=GPa)
#
#
# Indices 1 2 3 4 5 6 
#
# 1 20.5442 5.0863 18.6060 0.0000 13.4810 0.0000
# 2 5.0863 207.3232 92.4204 0.0000 -1.6870 0.0000
# 3 18.6060 92.4204 243.9956 0.0000 2.0442 0.0000
# 4 0.0000 0.0000 0.0000 51.8737 0.0000 9.2717
# 5 13.4810 -1.6870 2.0442 0.0000 34.9353 0.0000
# 6 0.0000 0.0000 0.0000 9.2717 0.0000 34.5230
#
#
#
# Elastic Compliance Matrix: (Units=1/GPa)
#
#
# Indices 1 2 3 4 5 6 
#
# 1 0.071254 0.000423 -0.005366 0.000000 -0.027161 0.000000
# 2 0.000423 0.005812 -0.002236 0.000000 0.000248 0.000000
# 3 -0.005366 -0.002236 0.005341 0.000000 0.001650 0.000000
# 4 0.000000 0.000000 0.000000 0.020250 0.000000 -0.005438
# 5 -0.027161 0.000248 0.001650 0.000000 0.039021 0.000000
# 6 0.000000 0.000000 0.000000 -0.005438 0.000000 0.030427
#
#
# Mechanical properties :
#
#
# Convention : Reuss Voigt Hill
#
# Bulk Modulus (GPa) = 14.69542 78.23204 46.46373
# Shear Modulus (GPa) = 23.90701 47.98309 35.94505
#
# Velocity S-wave (km/s) = 2.99887 4.24854 3.67718
# Velocity P-wave (km/s) = 4.18557 7.31408 5.95881
#
# Compressibility (1/GPa) = 0.06804840
#
# Stress axis : x y z
#
# Youngs Moduli (GPa) = 14.03435 172.06839 187.24379
#
# Poissons Ratio (x) = -0.07279 1.00478
# Poissons Ratio (y) = -0.00594 0.41861
# Poissons Ratio (z) = 0.07531 0.38469
#
# Static dielectric constant tensor:
#      x y z
#    x 4.333460 0.000000 0.086530 
#    y 0.000000 5.661440 0.000000 
#    z 0.086530 0.000000 5.623600 
# 
# 
# High freq. dielectric constant tensor:
#      x y z
#    x 2.077480 0.000000 0.021990 
#    y 0.000000 2.083510 0.000000 
#    z 0.021990 0.000000 2.092830 
# 
# From -- ./inp_files/11367.got.cif
#   From: 2010.06.25/outbox.cif.g09.slc.cpg/sg13_6_cif.got.tgz:11367.got - 2010.06.28 04:50:58.
