data_PCOD8118517
_publ_section_title
;
Structure prediction by ZEFSAII (Michael W. Deem and Ramdas Pophale) SiO2 
 PCOD8118517
Probable space group: P 2/C
;
_chemical_formula_sum "Si O2"
_cell_formula_units_Z 24
_cell_length_a 11.049058
_cell_length_b 6.153253
_cell_length_c 17.611962
_cell_angle_alpha 90.000000
_cell_angle_beta 88.488461
_cell_angle_gamma 90.000000
_cell_volume 1196.979241
_symmetry_space_group_name_H-M "P 2/C"
_symmetry_group_IT_number 13
_symmetry_cell_setting 'monoclinic'
loop_
_space_group_symop_operation_xyz
x,y,z
-x,y,1/2-z
-x,-y,-z
x,-y,1/2+z
loop_
_atom_site_type_symbol
_atom_site_label
_atom_site_fract_x
_atom_site_fract_y
_atom_site_fract_z
Si Si1 0.368153 0.402961 0.220823
Si Si2 0.317836 0.665526 0.481964
Si Si3 0.705420 0.289011 0.120730
Si Si4 0.462685 0.910377 0.591624
Si Si5 0.703371 0.709909 0.397552
Si Si6 0.859268 0.956928 0.505503
O O1 0.500000 0.476644 0.250000
O O2 0.282729 0.302507 0.288518
O O3 0.388480 0.219584 0.157169
O O4 0.292360 0.607398 0.187337
O O5 0.341213 0.529583 0.404423
O O6 0.430893 0.815160 0.507673
O O7 0.296279 0.487761 0.545738
O O8 0.198860 0.811060 0.474775
O O9 0.606160 0.105550 0.101147
O O10 0.827015 0.213024 0.074755
O O11 0.422701 0.159674 0.596747
O O12 0.813086 0.867982 0.423561
O O13 0.000000 0.000000 0.500000
#
# Coordination Sequence:
#
# PCOD8118517 Si02
#       6
#     4   4   4   4   4   4
#     4   9  19  33  52  81 113 143 177 223 287 355
#     4   9  19  34  55  79 106 138 183 231 279 334
#     4  10  20  32  54  84 112 143 182 228 282 345
#     4   9  18  33  52  81 114 142 173 222 287 346
#     4   9  19  35  57  79 111 148 180 227 285 343
#     4  10  22  38  57  79 108 149 198 246 283 321
#
# _framework density 20.050474000000001
#
# number of rings (size 3 to 8) (size 9 to 14) (size 15 to 20)
#    0.000    2.667    0.000    0.500    0.000   17.333 
#    0.000    0.000    0.000   24.000    0.000    0.000 
#    0.000    0.000    0.000    0.000    0.000    0.000 
#
# Total GULP energy -297388.831633 kJ/mol
# GULP energy per Si atom -12391.201318 kJ/mol
# Density = 2.000484 g / cm^3
# Si number density = 20.050474 Si / 1000 Ang^3
#
#
#
# Elastic Constant Matrix: (Units=GPa)
#
#
# Indices 1 2 3 4 5 6 
#
# 1 96.0021 25.5913 36.0919 0.0000 -6.1801 0.0000
# 2 25.5913 78.1429 31.8615 0.0000 1.6075 0.0000
# 3 36.0919 31.8615 118.3708 0.0000 -8.7166 0.0000
# 4 0.0000 0.0000 0.0000 32.3994 0.0000 7.1052
# 5 -6.1801 1.6075 -8.7166 0.0000 20.0453 0.0000
# 6 0.0000 0.0000 0.0000 7.1052 0.0000 22.3411
#
#
#
# Elastic Compliance Matrix: (Units=1/GPa)
#
#
# Indices 1 2 3 4 5 6 
#
# 1 0.012445 -0.003003 -0.002775 0.000000 0.002871 0.000000
# 2 -0.003003 0.015268 -0.003463 0.000000 -0.003656 0.000000
# 3 -0.002775 -0.003463 0.010521 0.000000 0.003997 0.000000
# 4 0.000000 0.000000 0.000000 0.033179 0.000000 -0.010552
# 5 0.002871 -0.003656 0.003997 0.000000 0.052804 0.000000
# 6 0.000000 0.000000 0.000000 -0.010552 0.000000 0.048116
#
#
# Mechanical properties :
#
#
# Convention : Reuss Voigt Hill
#
# Bulk Modulus (GPa) = 50.63022 53.28948 51.95985
# Shear Modulus (GPa) = 25.32949 28.22190 26.77569
#
# Velocity S-wave (km/s) = 3.55813 3.75579 3.65830
# Velocity P-wave (km/s) = 6.49512 6.74117 6.61929
#
# Compressibility (1/GPa) = 0.01975105
#
# Stress axis : x y z
#
# Youngs Moduli (GPa) = 80.35330 65.49694 95.05209
#
# Poissons Ratio (x) = 0.19671 0.26374
# Poissons Ratio (y) = 0.24133 0.32917
# Poissons Ratio (z) = 0.22296 0.22682
#
# Static dielectric constant tensor:
#      x y z
#    x 3.173870 0.000000 0.215560 
#    y 0.000000 4.145950 0.000000 
#    z 0.215560 0.000000 4.080810 
# 
# 
# High freq. dielectric constant tensor:
#      x y z
#    x 1.728020 0.000000 0.005200 
#    y 0.000000 1.802380 0.000000 
#    z 0.005200 0.000000 1.785270 
# 
# From -- ./inp_files/65367.got.cif
#   From: 2010.06.25/outbox.cif.g09.slc.cpg/sg13_33_cif.got.tgz:65367.got - 2010.06.28 04:50:58.
