data_PCOD8118011
_publ_section_title
;
Structure prediction by ZEFSAII (Michael W. Deem and Ramdas Pophale) SiO2 
 PCOD8118011
Probable space group: P 2/C
;
_chemical_formula_sum "Si O2"
_cell_formula_units_Z 32
_cell_length_a 18.058539
_cell_length_b 19.331054
_cell_length_c 17.166152
_cell_angle_alpha 90.000000
_cell_angle_beta 163.954933
_cell_angle_gamma 90.000000
_cell_volume 1656.298913
_symmetry_space_group_name_H-M "P 2/C"
_symmetry_group_IT_number 13
_symmetry_cell_setting 'monoclinic'
loop_
_space_group_symop_operation_xyz
x,y,z
-x,y,1/2-z
-x,-y,-z
x,-y,1/2+z
loop_
_atom_site_type_symbol
_atom_site_label
_atom_site_fract_x
_atom_site_fract_y
_atom_site_fract_z
Si Si1 0.733875 0.928770 0.932067
Si Si2 0.539765 0.337283 0.095301
Si Si3 0.979566 0.681420 0.528997
Si Si4 0.238137 0.977582 0.187775
Si Si5 0.324633 0.807468 0.736540
Si Si6 0.840018 0.173559 0.856026
Si Si7 0.955041 0.442247 0.113480
Si Si8 0.543102 0.486438 0.452494
O O1 0.500000 0.957993 0.750000
O O2 0.628630 0.855957 0.790455
O O3 0.780203 0.985895 0.913449
O O4 0.000000 0.915758 0.250000
O O5 0.644796 0.273683 0.256211
O O6 0.531801 0.406335 0.139486
O O7 0.734437 0.339724 0.217494
O O8 0.239074 0.331913 0.758854
O O9 0.947723 0.763024 0.518926
O O10 0.955890 0.636029 0.582386
O O11 0.189593 0.896082 0.123589
O O12 0.500000 0.000000 0.500000
O O13 0.000000 0.000000 0.000000
O O14 0.037701 0.830560 0.481335
O O15 0.541251 0.815985 0.023207
O O16 0.000000 0.440130 0.250000
O O17 0.157857 0.493081 0.272315
O O18 0.655590 0.468452 0.799337
O O19 0.500000 0.500000 0.500000
#
# Coordination Sequence:
#
# PCOD8118011 Si02
#       8
#     4   4   4   4   4   4   4   4
#     4  12  24  38  58  87 125 160 192 246 314 367
#     4  10  20  34  61  87 109 145 205 254 282 336
#     4  10  19  35  57  87 114 147 195 248 294 353
#     4  12  21  38  63  89 117 156 203 252 292 353
#     4  10  20  37  57  86 115 148 197 246 293 353
#     4  10  19  35  61  87 111 144 203 251 285 337
#     4  12  24  38  57  89 126 161 192 249 317 363
#     4  12  21  38  63  87 118 156 208 251 294 354
#
# _framework density 19.320184000000001
#
# number of rings (size 3 to 8) (size 9 to 14) (size 15 to 20)
#    0.000    1.000    5.000    3.000    0.000    0.000 
#    0.000    2.500    0.000    1.500    0.000    0.000 
#    0.000    0.000    0.000    0.000    0.000    0.000 
#
# Total GULP energy -396664.432041 kJ/mol
# GULP energy per Si atom -12395.763501 kJ/mol
# Density = 1.927621 g / cm^3
# Si number density = 19.320184 Si / 1000 Ang^3
#
#
#
# Elastic Constant Matrix: (Units=GPa)
#
#
# Indices 1 2 3 4 5 6 
#
# 1 86.7167 51.1229 17.2813 0.0000 -2.8243 0.0000
# 2 51.1229 159.6819 21.9691 0.0000 -1.0286 0.0000
# 3 17.2813 21.9691 78.5152 0.0000 6.4764 0.0000
# 4 0.0000 0.0000 0.0000 18.6730 0.0000 29.9633
# 5 -2.8243 -1.0286 6.4764 0.0000 31.4543 0.0000
# 6 0.0000 0.0000 0.0000 29.9633 0.0000 -52.4271
#
#
#
# Elastic Compliance Matrix: (Units=1/GPa)
#
#
# Indices 1 2 3 4 5 6 
#
# 1 0.014580 -0.004366 -0.002120 0.000000 0.001603 0.000000
# 2 -0.004366 0.007832 -0.001240 0.000000 0.000119 0.000000
# 3 -0.002120 -0.001240 0.013803 0.000000 -0.003073 0.000000
# 4 0.000000 0.000000 0.000000 0.027935 0.000000 0.015965
# 5 0.001603 0.000119 -0.003073 0.000000 0.032573 0.000000
# 6 0.000000 0.000000 0.000000 0.015965 0.000000 -0.009950
#
#
# Mechanical properties :
#
#
# Convention : Reuss Voigt Hill
#
# Bulk Modulus (GPa) = 48.16139 56.18447 52.17293
# Shear Modulus (GPa) = 45.80997 15.17607 30.49302
#
# Velocity S-wave (km/s) = 4.87467 2.80572 3.97709
# Velocity P-wave (km/s) = 7.52764 6.29603 6.93921
#
# Compressibility (1/GPa) = 0.02076352
#
# Stress axis : x y z
#
# Youngs Moduli (GPa) = 68.58532 127.68695 72.44565
#
# Poissons Ratio (x) = 0.55748 0.15356
# Poissons Ratio (y) = 0.29944 0.08985
# Poissons Ratio (z) = 0.14538 0.15836
#
# Static dielectric constant tensor:
#      x y z
#    x 3.033330 0.000000 0.195710 
#    y 0.000000 4.168780 0.000000 
#    z 0.195710 0.000000 3.613140 
# 
# 
# High freq. dielectric constant tensor:
#      x y z
#    x 1.711040 0.000000 0.020670 
#    y 0.000000 1.771560 0.000000 
#    z 0.020670 0.000000 1.771420 
# 
# From -- ./inp_files/54015.got.cif
#   From: 2010.06.25/outbox.cif.g09.slc.cpg/sg13_28_cif.got.tgz:54015.got - 2010.06.28 04:50:58.
