data_PCOD8118087
_publ_section_title
;
Structure prediction by ZEFSAII (Michael W. Deem and Ramdas Pophale) SiO2 
 PCOD8118087
Probable space group: P 2/C
;
_chemical_formula_sum "Si O2"
_cell_formula_units_Z 30
_cell_length_a 12.357909
_cell_length_b 22.757596
_cell_length_c 5.413149
_cell_angle_alpha 90.000000
_cell_angle_beta 86.362227
_cell_angle_gamma 90.000000
_cell_volume 1519.306592
_symmetry_space_group_name_H-M "P 2/C"
_symmetry_group_IT_number 13
_symmetry_cell_setting 'monoclinic'
loop_
_space_group_symop_operation_xyz
x,y,z
-x,y,1/2-z
-x,-y,-z
x,-y,1/2+z
loop_
_atom_site_type_symbol
_atom_site_label
_atom_site_fract_x
_atom_site_fract_y
_atom_site_fract_z
Si Si1 0.872560 0.467368 0.779393
Si Si2 0.500000 0.753083 0.750000
Si Si3 0.665007 0.338962 0.341608
Si Si4 0.378150 0.023816 0.497699
Si Si5 0.283385 0.364168 0.671172
Si Si6 0.604235 0.845729 0.400655
Si Si7 0.795083 0.231255 0.775342
Si Si8 0.878259 0.735077 0.768115
O O1 0.833982 0.494285 0.522163
O O2 0.824519 0.402739 0.829116
O O3 0.000000 0.459450 0.750000
O O4 0.420332 0.713331 0.596461
O O5 0.581599 0.793096 0.588842
O O6 0.655273 0.381889 0.581036
O O7 0.789887 0.317210 0.285089
O O8 0.640712 0.372492 0.084250
O O9 0.371505 0.093808 0.461084
O O10 0.500000 0.000000 0.500000
O O11 0.320223 0.995083 0.264696
O O12 0.260822 0.295176 0.713928
O O13 0.500000 0.858001 0.250000
O O14 0.709745 0.821991 0.243135
O O15 0.869823 0.226430 0.520550
O O16 0.860100 0.224453 0.025276
O O17 0.000000 0.708196 0.750000
#
# Coordination Sequence:
#
# PCOD8118087 Si02
#       8
#     4   2   4   4   4   4   4   4
#     4  10  21  36  58  88 114 148 194 241 302 358
#     4  12  22  36  54  84 124 158 190 254 278 364
#     4  10  22  34  53  83 113 152 201 220 304 347
#     4  10  20  36  48  79 113 159 202 226 288 362
#     4  10  19  37  51  77 120 142 187 238 275 362
#     4  12  22  33  60  78 127 165 190 248 289 356
#     4  10  22  35  50  89 109 152 206 219 302 356
#     4  10  19  36  52  73 116 149 189 238 279 361
#
# _framework density 19.745849
#
# number of rings (size 3 to 8) (size 9 to 14) (size 15 to 20)
#    0.000    1.600    4.000    3.600    0.000    4.267 
#    0.000    1.333    0.000    0.000    0.000    9.333 
#    0.000   10.667    0.000    0.000    0.000    0.000 
#
# Total GULP energy -371649.313433 kJ/mol
# GULP energy per Si atom -12388.310448 kJ/mol
# Density = 1.970091 g / cm^3
# Si number density = 19.745849 Si / 1000 Ang^3
#
#
#
# Elastic Constant Matrix: (Units=GPa)
#
#
# Indices 1 2 3 4 5 6 
#
# 1 30.4612 19.6362 8.4282 0.0000 6.8996 0.0000
# 2 19.6362 79.9950 22.3280 0.0000 -2.4082 0.0000
# 3 8.4282 22.3280 190.2957 0.0000 5.0492 0.0000
# 4 0.0000 0.0000 0.0000 20.4587 0.0000 -4.8043
# 5 6.8996 -2.4082 5.0492 0.0000 18.4194 0.0000
# 6 0.0000 0.0000 0.0000 -4.8043 0.0000 11.9118
#
#
#
# Elastic Compliance Matrix: (Units=1/GPa)
#
#
# Indices 1 2 3 4 5 6 
#
# 1 0.044285 -0.011372 -0.000149 0.000000 -0.018035 0.000000
# 2 -0.011372 0.015927 -0.001545 0.000000 0.006766 0.000000
# 3 -0.000149 -0.001545 0.005487 0.000000 -0.001650 0.000000
# 4 0.000000 0.000000 0.000000 0.053993 0.000000 0.021777
# 5 -0.018035 0.006766 -0.001650 0.000000 0.062383 0.000000
# 6 0.000000 0.000000 0.000000 0.021777 0.000000 0.092734
#
#
# Mechanical properties :
#
#
# Convention : Reuss Voigt Hill
#
# Bulk Modulus (GPa) = 25.27259 44.61519 34.94389
# Shear Modulus (GPa) = 15.91703 26.84860 21.38281
#
# Velocity S-wave (km/s) = 2.84226 3.69142 3.29432
# Velocity P-wave (km/s) = 4.85778 6.38847 5.67497
#
# Compressibility (1/GPa) = 0.03956857
#
# Stress axis : x y z
#
# Youngs Moduli (GPa) = 22.58076 62.78620 182.26286
#
# Poissons Ratio (x) = 0.71401 0.02708
# Poissons Ratio (y) = 0.25679 0.28153
# Poissons Ratio (z) = 0.00335 0.09698
#
# Static dielectric constant tensor:
#      x y z
#    x 3.343900 0.000000 0.287190 
#    y 0.000000 3.266210 0.000000 
#    z 0.287190 0.000000 5.757130 
# 
# 
# High freq. dielectric constant tensor:
#      x y z
#    x 1.723790 0.000000 0.000820 
#    y 0.000000 1.728090 0.000000 
#    z 0.000820 0.000000 1.808530 
# 
# From -- ./inp_files/4141.got.cif
#   From: 2010.06.25/outbox.cif.g09.slc.cpg/sg13_3_cif.got.tgz:4141.got - 2010.06.28 04:50:58.
