data_PCOD8118181
_publ_section_title
;
Structure prediction by ZEFSAII (Michael W. Deem and Ramdas Pophale) SiO2 
 PCOD8118181
Probable space group: P 2/C
;
_chemical_formula_sum "Si O2"
_cell_formula_units_Z 32
_cell_length_a 11.544728
_cell_length_b 9.268915
_cell_length_c 14.303260
_cell_angle_alpha 90.000000
_cell_angle_beta 87.818152
_cell_angle_gamma 90.000000
_cell_volume 1529.440803
_symmetry_space_group_name_H-M "P 2/C"
_symmetry_group_IT_number 13
_symmetry_cell_setting 'monoclinic'
loop_
_space_group_symop_operation_xyz
x,y,z
-x,y,1/2-z
-x,-y,-z
x,-y,1/2+z
loop_
_atom_site_type_symbol
_atom_site_label
_atom_site_fract_x
_atom_site_fract_y
_atom_site_fract_z
Si Si1 0.623905 0.543288 0.795136
Si Si2 0.128349 0.486567 0.749249
Si Si3 0.333625 0.850277 0.008398
Si Si4 0.858675 0.629408 0.454115
Si Si5 0.378429 0.203071 0.711427
Si Si6 0.457279 0.658854 0.521898
Si Si7 0.699835 0.148670 0.591684
Si Si8 0.883625 0.648019 0.054297
O O1 0.500000 0.580421 0.750000
O O2 0.750486 0.580194 0.742135
O O3 0.626135 0.372031 0.816670
O O4 0.627694 0.643526 0.886887
O O5 0.145719 0.386664 0.657361
O O6 0.118980 0.380064 0.835633
O O7 0.000000 0.569378 0.750000
O O8 0.214646 0.762540 0.006025
O O9 0.358038 0.886789 0.116855
O O10 0.433087 0.757185 0.956126
O O11 0.329163 0.994106 0.948090
O O12 0.815692 0.479323 0.501436
O O13 0.987084 0.661640 0.489033
O O14 0.500000 0.155370 0.750000
O O15 0.288633 0.155443 0.795743
O O16 0.500000 0.500000 0.500000
O O17 0.396095 0.730825 0.433946
O O18 0.819943 0.199822 0.540624
#
# Coordination Sequence:
#
# PCOD8118181 Si02
#       8
#     4   4   4   4   4   4   4   4
#     4  11  21  36  62  96 122 163 215 264 316 382
#     4  10  19  36  62  92 123 163 211 258 317 385
#     4  12  24  40  62  93 129 170 208 269 320 387
#     4  10  21  39  63  93 122 162 220 265 312 378
#     4  11  21  40  63  83 123 171 212 250 317 391
#     4  12  22  39  64  90 125 162 214 264 318 376
#     4  12  24  40  63  91 129 169 211 260 331 384
#     4  10  21  38  66  90 121 166 214 268 315 378
#
# _framework density 20.922681000000001
#
# number of rings (size 3 to 8) (size 9 to 14) (size 15 to 20)
#    0.000    1.000    5.000    2.625    1.750    0.500 
#    2.250    1.250    0.000    0.000    0.000    0.000 
#    0.000    0.000    0.000    0.000    0.000    0.000 
#
# Total GULP energy -396436.986407 kJ/mol
# GULP energy per Si atom -12388.655825 kJ/mol
# Density = 2.087506 g / cm^3
# Si number density = 20.922681 Si / 1000 Ang^3
#
#
#
# Elastic Constant Matrix: (Units=GPa)
#
#
# Indices 1 2 3 4 5 6 
#
# 1 139.0661 31.3634 13.9851 0.0000 -8.2583 0.0000
# 2 31.3634 97.3718 49.7498 0.0000 -2.5991 0.0000
# 3 13.9851 49.7498 86.4785 0.0000 -6.6353 0.0000
# 4 0.0000 0.0000 0.0000 19.4063 0.0000 1.3879
# 5 -8.2583 -2.5991 -6.6353 0.0000 26.6085 0.0000
# 6 0.0000 0.0000 0.0000 1.3879 0.0000 26.9860
#
#
#
# Elastic Compliance Matrix: (Units=1/GPa)
#
#
# Indices 1 2 3 4 5 6 
#
# 1 0.007894 -0.002718 0.000464 0.000000 0.002300 0.000000
# 2 -0.002718 0.015493 -0.008586 0.000000 -0.001471 0.000000
# 3 0.000464 -0.008586 0.016694 0.000000 0.003468 0.000000
# 4 0.000000 0.000000 0.000000 0.051720 0.000000 -0.002660
# 5 0.002300 -0.001471 0.003468 0.000000 0.039017 0.000000
# 6 0.000000 0.000000 0.000000 -0.002660 0.000000 0.037193
#
#
# Mechanical properties :
#
#
# Convention : Reuss Voigt Hill
#
# Bulk Modulus (GPa) = 54.34896 57.01256 55.68076
# Shear Modulus (GPa) = 25.53293 29.78805 27.66049
#
# Velocity S-wave (km/s) = 3.49714 3.77732 3.63992
# Velocity P-wave (km/s) = 6.50685 6.80680 6.65851
#
# Compressibility (1/GPa) = 0.01839961
#
# Stress axis : x y z
#
# Youngs Moduli (GPa) = 126.68195 64.54507 59.90087
#
# Poissons Ratio (x) = 0.17543 -0.02777
# Poissons Ratio (y) = 0.34432 0.51432
# Poissons Ratio (z) = -0.05872 0.55420
#
# Static dielectric constant tensor:
#      x y z
#    x 4.522850 0.000000 -0.124210 
#    y 0.000000 3.322880 0.000000 
#    z -0.124210 0.000000 4.155640 
# 
# 
# High freq. dielectric constant tensor:
#      x y z
#    x 1.843730 0.000000 -0.003360 
#    y 0.000000 1.762220 0.000000 
#    z -0.003360 0.000000 1.825610 
# 
# From -- ./inp_files/50368.got.cif
#   From: 2010.06.25/outbox.cif.g09.slc.cpg/sg13_26_cif.got.tgz:50368.got - 2010.06.28 04:50:58.
