data_PCOD8118316
_publ_section_title
;
Structure prediction by ZEFSAII (Michael W. Deem and Ramdas Pophale) SiO2 
 PCOD8118316
Probable space group: P 2/C
;
_chemical_formula_sum "Si O2"
_cell_formula_units_Z 30
_cell_length_a 22.246361
_cell_length_b 8.878736
_cell_length_c 17.113038
_cell_angle_alpha 90.000000
_cell_angle_beta 155.584401
_cell_angle_gamma 90.000000
_cell_volume 1397.197020
_symmetry_space_group_name_H-M "P 2/C"
_symmetry_group_IT_number 13
_symmetry_cell_setting 'monoclinic'
loop_
_space_group_symop_operation_xyz
x,y,z
-x,y,1/2-z
-x,-y,-z
x,-y,1/2+z
loop_
_atom_site_type_symbol
_atom_site_label
_atom_site_fract_x
_atom_site_fract_y
_atom_site_fract_z
Si Si1 0.212993 0.877655 0.199810
Si Si2 0.256618 0.675086 0.104355
Si Si3 0.500000 0.998643 0.250000
Si Si4 0.512083 0.782703 0.627977
Si Si5 0.741838 0.616365 0.807636
Si Si6 0.252973 0.237339 0.431275
Si Si7 0.073140 0.812933 0.570252
Si Si8 0.565427 0.451458 0.951816
O O1 0.205928 0.797704 0.107343
O O2 0.377240 0.861425 0.424125
O O3 0.152116 0.047565 0.120240
O O4 0.101878 0.807988 0.132994
O O5 0.204117 0.506889 0.065699
O O6 0.431215 0.665305 0.300510
O O7 0.188873 0.725963 0.941109
O O8 0.439481 0.103014 0.247718
O O9 0.635436 0.900480 0.437832
O O10 0.650961 0.756582 0.735984
O O11 0.475231 0.620080 0.621585
O O12 0.884320 0.670245 0.931056
O O13 0.638407 0.531966 0.623215
O O14 0.123439 0.193483 0.220054
O O15 0.329980 0.388063 0.490841
#
# Coordination Sequence:
#
# PCOD8118316 Si02
#       8
#     4   4   2   4   4   4   4   4
#     4  11  22  42  64  87 123 162 209 247 303 368
#     4  11  20  36  63  87 122 157 200 256 303 356
#     4  12  24  34  60  96 130 156 198 252 320 362
#     4  11  22  37  63  96 119 159 205 255 305 364
#     4  10  21  38  63  93 114 155 211 255 299 356
#     4  11  23  39  58  92 129 158 200 251 314 363
#     4  10  25  42  61  88 124 168 202 252 306 364
#     4  10  19  38  59  93 124 153 195 264 302 353
#
# _framework density 21.471558999999999
#
# number of rings (size 3 to 8) (size 9 to 14) (size 15 to 20)
#    0.000    1.333    5.333    0.800    5.600    1.600 
#    0.000    0.000    0.000    0.800    0.000    0.000 
#    0.000    0.000    0.000    0.000    0.000    0.000 
#
# Total GULP energy -371866.649383 kJ/mol
# GULP energy per Si atom -12395.554979 kJ/mol
# Density = 2.142269 g / cm^3
# Si number density = 21.471559 Si / 1000 Ang^3
#
#
#
# Elastic Constant Matrix: (Units=GPa)
#
#
# Indices 1 2 3 4 5 6 
#
# 1 116.8865 41.8576 13.6285 0.0000 -7.0738 0.0000
# 2 41.8576 60.0362 7.1483 0.0000 -5.1981 0.0000
# 3 13.6285 7.1483 19.8180 0.0000 5.7596 0.0000
# 4 0.0000 0.0000 0.0000 23.7051 0.0000 3.1071
# 5 -7.0738 -5.1981 5.7596 0.0000 15.9597 0.0000
# 6 0.0000 0.0000 0.0000 3.1071 0.0000 47.4191
#
#
#
# Elastic Compliance Matrix: (Units=1/GPa)
#
#
# Indices 1 2 3 4 5 6 
#
# 1 0.012386 -0.007217 -0.007626 0.000000 0.005891 0.000000
# 2 -0.007217 0.022809 -0.005020 0.000000 0.006042 0.000000
# 3 -0.007626 -0.005020 0.065882 0.000000 -0.028791 0.000000
# 4 0.000000 0.000000 0.000000 0.042550 0.000000 -0.002788
# 5 0.005891 0.006042 -0.028791 0.000000 0.077627 0.000000
# 6 0.000000 0.000000 0.000000 -0.002788 0.000000 0.021271
#
#
# Mechanical properties :
#
#
# Convention : Reuss Voigt Hill
#
# Bulk Modulus (GPa) = 16.30002 35.77884 26.03943
# Shear Modulus (GPa) = 16.51789 26.35720 21.43754
#
# Velocity S-wave (km/s) = 2.77662 3.50743 3.16320
# Velocity P-wave (km/s) = 4.22935 5.75346 5.04924
#
# Compressibility (1/GPa) = 0.06134962
#
# Stress axis : x y z
#
# Youngs Moduli (GPa) = 80.73945 43.84184 15.17872
#
# Poissons Ratio (x) = 0.31641 0.11576
# Poissons Ratio (y) = 0.58271 0.07620
# Poissons Ratio (z) = 0.61574 0.22009
#
# Static dielectric constant tensor:
#      x y z
#    x 4.028780 0.000000 0.017020 
#    y 0.000000 3.857510 0.000000 
#    z 0.017020 0.000000 3.591890 
# 
# 
# High freq. dielectric constant tensor:
#      x y z
#    x 1.852900 0.000000 0.005950 
#    y 0.000000 1.848660 0.000000 
#    z 0.005950 0.000000 1.810330 
# 
# From -- ./inp_files/70604.got.cif
#   From: 2010.06.25/outbox.cif.g09.slc.cpg/sg13_36_cif.got.tgz:70604.got - 2010.06.28 04:50:58.
