data_PCOD8118369
_publ_section_title
;
Structure prediction by ZEFSAII (Michael W. Deem and Ramdas Pophale) SiO2 
 PCOD8118369
Probable space group: P 2/C
;
_chemical_formula_sum "Si O2"
_cell_formula_units_Z 28
_cell_length_a 16.360124
_cell_length_b 8.832312
_cell_length_c 20.342463
_cell_angle_alpha 90.000000
_cell_angle_beta 152.283133
_cell_angle_gamma 90.000000
_cell_volume 1367.141171
_symmetry_space_group_name_H-M "P 2/C"
_symmetry_group_IT_number 13
_symmetry_cell_setting 'monoclinic'
loop_
_space_group_symop_operation_xyz
x,y,z
-x,y,1/2-z
-x,-y,-z
x,-y,1/2+z
loop_
_atom_site_type_symbol
_atom_site_label
_atom_site_fract_x
_atom_site_fract_y
_atom_site_fract_z
Si Si1 0.288169 0.821186 0.479115
Si Si2 0.630503 0.989331 0.232326
Si Si3 0.940566 0.787603 0.985996
Si Si4 0.222474 0.894526 0.288309
Si Si5 0.952104 0.910683 0.650334
Si Si6 0.695418 0.598849 0.897062
Si Si7 0.226804 0.262859 0.584838
O O1 0.287012 0.799031 0.398543
O O2 0.252715 0.662952 0.493012
O O3 0.471824 0.897251 0.633972
O O4 0.129137 0.927887 0.386434
O O5 0.616627 0.936711 0.145941
O O6 0.623365 0.834780 0.270594
O O7 0.825382 0.061676 0.386174
O O8 0.805953 0.662178 0.914880
O O9 0.075936 0.806333 0.142137
O O10 0.047215 0.723558 0.999343
O O11 0.137017 0.055564 0.246832
O O12 0.811350 0.823231 0.509063
O O13 0.000000 0.815432 0.750000
O O14 0.500000 0.658213 0.750000
O O15 0.701557 0.419885 0.891550
#
# Coordination Sequence:
#
# PCOD8118369 Si02
#       7
#     4   4   4   4   4   4   4
#     4  11  23  37  62  90 129 155 195 253 313 358
#     4  11  20  38  69  91 120 156 207 261 300 351
#     4  11  20  41  66  87 119 163 206 248 302 366
#     4  10  19  38  65  95 114 156 207 244 303 365
#     4  10  20  37  60  90 119 153 204 255 296 357
#     4  12  25  39  59  89 126 163 203 248 307 370
#     4  11  23  39  62  88 123 161 206 250 303 362
#
# _framework density 20.480694
#
# number of rings (size 3 to 8) (size 9 to 14) (size 15 to 20)
#    0.000    1.143    5.714    1.714    2.000    0.000 
#    2.571    0.000    0.000    3.429    0.000    0.000 
#    0.000    0.000    0.000    0.000    0.000    0.000 
#
# Total GULP energy -346900.781007 kJ/mol
# GULP energy per Si atom -12389.313607 kJ/mol
# Density = 2.043408 g / cm^3
# Si number density = 20.480694 Si / 1000 Ang^3
#
#
#
# Elastic Constant Matrix: (Units=GPa)
#
#
# Indices 1 2 3 4 5 6 
#
# 1 88.2357 41.7417 40.4666 0.0000 -22.6747 0.0000
# 2 41.7417 91.0975 31.8508 0.0000 -20.6274 0.0000
# 3 40.4666 31.8508 78.3852 0.0000 -16.2046 0.0000
# 4 0.0000 0.0000 0.0000 11.3356 0.0000 1.0691
# 5 -22.6747 -20.6274 -16.2046 0.0000 42.1339 0.0000
# 6 0.0000 0.0000 0.0000 1.0691 0.0000 33.5093
#
#
#
# Elastic Compliance Matrix: (Units=1/GPa)
#
#
# Indices 1 2 3 4 5 6 
#
# 1 0.017691 -0.004871 -0.006169 0.000000 0.004763 0.000000
# 2 -0.004871 0.015026 -0.002838 0.000000 0.003644 0.000000
# 3 -0.006169 -0.002838 0.017514 0.000000 0.002027 0.000000
# 4 0.000000 0.000000 0.000000 0.088484 0.000000 -0.002823
# 5 0.004763 0.003644 0.002027 0.000000 0.028861 0.000000
# 6 0.000000 0.000000 0.000000 -0.002823 0.000000 0.029933
#
#
# Mechanical properties :
#
#
# Convention : Reuss Voigt Hill
#
# Bulk Modulus (GPa) = 44.49150 53.98185 49.23668
# Shear Modulus (GPa) = 21.48172 26.97305 24.22738
#
# Velocity S-wave (km/s) = 3.24215 3.63298 3.44312
# Velocity P-wave (km/s) = 5.98215 6.63421 6.31660
#
# Compressibility (1/GPa) = 0.02247620
#
# Stress axis : x y z
#
# Youngs Moduli (GPa) = 56.52679 66.54985 57.09562
#
# Poissons Ratio (x) = 0.32413 0.35223
# Poissons Ratio (y) = 0.27532 0.16204
# Poissons Ratio (z) = 0.34872 0.18887
#
# Static dielectric constant tensor:
#      x y z
#    x 4.203590 0.000000 -0.214030 
#    y 0.000000 3.349840 0.000000 
#    z -0.214030 0.000000 3.789040 
# 
# 
# High freq. dielectric constant tensor:
#      x y z
#    x 1.824410 0.000000 -0.004010 
#    y 0.000000 1.757090 0.000000 
#    z -0.004010 0.000000 1.801280 
# 
# From -- ./inp_files/80874.got.cif
#   From: 2010.06.25/outbox.cif.g09.slc.cpg/sg13_41_cif.got.tgz:80874.got - 2010.06.28 04:50:58.
