data_PCOD8118224
_publ_section_title
;
Structure prediction by ZEFSAII (Michael W. Deem and Ramdas Pophale) SiO2 
 PCOD8118224
Probable space group: P 2/C
;
_chemical_formula_sum "Si O2"
_cell_formula_units_Z 20
_cell_length_a 10.207184
_cell_length_b 19.949750
_cell_length_c 5.175683
_cell_angle_alpha 90.000000
_cell_angle_beta 95.856368
_cell_angle_gamma 90.000000
_cell_volume 1048.427655
_symmetry_space_group_name_H-M "P 2/C"
_symmetry_group_IT_number 13
_symmetry_cell_setting 'monoclinic'
loop_
_space_group_symop_operation_xyz
x,y,z
-x,y,1/2-z
-x,-y,-z
x,-y,1/2+z
loop_
_atom_site_type_symbol
_atom_site_label
_atom_site_fract_x
_atom_site_fract_y
_atom_site_fract_z
Si Si1 0.000000 0.771111 0.750000
Si Si2 0.000000 0.454112 0.250000
Si Si3 0.278350 0.812905 0.731560
Si Si4 0.652540 0.965939 0.780278
Si Si5 0.648381 0.731096 0.251500
Si Si6 0.109748 0.347662 0.575902
O O1 0.119670 0.816558 0.670961
O O2 0.944758 0.724935 0.511219
O O3 0.119979 0.400909 0.336675
O O4 0.000000 0.500000 0.500000
O O5 0.333325 0.886646 0.710292
O O6 0.338289 0.766309 0.521959
O O7 0.321485 0.784184 0.016831
O O8 0.500000 0.985446 0.750000
O O9 0.720342 0.999237 0.542511
O O10 0.500000 0.703830 0.250000
O O11 0.744967 0.665826 0.279548
O O12 0.000000 0.378620 0.750000
#
# Coordination Sequence:
#
# PCOD8118224 Si02
#       6
#     2   2   4   4   4   4
#     4   9  20  34  56  84 110 147 178 234 288 341
#     4  11  22  36  60  90 114 151 196 226 254 317
#     4  11  21  36  56  80 112 144 188 231 291 342
#     4  10  20  34  50  70 101 143 187 232 279 334
#     4  11  22  35  58  88 115 144 184 235 289 336
#     4  10  19  37  59  86 117 147 181 231 279 323
#
# _framework density 19.076184000000001
#
# number of rings (size 3 to 8) (size 9 to 14) (size 15 to 20)
#    0.000    1.600    3.000    3.000    0.000    1.600 
#    0.000    1.000    0.000    1.200    0.000    0.000 
#    0.000    0.000    0.000    0.000    0.000    0.000 
#
# Total GULP energy -247785.852305 kJ/mol
# GULP energy per Si atom -12389.292615 kJ/mol
# Density = 1.903277 g / cm^3
# Si number density = 19.076184 Si / 1000 Ang^3
#
#
#
# Elastic Constant Matrix: (Units=GPa)
#
#
# Indices 1 2 3 4 5 6 
#
# 1 105.5018 12.9790 21.4459 0.0000 4.7829 0.0000
# 2 12.9790 84.0899 35.3844 0.0000 1.6608 0.0000
# 3 21.4459 35.3844 96.0115 0.0000 -11.1822 0.0000
# 4 0.0000 0.0000 0.0000 37.6846 0.0000 -0.8804
# 5 4.7829 1.6608 -11.1822 0.0000 23.7557 0.0000
# 6 0.0000 0.0000 0.0000 -0.8804 0.0000 9.0138
#
#
#
# Elastic Compliance Matrix: (Units=1/GPa)
#
#
# Indices 1 2 3 4 5 6 
#
# 1 0.010183 -0.000469 -0.002472 0.000000 -0.003181 0.000000
# 2 -0.000469 0.014398 -0.005616 0.000000 -0.003556 0.000000
# 3 -0.002472 -0.005616 0.013903 0.000000 0.007435 0.000000
# 4 0.000000 0.000000 0.000000 0.026597 0.000000 0.002598
# 5 -0.003181 -0.003556 0.007435 0.000000 0.046484 0.000000
# 6 0.000000 0.000000 0.000000 0.002598 0.000000 0.111195
#
#
# Mechanical properties :
#
#
# Convention : Reuss Voigt Hill
#
# Bulk Modulus (GPa) = 46.79302 47.24688 47.01995
# Shear Modulus (GPa) = 20.24324 28.47707 24.36016
#
# Velocity S-wave (km/s) = 3.26111 3.86788 3.57738
# Velocity P-wave (km/s) = 6.22596 6.69093 6.46263
#
# Compressibility (1/GPa) = 0.02137071
#
# Stress axis : x y z
#
# Youngs Moduli (GPa) = 98.20347 69.45616 71.92603
#
# Poissons Ratio (x) = 0.03254 0.17783
# Poissons Ratio (y) = 0.04601 0.40391
# Poissons Ratio (z) = 0.24280 0.39004
#
# Static dielectric constant tensor:
#      x y z
#    x 3.677730 0.000000 -0.074080 
#    y 0.000000 3.472330 0.000000 
#    z -0.074080 0.000000 3.947330 
# 
# 
# High freq. dielectric constant tensor:
#      x y z
#    x 1.713580 0.000000 -0.003240 
#    y 0.000000 1.726970 0.000000 
#    z -0.003240 0.000000 1.764940 
# 
# From -- ./inp_files/3544.got.cif
#   From: 2010.06.25/outbox.cif.g09.slc.cpg/sg13_2_cif.got.tgz:3544.got - 2010.06.28 04:50:58.
