data_PCOD8118543
_publ_section_title
;
Structure prediction by ZEFSAII (Michael W. Deem and Ramdas Pophale) SiO2 
 PCOD8118543
Probable space group: P 2/C
;
_chemical_formula_sum "Si O2"
_cell_formula_units_Z 24
_cell_length_a 7.764750
_cell_length_b 9.343531
_cell_length_c 19.355066
_cell_angle_alpha 90.000000
_cell_angle_beta 57.508928
_cell_angle_gamma 90.000000
_cell_volume 1184.419262
_symmetry_space_group_name_H-M "P 2/C"
_symmetry_group_IT_number 13
_symmetry_cell_setting 'monoclinic'
loop_
_space_group_symop_operation_xyz
x,y,z
-x,y,1/2-z
-x,-y,-z
x,-y,1/2+z
loop_
_atom_site_type_symbol
_atom_site_label
_atom_site_fract_x
_atom_site_fract_y
_atom_site_fract_z
Si Si1 0.289561 0.110376 0.905721
Si Si2 0.602555 0.055498 0.408192
Si Si3 0.372898 0.575407 0.346180
Si Si4 0.925009 0.370084 0.159238
Si Si5 0.981303 0.067428 0.404317
Si Si6 0.327867 0.365646 0.150090
O O1 0.306161 0.279762 0.897764
O O2 0.515651 0.038909 0.863096
O O3 0.168234 0.055383 0.998435
O O4 0.165939 0.047124 0.866764
O O5 0.848559 0.037474 0.363308
O O6 0.559914 0.223933 0.403201
O O7 0.500000 0.000000 0.500000
O O8 0.500000 0.611068 0.250000
O O9 0.166883 0.492774 0.369732
O O10 0.503003 0.488287 0.375120
O O11 0.775665 0.333053 0.254450
O O12 0.929105 0.226523 0.113756
O O13 0.151477 0.418495 0.135040
#
# Coordination Sequence:
#
# PCOD8118543 Si02
#       6
#     4   4   4   4   4   4
#     4  10  20  33  50  74 104 130 161 210 255 295
#     4   9  18  34  53  74 100 130 167 208 247 293
#     4  10  21  34  50  76 105 132 165 207 255 304
#     4   9  18  34  53  73  97 131 172 204 242 301
#     4   9  19  35  52  72  98 132 170 205 247 298
#     4   9  18  34  54  72  98 134 168 205 247 297
#
# _framework density 20.263096000000001
#
# number of rings (size 3 to 8) (size 9 to 14) (size 15 to 20)
#    0.000    2.667    0.000    1.000    0.000    3.333 
#    0.000    7.500    0.000    0.000    0.000    0.000 
#    0.000    0.000    0.000    0.000    0.000    0.000 
#
# Total GULP energy -297468.845698 kJ/mol
# GULP energy per Si atom -12394.535237 kJ/mol
# Density = 2.021698 g / cm^3
# Si number density = 20.263096 Si / 1000 Ang^3
#
#
#
# Elastic Constant Matrix: (Units=GPa)
#
#
# Indices 1 2 3 4 5 6 
#
# 1 176.7893 109.2545 17.7156 0.0000 5.2929 0.0000
# 2 109.2545 151.2103 15.4430 0.0000 1.6115 0.0000
# 3 17.7156 15.4430 15.5728 0.0000 0.0224 0.0000
# 4 0.0000 0.0000 0.0000 14.6513 0.0000 -4.5131
# 5 5.2929 1.6115 0.0224 0.0000 10.0771 0.0000
# 6 0.0000 0.0000 0.0000 -4.5131 0.0000 30.0802
#
#
#
# Elastic Compliance Matrix: (Units=1/GPa)
#
#
# Indices 1 2 3 4 5 6 
#
# 1 0.010750 -0.007200 -0.005082 0.000000 -0.004483 0.000000
# 2 -0.007200 0.012195 -0.003905 0.000000 0.001840 0.000000
# 3 -0.005082 -0.003905 0.073864 0.000000 0.003129 0.000000
# 4 0.000000 0.000000 0.000000 0.071561 0.000000 0.010737
# 5 -0.004483 0.001840 0.003129 0.000000 0.101288 0.000000
# 6 0.000000 0.000000 0.000000 0.010737 0.000000 0.034855
#
#
# Mechanical properties :
#
#
# Convention : Reuss Voigt Hill
#
# Bulk Modulus (GPa) = 15.51982 69.82206 42.67094
# Shear Modulus (GPa) = 13.95227 24.37234 19.16231
#
# Velocity S-wave (km/s) = 2.62688 3.47190 3.07852
# Velocity P-wave (km/s) = 4.10810 7.11369 5.80866
#
# Compressibility (1/GPa) = 0.06443376
#
# Stress axis : x y z
#
# Youngs Moduli (GPa) = 93.02714 82.00200 13.53842
#
# Poissons Ratio (x) = 0.59042 0.06880
# Poissons Ratio (y) = 0.66980 0.05287
# Poissons Ratio (z) = 0.47277 0.32022
#
# Static dielectric constant tensor:
#      x y z
#    x 4.646930 0.000000 0.056380 
#    y 0.000000 3.452640 0.000000 
#    z 0.056380 0.000000 3.285510 
# 
# 
# High freq. dielectric constant tensor:
#      x y z
#    x 1.818660 0.000000 0.004550 
#    y 0.000000 1.781310 0.000000 
#    z 0.004550 0.000000 1.755120 
# 
# From -- ./inp_files/75193.got.cif
#   From: 2010.06.25/outbox.cif.g09.slc.cpg/sg13_38_cif.got.tgz:75193.got - 2010.06.28 04:50:58.
