data_PCOD8118437
_publ_section_title
;
Structure prediction by ZEFSAII (Michael W. Deem and Ramdas Pophale) SiO2 
 PCOD8118437
Probable space group: P 2/C
;
_chemical_formula_sum "Si O2"
_cell_formula_units_Z 16
_cell_length_a 6.770374
_cell_length_b 18.010892
_cell_length_c 5.510296
_cell_angle_alpha 90.000000
_cell_angle_beta 72.309116
_cell_angle_gamma 90.000000
_cell_volume 640.152525
_symmetry_space_group_name_H-M "P 2/C"
_symmetry_group_IT_number 13
_symmetry_cell_setting 'monoclinic'
loop_
_space_group_symop_operation_xyz
x,y,z
-x,y,1/2-z
-x,-y,-z
x,-y,1/2+z
loop_
_atom_site_type_symbol
_atom_site_label
_atom_site_fract_x
_atom_site_fract_y
_atom_site_fract_z
Si Si1 0.194761 0.659112 0.017593
Si Si2 0.726336 0.798597 0.774398
Si Si3 0.252531 0.037533 0.313727
Si Si4 0.500000 0.732082 0.250000
Si Si5 0.500000 0.454319 0.250000
O O1 0.398337 0.677406 0.096598
O O2 0.000000 0.632653 0.250000
O O3 0.129564 0.732738 0.887184
O O4 0.283239 0.592907 0.817503
O O5 0.500000 0.793839 0.750000
O O6 0.828488 0.877754 0.676845
O O7 0.684179 0.785039 0.076079
O O8 0.500000 0.033811 0.250000
O O9 0.166512 0.000597 0.594933
O O10 0.500000 0.500000 0.500000
#
# Coordination Sequence:
#
# PCOD8118437 Si02
#       5
#     4   4   4   2   2
#     4  11  24  44  71 102 134 181 232 276 337 409
#     4   9  19  34  60  91 129 178 228 286 331 396
#     4   9  18  28  49  86 130 174 225 278 339 399
#     4  10  19  40  66  95 136 174 228 294 333 388
#     4  12  27  50  74 105 146 176 218 282 345 418
#
# _framework density 24.994045
#
# number of rings (size 3 to 8) (size 9 to 14) (size 15 to 20)
#    0.000    2.000    3.750    0.750   12.250    2.000 
#    0.000    0.000    0.000    1.500    0.000    0.000 
#    0.000    0.000    0.000    0.000    0.000    0.000 
#
# Total GULP energy -198235.602198 kJ/mol
# GULP energy per Si atom -12389.725137 kJ/mol
# Density = 2.493716 g / cm^3
# Si number density = 24.994045 Si / 1000 Ang^3
#
#
#
# Elastic Constant Matrix: (Units=GPa)
#
#
# Indices 1 2 3 4 5 6 
#
# 1 52.7396 22.3228 44.1983 0.0000 7.4110 0.0000
# 2 22.3228 183.6674 105.1029 0.0000 -8.0477 0.0000
# 3 44.1983 105.1029 195.3759 0.0000 -4.0943 0.0000
# 4 0.0000 0.0000 0.0000 60.2392 0.0000 4.5257
# 5 7.4110 -8.0477 -4.0943 0.0000 53.0039 0.0000
# 6 0.0000 0.0000 0.0000 4.5257 0.0000 -13.2638
#
#
#
# Elastic Compliance Matrix: (Units=1/GPa)
#
#
# Indices 1 2 3 4 5 6 
#
# 1 0.024140 0.000102 -0.005595 0.000000 -0.003792 0.000000
# 2 0.000102 0.007907 -0.004258 0.000000 0.000857 0.000000
# 3 -0.005595 -0.004258 0.008692 0.000000 0.000807 0.000000
# 4 0.000000 0.000000 0.000000 0.016186 0.000000 0.005523
# 5 -0.003792 0.000857 0.000807 0.000000 0.019589 0.000000
# 6 0.000000 0.000000 0.000000 0.005523 0.000000 -0.073509
#
#
# Mechanical properties :
#
#
# Convention : Reuss Voigt Hill
#
# Bulk Modulus (GPa) = 47.09289 86.11455 66.60372
# Shear Modulus (GPa) = 168.99432 37.33978 103.16705
#
# Velocity S-wave (km/s) = 8.23168 3.86935 6.43166
# Velocity P-wave (km/s) = 10.45132 7.38183 9.04769
#
# Compressibility (1/GPa) = 0.02123463
#
# Stress axis : x y z
#
# Youngs Moduli (GPa) = 41.42519 126.47448 115.05017
#
# Poissons Ratio (x) = -0.01286 0.64372
# Poissons Ratio (y) = -0.00421 0.48994
# Poissons Ratio (z) = 0.23178 0.53859
#
# Static dielectric constant tensor:
#      x y z
#    x 4.257860 0.000000 0.021490 
#    y 0.000000 4.789610 0.000000 
#    z 0.021490 0.000000 0.680590 
# 
# 
# High freq. dielectric constant tensor:
#      x y z
#    x 1.988900 0.000000 -0.001210 
#    y 0.000000 1.987460 0.000000 
#    z -0.001210 0.000000 2.013700 
# 
# From -- ./inp_files/1420.got.cif
#   From: 2010.06.25/outbox.cif.g09.slc.cpg/sg13_1_cif.got.tgz:1420.got - 2010.06.28 04:50:58.
