data_PCOD8118580
_publ_section_title
;
Structure prediction by ZEFSAII (Michael W. Deem and Ramdas Pophale) SiO2 
 PCOD8118580
Probable space group: P 2/C
;
_chemical_formula_sum "Si O2"
_cell_formula_units_Z 28
_cell_length_a 21.606715
_cell_length_b 11.397577
_cell_length_c 27.465536
_cell_angle_alpha 90.000000
_cell_angle_beta 11.501043
_cell_angle_gamma 90.000000
_cell_volume 1348.601142
_symmetry_space_group_name_H-M "P 2/C"
_symmetry_group_IT_number 13
_symmetry_cell_setting 'monoclinic'
loop_
_space_group_symop_operation_xyz
x,y,z
-x,y,1/2-z
-x,-y,-z
x,-y,1/2+z
loop_
_atom_site_type_symbol
_atom_site_label
_atom_site_fract_x
_atom_site_fract_y
_atom_site_fract_z
Si Si1 0.823317 0.118424 0.584978
Si Si2 0.329406 0.868590 0.774430
Si Si3 0.656786 0.509868 0.494618
Si Si4 0.620886 0.131037 0.415710
Si Si5 0.251368 0.260326 0.624147
Si Si6 0.337831 0.750176 0.512341
Si Si7 0.451301 0.331233 0.340071
O O1 0.014377 0.127302 0.487396
O O2 0.038686 0.144027 0.371890
O O3 0.638606 0.994787 0.724215
O O4 0.556845 0.214709 0.798084
O O5 0.614690 0.830678 0.519418
O O6 0.303781 0.772675 0.837252
O O7 0.615788 0.606762 0.483796
O O8 0.554681 0.381559 0.554837
O O9 0.469889 0.560909 0.684962
O O10 0.000000 0.501718 0.250000
O O11 0.364443 0.217187 0.589727
O O12 0.643918 0.162549 0.455134
O O13 0.500000 0.000000 0.500000
O O14 0.884951 0.268193 0.897700
O O15 0.000000 0.752165 0.750000
O O16 0.500000 0.385763 0.250000
#
# Coordination Sequence:
#
# PCOD8118580 Si02
#       7
#     4   4   4   4   4   4   4
#     4  10  22  39  60  90 125 163 204 250 300 377
#     4   9  18  37  58  83 127 158 191 254 308 350
#     4   8  18  41  59  83 124 161 202 251 311 362
#     4  11  24  41  66  92 123 164 205 254 309 366
#     4   9  19  37  61  88 120 158 202 256 310 362
#     4  11  24  43  64  86 126 169 199 252 313 363
#     4  10  20  33  61  94 117 157 210 260 305 369
#
# _framework density 20.762253999999999
#
# number of rings (size 3 to 8) (size 9 to 14) (size 15 to 20)
#    0.000    2.286    0.000    3.857    4.000    3.429 
#    7.714    7.143    0.000    0.000    0.000    0.000 
#    0.000    0.000    0.000    0.000    0.000    0.000 
#
# Total GULP energy -346878.787377 kJ/mol
# GULP energy per Si atom -12388.528121 kJ/mol
# Density = 2.071500 g / cm^3
# Si number density = 20.762254 Si / 1000 Ang^3
#
#
#
# Elastic Constant Matrix: (Units=GPa)
#
#
# Indices 1 2 3 4 5 6 
#
# 1 87.2837 42.6131 12.7977 0.0000 7.3309 0.0000
# 2 42.6131 147.5343 36.4166 0.0000 3.7788 0.0000
# 3 12.7977 36.4166 82.6162 0.0000 14.1736 0.0000
# 4 0.0000 0.0000 0.0000 12.8894 0.0000 -7.2106
# 5 7.3309 3.7788 14.1736 0.0000 21.2707 0.0000
# 6 0.0000 0.0000 0.0000 -7.2106 0.0000 38.9874
#
#
#
# Elastic Compliance Matrix: (Units=1/GPa)
#
#
# Indices 1 2 3 4 5 6 
#
# 1 0.013681 -0.003927 0.000340 0.000000 -0.004244 0.000000
# 2 -0.003927 0.008751 -0.003630 0.000000 0.002217 0.000000
# 3 0.000340 -0.003630 0.015311 0.000000 -0.009675 0.000000
# 4 0.000000 0.000000 0.000000 0.086536 0.000000 0.016005
# 5 -0.004244 0.002217 -0.009675 0.000000 0.054528 0.000000
# 6 0.000000 0.000000 0.000000 0.016005 0.000000 0.028609
#
#
# Mechanical properties :
#
#
# Convention : Reuss Voigt Hill
#
# Bulk Modulus (GPa) = 42.89997 55.67656 49.28826
# Shear Modulus (GPa) = 21.77508 29.66997 25.72252
#
# Velocity S-wave (km/s) = 3.24200 3.78436 3.52363
# Velocity P-wave (km/s) = 5.89249 6.78009 6.35181
#
# Compressibility (1/GPa) = 0.02331004
#
# Stress axis : x y z
#
# Youngs Moduli (GPa) = 73.09661 114.26804 65.31133
#
# Poissons Ratio (x) = 0.44868 -0.02218
# Poissons Ratio (y) = 0.28702 0.23706
# Poissons Ratio (z) = -0.02483 0.41475
#
# Static dielectric constant tensor:
#      x y z
#    x 3.706390 0.000000 0.085650 
#    y 0.000000 4.173640 0.000000 
#    z 0.085650 0.000000 3.704740 
# 
# 
# High freq. dielectric constant tensor:
#      x y z
#    x 1.798860 0.000000 0.006040 
#    y 0.000000 1.815150 0.000000 
#    z 0.006040 0.000000 1.804860 
# 
# From -- ./inp_files/97715.got.cif
#   From: 2010.06.25/outbox.cif.g09.slc.cpg/sg13_49_cif.got.tgz:97715.got - 2010.06.28 04:50:58.
