data_PCOD8118354
_publ_section_title
;
Structure prediction by ZEFSAII (Michael W. Deem and Ramdas Pophale) SiO2 
 PCOD8118354
Probable space group: P 2/C
;
_chemical_formula_sum "Si O2"
_cell_formula_units_Z 22
_cell_length_a 5.004310
_cell_length_b 11.554191
_cell_length_c 16.866063
_cell_angle_alpha 90.000000
_cell_angle_beta 72.748149
_cell_angle_gamma 90.000000
_cell_volume 931.334198
_symmetry_space_group_name_H-M "P 2/C"
_symmetry_group_IT_number 13
_symmetry_cell_setting 'monoclinic'
loop_
_space_group_symop_operation_xyz
x,y,z
-x,y,1/2-z
-x,-y,-z
x,-y,1/2+z
loop_
_atom_site_type_symbol
_atom_site_label
_atom_site_fract_x
_atom_site_fract_y
_atom_site_fract_z
Si Si1 0.500000 0.826122 0.250000
Si Si2 0.923366 0.137901 0.595704
Si Si3 0.212513 0.327912 0.659010
Si Si4 0.584358 0.804310 0.653774
Si Si5 0.687789 0.565757 0.805864
Si Si6 0.818504 0.103348 0.435448
O O1 0.242116 0.900372 0.307776
O O2 0.541391 0.749582 0.325800
O O3 0.742148 0.148805 0.530736
O O4 0.080087 0.260993 0.595901
O O5 0.140983 0.034504 0.564047
O O6 0.303347 0.460136 0.630374
O O7 0.000000 0.343068 0.750000
O O8 0.500000 0.839439 0.750000
O O9 0.479860 0.674268 0.642972
O O10 0.440703 0.885260 0.601179
O O11 0.916374 0.821117 0.617449
O O12 0.500000 0.517902 0.750000
O O13 0.000000 0.604462 0.750000
#
# Coordination Sequence:
#
# PCOD8118354 Si02
#       6
#     2   4   4   4   4   4
#     4  10  20  38  66  94 122 164 224 256 316 396
#     4  10  25  41  64  94 134 172 215 274 333 385
#     4   9  19  36  62  95 123 168 216 274 316 386
#     4  11  24  42  68  94 127 177 221 264 320 405
#     4  10  19  38  63  95 130 165 222 274 328 381
#     4  11  26  44  64  94 137 173 213 274 334 385
#
# _framework density 23.622024
#
# number of rings (size 3 to 8) (size 9 to 14) (size 15 to 20)
#    0.000    1.818    0.909    2.727    6.364    4.364 
#    0.000    1.818    0.000    0.000    0.000    0.000 
#    0.000    0.000    0.000    0.000    0.000    0.000 
#
# Total GULP energy -272582.038644 kJ/mol
# GULP energy per Si atom -12390.092666 kJ/mol
# Density = 2.356826 g / cm^3
# Si number density = 23.622024 Si / 1000 Ang^3
#
#
#
# Elastic Constant Matrix: (Units=GPa)
#
#
# Indices 1 2 3 4 5 6 
#
# 1 67.3155 1.3820 13.0308 0.0000 9.6409 0.0000
# 2 1.3820 87.4186 31.1276 0.0000 3.7625 0.0000
# 3 13.0308 31.1276 104.7753 0.0000 14.4415 0.0000
# 4 0.0000 0.0000 0.0000 21.7541 0.0000 20.6695
# 5 9.6409 3.7625 14.4415 0.0000 38.7529 0.0000
# 6 0.0000 0.0000 0.0000 20.6695 0.0000 -11.6855
#
#
#
# Elastic Compliance Matrix: (Units=1/GPa)
#
#
# Indices 1 2 3 4 5 6 
#
# 1 0.015638 0.000475 -0.001627 0.000000 -0.003330 0.000000
# 2 0.000475 0.012808 -0.003876 0.000000 0.000082 0.000000
# 3 -0.001627 -0.003876 0.011375 0.000000 -0.003458 0.000000
# 4 0.000000 0.000000 0.000000 0.017148 0.000000 0.030332
# 5 -0.003330 0.000082 -0.003458 0.000000 0.027913 0.000000
# 6 0.000000 0.000000 0.000000 0.030332 0.000000 -0.031924
#
#
# Mechanical properties :
#
#
# Convention : Reuss Voigt Hill
#
# Bulk Modulus (GPa) = 33.59559 38.95444 36.27502
# Shear Modulus (GPa) = 68.55435 24.02890 46.29162
#
# Velocity S-wave (km/s) = 5.39299 3.19286 4.43163
# Velocity P-wave (km/s) = 7.28232 5.48807 6.44791
#
# Compressibility (1/GPa) = 0.02976581
#
# Stress axis : x y z
#
# Youngs Moduli (GPa) = 63.94856 78.07509 87.91509
#
# Poissons Ratio (x) = -0.03712 0.14305
# Poissons Ratio (y) = -0.03041 0.34073
# Poissons Ratio (z) = 0.10405 0.30259
#
# Static dielectric constant tensor:
#      x y z
#    x 4.488210 0.000000 0.118470 
#    y 0.000000 4.454430 0.000000 
#    z 0.118470 0.000000 4.064540 
# 
# 
# High freq. dielectric constant tensor:
#      x y z
#    x 1.945220 0.000000 0.006960 
#    y 0.000000 1.936030 0.000000 
#    z 0.006960 0.000000 1.907240 
# 
# From -- ./inp_files/43636.got.cif
#   From: 2010.06.25/outbox.cif.g09.slc.cpg/sg13_22_cif.got.tgz:43636.got - 2010.06.28 04:50:58.
