data_PCOD8118482
_publ_section_title
;
Structure prediction by ZEFSAII (Michael W. Deem and Ramdas Pophale) SiO2 
 PCOD8118482
Probable space group: P 2/C
;
_chemical_formula_sum "Si O2"
_cell_formula_units_Z 20
_cell_length_a 20.745550
_cell_length_b 10.301797
_cell_length_c 8.893968
_cell_angle_alpha 90.000000
_cell_angle_beta 149.796429
_cell_angle_gamma 90.000000
_cell_volume 956.236273
_symmetry_space_group_name_H-M "P 2/C"
_symmetry_group_IT_number 13
_symmetry_cell_setting 'monoclinic'
loop_
_space_group_symop_operation_xyz
x,y,z
-x,y,1/2-z
-x,-y,-z
x,-y,1/2+z
loop_
_atom_site_type_symbol
_atom_site_label
_atom_site_fract_x
_atom_site_fract_y
_atom_site_fract_z
Si Si1 0.500000 0.981635 0.750000
Si Si2 0.857629 0.620598 0.139513
Si Si3 0.154927 0.360044 0.237108
Si Si4 0.843528 0.886911 0.194563
Si Si5 0.662249 0.114624 0.833524
Si Si6 0.000000 0.992670 0.250000
O O1 0.597426 0.081006 0.862856
O O2 0.439695 0.879314 0.508234
O O3 0.795879 0.490494 0.082214
O O4 0.783619 0.742835 0.065270
O O5 0.005978 0.649788 0.484722
O O6 0.833353 0.617481 0.914884
O O7 0.243683 0.239027 0.466257
O O8 0.891864 0.914100 0.461566
O O9 0.955230 0.896691 0.292630
O O10 0.740581 0.990257 0.938027
#
# Coordination Sequence:
#
# PCOD8118482 Si02
#       6
#     2   4   4   4   4   2
#     4  10  24  40  62  86 108 152 220 262 284 324
#     4  10  21  35  56  90 122 152 186 220 289 385
#     4  10  21  37  57  84 123 158 185 230 292 356
#     4  11  20  34  57  85 120 153 187 239 296 352
#     4  11  22  40  62  84 113 152 200 256 297 328
#     4  10  20  30  54  94 124 152 192 226 288 382
#
# _framework density 20.915331999999999
#
# number of rings (size 3 to 8) (size 9 to 14) (size 15 to 20)
#    0.000    1.600    0.000    7.200    0.000    6.400 
#    0.000    0.000    0.000   20.400    0.000    0.000 
#    0.000    0.000    0.000    0.000    0.000    0.000 
#
# Total GULP energy -247843.689800 kJ/mol
# GULP energy per Si atom -12392.184490 kJ/mol
# Density = 2.086773 g / cm^3
# Si number density = 20.915332 Si / 1000 Ang^3
#
#
#
# Elastic Constant Matrix: (Units=GPa)
#
#
# Indices 1 2 3 4 5 6 
#
# 1 58.0108 48.4250 32.1373 0.0000 -5.5167 0.0000
# 2 48.4250 194.5015 50.5779 0.0000 -2.0372 0.0000
# 3 32.1373 50.5779 89.7459 0.0000 -18.4362 0.0000
# 4 0.0000 0.0000 0.0000 20.4655 0.0000 -7.4070
# 5 -5.5167 -2.0372 -18.4362 0.0000 30.8391 0.0000
# 6 0.0000 0.0000 0.0000 -7.4070 0.0000 16.1539
#
#
#
# Elastic Compliance Matrix: (Units=1/GPa)
#
#
# Indices 1 2 3 4 5 6 
#
# 1 0.024414 -0.004479 -0.006136 0.000000 0.000404 0.000000
# 2 -0.004479 0.006941 -0.002711 0.000000 -0.001963 0.000000
# 3 -0.006136 -0.002711 0.016650 0.000000 0.008677 0.000000
# 4 0.000000 0.000000 0.000000 0.058585 0.000000 0.026863
# 5 0.000404 -0.001963 0.008677 0.000000 0.037556 0.000000
# 6 0.000000 0.000000 0.000000 0.026863 0.000000 0.074222
#
#
# Mechanical properties :
#
#
# Convention : Reuss Voigt Hill
#
# Bulk Modulus (GPa) = 46.82920 67.17099 57.00010
# Shear Modulus (GPa) = 19.83047 27.56623 23.69835
#
# Velocity S-wave (km/s) = 3.08251 3.63435 3.36975
# Velocity P-wave (km/s) = 5.92517 7.05668 6.51554
#
# Compressibility (1/GPa) = 0.02135420
#
# Stress axis : x y z
#
# Youngs Moduli (GPa) = 40.95976 144.07433 60.05954
#
# Poissons Ratio (x) = 0.64526 0.36850
# Poissons Ratio (y) = 0.18345 0.16283
# Poissons Ratio (z) = 0.25131 0.39062
#
# Static dielectric constant tensor:
#      x y z
#    x 3.911370 0.000000 0.007360 
#    y 0.000000 3.944710 0.000000 
#    z 0.007360 0.000000 3.874870 
# 
# 
# High freq. dielectric constant tensor:
#      x y z
#    x 1.808740 0.000000 -0.028700 
#    y 0.000000 1.817100 0.000000 
#    z -0.028700 0.000000 1.811500 
# 
# From -- ./inp_files/14957.got.cif
#   From: 2010.06.25/outbox.cif.g09.slc.cpg/sg13_8_cif.got.tgz:14957.got - 2010.06.28 04:50:58.
