data_PCOD8118327
_publ_section_title
;
Structure prediction by ZEFSAII (Michael W. Deem and Ramdas Pophale) SiO2 
 PCOD8118327
Probable space group: P 2/C
;
_chemical_formula_sum "Si O2"
_cell_formula_units_Z 24
_cell_length_a 9.038604
_cell_length_b 9.376189
_cell_length_c 29.347305
_cell_angle_alpha 90.000000
_cell_angle_beta 25.975072
_cell_angle_gamma 90.000000
_cell_volume 1089.306961
_symmetry_space_group_name_H-M "P 2/C"
_symmetry_group_IT_number 13
_symmetry_cell_setting 'monoclinic'
loop_
_space_group_symop_operation_xyz
x,y,z
-x,y,1/2-z
-x,-y,-z
x,-y,1/2+z
loop_
_atom_site_type_symbol
_atom_site_label
_atom_site_fract_x
_atom_site_fract_y
_atom_site_fract_z
Si Si1 0.481471 0.638654 0.305165
Si Si2 0.600900 0.832991 0.607239
Si Si3 0.620846 0.158368 0.586740
Si Si4 0.526055 0.328423 0.526098
Si Si5 0.242383 0.663266 0.781458
Si Si6 0.261656 0.625932 0.008138
O O1 0.500000 0.712577 0.250000
O O2 0.558149 0.752286 0.323338
O O3 0.722327 0.501763 0.243967
O O4 0.095462 0.582120 0.414954
O O5 0.322779 0.769163 0.717932
O O6 0.566663 0.748522 0.569353
O O7 0.976250 0.820387 0.524156
O O8 0.509144 0.996353 0.623662
O O9 0.479178 0.207963 0.577075
O O10 0.513527 0.482314 0.554488
O O11 0.229179 0.318349 0.570015
O O12 0.867469 0.308458 0.402545
O O13 0.500000 0.699088 0.750000
#
# Coordination Sequence:
#
# PCOD8118327 Si02
#       6
#     4   4   4   4   4   4
#     4  10  19  38  61  86 109 145 194 238 271 332
#     4  10  21  37  57  83 114 153 187 229 277 344
#     4  10  21  37  58  84 113 152 190 224 284 339
#     4  11  21  37  60  87 112 149 187 239 283 331
#     4  11  19  35  61  86 112 143 196 236 275 323
#     4  10  21  37  60  83 115 145 188 233 291 326
#
# _framework density 22.032357000000001
#
# number of rings (size 3 to 8) (size 9 to 14) (size 15 to 20)
#    0.000    1.667    5.000    1.000    0.000    4.667 
#    3.000    0.833    3.667    0.000    0.000    0.000 
#    0.000    0.000    0.000    0.000    0.000    0.000 
#
# Total GULP energy -297587.336473 kJ/mol
# GULP energy per Si atom -12399.472353 kJ/mol
# Density = 2.198221 g / cm^3
# Si number density = 22.032357 Si / 1000 Ang^3
#
#
#
# Elastic Constant Matrix: (Units=GPa)
#
#
# Indices 1 2 3 4 5 6 
#
# 1 84.8005 63.1943 17.0243 0.0000 26.7998 0.0000
# 2 63.1943 132.2897 38.8874 0.0000 39.3885 0.0000
# 3 17.0243 38.8874 56.2569 0.0000 26.6226 0.0000
# 4 0.0000 0.0000 0.0000 18.9672 0.0000 6.0833
# 5 26.7998 39.3885 26.6226 0.0000 37.4662 0.0000
# 6 0.0000 0.0000 0.0000 6.0833 0.0000 28.9294
#
#
#
# Elastic Compliance Matrix: (Units=1/GPa)
#
#
# Indices 1 2 3 4 5 6 
#
# 1 0.019584 -0.007952 0.003380 0.000000 -0.008050 0.000000
# 2 -0.007952 0.014631 -0.004701 0.000000 -0.006354 0.000000
# 3 0.003380 -0.004701 0.028336 0.000000 -0.017611 0.000000
# 4 0.000000 0.000000 0.000000 0.056535 0.000000 -0.011888
# 5 -0.008050 -0.006354 -0.017611 0.000000 0.051643 0.000000
# 6 0.000000 0.000000 0.000000 -0.011888 0.000000 0.037067
#
#
# Mechanical properties :
#
#
# Convention : Reuss Voigt Hill
#
# Bulk Modulus (GPa) = 22.72398 56.83991 39.78194
# Shear Modulus (GPa) = 20.74605 27.35531 24.05068
#
# Velocity S-wave (km/s) = 3.07191 3.52745 3.30753
# Velocity P-wave (km/s) = 4.78732 6.51498 5.71679
#
# Compressibility (1/GPa) = 0.04400638
#
# Stress axis : x y z
#
# Youngs Moduli (GPa) = 51.06292 68.34682 35.29063
#
# Poissons Ratio (x) = 0.54347 -0.11928
# Poissons Ratio (y) = 0.40603 0.16589
# Poissons Ratio (z) = -0.17259 0.32127
#
# Static dielectric constant tensor:
#      x y z
#    x 4.160780 0.000000 0.076720 
#    y 0.000000 3.800500 0.000000 
#    z 0.076720 0.000000 3.953150 
# 
# 
# High freq. dielectric constant tensor:
#      x y z
#    x 1.871910 0.000000 0.007510 
#    y 0.000000 1.846940 0.000000 
#    z 0.007510 0.000000 1.859330 
# 
# From -- ./inp_files/95891.got.cif
#   From: 2010.06.25/outbox.cif.g09.slc.cpg/sg13_48_cif.got.tgz:95891.got - 2010.06.28 04:50:58.
