data_PCOD8118819
_publ_section_title
;
Structure prediction by ZEFSAII (Michael W. Deem and Ramdas Pophale) SiO2 
 PCOD8118819
Probable space group: P 2/C
;
_chemical_formula_sum "Si O2"
_cell_formula_units_Z 22
_cell_length_a 8.509398
_cell_length_b 13.712659
_cell_length_c 9.361219
_cell_angle_alpha 90.000000
_cell_angle_beta 89.016054
_cell_angle_gamma 90.000000
_cell_volume 1092.166561
_symmetry_space_group_name_H-M "P 2/C"
_symmetry_group_IT_number 13
_symmetry_cell_setting 'monoclinic'
loop_
_space_group_symop_operation_xyz
x,y,z
-x,y,1/2-z
-x,-y,-z
x,-y,1/2+z
loop_
_atom_site_type_symbol
_atom_site_label
_atom_site_fract_x
_atom_site_fract_y
_atom_site_fract_z
Si Si1 0.616686 0.075962 0.371464
Si Si2 0.500000 0.729711 0.250000
Si Si3 0.663986 0.871108 0.437990
Si Si4 0.638567 0.563703 0.062534
Si Si5 0.174992 0.784189 0.796362
Si Si6 0.180613 0.567308 0.726837
O O1 0.500000 0.041906 0.250000
O O2 0.515271 0.112615 0.506459
O O3 0.718396 0.168322 0.326254
O O4 0.725357 0.980103 0.397788
O O5 0.644825 0.795852 0.307123
O O6 0.569730 0.666283 0.118095
O O7 0.787129 0.828512 0.549559
O O8 0.709883 0.512204 0.200765
O O9 0.500000 0.500000 0.000000
O O10 0.774109 0.577439 0.940974
O O11 0.210695 0.669799 0.804622
O O12 0.000000 0.806017 0.750000
O O13 0.000000 0.535427 0.750000
#
# Coordination Sequence:
#
# PCOD8118819 Si02
#       6
#     4   2   4   4   4   4
#     4   9  18  37  60  87 116 156 207 248 305 354
#     4  12  22  36  66  94 128 150 216 256 316 358
#     4  10  20  35  62  88 119 158 200 257 298 366
#     4  12  23  41  65  95 121 161 209 266 303 366
#     4  10  22  38  60  84 120 162 201 246 303 367
#     4  11  24  43  63  88 126 166 205 249 316 374
#
# _framework density 20.143446000000001
#
# number of rings (size 3 to 8) (size 9 to 14) (size 15 to 20)
#    0.000    1.455    2.727    2.727    0.000    3.636 
#    0.000    0.000    0.000    0.000    0.000    0.000 
#    0.000    0.000    0.000    0.000    0.000    0.000 
#
# Total GULP energy -272785.799464 kJ/mol
# GULP energy per Si atom -12399.354521 kJ/mol
# Density = 2.009760 g / cm^3
# Si number density = 20.143446 Si / 1000 Ang^3
#
#
#
# Elastic Constant Matrix: (Units=GPa)
#
#
# Indices 1 2 3 4 5 6 
#
# 1 65.9703 24.4620 21.1379 0.0000 6.0800 0.0000
# 2 24.4620 69.7888 8.5016 0.0000 27.4097 0.0000
# 3 21.1379 8.5016 78.5035 0.0000 5.7931 0.0000
# 4 0.0000 0.0000 0.0000 32.2638 0.0000 1.7161
# 5 6.0800 27.4097 5.7931 0.0000 31.6619 0.0000
# 6 0.0000 0.0000 0.0000 1.7161 0.0000 26.1976
#
#
#
# Elastic Compliance Matrix: (Units=1/GPa)
#
#
# Indices 1 2 3 4 5 6 
#
# 1 0.019109 -0.007617 -0.004598 0.000000 0.003766 0.000000
# 2 -0.007617 0.024821 0.000852 0.000000 -0.020181 0.000000
# 3 -0.004598 0.000852 0.014063 0.000000 -0.002428 0.000000
# 4 0.000000 0.000000 0.000000 0.031103 0.000000 -0.002037
# 5 0.003766 -0.020181 -0.002428 0.000000 0.048775 0.000000
# 6 0.000000 0.000000 0.000000 -0.002037 0.000000 0.038305
#
#
# Mechanical properties :
#
#
# Convention : Reuss Voigt Hill
#
# Bulk Modulus (GPa) = 28.35487 35.82949 32.09218
# Shear Modulus (GPa) = 23.73512 28.70207 26.21859
#
# Velocity S-wave (km/s) = 3.43637 3.77886 3.61168
# Velocity P-wave (km/s) = 5.46369 6.07169 5.77570
#
# Compressibility (1/GPa) = 0.03526731
#
# Stress axis : x y z
#
# Youngs Moduli (GPa) = 52.33138 40.28835 71.10700
#
# Poissons Ratio (x) = 0.30687 0.32697
# Poissons Ratio (y) = 0.39860 -0.06059
# Poissons Ratio (z) = 0.24064 -0.03433
#
# Static dielectric constant tensor:
#      x y z
#    x 6.827290 0.000000 -2.894770 
#    y 0.000000 3.857870 0.000000 
#    z -2.894770 0.000000 6.128900 
# 
# 
# High freq. dielectric constant tensor:
#      x y z
#    x 1.759200 0.000000 0.006350 
#    y 0.000000 1.805320 0.000000 
#    z 0.006350 0.000000 1.793110 
# 
# From -- ./inp_files/12478.got.cif
#   From: 2010.06.25/outbox.cif.g09.slc.cpg/sg13_7_cif.got.tgz:12478.got - 2010.06.28 04:50:58.
