data_PCOD8118485
_publ_section_title
;
Structure prediction by ZEFSAII (Michael W. Deem and Ramdas Pophale) SiO2 
 PCOD8118485
Probable space group: P 2/C
;
_chemical_formula_sum "Si O2"
_cell_formula_units_Z 32
_cell_length_a 19.407574
_cell_length_b 14.325159
_cell_length_c 12.234869
_cell_angle_alpha 90.000000
_cell_angle_beta 151.930918
_cell_angle_gamma 90.000000
_cell_volume 1600.525861
_symmetry_space_group_name_H-M "P 2/C"
_symmetry_group_IT_number 13
_symmetry_cell_setting 'monoclinic'
loop_
_space_group_symop_operation_xyz
x,y,z
-x,y,1/2-z
-x,-y,-z
x,-y,1/2+z
loop_
_atom_site_type_symbol
_atom_site_label
_atom_site_fract_x
_atom_site_fract_y
_atom_site_fract_z
Si Si1 0.165974 0.845213 0.518171
Si Si2 0.696973 0.316447 0.172201
Si Si3 0.648284 0.170998 0.915119
Si Si4 0.622597 0.328633 0.715745
Si Si5 0.832417 0.973440 0.775876
Si Si6 0.336167 0.658882 0.477874
Si Si7 0.327415 0.144593 0.027551
Si Si8 0.325212 0.460116 0.521935
O O1 0.189432 0.737989 0.590884
O O2 0.201706 0.918958 0.661599
O O3 0.281009 0.876113 0.586770
O O4 0.000000 0.856316 0.250000
O O5 0.655121 0.253898 0.010992
O O6 0.552150 0.342849 0.037764
O O7 0.756352 0.410355 0.196110
O O8 0.500000 0.117703 0.750000
O O9 0.649887 0.222128 0.798592
O O10 0.780311 0.095595 0.104166
O O11 0.682488 0.344973 0.678735
O O12 0.704498 0.406730 0.905397
O O13 0.741449 0.068762 0.649633
O O14 0.000000 0.000000 0.000000
O O15 0.500000 0.667576 0.750000
O O16 0.255479 0.754006 0.401230
O O17 0.265998 0.566859 0.436930
O O18 0.500000 0.143730 0.250000
O O19 0.500000 0.458322 0.750000
#
# Coordination Sequence:
#
# PCOD8118485 Si02
#       8
#     4   4   4   4   4   4   4   4
#     4  11  22  39  60  84 116 158 196 242 305 347
#     4   8  15  29  53  80 108 147 194 236 285 352
#     4   8  16  31  54  82 110 145 195 244 287 342
#     4   9  16  31  51  81 117 150 188 239 298 340
#     4  11  22  39  60  85 115 154 203 245 287 366
#     4  10  20  31  49  83 121 152 188 242 292 344
#     4  11  24  39  57  88 121 151 197 246 295 349
#     4   8  16  29  50  83 116 149 192 238 289 349
#
# _framework density 19.993428000000002
#
# number of rings (size 3 to 8) (size 9 to 14) (size 15 to 20)
#    0.000    2.500    1.250    3.375    0.000    7.000 
#    0.000    0.000    0.000    0.750    3.250    0.000 
#    0.000    0.000    0.000    0.000    0.000    0.000 
#
# Total GULP energy -396433.143090 kJ/mol
# GULP energy per Si atom -12388.535722 kJ/mol
# Density = 1.994792 g / cm^3
# Si number density = 19.993428 Si / 1000 Ang^3
#
#
#
# Elastic Constant Matrix: (Units=GPa)
#
#
# Indices 1 2 3 4 5 6 
#
# 1 92.1637 40.5286 30.4381 0.0000 -11.3943 0.0000
# 2 40.5286 157.6263 49.5955 0.0000 -10.1081 0.0000
# 3 30.4381 49.5955 70.7506 0.0000 -6.4476 0.0000
# 4 0.0000 0.0000 0.0000 14.9999 0.0000 -8.6023
# 5 -11.3943 -10.1081 -6.4476 0.0000 27.1764 0.0000
# 6 0.0000 0.0000 0.0000 -8.6023 0.0000 21.6485
#
#
#
# Elastic Compliance Matrix: (Units=1/GPa)
#
#
# Indices 1 2 3 4 5 6 
#
# 1 0.013552 -0.001936 -0.004110 0.000000 0.003987 0.000000
# 2 -0.001936 0.008494 -0.005016 0.000000 0.001158 0.000000
# 3 -0.004110 -0.005016 0.019514 0.000000 0.001041 0.000000
# 4 0.000000 0.000000 0.000000 0.086344 0.000000 0.034310
# 5 0.003987 0.001158 0.001041 0.000000 0.039146 0.000000
# 6 0.000000 0.000000 0.000000 0.034310 0.000000 0.059826
#
#
# Mechanical properties :
#
#
# Convention : Reuss Voigt Hill
#
# Bulk Modulus (GPa) = 51.45113 62.40722 56.92917
# Shear Modulus (GPa) = 19.57120 26.09684 22.83402
#
# Velocity S-wave (km/s) = 3.13210 3.61677 3.38313
# Velocity P-wave (km/s) = 6.23458 6.98019 6.61789
#
# Compressibility (1/GPa) = 0.01943592
#
# Stress axis : x y z
#
# Youngs Moduli (GPa) = 73.79156 117.72552 51.24649
#
# Poissons Ratio (x) = 0.22786 0.21063
# Poissons Ratio (y) = 0.14283 0.25706
# Poissons Ratio (z) = 0.30329 0.59054
#
# Static dielectric constant tensor:
#      x y z
#    x 3.113540 0.000000 0.254410 
#    y 0.000000 4.303650 0.000000 
#    z 0.254410 0.000000 2.480890 
# 
# 
# High freq. dielectric constant tensor:
#      x y z
#    x 1.757020 0.000000 -0.030390 
#    y 0.000000 1.795720 0.000000 
#    z -0.030390 0.000000 1.743500 
# 
# From -- ./inp_files/39500.got.cif
#   From: 2010.06.25/outbox.cif.g09.slc.cpg/sg13_20_cif.got.tgz:39500.got - 2010.06.28 04:50:58.
