data_PCOD8118949
_publ_section_title
;
Structure prediction by ZEFSAII (Michael W. Deem and Ramdas Pophale) SiO2 
 PCOD8118949
Probable space group: P 2/C
;
_chemical_formula_sum "Si O2"
_cell_formula_units_Z 28
_cell_length_a 8.862416
_cell_length_b 9.038656
_cell_length_c 29.138389
_cell_angle_alpha 90.000000
_cell_angle_beta 142.590369
_cell_angle_gamma 90.000000
_cell_volume 1417.994365
_symmetry_space_group_name_H-M "P 2/C"
_symmetry_group_IT_number 13
_symmetry_cell_setting 'monoclinic'
loop_
_space_group_symop_operation_xyz
x,y,z
-x,y,1/2-z
-x,-y,-z
x,-y,1/2+z
loop_
_atom_site_type_symbol
_atom_site_label
_atom_site_fract_x
_atom_site_fract_y
_atom_site_fract_z
Si Si1 0.199248 0.188002 0.175799
Si Si2 0.621141 0.664951 0.210306
Si Si3 0.002102 0.417916 0.198134
Si Si4 0.943648 0.656925 0.432216
Si Si5 0.049816 0.147749 0.650651
Si Si6 0.338886 0.689802 0.385097
Si Si7 0.902555 0.332045 0.026736
O O1 0.500000 0.200828 0.250000
O O2 0.038293 0.276724 0.174678
O O3 0.108346 0.244045 0.104627
O O4 0.102299 0.023153 0.157950
O O5 0.758394 0.514285 0.254763
O O6 0.338834 0.621395 0.147586
O O7 0.698669 0.786186 0.266595
O O8 0.687089 0.721559 0.175321
O O9 0.000000 0.361649 0.250000
O O10 0.761446 0.522003 0.128789
O O11 0.029419 0.784031 0.417881
O O12 0.974383 0.708979 0.491940
O O13 0.094282 0.506389 0.461325
O O14 0.822122 0.183557 0.629503
O O15 0.620189 0.712916 0.469924
#
# Coordination Sequence:
#
# PCOD8118949 Si02
#       7
#     4   4   4   4   4   4   4
#     4  12  25  38  54  82 118 151 186 228 277 333
#     4   9  17  36  61  84 110 144 188 230 272 328
#     4   9  19  35  58  84 109 140 185 237 280 320
#     4  10  20  36  60  83 109 147 188 230 277 326
#     4  11  22  36  57  84 115 152 186 221 271 334
#     4   9  20  38  60  85 111 143 186 233 280 331
#     4  10  22  39  59  84 111 143 187 237 283 326
#
# _framework density 19.746200000000002
#
# number of rings (size 3 to 8) (size 9 to 14) (size 15 to 20)
#    0.000    2.000    0.000    5.143    0.000    5.714 
#    0.000    0.000    0.000    0.000    0.000    0.000 
#    0.000    0.000    0.000    0.000    0.000    0.000 
#
# Total GULP energy -347074.440476 kJ/mol
# GULP energy per Si atom -12395.515731 kJ/mol
# Density = 1.970126 g / cm^3
# Si number density = 19.746200 Si / 1000 Ang^3
#
#
#
# Elastic Constant Matrix: (Units=GPa)
#
#
# Indices 1 2 3 4 5 6 
#
# 1 80.8617 38.5300 36.4394 0.0000 -7.1239 0.0000
# 2 38.5300 87.6910 36.8110 0.0000 -14.1317 0.0000
# 3 36.4394 36.8110 117.9659 0.0000 -3.9267 0.0000
# 4 0.0000 0.0000 0.0000 15.2075 0.0000 1.7624
# 5 -7.1239 -14.1317 -3.9267 0.0000 30.4767 0.0000
# 6 0.0000 0.0000 0.0000 1.7624 0.0000 9.6007
#
#
#
# Elastic Compliance Matrix: (Units=1/GPa)
#
#
# Indices 1 2 3 4 5 6 
#
# 1 0.016704 -0.005822 -0.003317 0.000000 0.000778 0.000000
# 2 -0.005822 0.016170 -0.003056 0.000000 0.005743 0.000000
# 3 -0.003317 -0.003056 0.010427 0.000000 -0.000849 0.000000
# 4 0.000000 0.000000 0.000000 0.067186 0.000000 -0.012333
# 5 0.000778 0.005743 -0.000849 0.000000 0.035547 0.000000
# 6 0.000000 0.000000 0.000000 -0.012333 0.000000 0.106423
#
#
# Mechanical properties :
#
#
# Convention : Reuss Voigt Hill
#
# Bulk Modulus (GPa) = 52.87988 56.67551 54.77770
# Shear Modulus (GPa) = 17.65833 22.70618 20.18225
#
# Velocity S-wave (km/s) = 2.99367 3.39470 3.20047
# Velocity P-wave (km/s) = 6.22795 6.64301 6.43882
#
# Compressibility (1/GPa) = 0.01891078
#
# Stress axis : x y z
#
# Youngs Moduli (GPa) = 59.86502 61.84217 95.90269
#
# Poissons Ratio (x) = 0.36002 0.31815
# Poissons Ratio (y) = 0.34851 0.29312
# Poissons Ratio (z) = 0.19859 0.18901
#
# Static dielectric constant tensor:
#      x y z
#    x 3.833450 0.000000 -0.051400 
#    y 0.000000 3.361290 0.000000 
#    z -0.051400 0.000000 3.949750 
# 
# 
# High freq. dielectric constant tensor:
#      x y z
#    x 1.783610 0.000000 -0.005480 
#    y 0.000000 1.743740 0.000000 
#    z -0.005480 0.000000 1.776370 
# 
# From -- ./inp_files/95979.got.cif
#   From: 2010.06.25/outbox.cif.g09.slc.cpg/sg13_48_cif.got.tgz:95979.got - 2010.06.28 04:50:58.
