data_PCOD8118314
_publ_section_title
;
Structure prediction by ZEFSAII (Michael W. Deem and Ramdas Pophale) SiO2 
 PCOD8118314
Probable space group: P 2/C
;
_chemical_formula_sum "Si O2"
_cell_formula_units_Z 32
_cell_length_a 15.714695
_cell_length_b 16.271977
_cell_length_c 10.881602
_cell_angle_alpha 90.000000
_cell_angle_beta 35.148594
_cell_angle_gamma 90.000000
_cell_volume 1601.896838
_symmetry_space_group_name_H-M "P 2/C"
_symmetry_group_IT_number 13
_symmetry_cell_setting 'monoclinic'
loop_
_space_group_symop_operation_xyz
x,y,z
-x,y,1/2-z
-x,-y,-z
x,-y,1/2+z
loop_
_atom_site_type_symbol
_atom_site_label
_atom_site_fract_x
_atom_site_fract_y
_atom_site_fract_z
Si Si1 0.343554 0.707950 0.955266
Si Si2 0.903347 0.594849 0.745749
Si Si3 0.326844 0.728205 0.428651
Si Si4 0.072905 0.403355 0.794221
Si Si5 0.388470 0.823396 0.125942
Si Si6 0.298954 0.131515 0.133341
Si Si7 0.659780 0.048242 0.998939
Si Si8 0.832377 0.839309 0.467263
O O1 0.225084 0.643031 0.141735
O O2 0.394591 0.774462 0.993213
O O3 0.272928 0.759143 0.925066
O O4 0.500000 0.660597 0.750000
O O5 0.879346 0.497743 0.770986
O O6 0.000000 0.620092 0.750000
O O7 0.969520 0.618598 0.533358
O O8 0.748762 0.640800 0.953221
O O9 0.500000 0.716054 0.250000
O O10 0.296475 0.766141 0.328699
O O11 0.246794 0.795481 0.607335
O O12 0.000000 0.376412 0.750000
O O13 0.326709 0.912847 0.155354
O O14 0.544224 0.842638 0.999949
O O15 0.180038 0.124709 0.381441
O O16 0.310304 0.048332 0.042857
O O17 0.789588 0.087261 0.926706
O O18 0.500000 0.064960 0.250000
O O19 0.000000 0.810835 0.250000
#
# Coordination Sequence:
#
# PCOD8118314 Si02
#       8
#     4   4   4   4   4   4   4   4
#     4  11  21  38  64  91 117 157 209 252 304 364
#     4  10  22  44  61  92 129 167 202 252 314 383
#     4  10  23  36  60  89 122 162 204 252 311 365
#     4  10  23  39  68  93 125 164 208 251 312 379
#     4  10  19  38  59  90 118 153 204 255 296 367
#     4  11  22  37  61  87 120 158 207 257 307 365
#     4  11  21  38  66  86 114 164 208 258 305 362
#     4  11  24  39  57  85 123 158 200 258 312 363
#
# _framework density 19.976317999999999
#
# number of rings (size 3 to 8) (size 9 to 14) (size 15 to 20)
#    0.000    1.500    2.500    3.375    5.250    1.000 
#    0.000    0.625    0.000    6.750    0.000    0.000 
#    0.000    0.000    0.000    0.000    0.000    0.000 
#
# Total GULP energy -396521.355052 kJ/mol
# GULP energy per Si atom -12391.292345 kJ/mol
# Density = 1.993085 g / cm^3
# Si number density = 19.976318 Si / 1000 Ang^3
#
#
#
# Elastic Constant Matrix: (Units=GPa)
#
#
# Indices 1 2 3 4 5 6 
#
# 1 66.4645 16.7080 40.1777 0.0000 7.3678 0.0000
# 2 16.7080 78.8451 41.2166 0.0000 -7.9393 0.0000
# 3 40.1777 41.2166 105.5197 0.0000 -1.9241 0.0000
# 4 0.0000 0.0000 0.0000 34.3922 0.0000 -1.4141
# 5 7.3678 -7.9393 -1.9241 0.0000 36.4866 0.0000
# 6 0.0000 0.0000 0.0000 -1.4141 0.0000 21.2487
#
#
#
# Elastic Compliance Matrix: (Units=1/GPa)
#
#
# Indices 1 2 3 4 5 6 
#
# 1 0.020302 -0.000865 -0.007478 0.000000 -0.004682 0.000000
# 2 -0.000865 0.016342 -0.005992 0.000000 0.003415 0.000000
# 3 -0.007478 -0.005992 0.014683 0.000000 0.000980 0.000000
# 4 0.000000 0.000000 0.000000 0.029156 0.000000 0.001940
# 5 -0.004682 0.003415 0.000980 0.000000 0.029147 0.000000
# 6 0.000000 0.000000 0.000000 0.001940 0.000000 0.047191
#
#
# Mechanical properties :
#
#
# Convention : Reuss Voigt Hill
#
# Bulk Modulus (GPa) = 44.13386 49.67045 46.90216
# Shear Modulus (GPa) = 25.90080 28.60730 27.25405
#
# Velocity S-wave (km/s) = 3.60471 3.78836 3.69767
# Velocity P-wave (km/s) = 6.28222 6.63734 6.46222
#
# Compressibility (1/GPa) = 0.02265834
#
# Stress axis : x y z
#
# Youngs Moduli (GPa) = 49.25508 61.19017 68.10767
#
# Poissons Ratio (x) = 0.05290 0.50931
# Poissons Ratio (y) = 0.04258 0.40810
# Poissons Ratio (z) = 0.36833 0.36665
#
# Static dielectric constant tensor:
#      x y z
#    x 4.365430 0.000000 0.338430 
#    y 0.000000 3.629910 0.000000 
#    z 0.338430 0.000000 3.683270 
# 
# 
# High freq. dielectric constant tensor:
#      x y z
#    x 1.782930 0.000000 0.015740 
#    y 0.000000 1.780710 0.000000 
#    z 0.015740 0.000000 1.767580 
# 
# From -- ./inp_files/39444.got.cif
#   From: 2010.06.25/outbox.cif.g09.slc.cpg/sg13_20_cif.got.tgz:39444.got - 2010.06.28 04:50:58.
