data_PCOD8118036
_publ_section_title
;
Structure prediction by ZEFSAII (Michael W. Deem and Ramdas Pophale) SiO2 
 PCOD8118036
Probable space group: P 2/C
;
_chemical_formula_sum "Si O2"
_cell_formula_units_Z 28
_cell_length_a 8.163258
_cell_length_b 16.413044
_cell_length_c 19.873084
_cell_angle_alpha 90.000000
_cell_angle_beta 149.453168
_cell_angle_gamma 90.000000
_cell_volume 1353.283771
_symmetry_space_group_name_H-M "P 2/C"
_symmetry_group_IT_number 13
_symmetry_cell_setting 'monoclinic'
loop_
_space_group_symop_operation_xyz
x,y,z
-x,y,1/2-z
-x,-y,-z
x,-y,1/2+z
loop_
_atom_site_type_symbol
_atom_site_label
_atom_site_fract_x
_atom_site_fract_y
_atom_site_fract_z
Si Si1 0.551167 0.674005 0.691084
Si Si2 0.199942 0.595938 0.448582
Si Si3 0.621269 0.997598 0.618238
Si Si4 0.915981 0.754206 0.297505
Si Si5 0.299719 0.836559 0.548740
Si Si6 0.375429 0.872168 0.135036
Si Si7 0.879914 0.432440 0.137056
O O1 0.500000 0.656030 0.750000
O O2 0.297263 0.619622 0.558858
O O3 0.517866 0.768255 0.660836
O O4 0.916897 0.648344 0.805778
O O5 0.063122 0.503626 0.398401
O O6 0.510993 0.597333 0.509240
O O7 0.938661 0.659586 0.327056
O O8 0.448403 0.067580 0.599928
O O9 0.000000 0.012486 0.750000
O O10 0.500000 0.000000 0.500000
O O11 0.534525 0.912527 0.622314
O O12 0.554971 0.785770 0.185258
O O13 0.000000 0.767915 0.250000
O O14 0.169264 0.807276 0.430312
O O15 0.006523 0.857251 0.495706
O O16 0.500000 0.910027 0.250000
O O17 0.000000 0.470966 0.250000
#
# Coordination Sequence:
#
# PCOD8118036 Si02
#       7
#     4   4   4   4   4   4   4
#     4  10  22  37  53  82 117 151 193 239 289 356
#     4   9  19  35  58  83 109 151 195 238 298 350
#     4  12  25  42  66  95 122 155 206 256 300 358
#     4  10  19  35  59  86 114 149 199 249 289 344
#     4  10  23  39  58  85 120 158 191 236 305 363
#     4  10  21  40  60  84 121 158 196 241 297 364
#     4   9  18  36  58  82 113 146 190 243 294 352
#
# _framework density 20.690411999999998
#
# number of rings (size 3 to 8) (size 9 to 14) (size 15 to 20)
#    0.000    2.000    0.000    3.857    0.000    6.286 
#    0.000    3.571    0.000    0.000    0.000    0.000 
#    0.000    0.000    0.000    0.000    0.000    0.000 
#
# Total GULP energy -347220.277999 kJ/mol
# GULP energy per Si atom -12400.724214 kJ/mol
# Density = 2.064332 g / cm^3
# Si number density = 20.690412 Si / 1000 Ang^3
#
#
#
# Elastic Constant Matrix: (Units=GPa)
#
#
# Indices 1 2 3 4 5 6 
#
# 1 122.5459 63.0949 52.2543 0.0000 -16.3075 0.0000
# 2 63.0949 143.6680 52.7703 0.0000 3.0540 0.0000
# 3 52.2543 52.7703 74.8541 0.0000 -3.6116 0.0000
# 4 0.0000 0.0000 0.0000 31.3185 0.0000 4.4180
# 5 -16.3075 3.0540 -3.6116 0.0000 31.8931 0.0000
# 6 0.0000 0.0000 0.0000 4.4180 0.0000 24.5093
#
#
#
# Elastic Compliance Matrix: (Units=1/GPa)
#
#
# Indices 1 2 3 4 5 6 
#
# 1 0.013837 -0.003764 -0.006684 0.000000 0.006678 0.000000
# 2 -0.003764 0.010504 -0.004946 0.000000 -0.003490 0.000000
# 3 -0.006684 -0.004946 0.021487 0.000000 -0.000511 0.000000
# 4 0.000000 0.000000 0.000000 0.032763 0.000000 -0.005906
# 5 0.006678 -0.003490 -0.000511 0.000000 0.035046 0.000000
# 6 0.000000 0.000000 0.000000 -0.005906 0.000000 0.041865
#
#
# Mechanical properties :
#
#
# Convention : Reuss Voigt Hill
#
# Bulk Modulus (GPa) = 66.48407 75.25633 70.87020
# Shear Modulus (GPa) = 26.13638 29.07408 27.60523
#
# Velocity S-wave (km/s) = 3.55803 3.75266 3.65664
# Velocity P-wave (km/s) = 7.00585 7.43156 7.22184
#
# Compressibility (1/GPa) = 0.01504120
#
# Stress axis : x y z
#
# Youngs Moduli (GPa) = 72.27187 95.19770 46.53874
#
# Poissons Ratio (x) = 0.35830 0.31104
# Poissons Ratio (y) = 0.27201 0.23020
# Poissons Ratio (z) = 0.48303 0.47089
#
# Static dielectric constant tensor:
#      x y z
#    x 3.826890 0.000000 -0.051400 
#    y 0.000000 3.830450 0.000000 
#    z -0.051400 0.000000 3.711860 
# 
# 
# High freq. dielectric constant tensor:
#      x y z
#    x 1.806380 0.000000 -0.006420 
#    y 0.000000 1.811290 0.000000 
#    z -0.006420 0.000000 1.805520 
# 
# From -- ./inp_files/76743.got.cif
#   From: 2010.06.25/outbox.cif.g09.slc.cpg/sg13_39_cif.got.tgz:76743.got - 2010.06.28 04:50:58.
