data_PCOD8118285
_publ_section_title
;
Structure prediction by ZEFSAII (Michael W. Deem and Ramdas Pophale) SiO2 
 PCOD8118285
Probable space group: P 2/C
;
_chemical_formula_sum "Si O2"
_cell_formula_units_Z 18
_cell_length_a 20.880490
_cell_length_b 6.934607
_cell_length_c 5.313846
_cell_angle_alpha 90.000000
_cell_angle_beta 82.362717
_cell_angle_gamma 90.000000
_cell_volume 762.608788
_symmetry_space_group_name_H-M "P 2/C"
_symmetry_group_IT_number 13
_symmetry_cell_setting 'monoclinic'
loop_
_space_group_symop_operation_xyz
x,y,z
-x,y,1/2-z
-x,-y,-z
x,-y,1/2+z
loop_
_atom_site_type_symbol
_atom_site_label
_atom_site_fract_x
_atom_site_fract_y
_atom_site_fract_z
Si Si1 0.307048 0.282897 0.860000
Si Si2 0.638225 0.283777 0.168515
Si Si3 0.500000 0.129231 0.250000
Si Si4 0.161748 0.622814 0.446011
Si Si5 0.027400 0.784718 0.485913
O O1 0.335894 0.177495 0.597888
O O2 0.335564 0.498898 0.855639
O O3 0.331786 0.177870 0.101127
O O4 0.230005 0.271616 0.886800
O O5 0.560997 0.272539 0.218401
O O6 0.500000 0.000000 0.500000
O O7 0.155561 0.469236 0.225160
O O8 0.105253 0.781296 0.445828
O O9 0.000000 0.677850 0.750000
O O10 0.000000 0.000000 0.500000
O O11 0.000000 0.678332 0.250000
#
# Coordination Sequence:
#
# PCOD8118285 Si02
#       5
#     4   4   2   4   4
#     4  10  19  37  64  97 121 148 202 278 320 358
#     4  10  20  38  64  89 128 152 207 262 311 368
#     4  12  26  42  62  88 128 182 214 240 308 392
#     4  12  21  37  67  99 124 161 210 269 332 377
#     4  10  23  42  62  86 133 171 211 256 316 398
#
# _framework density 23.603186999999998
#
# number of rings (size 3 to 8) (size 9 to 14) (size 15 to 20)
#    0.000    1.333    4.444    2.667    0.000    6.222 
#    0.000    0.000   29.333    0.000    0.000    0.000 
#    0.000    0.000    0.000    0.000    0.000    0.000 
#
# Total GULP energy -223068.748696 kJ/mol
# GULP energy per Si atom -12392.708261 kJ/mol
# Density = 2.354947 g / cm^3
# Si number density = 23.603187 Si / 1000 Ang^3
#
#
#
# Elastic Constant Matrix: (Units=GPa)
#
#
# Indices 1 2 3 4 5 6 
#
# 1 252.9971 31.7205 54.3259 0.0000 -4.4659 0.0000
# 2 31.7205 41.2910 -7.3307 0.0000 -3.8084 0.0000
# 3 54.3259 -7.3307 239.7632 0.0000 13.2902 0.0000
# 4 0.0000 0.0000 0.0000 -7.9881 0.0000 -4.1805
# 5 -4.4659 -3.8084 13.2902 0.0000 44.3336 0.0000
# 6 0.0000 0.0000 0.0000 -4.1805 0.0000 39.4259
#
#
#
# Elastic Compliance Matrix: (Units=1/GPa)
#
#
# Indices 1 2 3 4 5 6 
#
# 1 0.004694 -0.003773 -0.001207 0.000000 0.000511 0.000000
# 2 -0.003773 0.027542 0.001614 0.000000 0.001502 0.000000
# 3 -0.001207 0.001614 0.004569 0.000000 -0.001353 0.000000
# 4 0.000000 0.000000 0.000000 -0.118605 0.000000 -0.012576
# 5 0.000511 0.001502 -0.001353 0.000000 0.023142 0.000000
# 6 0.000000 0.000000 0.000000 -0.012576 0.000000 0.024031
#
#
# Mechanical properties :
#
#
# Convention : Reuss Voigt Hill
#
# Bulk Modulus (GPa) = 33.25429 76.83139 55.04284
# Shear Modulus (GPa) = -279.78712 45.51000 -117.13856
#
# Velocity S-wave (km/s) = -10.89932 4.39581 -7.05238
# Velocity P-wave (km/s) = 12.01142 7.64108 6.55317
#
# Compressibility (1/GPa) = 0.03007131
#
# Stress axis : x y z
#
# Youngs Moduli (GPa) = 213.04092 36.30811 218.88395
#
# Poissons Ratio (x) = 0.13700 0.26424
# Poissons Ratio (y) = 0.80385 -0.35323
# Poissons Ratio (z) = 0.25719 -0.05859
#
# Static dielectric constant tensor:
#      x y z
#    x 4.510790 0.000000 1.150840 
#    y 0.000000 -2.614100 0.000000 
#    z 1.150840 0.000000 19.399560 
# 
# 
# High freq. dielectric constant tensor:
#      x y z
#    x 1.944470 0.000000 0.004090 
#    y 0.000000 1.894360 0.000000 
#    z 0.004090 0.000000 1.982870 
# 
# From -- ./inp_files/5815.got.cif
#   From: 2010.06.25/outbox.cif.g09.slc.cpg/sg13_3_cif.got.tgz:5815.got - 2010.06.28 04:50:58.
