data_PCOD8118450
_publ_section_title
;
Structure prediction by ZEFSAII (Michael W. Deem and Ramdas Pophale) SiO2 
 PCOD8118450
Probable space group: P 2/C
;
_chemical_formula_sum "Si O2"
_cell_formula_units_Z 18
_cell_length_a 16.242089
_cell_length_b 7.723742
_cell_length_c 20.507258
_cell_angle_alpha 90.000000
_cell_angle_beta 17.071297
_cell_angle_gamma 90.000000
_cell_volume 755.224894
_symmetry_space_group_name_H-M "P 2/C"
_symmetry_group_IT_number 13
_symmetry_cell_setting 'monoclinic'
loop_
_space_group_symop_operation_xyz
x,y,z
-x,y,1/2-z
-x,-y,-z
x,-y,1/2+z
loop_
_atom_site_type_symbol
_atom_site_label
_atom_site_fract_x
_atom_site_fract_y
_atom_site_fract_z
Si Si1 0.143836 0.997001 0.575529
Si Si2 0.800973 0.857788 0.226994
Si Si3 0.500000 0.712938 0.250000
Si Si4 0.627942 0.163570 0.281810
Si Si5 0.324243 0.460320 0.749594
O O1 0.223551 0.832145 0.470599
O O2 0.000000 0.928428 0.750000
O O3 0.426321 0.102794 0.376300
O O4 0.922379 0.126115 0.707953
O O5 0.615728 0.684686 0.352118
O O6 0.613149 0.028648 0.353578
O O7 0.056467 0.839703 0.983087
O O8 0.555544 0.597799 0.271320
O O9 0.532310 0.355503 0.377799
O O10 0.000000 0.500000 0.000000
#
# Coordination Sequence:
#
# PCOD8118450 Si02
#       5
#     4   4   2   4   4
#     4  12  24  40  68  97 130 174 212 261 322 380
#     4  10  19  41  65  91 129 166 212 258 319 379
#     4  12  22  44  66  94 134 168 214 266 316 384
#     4  10  20  40  65  96 123 167 213 260 318 377
#     4  10  22  36  70  97 118 173 213 259 325 376
#
# _framework density 23.833960999999999
#
# number of rings (size 3 to 8) (size 9 to 14) (size 15 to 20)
#    0.000    1.333    4.444    2.667    6.222    0.889 
#    0.000    2.222    0.000    0.000    0.000    0.000 
#    0.000    0.000    0.000    0.000    0.000    0.000 
#
# Total GULP energy -223132.207674 kJ/mol
# GULP energy per Si atom -12396.233760 kJ/mol
# Density = 2.377971 g / cm^3
# Si number density = 23.833961 Si / 1000 Ang^3
#
#
#
# Elastic Constant Matrix: (Units=GPa)
#
#
# Indices 1 2 3 4 5 6 
#
# 1 128.2403 63.4236 6.1997 0.0000 -30.6667 0.0000
# 2 63.4236 210.7125 21.3541 0.0000 -22.3981 0.0000
# 3 6.1997 21.3541 23.8050 0.0000 -14.8408 0.0000
# 4 0.0000 0.0000 0.0000 13.3278 0.0000 -14.0891
# 5 -30.6667 -22.3981 -14.8408 0.0000 45.0015 0.0000
# 6 0.0000 0.0000 0.0000 -14.0891 0.0000 27.3366
#
#
#
# Elastic Compliance Matrix: (Units=1/GPa)
#
#
# Indices 1 2 3 4 5 6 
#
# 1 0.010780 -0.002908 0.004379 0.000000 0.007343 0.000000
# 2 -0.002908 0.006069 -0.005084 0.000000 -0.000638 0.000000
# 3 0.004379 -0.005084 0.057542 0.000000 0.019430 0.000000
# 4 0.000000 0.000000 0.000000 0.164842 0.000000 0.084958
# 5 0.007343 -0.000638 0.019430 0.000000 0.033316 0.000000
# 6 0.000000 0.000000 0.000000 0.084958 0.000000 0.080368
#
#
# Mechanical properties :
#
#
# Convention : Reuss Voigt Hill
#
# Bulk Modulus (GPa) = 14.88891 60.52363 37.70627
# Shear Modulus (GPa) = 13.07087 35.25188 24.16137
#
# Velocity S-wave (km/s) = 2.34436 3.85003 3.18738
# Velocity P-wave (km/s) = 3.68626 6.72403 5.42223
#
# Compressibility (1/GPa) = 0.06716410
#
# Stress axis : x y z
#
# Youngs Moduli (GPa) = 92.76087 164.78411 17.37876
#
# Poissons Ratio (x) = 0.47921 -0.07610
# Poissons Ratio (y) = 0.26976 0.08836
# Poissons Ratio (z) = -0.40620 0.83778
#
# Static dielectric constant tensor:
#      x y z
#    x 3.593720 0.000000 -0.180930 
#    y 0.000000 5.403450 0.000000 
#    z -0.180930 0.000000 4.030120 
# 
# 
# High freq. dielectric constant tensor:
#      x y z
#    x 1.944210 0.000000 -0.022580 
#    y 0.000000 1.950640 0.000000 
#    z -0.022580 0.000000 1.924440 
# 
# From -- ./inp_files/54932.got.cif
#   From: 2010.06.25/outbox.cif.g09.slc.cpg/sg13_28_cif.got.tgz:54932.got - 2010.06.28 04:50:58.
