data_PCOD8118454
_publ_section_title
;
Structure prediction by ZEFSAII (Michael W. Deem and Ramdas Pophale) SiO2 
 PCOD8118454
Probable space group: P 2/C
;
_chemical_formula_sum "Si O2"
_cell_formula_units_Z 26
_cell_length_a 17.723907
_cell_length_b 8.428726
_cell_length_c 17.233208
_cell_angle_alpha 90.000000
_cell_angle_beta 28.488773
_cell_angle_gamma 90.000000
_cell_volume 1227.986692
_symmetry_space_group_name_H-M "P 2/C"
_symmetry_group_IT_number 13
_symmetry_cell_setting 'monoclinic'
loop_
_space_group_symop_operation_xyz
x,y,z
-x,y,1/2-z
-x,-y,-z
x,-y,1/2+z
loop_
_atom_site_type_symbol
_atom_site_label
_atom_site_fract_x
_atom_site_fract_y
_atom_site_fract_z
Si Si1 0.500000 0.971230 0.250000
Si Si2 0.766244 0.536897 0.634012
Si Si3 0.102672 0.770732 0.767087
Si Si4 0.448342 0.167419 0.144598
Si Si5 0.772924 0.282624 0.500558
Si Si6 0.260844 0.044265 0.701126
Si Si7 0.956199 0.693034 0.055109
O O1 0.498460 0.090068 0.179579
O O2 0.353035 0.855048 0.380286
O O3 0.618886 0.653796 0.784328
O O4 0.726159 0.439770 0.591596
O O5 0.802365 0.414099 0.672329
O O6 0.935541 0.629710 0.471110
O O7 0.196104 0.665787 0.617635
O O8 0.205640 0.931182 0.681008
O O9 0.926657 0.804107 0.896088
O O10 0.083345 0.689307 0.868578
O O11 0.316631 0.058686 0.223643
O O12 0.604466 0.167549 0.948936
O O13 0.104355 0.133825 0.870795
#
# Coordination Sequence:
#
# PCOD8118454 Si02
#       7
#     2   4   4   4   4   4   4
#     4  12  24  44  62  94 130 182 218 270 338 396
#     4  10  22  41  61  96 130 175 213 273 332 399
#     4  10  19  41  69  99 123 173 230 269 323 395
#     4  11  24  40  65  99 136 169 225 272 332 397
#     4  10  23  40  68  90 136 178 216 268 338 394
#     4  11  22  41  69 103 126 175 221 284 318 397
#     4  10  21  39  68  97 132 169 220 278 336 385
#
# _framework density 21.172868000000001
#
# number of rings (size 3 to 8) (size 9 to 14) (size 15 to 20)
#    0.000    1.538    3.077    2.308    2.154    1.231 
#    0.000   13.846    0.000    0.000    0.000    0.000 
#    0.000    0.000    0.000    0.000    0.000    0.000 
#
# Total GULP energy -322116.319032 kJ/mol
# GULP energy per Si atom -12389.089194 kJ/mol
# Density = 2.112468 g / cm^3
# Si number density = 21.172868 Si / 1000 Ang^3
#
#
#
# Elastic Constant Matrix: (Units=GPa)
#
#
# Indices 1 2 3 4 5 6 
#
# 1 79.1282 40.3525 13.8759 0.0000 8.8837 0.0000
# 2 40.3525 101.9952 34.2772 0.0000 3.2357 0.0000
# 3 13.8759 34.2772 33.9936 0.0000 3.2702 0.0000
# 4 0.0000 0.0000 0.0000 46.4362 0.0000 -6.6893
# 5 8.8837 3.2357 3.2702 0.0000 27.9247 0.0000
# 6 0.0000 0.0000 0.0000 -6.6893 0.0000 48.0208
#
#
#
# Elastic Compliance Matrix: (Units=1/GPa)
#
#
# Indices 1 2 3 4 5 6 
#
# 1 0.016371 -0.006404 0.000207 0.000000 -0.004490 0.000000
# 2 -0.006404 0.017335 -0.015038 0.000000 0.001790 0.000000
# 3 0.000207 -0.015038 0.044840 0.000000 -0.003574 0.000000
# 4 0.000000 0.000000 0.000000 0.021976 0.000000 0.003061
# 5 -0.004490 0.001790 -0.003574 0.000000 0.037450 0.000000
# 6 0.000000 0.000000 0.000000 0.003061 0.000000 0.021251
#
#
# Mechanical properties :
#
#
# Convention : Reuss Voigt Hill
#
# Bulk Modulus (GPa) = 27.71896 43.56981 35.64438
# Shear Modulus (GPa) = 23.39526 32.91711 28.15618
#
# Velocity S-wave (km/s) = 3.32771 3.94723 3.65063
# Velocity P-wave (km/s) = 5.28062 6.43404 5.88566
#
# Compressibility (1/GPa) = 0.03607639
#
# Stress axis : x y z
#
# Youngs Moduli (GPa) = 61.08189 57.68699 22.30161
#
# Poissons Ratio (x) = 0.36943 -0.00461
# Poissons Ratio (y) = 0.39118 0.33536
# Poissons Ratio (z) = -0.01263 0.86748
#
# Static dielectric constant tensor:
#      x y z
#    x 4.132840 0.000000 -0.020010 
#    y 0.000000 3.770550 0.000000 
#    z -0.020010 0.000000 3.807390 
# 
# 
# High freq. dielectric constant tensor:
#      x y z
#    x 1.836340 0.000000 -0.008720 
#    y 0.000000 1.819040 0.000000 
#    z -0.008720 0.000000 1.824040 
# 
# From -- ./inp_files/69654.got.cif
#   From: 2010.06.25/outbox.cif.g09.slc.cpg/sg13_35_cif.got.tgz:69654.got - 2010.06.28 04:50:58.
