data_PCOD8118599
_publ_section_title
;
Structure prediction by ZEFSAII (Michael W. Deem and Ramdas Pophale) SiO2 
 PCOD8118599
Probable space group: P 2/C
;
_chemical_formula_sum "Si O2"
_cell_formula_units_Z 28
_cell_length_a 6.013873
_cell_length_b 13.909062
_cell_length_c 18.212547
_cell_angle_alpha 90.000000
_cell_angle_beta 114.528335
_cell_angle_gamma 90.000000
_cell_volume 1385.950587
_symmetry_space_group_name_H-M "P 2/C"
_symmetry_group_IT_number 13
_symmetry_cell_setting 'monoclinic'
loop_
_space_group_symop_operation_xyz
x,y,z
-x,y,1/2-z
-x,-y,-z
x,-y,1/2+z
loop_
_atom_site_type_symbol
_atom_site_label
_atom_site_fract_x
_atom_site_fract_y
_atom_site_fract_z
Si Si1 0.902427 0.431682 0.811352
Si Si2 0.380271 0.362760 0.959995
Si Si3 0.537813 0.990540 0.615931
Si Si4 0.000000 0.952563 0.250000
Si Si5 0.321304 0.149322 0.983355
Si Si6 0.500000 0.716724 0.250000
Si Si7 0.268102 0.498613 0.067268
Si Si8 0.193379 0.135305 0.634366
O O1 0.725927 0.348831 0.754761
O O2 0.750380 0.503495 0.845449
O O3 0.000000 0.484805 0.750000
O O4 0.116006 0.383363 0.888574
O O5 0.436208 0.250258 0.975149
O O6 0.589922 0.404419 0.935888
O O7 0.402693 0.408731 0.045841
O O8 0.447796 0.886196 0.576029
O O9 0.613960 0.066045 0.564347
O O10 0.310328 0.034255 0.628469
O O11 0.775398 0.976743 0.699402
O O12 0.926260 0.877583 0.302622
O O13 0.026661 0.161640 0.952067
O O14 0.596323 0.782582 0.331275
O O15 0.000000 0.500000 0.000000
#
# Coordination Sequence:
#
# PCOD8118599 Si02
#       8
#     4   4   4   2   4   2   4   4
#     4  11  23  33  54  90 119 151 185 239 305 369
#     4  10  20  38  60  83 117 155 197 240 296 358
#     4  10  21  35  53  85 120 152 197 249 285 345
#     4  10  20  34  52  78 108 164 196 238 300 336
#     4  10  22  36  56  87 117 155 199 239 291 353
#     4  12  22  30  54  90 116 152 186 238 310 364
#     4   9  21  39  57  85 112 149 193 239 294 363
#     4  11  21  34  54  82 124 152 191 239 296 357
#
# _framework density 20.202739000000001
#
# number of rings (size 3 to 8) (size 9 to 14) (size 15 to 20)
#    0.000    1.714    2.857    1.286    5.000    0.000 
#    0.000    0.000    0.000    0.000   59.429    0.000 
#    0.000    0.000    0.000    0.000    0.000    0.000 
#
# Total GULP energy -346981.126476 kJ/mol
# GULP energy per Si atom -12392.183088 kJ/mol
# Density = 2.015676 g / cm^3
# Si number density = 20.202739 Si / 1000 Ang^3
#
#
#
# Elastic Constant Matrix: (Units=GPa)
#
#
# Indices 1 2 3 4 5 6 
#
# 1 98.4012 27.5982 36.8772 0.0000 7.4535 0.0000
# 2 27.5982 63.1710 33.0937 0.0000 15.7575 0.0000
# 3 36.8772 33.0937 83.6085 0.0000 5.7047 0.0000
# 4 0.0000 0.0000 0.0000 20.7720 0.0000 5.2914
# 5 7.4535 15.7575 5.7047 0.0000 47.7523 0.0000
# 6 0.0000 0.0000 0.0000 5.2914 0.0000 18.3088
#
#
#
# Elastic Compliance Matrix: (Units=1/GPa)
#
#
# Indices 1 2 3 4 5 6 
#
# 1 0.012704 -0.003187 -0.004314 0.000000 -0.000416 0.000000
# 2 -0.003187 0.022433 -0.007060 0.000000 -0.006062 0.000000
# 3 -0.004314 -0.007060 0.016588 0.000000 0.001021 0.000000
# 4 0.000000 0.000000 0.000000 0.051968 0.000000 -0.015019
# 5 -0.000416 -0.006062 0.001021 0.000000 0.022885 0.000000
# 6 0.000000 0.000000 0.000000 -0.015019 0.000000 0.058959
#
#
# Mechanical properties :
#
#
# Convention : Reuss Voigt Hill
#
# Bulk Modulus (GPa) = 44.23979 48.92432 46.58206
# Shear Modulus (GPa) = 22.50296 27.20739 24.85518
#
# Velocity S-wave (km/s) = 3.34107 3.67375 3.51135
# Velocity P-wave (km/s) = 6.06870 6.50111 6.28862
#
# Compressibility (1/GPa) = 0.02260408
#
# Stress axis : x y z
#
# Youngs Moduli (GPa) = 78.71294 44.57738 60.28436
#
# Poissons Ratio (x) = 0.14205 0.26006
# Poissons Ratio (y) = 0.25083 0.42562
# Poissons Ratio (z) = 0.33955 0.31473
#
# Static dielectric constant tensor:
#      x y z
#    x 4.019900 0.000000 0.072420 
#    y 0.000000 3.472540 0.000000 
#    z 0.072420 0.000000 4.081990 
# 
# 
# High freq. dielectric constant tensor:
#      x y z
#    x 1.808850 0.000000 0.006470 
#    y 0.000000 1.742230 0.000000 
#    z 0.006470 0.000000 1.779900 
# 
# From -- ./inp_files/61436.got.cif
#   From: 2010.06.25/outbox.cif.g09.slc.cpg/sg13_31_cif.got.tgz:61436.got - 2010.06.28 04:50:58.
