data_PCOD8118261
_publ_section_title
;
Structure prediction by ZEFSAII (Michael W. Deem and Ramdas Pophale) SiO2 
 PCOD8118261
Probable space group: P 2/C
;
_chemical_formula_sum "Si O2"
_cell_formula_units_Z 24
_cell_length_a 9.589755
_cell_length_b 13.863562
_cell_length_c 17.569393
_cell_angle_alpha 90.000000
_cell_angle_beta 148.752493
_cell_angle_gamma 90.000000
_cell_volume 1211.673297
_symmetry_space_group_name_H-M "P 2/C"
_symmetry_group_IT_number 13
_symmetry_cell_setting 'monoclinic'
loop_
_space_group_symop_operation_xyz
x,y,z
-x,y,1/2-z
-x,-y,-z
x,-y,1/2+z
loop_
_atom_site_type_symbol
_atom_site_label
_atom_site_fract_x
_atom_site_fract_y
_atom_site_fract_z
Si Si1 0.789318 0.917147 0.583137
Si Si2 0.729910 0.872477 0.080411
Si Si3 0.480776 0.520472 0.654430
Si Si4 0.692905 0.740768 0.930793
Si Si5 0.026598 0.414142 0.352827
Si Si6 0.899702 0.217447 0.373452
O O1 0.526799 0.854638 0.484869
O O2 0.000000 0.910699 0.750000
O O3 0.924222 0.874223 0.569750
O O4 0.689633 0.025775 0.516518
O O5 0.000000 0.889732 0.250000
O O6 0.790294 0.778571 0.057445
O O7 0.500000 0.480920 0.750000
O O8 0.356802 0.627189 0.595282
O O9 0.306392 0.455332 0.515979
O O10 0.785722 0.517937 0.768306
O O11 0.415812 0.798933 0.788777
O O12 0.921412 0.765447 0.974543
O O13 0.000000 0.410657 0.250000
O O14 0.005634 0.307066 0.374681
#
# Coordination Sequence:
#
# PCOD8118261 Si02
#       6
#     4   4   4   4   4   4
#     4  10  19  37  63  85 114 157 198 235 291 357
#     4  10  22  37  58  90 120 148 191 252 298 336
#     4  11  22  41  63  87 121 161 197 243 302 356
#     4  10  20  38  60  85 116 158 197 234 291 354
#     4  11  23  39  62  92 119 154 202 248 293 354
#     4  10  20  37  63  84 113 161 201 231 284 363
#
# _framework density 19.807321000000002
#
# number of rings (size 3 to 8) (size 9 to 14) (size 15 to 20)
#    0.000    1.667    5.000    1.500    2.333    1.333 
#    3.000    0.833    0.000    0.000    0.000    0.000 
#    0.000    0.000    0.000    0.000    0.000    0.000 
#
# Total GULP energy -297467.702708 kJ/mol
# GULP energy per Si atom -12394.487613 kJ/mol
# Density = 1.976224 g / cm^3
# Si number density = 19.807321 Si / 1000 Ang^3
#
#
#
# Elastic Constant Matrix: (Units=GPa)
#
#
# Indices 1 2 3 4 5 6 
#
# 1 100.1463 19.0188 15.9175 0.0000 -2.8284 0.0000
# 2 19.0188 42.0992 16.1799 0.0000 -4.9218 0.0000
# 3 15.9175 16.1799 59.0457 0.0000 1.9847 0.0000
# 4 0.0000 0.0000 0.0000 20.8031 0.0000 2.9075
# 5 -2.8284 -4.9218 1.9847 0.0000 32.6311 0.0000
# 6 0.0000 0.0000 0.0000 2.9075 0.0000 8.7512
#
#
#
# Elastic Compliance Matrix: (Units=1/GPa)
#
#
# Indices 1 2 3 4 5 6 
#
# 1 0.011098 -0.004256 -0.001840 0.000000 0.000432 0.000000
# 2 -0.004256 0.028844 -0.006905 0.000000 0.004402 0.000000
# 3 -0.001840 -0.006905 0.019404 0.000000 -0.002381 0.000000
# 4 0.000000 0.000000 0.000000 0.050410 0.000000 -0.016748
# 5 0.000432 0.004402 -0.002381 0.000000 0.031492 0.000000
# 6 0.000000 0.000000 0.000000 -0.016748 0.000000 0.119834
#
#
# Mechanical properties :
#
#
# Convention : Reuss Voigt Hill
#
# Bulk Modulus (GPa) = 29.98935 33.72485 31.85710
# Shear Modulus (GPa) = 16.76725 22.44875 19.60800
#
# Velocity S-wave (km/s) = 2.91265 3.37019 3.14974
# Velocity P-wave (km/s) = 5.14634 5.67518 5.41722
#
# Compressibility (1/GPa) = 0.03334517
#
# Stress axis : x y z
#
# Youngs Moduli (GPa) = 90.10355 34.66877 51.53534
#
# Poissons Ratio (x) = 0.14755 0.09483
# Poissons Ratio (y) = 0.38349 0.35583
# Poissons Ratio (z) = 0.16580 0.23938
#
# Static dielectric constant tensor:
#      x y z
#    x 4.010860 0.000000 0.021010 
#    y 0.000000 3.508360 0.000000 
#    z 0.021010 0.000000 3.462240 
# 
# 
# High freq. dielectric constant tensor:
#      x y z
#    x 1.784720 0.000000 0.007690 
#    y 0.000000 1.760030 0.000000 
#    z 0.007690 0.000000 1.752420 
# 
# From -- ./inp_files/47769.got.cif
#   From: 2010.06.25/outbox.cif.g09.slc.cpg/sg13_24_cif.got.tgz:47769.got - 2010.06.28 04:50:58.
