data_PCOD8118003
_publ_section_title
;
Structure prediction by ZEFSAII (Michael W. Deem and Ramdas Pophale) SiO2 
 PCOD8118003
Probable space group: P 2/C
;
_chemical_formula_sum "Si O2"
_cell_formula_units_Z 18
_cell_length_a 15.971542
_cell_length_b 9.356369
_cell_length_c 22.016097
_cell_angle_alpha 90.000000
_cell_angle_beta 163.553875
_cell_angle_gamma 90.000000
_cell_volume 931.440934
_symmetry_space_group_name_H-M "P 2/C"
_symmetry_group_IT_number 13
_symmetry_cell_setting 'monoclinic'
loop_
_space_group_symop_operation_xyz
x,y,z
-x,y,1/2-z
-x,-y,-z
x,-y,1/2+z
loop_
_atom_site_type_symbol
_atom_site_label
_atom_site_fract_x
_atom_site_fract_y
_atom_site_fract_z
Si Si1 0.296581 0.710095 0.357512
Si Si2 0.000000 0.884193 0.250000
Si Si3 0.630276 0.632209 0.277654
Si Si4 0.255773 0.445245 0.249454
Si Si5 0.329964 0.843363 0.987385
O O1 0.042332 0.791276 0.218303
O O2 0.155895 0.571208 0.226701
O O3 0.542406 0.668515 0.577371
O O4 0.454860 0.812823 0.419351
O O5 0.287972 0.984994 0.462802
O O6 0.500000 0.578006 0.250000
O O7 0.554449 0.516957 0.172706
O O8 0.484617 0.783093 0.156267
O O9 0.983297 0.642251 0.531324
O O10 0.000000 0.772374 0.750000
#
# Coordination Sequence:
#
# PCOD8118003 Si02
#       5
#     4   2   4   4   4
#     4  10  19  38  58  86 114 142 200 235 288 338
#     4  10  22  34  62  82 112 154 196 238 264 344
#     4  10  19  35  57  80 116 143 190 230 290 345
#     4   9  21  34  58  87 110 149 178 249 292 327
#     4   9  20  36  58  81 107 160 189 230 282 333
#
# _framework density 19.324897
#
# number of rings (size 3 to 8) (size 9 to 14) (size 15 to 20)
#    0.667    1.778    0.000    2.000    3.111    0.000 
#    4.000    1.111    9.778    0.000    0.000    0.000 
#    0.000    0.000    0.000    0.000    0.000    0.000 
#
# Total GULP energy -223095.769966 kJ/mol
# GULP energy per Si atom -12394.209443 kJ/mol
# Density = 1.928091 g / cm^3
# Si number density = 19.324897 Si / 1000 Ang^3
#
#
#
# Elastic Constant Matrix: (Units=GPa)
#
#
# Indices 1 2 3 4 5 6 
#
# 1 131.9948 36.6976 26.8873 0.0000 3.9177 0.0000
# 2 36.6976 82.6127 35.9780 0.0000 -3.6457 0.0000
# 3 26.8873 35.9780 66.8352 0.0000 -13.9392 0.0000
# 4 0.0000 0.0000 0.0000 19.2972 0.0000 6.0089
# 5 3.9177 -3.6457 -13.9392 0.0000 29.3182 0.0000
# 6 0.0000 0.0000 0.0000 6.0089 0.0000 12.9812
#
#
#
# Elastic Compliance Matrix: (Units=1/GPa)
#
#
# Indices 1 2 3 4 5 6 
#
# 1 0.009024 -0.002999 -0.002603 0.000000 -0.002816 0.000000
# 2 -0.002999 0.016950 -0.008209 0.000000 -0.001394 0.000000
# 3 -0.002603 -0.008209 0.022521 0.000000 0.010035 0.000000
# 4 0.000000 0.000000 0.000000 0.060548 0.000000 -0.028027
# 5 -0.002816 -0.001394 0.010035 0.000000 0.039082 0.000000
# 6 0.000000 0.000000 0.000000 -0.028027 0.000000 0.090008
#
#
# Mechanical properties :
#
#
# Convention : Reuss Voigt Hill
#
# Bulk Modulus (GPa) = 47.90852 53.39650 50.65251
# Shear Modulus (GPa) = 18.33424 24.44463 21.38944
#
# Velocity S-wave (km/s) = 3.08350 3.56044 3.33052
# Velocity P-wave (km/s) = 6.12554 6.67782 6.40763
#
# Compressibility (1/GPa) = 0.02087311
#
# Stress axis : x y z
#
# Youngs Moduli (GPa) = 110.81907 58.99593 44.40275
#
# Poissons Ratio (x) = 0.17693 0.11559
# Poissons Ratio (y) = 0.33235 0.36449
# Poissons Ratio (z) = 0.28848 0.48429
#
# Static dielectric constant tensor:
#      x y z
#    x 3.657310 0.000000 -0.078360 
#    y 0.000000 3.337280 0.000000 
#    z -0.078360 0.000000 3.369760 
# 
# 
# High freq. dielectric constant tensor:
#      x y z
#    x 1.766790 0.000000 -0.003490 
#    y 0.000000 1.730680 0.000000 
#    z -0.003490 0.000000 1.733160 
# 
# From -- ./inp_files/37018.got.cif
#   From: 2010.06.25/outbox.cif.g09.slc.cpg/sg13_19_cif.got.tgz:37018.got - 2010.06.28 04:50:58.
