data_PCOD8118588
_publ_section_title
;
Structure prediction by ZEFSAII (Michael W. Deem and Ramdas Pophale) SiO2 
 PCOD8118588
Probable space group: P 2/C
;
_chemical_formula_sum "Si O2"
_cell_formula_units_Z 28
_cell_length_a 18.886684
_cell_length_b 12.931998
_cell_length_c 22.657018
_cell_angle_alpha 90.000000
_cell_angle_beta 17.139221
_cell_angle_gamma 90.000000
_cell_volume 1630.782972
_symmetry_space_group_name_H-M "P 2/C"
_symmetry_group_IT_number 13
_symmetry_cell_setting 'monoclinic'
loop_
_space_group_symop_operation_xyz
x,y,z
-x,y,1/2-z
-x,-y,-z
x,-y,1/2+z
loop_
_atom_site_type_symbol
_atom_site_label
_atom_site_fract_x
_atom_site_fract_y
_atom_site_fract_z
Si Si1 0.962901 0.323940 0.518510
Si Si2 0.618193 0.169197 0.046095
Si Si3 0.914841 0.393252 0.685382
Si Si4 0.096587 0.102987 0.451667
Si Si5 0.674656 0.450943 0.662673
Si Si6 0.486062 0.393246 0.114143
Si Si7 0.960909 0.169213 0.874773
O O1 0.982009 0.200534 0.508954
O O2 0.221203 0.375331 0.297986
O O3 0.855719 0.375277 0.663500
O O4 0.783001 0.349815 0.608508
O O5 0.383660 0.103011 0.218939
O O6 0.565777 0.290953 0.085340
O O7 0.718924 0.144643 0.031063
O O8 0.808140 0.135257 0.845906
O O9 0.108392 0.483754 0.538730
O O10 0.038765 0.290979 0.612397
O O11 0.670377 0.421358 0.914796
O O12 0.026949 0.103070 0.575675
O O13 0.000000 0.000000 0.500000
O O14 0.500000 0.412128 0.750000
O O15 0.519919 0.516252 0.832972
#
# Coordination Sequence:
#
# PCOD8118588 Si02
#       7
#     4   4   4   4   4   4   4
#     4   9  20  34  47  69  96 124 161 202 237 272
#     4   9  17  30  50  76  99 116 146 199 250 283
#     4   9  17  31  52  74  96 124 156 191 234 282
#     4  10  20  34  51  69  91 125 164 199 239 286
#     4  11  21  30  43  68 103 135 159 183 218 276
#     4   9  17  31  52  74  96 124 156 191 234 282
#     4   9  17  30  50  76  99 116 146 199 250 283
#
# _framework density 17.169665999999999
#
# number of rings (size 3 to 8) (size 9 to 14) (size 15 to 20)
#    0.000    2.571    0.000    3.857    0.000    4.571 
#    0.000    1.429    0.000    0.000    0.000    0.000 
#    0.000    0.000    0.000    0.000    0.000    0.000 
#
# Total GULP energy -347191.186812 kJ/mol
# GULP energy per Si atom -12399.685243 kJ/mol
# Density = 1.713059 g / cm^3
# Si number density = 17.169666 Si / 1000 Ang^3
#
#
#
# Elastic Constant Matrix: (Units=GPa)
#
#
# Indices 1 2 3 4 5 6 
#
# 1 146.1512 66.6017 67.8800 0.0000 -17.3502 0.0000
# 2 66.6017 75.1013 44.2950 0.0000 -8.5468 0.0000
# 3 67.8800 44.2950 122.4074 0.0000 8.1861 0.0000
# 4 0.0000 0.0000 0.0000 14.5654 0.0000 -3.1960
# 5 -17.3502 -8.5468 8.1861 0.0000 26.2639 0.0000
# 6 0.0000 0.0000 0.0000 -3.1960 0.0000 22.8968
#
#
#
# Elastic Compliance Matrix: (Units=1/GPa)
#
#
# Indices 1 2 3 4 5 6 
#
# 1 0.014165 -0.008470 -0.005343 0.000000 0.008266 0.000000
# 2 -0.008470 0.023610 -0.004071 0.000000 0.003357 0.000000
# 3 -0.005343 -0.004071 0.013205 0.000000 -0.008970 0.000000
# 4 0.000000 0.000000 0.000000 0.070825 0.000000 0.009886
# 5 0.008266 0.003357 -0.008970 0.000000 0.047424 0.000000
# 6 0.000000 0.000000 0.000000 0.009886 0.000000 0.045054
#
#
# Mechanical properties :
#
#
# Convention : Reuss Voigt Hill
#
# Bulk Modulus (GPa) = 65.73627 77.91260 71.82444
# Shear Modulus (GPa) = 19.59846 23.73741 21.66794
#
# Velocity S-wave (km/s) = 3.38221 3.72226 3.55630
# Velocity P-wave (km/s) = 7.32270 7.99689 7.66721
#
# Compressibility (1/GPa) = 0.01521230
#
# Stress axis : x y z
#
# Youngs Moduli (GPa) = 70.59787 42.35543 75.72625
#
# Poissons Ratio (x) = 0.35873 0.40460
# Poissons Ratio (y) = 0.59794 0.30830
# Poissons Ratio (z) = 0.37720 0.17244
#
# Static dielectric constant tensor:
#      x y z
#    x 3.213970 0.000000 0.122930 
#    y 0.000000 2.817680 0.000000 
#    z 0.122930 0.000000 3.535750 
# 
# 
# High freq. dielectric constant tensor:
#      x y z
#    x 1.660910 0.000000 0.005280 
#    y 0.000000 1.621920 0.000000 
#    z 0.005280 0.000000 1.674760 
# 
# From -- ./inp_files/70723.got.cif
#   From: 2010.06.25/outbox.cif.g09.slc.cpg/sg13_36_cif.got.tgz:70723.got - 2010.06.28 04:50:58.
