data_PCOD8118918
_publ_section_title
;
Structure prediction by ZEFSAII (Michael W. Deem and Ramdas Pophale) SiO2 
 PCOD8118918
Probable space group: P 2/C
;
_chemical_formula_sum "Si O2"
_cell_formula_units_Z 32
_cell_length_a 11.745410
_cell_length_b 15.080817
_cell_length_c 9.005989
_cell_angle_alpha 90.000000
_cell_angle_beta 87.127007
_cell_angle_gamma 90.000000
_cell_volume 1593.229183
_symmetry_space_group_name_H-M "P 2/C"
_symmetry_group_IT_number 13
_symmetry_cell_setting 'monoclinic'
loop_
_space_group_symop_operation_xyz
x,y,z
-x,y,1/2-z
-x,-y,-z
x,-y,1/2+z
loop_
_atom_site_type_symbol
_atom_site_label
_atom_site_fract_x
_atom_site_fract_y
_atom_site_fract_z
Si Si1 0.575560 0.874568 0.099089
Si Si2 0.877302 0.952470 0.315795
Si Si3 0.750952 0.490110 0.453703
Si Si4 0.232903 0.778223 0.250991
Si Si5 0.374076 0.398473 0.293194
Si Si6 0.126806 0.402233 0.797656
Si Si7 0.374491 0.215113 0.456420
Si Si8 0.269029 0.030673 0.411139
O O1 0.500000 0.892308 0.250000
O O2 0.686184 0.815157 0.125242
O O3 0.624604 0.969788 0.037654
O O4 0.502460 0.820674 0.981650
O O5 0.863951 0.847706 0.292069
O O6 0.849443 0.977918 0.487014
O O7 0.000000 0.986015 0.250000
O O8 0.768561 0.998974 0.247016
O O9 0.697168 0.411876 0.355101
O O10 0.663156 0.537262 0.570640
O O11 0.854323 0.451947 0.546974
O O12 0.794068 0.564001 0.339180
O O13 0.161140 0.698547 0.323839
O O14 0.313151 0.749609 0.108718
O O15 0.500000 0.430510 0.250000
O O16 0.372823 0.294724 0.338250
O O17 0.000000 0.414483 0.750000
O O18 0.305256 0.132395 0.396273
#
# Coordination Sequence:
#
# PCOD8118918 Si02
#       8
#     4   4   4   4   4   4   4   4
#     4   9  19  35  58  89 120 158 192 237 297 354
#     4  10  20  37  58  83 114 159 197 242 289 342
#     4  10  24  42  60  89 124 149 203 241 298 361
#     4   9  19  36  59  85 116 149 201 240 286 354
#     4  11  23  40  61  88 123 162 191 240 299 355
#     4  11  21  40  67  88 114 155 198 250 300 344
#     4  10  20  36  58  86 123 153 192 242 294 347
#     4  10  21  36  59  84 121 153 200 241 289 349
#
# _framework density 20.084993999999998
#
# number of rings (size 3 to 8) (size 9 to 14) (size 15 to 20)
#    0.000    2.000    1.250    2.625    1.750    1.500 
#    2.250    0.000    0.000    0.000    0.000    0.000 
#    0.000    0.000    0.000    0.000    0.000    0.000 
#
# Total GULP energy -396626.275562 kJ/mol
# GULP energy per Si atom -12394.571111 kJ/mol
# Density = 2.003928 g / cm^3
# Si number density = 20.084994 Si / 1000 Ang^3
#
#
#
# Elastic Constant Matrix: (Units=GPa)
#
#
# Indices 1 2 3 4 5 6 
#
# 1 97.4371 29.4584 31.5815 0.0000 5.4815 0.0000
# 2 29.4584 108.0251 42.6480 0.0000 5.2111 0.0000
# 3 31.5815 42.6480 77.5927 0.0000 3.4616 0.0000
# 4 0.0000 0.0000 0.0000 -298.7548 0.0000 176.1167
# 5 5.4815 5.2111 3.4616 0.0000 22.0649 0.0000
# 6 0.0000 0.0000 0.0000 176.1167 0.0000 -74.1847
#
#
#
# Elastic Compliance Matrix: (Units=1/GPa)
#
#
# Indices 1 2 3 4 5 6 
#
# 1 0.012157 -0.001661 -0.003946 0.000000 -0.002009 0.000000
# 2 -0.001661 0.012120 -0.005918 0.000000 -0.001521 0.000000
# 3 -0.003946 -0.005918 0.017765 0.000000 -0.000409 0.000000
# 4 0.000000 0.000000 0.000000 0.008379 0.000000 0.019891
# 5 -0.002009 -0.001521 -0.000409 0.000000 0.046243 0.000000
# 6 0.000000 0.000000 0.000000 0.019891 0.000000 0.033742
#
#
# Mechanical properties :
#
#
# Convention : Reuss Voigt Hill
#
# Bulk Modulus (GPa) = 52.65019 54.49229 53.57124
# Shear Modulus (GPa) = 31.29212 -58.21714 -13.46251
#
# Velocity S-wave (km/s) = 3.95141 -5.38965 -2.59178
# Velocity P-wave (km/s) = 6.86213 3.39726 4.21589
#
# Compressibility (1/GPa) = 0.01899328
#
# Stress axis : x y z
#
# Youngs Moduli (GPa) = 82.25715 82.51098 56.29152
#
# Poissons Ratio (x) = 0.13701 0.22212
# Poissons Ratio (y) = 0.13659 0.33312
# Poissons Ratio (z) = 0.32457 0.48827
#
# Static dielectric constant tensor:
#      x y z
#    x 3.623850 0.000000 0.044240 
#    y 0.000000 3.580450 0.000000 
#    z 0.044240 0.000000 3.586720 
# 
# 
# High freq. dielectric constant tensor:
#      x y z
#    x 1.782880 0.000000 -0.001360 
#    y 0.000000 1.782320 0.000000 
#    z -0.001360 0.000000 1.780260 
# 
# From -- ./inp_files/16768.got.cif
#   From: 2010.06.25/outbox.cif.g09.slc.cpg/sg13_9_cif.got.tgz:16768.got - 2010.06.28 04:50:58.
