data_PCOD8118870
_publ_section_title
;
Structure prediction by ZEFSAII (Michael W. Deem and Ramdas Pophale) SiO2 
 PCOD8118870
Probable space group: P 2/C
;
_chemical_formula_sum "Si O2"
_cell_formula_units_Z 14
_cell_length_a 7.880688
_cell_length_b 12.352992
_cell_length_c 8.655754
_cell_angle_alpha 90.000000
_cell_angle_beta 128.861476
_cell_angle_gamma 90.000000
_cell_volume 656.133124
_symmetry_space_group_name_H-M "P 2/C"
_symmetry_group_IT_number 13
_symmetry_cell_setting 'monoclinic'
loop_
_space_group_symop_operation_xyz
x,y,z
-x,y,1/2-z
-x,-y,-z
x,-y,1/2+z
loop_
_atom_site_type_symbol
_atom_site_label
_atom_site_fract_x
_atom_site_fract_y
_atom_site_fract_z
Si Si1 0.682589 0.864385 0.145875
Si Si2 0.761373 0.381476 0.653485
Si Si3 0.214310 0.926133 0.960356
Si Si4 0.500000 0.496252 0.750000
O O1 0.768310 0.747524 0.149641
O O2 0.807322 0.908615 0.369093
O O3 0.746545 0.946024 0.045028
O O4 0.421867 0.858707 0.017477
O O5 0.686103 0.420148 0.780772
O O6 0.594949 0.425436 0.432980
O O7 0.000000 0.427181 0.750000
O O8 0.000000 0.882388 0.750000
#
# Coordination Sequence:
#
# PCOD8118870 Si02
#       4
#     4   4   4   2
#     4  10  22  36  57  88 119 156 203 238 291 366
#     4  11  23  43  65  89 121 159 200 253 306 352
#     4  10  20  36  56  84 124 160 194 243 291 350
#     4  10  24  42  64  92 118 152 208 256 300 362
#
# _framework density 21.337133999999999
#
# number of rings (size 3 to 8) (size 9 to 14) (size 15 to 20)
#    0.000    1.714    0.000    4.286    0.000    6.857 
#    0.000    7.143    0.000    0.000    0.000    0.000 
#    0.000    0.000    0.000    0.000    0.000    0.000 
#
# Total GULP energy -173672.297085 kJ/mol
# GULP energy per Si atom -12405.164077 kJ/mol
# Density = 2.128857 g / cm^3
# Si number density = 21.337134 Si / 1000 Ang^3
#
#
#
# Elastic Constant Matrix: (Units=GPa)
#
#
# Indices 1 2 3 4 5 6 
#
# 1 122.9700 35.0512 35.3657 0.0000 4.2693 0.0000
# 2 35.0512 96.5147 29.4876 0.0000 -7.7022 0.0000
# 3 35.3657 29.4876 114.4467 0.0000 15.5328 0.0000
# 4 0.0000 0.0000 0.0000 15.6897 0.0000 -6.3848
# 5 4.2693 -7.7022 15.5328 0.0000 28.0455 0.0000
# 6 0.0000 0.0000 0.0000 -6.3848 0.0000 23.5803
#
#
#
# Elastic Compliance Matrix: (Units=1/GPa)
#
#
# Indices 1 2 3 4 5 6 
#
# 1 0.009603 -0.002951 -0.002053 0.000000 -0.001135 0.000000
# 2 -0.002951 0.012863 -0.003182 0.000000 0.005744 0.000000
# 3 -0.002053 -0.003182 0.011103 0.000000 -0.006711 0.000000
# 4 0.000000 0.000000 0.000000 0.071628 0.000000 0.019395
# 5 -0.001135 0.005744 -0.006711 0.000000 0.041123 0.000000
# 6 0.000000 0.000000 0.000000 0.019395 0.000000 0.047660
#
#
# Mechanical properties :
#
#
# Convention : Reuss Voigt Hill
#
# Bulk Modulus (GPa) = 58.14918 59.30448 58.72683
# Shear Modulus (GPa) = 23.13902 29.06489 26.10196
#
# Velocity S-wave (km/s) = 3.29667 3.69477 3.50138
# Velocity P-wave (km/s) = 6.46548 6.78647 6.62792
#
# Compressibility (1/GPa) = 0.01719715
#
# Stress axis : x y z
#
# Youngs Moduli (GPa) = 104.13361 77.74008 90.06770
#
# Poissons Ratio (x) = 0.22940 0.18492
# Poissons Ratio (y) = 0.30728 0.28660
# Poissons Ratio (z) = 0.21380 0.24737
#
# Static dielectric constant tensor:
#      x y z
#    x 4.146820 0.000000 0.096270 
#    y 0.000000 3.603920 0.000000 
#    z 0.096270 0.000000 3.870040 
# 
# 
# High freq. dielectric constant tensor:
#      x y z
#    x 1.855570 0.000000 0.006190 
#    y 0.000000 1.822260 0.000000 
#    z 0.006190 0.000000 1.837730 
# 
# From -- ./inp_files/11468.got.cif
#   From: 2010.06.25/outbox.cif.g09.slc.cpg/sg13_6_cif.got.tgz:11468.got - 2010.06.28 04:50:58.
