data_PCOD8118126
_publ_section_title
;
Structure prediction by ZEFSAII (Michael W. Deem and Ramdas Pophale) SiO2 
 PCOD8118126
Probable space group: P 2/C
;
_chemical_formula_sum "Si O2"
_cell_formula_units_Z 32
_cell_length_a 12.773966
_cell_length_b 5.053122
_cell_length_c 26.890045
_cell_angle_alpha 90.000000
_cell_angle_beta 83.678256
_cell_angle_gamma 90.000000
_cell_volume 1725.155178
_symmetry_space_group_name_H-M "P 2/C"
_symmetry_group_IT_number 13
_symmetry_cell_setting 'monoclinic'
loop_
_space_group_symop_operation_xyz
x,y,z
-x,y,1/2-z
-x,-y,-z
x,-y,1/2+z
loop_
_atom_site_type_symbol
_atom_site_label
_atom_site_fract_x
_atom_site_fract_y
_atom_site_fract_z
Si Si1 0.342942 0.452402 0.097045
Si Si2 0.853656 0.473130 0.834642
Si Si3 0.584947 0.074199 0.644106
Si Si4 0.549022 0.939443 0.444698
Si Si5 0.521582 0.438000 0.313718
Si Si6 0.220411 0.957686 0.815097
Si Si7 0.282965 0.542009 0.255139
Si Si8 0.986426 0.969989 0.809797
O O1 0.217544 0.483800 0.112278
O O2 0.385752 0.667069 0.055217
O O3 0.400160 0.515598 0.145711
O O4 0.367934 0.162148 0.075661
O O5 0.781307 0.521498 0.790948
O O6 0.948450 0.681179 0.827829
O O7 0.902540 0.181486 0.833723
O O8 0.547599 0.080903 0.589204
O O9 0.573282 0.351166 0.674740
O O10 0.519486 0.859433 0.679352
O O11 0.709895 0.007076 0.638756
O O12 0.500000 0.000000 0.500000
O O13 0.591570 0.473621 0.259489
O O14 0.235768 0.653424 0.798853
O O15 0.098127 0.018507 0.831124
O O16 0.265732 0.151652 0.769764
O O17 0.000000 0.994667 0.750000
#
# Coordination Sequence:
#
# PCOD8118126 Si02
#       8
#     4   4   4   4   4   4   4   4
#     4   9  19  33  54  82 102 128 165 204 256 304
#     4  11  20  35  52  71 105 135 176 222 242 280
#     4  10  21  35  46  73 102 128 160 207 244 307
#     4  10  19  36  59  81 103 126 157 202 259 321
#     4   9  19  33  49  66 102 134 166 197 243 296
#     4  12  23  31  47  69 100 133 178 207 244 285
#     4  11  20  32  48  70  94 140 173 205 242 284
#     4  12  21  34  50  71  97 143 186 217 244 271
#
# _framework density 18.549054000000002
#
# number of rings (size 3 to 8) (size 9 to 14) (size 15 to 20)
#    0.000    1.500    2.500    3.750    0.000    7.000 
#    0.000    0.000    0.000    0.000    0.000    5.250 
#    0.000    0.000    0.000    0.000    0.000    0.000 
#
# Total GULP energy -396884.592395 kJ/mol
# GULP energy per Si atom -12402.643512 kJ/mol
# Density = 1.850684 g / cm^3
# Si number density = 18.549054 Si / 1000 Ang^3
#
#
#
# Elastic Constant Matrix: (Units=GPa)
#
#
# Indices 1 2 3 4 5 6 
#
# 1 101.3738 4.9742 19.9281 0.0000 -9.2154 0.0000
# 2 4.9742 75.9428 4.0807 0.0000 2.5186 0.0000
# 3 19.9281 4.0807 59.6051 0.0000 -2.5485 0.0000
# 4 0.0000 0.0000 0.0000 21.0161 0.0000 -7.2200
# 5 -9.2154 2.5186 -2.5485 0.0000 16.9468 0.0000
# 6 0.0000 0.0000 0.0000 -7.2200 0.0000 30.6649
#
#
#
# Elastic Compliance Matrix: (Units=1/GPa)
#
#
# Indices 1 2 3 4 5 6 
#
# 1 0.011083 -0.000729 -0.003415 0.000000 0.005621 0.000000
# 2 -0.000729 0.013340 -0.000776 0.000000 -0.002496 0.000000
# 3 -0.003415 -0.000776 0.018013 0.000000 0.000967 0.000000
# 4 0.000000 0.000000 0.000000 0.051770 0.000000 0.012189
# 5 0.005621 -0.002496 0.000967 0.000000 0.062581 0.000000
# 6 0.000000 0.000000 0.000000 0.012189 0.000000 0.035480
#
#
# Mechanical properties :
#
#
# Convention : Reuss Voigt Hill
#
# Bulk Modulus (GPa) = 30.67903 32.76531 31.72217
# Shear Modulus (GPa) = 23.47709 27.58814 25.53261
#
# Velocity S-wave (km/s) = 3.56149 3.86075 3.71413
# Velocity P-wave (km/s) = 5.78685 6.12995 5.96087
#
# Compressibility (1/GPa) = 0.03259555
#
# Stress axis : x y z
#
# Youngs Moduli (GPa) = 90.23165 74.96237 55.51433
#
# Poissons Ratio (x) = 0.05463 0.18958
# Poissons Ratio (y) = 0.06576 0.04310
# Poissons Ratio (z) = 0.30815 0.05819
#
# Static dielectric constant tensor:
#      x y z
#    x 3.642850 0.000000 -0.063580 
#    y 0.000000 3.509480 0.000000 
#    z -0.063580 0.000000 3.022270 
# 
# 
# High freq. dielectric constant tensor:
#      x y z
#    x 1.725520 0.000000 -0.008730 
#    y 0.000000 1.741380 0.000000 
#    z -0.008730 0.000000 1.664600 
# 
# From -- ./inp_files/96336.got.cif
#   From: 2010.06.25/outbox.cif.g09.slc.cpg/sg13_49_cif.got.tgz:96336.got - 2010.06.28 04:50:58.
