data_PCOD8118332
_publ_section_title
;
Structure prediction by ZEFSAII (Michael W. Deem and Ramdas Pophale) SiO2 
 PCOD8118332
Probable space group: P 2/C
;
_chemical_formula_sum "Si O2"
_cell_formula_units_Z 32
_cell_length_a 11.138491
_cell_length_b 14.327309
_cell_length_c 11.193190
_cell_angle_alpha 90.000000
_cell_angle_beta 68.904133
_cell_angle_gamma 90.000000
_cell_volume 1666.544686
_symmetry_space_group_name_H-M "P 2/C"
_symmetry_group_IT_number 13
_symmetry_cell_setting 'monoclinic'
loop_
_space_group_symop_operation_xyz
x,y,z
-x,y,1/2-z
-x,-y,-z
x,-y,1/2+z
loop_
_atom_site_type_symbol
_atom_site_label
_atom_site_fract_x
_atom_site_fract_y
_atom_site_fract_z
Si Si1 0.348029 0.160771 0.777876
Si Si2 0.367970 0.219118 0.160136
Si Si3 0.649371 0.043642 0.183498
Si Si4 0.739144 0.345392 0.111477
Si Si5 0.576348 0.485442 0.597193
Si Si6 0.749057 0.308430 0.516190
Si Si7 0.996847 0.424729 0.109856
Si Si8 0.661182 0.813260 0.490897
O O1 0.500000 0.172631 0.750000
O O2 0.315915 0.174697 0.653647
O O3 0.288455 0.058916 0.830999
O O4 0.261461 0.240780 0.867339
O O5 0.314873 0.120136 0.228593
O O6 0.363096 0.301877 0.259206
O O7 0.273492 0.241235 0.086965
O O8 0.515043 0.216345 0.068982
O O9 0.500000 0.023342 0.250000
O O10 0.688419 0.086867 0.042175
O O11 0.688363 0.437995 0.064524
O O12 0.867174 0.366216 0.140248
O O13 0.759225 0.266723 0.002433
O O14 0.500000 0.490533 0.750000
O O15 0.500000 0.500000 0.500000
O O16 0.637299 0.384361 0.564904
O O17 0.887264 0.354787 0.455837
O O18 0.000000 0.461927 0.250000
O O19 0.000000 0.500000 0.000000
#
# Coordination Sequence:
#
# PCOD8118332 Si02
#       8
#     4   4   4   4   4   4   4   4
#     4  11  22  34  59  97 134 163 200 260 325 379
#     4  10  19  38  61  91 122 160 203 250 309 385
#     4   8  19  33  57  91 129 169 197 244 318 390
#     4  11  22  42  64  85 120 166 213 255 311 378
#     4  12  26  38  63  93 130 162 197 256 326 378
#     4  12  24  39  61  93 124 158 216 254 307 370
#     4  12  27  47  67  89 122 172 222 262 310 374
#     4  10  20  36  61  93 129 162 205 256 321 385
#
# _framework density 19.201405999999999
#
# number of rings (size 3 to 8) (size 9 to 14) (size 15 to 20)
#    0.000    1.250    3.750    3.750    3.500    2.500 
#    0.000    0.000    0.000    3.000    6.500    0.000 
#    0.000    0.000    0.000    0.000    0.000    0.000 
#
# Total GULP energy -396508.031085 kJ/mol
# GULP energy per Si atom -12390.875971 kJ/mol
# Density = 1.915770 g / cm^3
# Si number density = 19.201406 Si / 1000 Ang^3
#
#
#
# Elastic Constant Matrix: (Units=GPa)
#
#
# Indices 1 2 3 4 5 6 
#
# 1 85.3156 38.5481 48.3216 0.0000 15.4496 0.0000
# 2 38.5481 115.1832 78.3765 0.0000 5.5878 0.0000
# 3 48.3216 78.3765 139.4459 0.0000 35.7131 0.0000
# 4 0.0000 0.0000 0.0000 10.4449 0.0000 -6.3028
# 5 15.4496 5.5878 35.7131 0.0000 28.1989 0.0000
# 6 0.0000 0.0000 0.0000 -6.3028 0.0000 16.2270
#
#
#
# Elastic Compliance Matrix: (Units=1/GPa)
#
#
# Indices 1 2 3 4 5 6 
#
# 1 0.015399 -0.003516 -0.002039 0.000000 -0.005157 0.000000
# 2 -0.003516 0.017436 -0.012122 0.000000 0.013824 0.000000
# 3 -0.002039 -0.012122 0.020410 0.000000 -0.022329 0.000000
# 4 0.000000 0.000000 0.000000 0.125050 0.000000 0.048571
# 5 -0.005157 0.013824 -0.022329 0.000000 0.063828 0.000000
# 6 0.000000 0.000000 0.000000 0.048571 0.000000 0.080491
#
#
# Mechanical properties :
#
#
# Convention : Reuss Voigt Hill
#
# Bulk Modulus (GPa) = 55.89486 74.49299 65.19393
# Shear Modulus (GPa) = 13.73882 22.62072 18.17977
#
# Velocity S-wave (km/s) = 2.67781 3.43603 3.08034
# Velocity P-wave (km/s) = 6.22365 7.39064 6.83211
#
# Compressibility (1/GPa) = 0.01789073
#
# Stress axis : x y z
#
# Youngs Moduli (GPa) = 64.94115 57.35123 48.99562
#
# Poissons Ratio (x) = 0.20163 0.09991
# Poissons Ratio (y) = 0.22831 0.59394
# Poissons Ratio (z) = 0.13242 0.69523
#
# Static dielectric constant tensor:
#      x y z
#    x 3.384520 0.000000 0.303690 
#    y 0.000000 3.899130 0.000000 
#    z 0.303690 0.000000 3.851520 
# 
# 
# High freq. dielectric constant tensor:
#      x y z
#    x 1.713840 0.000000 0.027110 
#    y 0.000000 1.763330 0.000000 
#    z 0.027110 0.000000 1.753770 
# 
# From -- ./inp_files/34151.got.cif
#   From: 2010.06.25/outbox.cif.g09.slc.cpg/sg13_18_cif.got.tgz:34151.got - 2010.06.28 04:50:58.
