data_PCOD8118042
_publ_section_title
;
Structure prediction by ZEFSAII (Michael W. Deem and Ramdas Pophale) SiO2 
 PCOD8118042
Probable space group: P 2/C
;
_chemical_formula_sum "Si O2"
_cell_formula_units_Z 28
_cell_length_a 26.257027
_cell_length_b 9.063508
_cell_length_c 26.719779
_cell_angle_alpha 90.000000
_cell_angle_beta 169.067592
_cell_angle_gamma 90.000000
_cell_volume 1205.950530
_symmetry_space_group_name_H-M "P 2/C"
_symmetry_group_IT_number 13
_symmetry_cell_setting 'monoclinic'
loop_
_space_group_symop_operation_xyz
x,y,z
-x,y,1/2-z
-x,-y,-z
x,-y,1/2+z
loop_
_atom_site_type_symbol
_atom_site_label
_atom_site_fract_x
_atom_site_fract_y
_atom_site_fract_z
Si Si1 0.997019 0.169923 0.648365
Si Si2 0.527113 0.663866 0.858066
Si Si3 0.817618 0.147225 0.187451
Si Si4 0.590389 0.547222 0.648190
Si Si5 0.292882 0.637564 0.011093
Si Si6 0.722025 0.786095 0.291202
Si Si7 0.891716 0.712459 0.354389
O O1 0.059516 0.201942 0.650055
O O2 0.706097 0.225554 0.386016
O O3 0.040906 0.996518 0.699277
O O4 0.191636 0.252896 0.874311
O O5 0.468146 0.636267 0.858403
O O6 0.546332 0.512677 0.846131
O O7 0.752337 0.263329 0.081118
O O8 0.027214 0.213789 0.429200
O O9 0.527272 0.108682 0.932756
O O10 0.604146 0.377867 0.676365
O O11 0.343955 0.586988 0.373451
O O12 0.859612 0.617764 0.885995
O O13 0.000000 0.602338 0.750000
O O14 0.500000 0.717315 0.250000
O O15 0.819600 0.829577 0.329074
#
# Coordination Sequence:
#
# PCOD8118042 Si02
#       7
#     4   4   4   4   4   4   4
#     4  10  23  42  65  95 139 180 214 260 326 399
#     4  10  21  42  69  91 125 169 216 268 331 389
#     4  12  26  42  65  99 136 177 211 272 345 393
#     4  10  19  35  59  91 131 170 224 278 319 368
#     4  12  26  46  73 102 125 160 222 287 347 413
#     4  12  22  36  62  94 140 178 227 267 320 386
#     4  10  21  35  59  94 134 184 227 268 306 374
#
# _framework density 23.218198000000001
#
# number of rings (size 3 to 8) (size 9 to 14) (size 15 to 20)
#    0.000    1.143    1.429    5.143    4.000    1.143 
#    0.000    2.857    0.000    0.000    0.000    0.000 
#    0.000    0.000    0.000    0.000    0.000    0.000 
#
# Total GULP energy -347116.846911 kJ/mol
# GULP energy per Si atom -12397.030247 kJ/mol
# Density = 2.316535 g / cm^3
# Si number density = 23.218198 Si / 1000 Ang^3
#
#
#
# Elastic Constant Matrix: (Units=GPa)
#
#
# Indices 1 2 3 4 5 6 
#
# 1 59.8442 17.8699 48.6568 0.0000 -4.7679 0.0000
# 2 17.8699 73.8171 13.1120 0.0000 -4.8937 0.0000
# 3 48.6568 13.1120 169.4219 0.0000 -7.9805 0.0000
# 4 0.0000 0.0000 0.0000 32.4545 0.0000 7.8001
# 5 -4.7679 -4.8937 -7.9805 0.0000 39.6049 0.0000
# 6 0.0000 0.0000 0.0000 7.8001 0.0000 7.6959
#
#
#
# Elastic Compliance Matrix: (Units=1/GPa)
#
#
# Indices 1 2 3 4 5 6 
#
# 1 0.023219 -0.004441 -0.006278 0.000000 0.000981 0.000000
# 2 -0.004441 0.014674 0.000202 0.000000 0.001319 0.000000
# 3 -0.006278 0.000202 0.007729 0.000000 0.000826 0.000000
# 4 0.000000 0.000000 0.000000 0.040735 0.000000 -0.041286
# 5 0.000981 0.001319 0.000826 0.000000 0.025697 0.000000
# 6 0.000000 0.000000 0.000000 -0.041286 0.000000 0.171784
#
#
# Mechanical properties :
#
#
# Convention : Reuss Voigt Hill
#
# Bulk Modulus (GPa) = 40.67198 51.37343 46.02270
# Shear Modulus (GPa) = 15.97099 30.84736 23.40917
#
# Velocity S-wave (km/s) = 2.62556 3.64893 3.17870
# Velocity P-wave (km/s) = 5.17173 6.31881 5.77382
#
# Compressibility (1/GPa) = 0.02458695
#
# Stress axis : x y z
#
# Youngs Moduli (GPa) = 43.06818 68.14955 129.38519
#
# Poissons Ratio (x) = 0.30263 0.81234
# Poissons Ratio (y) = 0.19125 -0.02611
# Poissons Ratio (z) = 0.27040 -0.01375
#
# Static dielectric constant tensor:
#      x y z
#    x 4.294260 0.000000 -0.037550 
#    y 0.000000 3.870090 0.000000 
#    z -0.037550 0.000000 5.037570 
# 
# 
# High freq. dielectric constant tensor:
#      x y z
#    x 1.919750 0.000000 -0.000810 
#    y 0.000000 1.895370 0.000000 
#    z -0.000810 0.000000 1.944670 
# 
# From -- ./inp_files/98099.got.cif
#   From: 2010.06.25/outbox.cif.g09.slc.cpg/sg13_50_cif.got.tgz:98099.got - 2010.06.28 04:50:58.
