data_PCOD8118072
_publ_section_title
;
Structure prediction by ZEFSAII (Michael W. Deem and Ramdas Pophale) SiO2 
 PCOD8118072
Probable space group: P 2/C
;
_chemical_formula_sum "Si O2"
_cell_formula_units_Z 22
_cell_length_a 16.064262
_cell_length_b 8.253448
_cell_length_c 20.397159
_cell_angle_alpha 90.000000
_cell_angle_beta 24.080094
_cell_angle_gamma 90.000000
_cell_volume 1103.418327
_symmetry_space_group_name_H-M "P 2/C"
_symmetry_group_IT_number 13
_symmetry_cell_setting 'monoclinic'
loop_
_space_group_symop_operation_xyz
x,y,z
-x,y,1/2-z
-x,-y,-z
x,-y,1/2+z
loop_
_atom_site_type_symbol
_atom_site_label
_atom_site_fract_x
_atom_site_fract_y
_atom_site_fract_z
Si Si1 0.740061 0.843694 0.392432
Si Si2 0.036341 0.624703 0.648423
Si Si3 0.418194 0.324095 0.041934
Si Si4 0.149500 0.721821 0.051347
Si Si5 0.637551 0.147715 0.541496
Si Si6 0.500000 0.070303 0.250000
O O1 0.527828 0.809041 0.508403
O O2 0.754197 0.725798 0.445074
O O3 0.929979 0.810700 0.207590
O O4 0.752139 0.029266 0.407550
O O5 0.123617 0.465592 0.548498
O O6 0.199127 0.770301 0.526729
O O7 0.000000 0.575891 0.750000
O O8 0.823627 0.681028 0.769275
O O9 0.500000 0.500000 0.000000
O O10 0.467685 0.283016 0.929377
O O11 0.299372 0.816399 0.894037
O O12 0.484233 0.043162 0.696544
#
# Coordination Sequence:
#
# PCOD8118072 Si02
#       6
#     4   4   4   4   4   2
#     4  10  19  36  62  89 117 149 207 257 295 343
#     4  10  19  35  62  92 113 152 203 253 294 352
#     4  11  20  35  62  97 120 149 202 265 300 341
#     4  10  19  37  61  84 119 160 198 243 299 365
#     4  10  23  38  61  91 118 161 203 248 298 361
#     4  10  24  38  60  84 124 166 198 236 304 372
#
# _framework density 19.938041999999999
#
# number of rings (size 3 to 8) (size 9 to 14) (size 15 to 20)
#    0.000    1.818    3.636    1.636   15.273    0.727 
#    0.000    0.909    4.000    5.455    0.000    0.000 
#    0.000    0.000    0.000    0.000    0.000    0.000 
#
# Total GULP energy -272719.452294 kJ/mol
# GULP energy per Si atom -12396.338741 kJ/mol
# Density = 1.989266 g / cm^3
# Si number density = 19.938042 Si / 1000 Ang^3
#
#
#
# Elastic Constant Matrix: (Units=GPa)
#
#
# Indices 1 2 3 4 5 6 
#
# 1 70.5673 37.5046 53.3822 0.0000 -24.7327 0.0000
# 2 37.5046 131.5519 69.1840 0.0000 -2.5237 0.0000
# 3 53.3822 69.1840 123.2925 0.0000 -8.5835 0.0000
# 4 0.0000 0.0000 0.0000 35.1671 0.0000 3.2058
# 5 -24.7327 -2.5237 -8.5835 0.0000 34.6294 0.0000
# 6 0.0000 0.0000 0.0000 3.2058 0.0000 28.5750
#
#
#
# Elastic Compliance Matrix: (Units=1/GPa)
#
#
# Indices 1 2 3 4 5 6 
#
# 1 0.029755 -0.002882 -0.009973 0.000000 0.018569 0.000000
# 2 -0.002882 0.011081 -0.005146 0.000000 -0.002526 0.000000
# 3 -0.009973 -0.005146 0.015054 0.000000 -0.003767 0.000000
# 4 0.000000 0.000000 0.000000 0.028729 0.000000 -0.003223
# 5 0.018569 -0.002526 -0.003767 0.000000 0.041022 0.000000
# 6 0.000000 0.000000 0.000000 -0.003223 0.000000 0.035357
#
#
# Mechanical properties :
#
#
# Convention : Reuss Voigt Hill
#
# Bulk Modulus (GPa) = 50.28084 71.72815 61.00450
# Shear Modulus (GPa) = 24.55415 30.69702 27.62559
#
# Velocity S-wave (km/s) = 3.51311 3.92806 3.72637
# Velocity P-wave (km/s) = 6.45982 7.52506 7.01269
#
# Compressibility (1/GPa) = 0.01988829
#
# Stress axis : x y z
#
# Youngs Moduli (GPa) = 33.60742 90.24395 66.42548
#
# Poissons Ratio (x) = 0.26006 0.66249
# Poissons Ratio (y) = 0.09685 0.34184
# Poissons Ratio (z) = 0.33518 0.46441
#
# Static dielectric constant tensor:
#      x y z
#    x 3.524370 0.000000 -0.284720 
#    y 0.000000 3.838360 0.000000 
#    z -0.284720 0.000000 3.597640 
# 
# 
# High freq. dielectric constant tensor:
#      x y z
#    x 1.739660 0.000000 -0.023930 
#    y 0.000000 1.800750 0.000000 
#    z -0.023930 0.000000 1.755170 
# 
# From -- ./inp_files/45854.got.cif
#   From: 2010.06.25/outbox.cif.g09.slc.cpg/sg13_23_cif.got.tgz:45854.got - 2010.06.28 04:50:58.
