data_PCOD8118982
_publ_section_title
;
Structure prediction by ZEFSAII (Michael W. Deem and Ramdas Pophale) SiO2 
 PCOD8118982
Probable space group: P 2/C
;
_chemical_formula_sum "Si O2"
_cell_formula_units_Z 32
_cell_length_a 8.612311
_cell_length_b 11.969037
_cell_length_c 19.910763
_cell_angle_alpha 90.000000
_cell_angle_beta 50.189788
_cell_angle_gamma 90.000000
_cell_volume 1576.608387
_symmetry_space_group_name_H-M "P 2/C"
_symmetry_group_IT_number 13
_symmetry_cell_setting 'monoclinic'
loop_
_space_group_symop_operation_xyz
x,y,z
-x,y,1/2-z
-x,-y,-z
x,-y,1/2+z
loop_
_atom_site_type_symbol
_atom_site_label
_atom_site_fract_x
_atom_site_fract_y
_atom_site_fract_z
Si Si1 0.066850 0.196221 0.523696
Si Si2 0.591249 0.218315 0.656334
Si Si3 0.322445 0.985639 0.192322
Si Si4 0.636317 0.374806 0.525967
Si Si5 0.613123 0.231459 0.288216
Si Si6 0.998039 0.222580 0.395369
Si Si7 0.389604 0.371046 0.459424
Si Si8 0.899662 0.011205 0.881317
O O1 0.179190 0.304746 0.521529
O O2 0.147461 0.087873 0.541163
O O3 0.829641 0.208627 0.599217
O O4 0.120006 0.187491 0.429607
O O5 0.500000 0.267124 0.750000
O O6 0.534236 0.304501 0.613758
O O7 0.497718 0.097870 0.665845
O O8 0.417079 0.108995 0.171602
O O9 0.255348 0.958607 0.134955
O O10 0.131667 0.972336 0.294641
O O11 0.858865 0.329427 0.446738
O O12 0.491168 0.363129 0.503322
O O13 0.660591 0.501304 0.544373
O O14 0.500000 0.245917 0.250000
O O15 0.540190 0.322757 0.361552
O O16 0.850091 0.251931 0.207122
O O17 0.859699 0.117176 0.412771
#
# Coordination Sequence:
#
# PCOD8118982 Si02
#       8
#     4   4   4   4   4   4   4   4
#     4  11  22  38  63  91 127 161 206 254 310 365
#     4  11  22  41  63  92 125 167 201 256 309 372
#     4  10  21  36  61  92 133 163 208 255 300 376
#     4  10  25  45  65  88 125 158 215 262 314 362
#     4  11  22  40  67  94 125 166 208 252 316 371
#     4  10  22  40  63  96 123 165 208 261 304 373
#     4  11  24  45  64  90 123 165 205 268 310 371
#     4  10  20  36  60  94 128 170 204 250 312 371
#
# _framework density 20.296735000000002
#
# number of rings (size 3 to 8) (size 9 to 14) (size 15 to 20)
#    0.000    1.500    2.500    2.250    1.750    6.000 
#    2.250    4.375    0.000    0.000    0.000    0.000 
#    0.000    0.000    0.000    0.000    0.000    0.000 
#
# Total GULP energy -396924.420981 kJ/mol
# GULP energy per Si atom -12403.888156 kJ/mol
# Density = 2.025054 g / cm^3
# Si number density = 20.296735 Si / 1000 Ang^3
#
#
#
# Elastic Constant Matrix: (Units=GPa)
#
#
# Indices 1 2 3 4 5 6 
#
# 1 79.6412 51.0067 40.5147 0.0000 6.7282 0.0000
# 2 51.0067 153.9539 78.1210 0.0000 -1.4551 0.0000
# 3 40.5147 78.1210 111.2265 0.0000 2.7512 0.0000
# 4 0.0000 0.0000 0.0000 23.8740 0.0000 -1.4436
# 5 6.7282 -1.4551 2.7512 0.0000 27.1609 0.0000
# 6 0.0000 0.0000 0.0000 -1.4436 0.0000 31.4351
#
#
#
# Elastic Compliance Matrix: (Units=1/GPa)
#
#
# Indices 1 2 3 4 5 6 
#
# 1 0.017186 -0.004053 -0.003311 0.000000 -0.004139 0.000000
# 2 -0.004053 0.011091 -0.006369 0.000000 0.002243 0.000000
# 3 -0.003311 -0.006369 0.014695 0.000000 -0.001010 0.000000
# 4 0.000000 0.000000 0.000000 0.042003 0.000000 0.001929
# 5 -0.004139 0.002243 -0.001010 0.000000 0.038065 0.000000
# 6 0.000000 0.000000 0.000000 0.001929 0.000000 0.031900
#
#
# Mechanical properties :
#
#
# Convention : Reuss Voigt Hill
#
# Bulk Modulus (GPa) = 64.49101 76.01182 70.25141
# Shear Modulus (GPa) = 26.65569 28.17262 27.41415
#
# Velocity S-wave (km/s) = 3.62788 3.72968 3.67913
# Velocity P-wave (km/s) = 7.02793 7.48859 7.26191
#
# Compressibility (1/GPa) = 0.01550604
#
# Stress axis : x y z
#
# Youngs Moduli (GPa) = 58.18655 90.15950 68.04884
#
# Poissons Ratio (x) = 0.36541 0.22532
# Poissons Ratio (y) = 0.23582 0.43343
# Poissons Ratio (z) = 0.19266 0.57426
#
# Static dielectric constant tensor:
#      x y z
#    x 3.747270 0.000000 0.176780 
#    y 0.000000 3.678590 0.000000 
#    z 0.176780 0.000000 3.871900 
# 
# 
# High freq. dielectric constant tensor:
#      x y z
#    x 1.805610 0.000000 0.008610 
#    y 0.000000 1.782510 0.000000 
#    z 0.008610 0.000000 1.799010 
# 
# From -- ./inp_files/76446.got.cif
#   From: 2010.06.25/outbox.cif.g09.slc.cpg/sg13_39_cif.got.tgz:76446.got - 2010.06.28 04:50:58.
