data_PCOD8118290
_publ_section_title
;
Structure prediction by ZEFSAII (Michael W. Deem and Ramdas Pophale) SiO2 
 PCOD8118290
Probable space group: P 2/C
;
_chemical_formula_sum "Si O2"
_cell_formula_units_Z 32
_cell_length_a 20.937260
_cell_length_b 9.172623
_cell_length_c 26.953145
_cell_angle_alpha 90.000000
_cell_angle_beta 162.219749
_cell_angle_gamma 90.000000
_cell_volume 1580.684103
_symmetry_space_group_name_H-M "P 2/C"
_symmetry_group_IT_number 13
_symmetry_cell_setting 'monoclinic'
loop_
_space_group_symop_operation_xyz
x,y,z
-x,y,1/2-z
-x,-y,-z
x,-y,1/2+z
loop_
_atom_site_type_symbol
_atom_site_label
_atom_site_fract_x
_atom_site_fract_y
_atom_site_fract_z
Si Si1 0.827834 0.916218 0.904376
Si Si2 0.967460 0.396785 0.802296
Si Si3 0.698989 0.601053 0.656214
Si Si4 0.674623 0.086106 0.098388
Si Si5 0.931012 0.075638 0.593086
Si Si6 0.656217 0.608144 0.984773
Si Si7 0.200946 0.602468 0.657934
Si Si8 0.623839 0.051296 0.455735
O O1 0.850329 0.746418 0.910009
O O2 0.612200 0.993025 0.730473
O O3 0.824529 0.921499 0.961197
O O4 0.000000 0.000000 0.000000
O O5 0.912984 0.510040 0.805111
O O6 0.788448 0.441678 0.630110
O O7 0.955088 0.228381 0.809300
O O8 0.204139 0.428403 0.959990
O O9 0.500000 0.500000 0.500000
O O10 0.652551 0.740624 0.587582
O O11 0.740944 0.649792 0.743295
O O12 0.894878 0.046356 0.285078
O O13 0.500000 0.000000 0.000000
O O14 0.688762 0.045333 0.050798
O O15 0.772621 0.022947 0.518712
O O16 0.426636 0.533755 0.807007
O O17 0.630312 0.779754 0.973842
O O18 0.000000 0.500000 0.500000
#
# Coordination Sequence:
#
# PCOD8118290 Si02
#       8
#     4   4   4   4   4   4   4   4
#     4  11  23  41  61  89 125 166 211 255 319 380
#     4  10  19  37  65  91 123 156 212 261 319 373
#     4  12  24  40  61  94 129 167 216 263 316 382
#     4  12  23  39  63  93 129 163 209 263 315 373
#     4  11  21  40  67  92 121 165 210 263 323 377
#     4   9  18  38  62  90 122 161 204 260 314 378
#     4  11  23  41  61  90 128 167 214 261 314 381
#     4  10  21  39  64  94 123 160 209 265 311 383
#
# _framework density 20.244396999999999
#
# number of rings (size 3 to 8) (size 9 to 14) (size 15 to 20)
#    0.000    1.250    2.500    5.250    0.000    1.000 
#    4.500    1.875    0.000    0.000    0.000    0.000 
#    0.000    0.000    0.000    0.000    0.000    0.000 
#
# Total GULP energy -396546.078624 kJ/mol
# GULP energy per Si atom -12392.064957 kJ/mol
# Density = 2.019832 g / cm^3
# Si number density = 20.244397 Si / 1000 Ang^3
#
#
#
# Elastic Constant Matrix: (Units=GPa)
#
#
# Indices 1 2 3 4 5 6 
#
# 1 135.0830 39.5418 41.0575 0.0000 9.8518 0.0000
# 2 39.5418 81.8945 34.5249 0.0000 16.6332 0.0000
# 3 41.0575 34.5249 125.0467 0.0000 21.8030 0.0000
# 4 0.0000 0.0000 0.0000 32.3288 0.0000 3.8701
# 5 9.8518 16.6332 21.8030 0.0000 45.8445 0.0000
# 6 0.0000 0.0000 0.0000 3.8701 0.0000 30.8248
#
#
#
# Elastic Compliance Matrix: (Units=1/GPa)
#
#
# Indices 1 2 3 4 5 6 
#
# 1 0.009045 -0.003573 -0.002040 0.000000 0.000323 0.000000
# 2 -0.003573 0.015762 -0.002525 0.000000 -0.003750 0.000000
# 3 -0.002040 -0.002525 0.009953 0.000000 -0.003379 0.000000
# 4 0.000000 0.000000 0.000000 0.031404 0.000000 -0.003943
# 5 0.000323 -0.003750 -0.003379 0.000000 0.024711 0.000000
# 6 0.000000 0.000000 0.000000 -0.003943 0.000000 0.032936
#
#
# Mechanical properties :
#
#
# Convention : Reuss Voigt Hill
#
# Bulk Modulus (GPa) = 54.09696 63.58584 58.84140
# Shear Modulus (GPa) = 34.18832 36.92628 35.55730
#
# Velocity S-wave (km/s) = 4.11393 4.27549 4.19549
# Velocity P-wave (km/s) = 7.02466 7.47331 7.25246
#
# Compressibility (1/GPa) = 0.01848533
#
# Stress axis : x y z
#
# Youngs Moduli (GPa) = 110.55641 63.44328 100.47249
#
# Poissons Ratio (x) = 0.22668 0.20493
# Poissons Ratio (y) = 0.39502 0.25368
# Poissons Ratio (z) = 0.22549 0.16018
#
# Static dielectric constant tensor:
#      x y z
#    x 2.508640 0.000000 -3.079650 
#    y 0.000000 3.816450 0.000000 
#    z -3.079650 0.000000 -3.485840 
# 
# 
# High freq. dielectric constant tensor:
#      x y z
#    x 1.806600 0.000000 0.010590 
#    y 0.000000 1.765760 0.000000 
#    z 0.010590 0.000000 1.801570 
# 
# From -- ./inp_files/93616.got.cif
#   From: 2010.06.25/outbox.cif.g09.slc.cpg/sg13_47_cif.got.tgz:93616.got - 2010.06.28 04:50:58.
