data_PCOD8118692
_publ_section_title
;
Structure prediction by ZEFSAII (Michael W. Deem and Ramdas Pophale) SiO2 
 PCOD8118692
Probable space group: P 2/C
;
_chemical_formula_sum "Si O2"
_cell_formula_units_Z 22
_cell_length_a 11.125997
_cell_length_b 6.538020
_cell_length_c 15.815178
_cell_angle_alpha 90.000000
_cell_angle_beta 67.256400
_cell_angle_gamma 90.000000
_cell_volume 1060.975077
_symmetry_space_group_name_H-M "P 2/C"
_symmetry_group_IT_number 13
_symmetry_cell_setting 'monoclinic'
loop_
_space_group_symop_operation_xyz
x,y,z
-x,y,1/2-z
-x,-y,-z
x,-y,1/2+z
loop_
_atom_site_type_symbol
_atom_site_label
_atom_site_fract_x
_atom_site_fract_y
_atom_site_fract_z
Si Si1 0.201519 0.042036 0.484947
Si Si2 0.000000 0.820901 0.750000
Si Si3 0.231390 0.103551 0.654688
Si Si4 0.188270 0.491372 0.764021
Si Si5 0.349457 0.846814 0.772739
Si Si6 0.944423 0.704840 0.049586
O O1 0.293883 0.079243 0.542822
O O2 0.269999 0.113391 0.380212
O O3 0.067513 0.159780 0.538920
O O4 0.156660 0.806339 0.489011
O O5 0.079103 0.669826 0.790140
O O6 0.099312 0.972669 0.676697
O O7 0.208478 0.347780 0.675872
O O8 0.316969 0.008162 0.706802
O O9 0.320851 0.613395 0.750656
O O10 0.144151 0.327053 0.844276
O O11 0.500000 0.871469 0.750000
O O12 0.000000 0.500000 0.000000
#
# Coordination Sequence:
#
# PCOD8118692 Si02
#       6
#     4   2   4   4   4   4
#     4  11  23  39  65  97 129 163 209 265 326 385
#     4  10  20  34  62  98 134 156 202 264 324 392
#     4  11  23  40  64  94 128 168 209 265 328 376
#     4  11  21  40  63  94 130 169 207 264 324 384
#     4  11  26  46  62  89 130 174 224 264 306 377
#     4  11  20  36  64  99 131 160 203 261 333 385
#
# _framework density 20.735641999999999
#
# number of rings (size 3 to 8) (size 9 to 14) (size 15 to 20)
#    0.000    1.091    3.636    3.818    5.091    2.909 
#    0.000    0.909    0.000    0.000    0.000    0.000 
#    0.000    0.000    0.000    0.000    0.000    0.000 
#
# Total GULP energy -272575.710042 kJ/mol
# GULP energy per Si atom -12389.805002 kJ/mol
# Density = 2.068845 g / cm^3
# Si number density = 20.735642 Si / 1000 Ang^3
#
#
#
# Elastic Constant Matrix: (Units=GPa)
#
#
# Indices 1 2 3 4 5 6 
#
# 1 99.5407 41.4727 36.6095 0.0000 12.8890 0.0000
# 2 41.4727 135.7686 45.8929 0.0000 10.3486 0.0000
# 3 36.6095 45.8929 101.8434 0.0000 37.2349 0.0000
# 4 0.0000 0.0000 0.0000 26.9608 0.0000 9.0674
# 5 12.8890 10.3486 37.2349 0.0000 26.6001 0.0000
# 6 0.0000 0.0000 0.0000 9.0674 0.0000 18.8960
#
#
#
# Elastic Compliance Matrix: (Units=1/GPa)
#
#
# Indices 1 2 3 4 5 6 
#
# 1 0.012361 -0.002732 -0.002891 0.000000 -0.000881 0.000000
# 2 -0.002732 0.009540 -0.005006 0.000000 0.004619 0.000000
# 3 -0.002891 -0.005006 0.024353 0.000000 -0.030742 0.000000
# 4 0.000000 0.000000 0.000000 0.044229 0.000000 -0.021223
# 5 -0.000881 0.004619 -0.030742 0.000000 0.079256 0.000000
# 6 0.000000 0.000000 0.000000 -0.021223 0.000000 0.063105
#
#
# Mechanical properties :
#
#
# Convention : Reuss Voigt Hill
#
# Bulk Modulus (GPa) = 40.00269 65.01145 52.50707
# Shear Modulus (GPa) = 19.05246 28.70323 23.87785
#
# Velocity S-wave (km/s) = 3.03450 3.72458 3.39711
# Velocity P-wave (km/s) = 5.62239 7.06521 6.38469
#
# Compressibility (1/GPa) = 0.02499832
#
# Stress axis : x y z
#
# Youngs Moduli (GPa) = 80.89665 104.82273 41.06240
#
# Poissons Ratio (x) = 0.28635 0.11869
# Poissons Ratio (y) = 0.22099 0.20555
# Poissons Ratio (z) = 0.23383 0.52472
#
# Static dielectric constant tensor:
#      x y z
#    x 3.610600 0.000000 0.211960 
#    y 0.000000 3.788480 0.000000 
#    z 0.211960 0.000000 3.853600 
# 
# 
# High freq. dielectric constant tensor:
#      x y z
#    x 1.777420 0.000000 0.023550 
#    y 0.000000 1.830220 0.000000 
#    z 0.023550 0.000000 1.813690 
# 
# From -- ./inp_files/65080.got.cif
#   From: 2010.06.25/outbox.cif.g09.slc.cpg/sg13_33_cif.got.tgz:65080.got - 2010.06.28 04:50:58.
