data_PCOD8118027
_publ_section_title
;
Structure prediction by ZEFSAII (Michael W. Deem and Ramdas Pophale) SiO2 
 PCOD8118027
Probable space group: P 2/C
;
_chemical_formula_sum "Si O2"
_cell_formula_units_Z 32
_cell_length_a 21.968051
_cell_length_b 11.853438
_cell_length_c 17.024715
_cell_angle_alpha 90.000000
_cell_angle_beta 159.370337
_cell_angle_gamma 90.000000
_cell_volume 1561.926774
_symmetry_space_group_name_H-M "P 2/C"
_symmetry_group_IT_number 13
_symmetry_cell_setting 'monoclinic'
loop_
_space_group_symop_operation_xyz
x,y,z
-x,y,1/2-z
-x,-y,-z
x,-y,1/2+z
loop_
_atom_site_type_symbol
_atom_site_label
_atom_site_fract_x
_atom_site_fract_y
_atom_site_fract_z
Si Si1 0.843342 0.553355 0.504151
Si Si2 0.741369 0.978604 0.409118
Si Si3 0.064523 0.824905 0.072826
Si Si4 0.340656 0.780035 0.734403
Si Si5 0.340355 0.612144 0.608004
Si Si6 0.342940 0.228591 0.786116
Si Si7 0.017764 0.655728 0.407221
Si Si8 0.086956 0.986957 0.727094
O O1 0.701473 0.490253 0.384472
O O2 0.759254 0.662946 0.366329
O O3 0.905920 0.470976 0.508482
O O4 0.000000 0.589922 0.750000
O O5 0.644074 0.864446 0.266729
O O6 0.636437 0.087161 0.252723
O O7 0.754143 0.977848 0.519859
O O8 0.922124 0.982996 0.583316
O O9 0.243945 0.818269 0.243107
O O10 0.098156 0.897670 0.191902
O O11 0.996557 0.701757 0.020256
O O12 0.918329 0.882092 0.840780
O O13 0.410327 0.718539 0.741103
O O14 0.142504 0.741598 0.510021
O O15 0.460759 0.743102 0.952766
O O16 0.500000 0.567895 0.750000
O O17 0.173458 0.654432 0.359282
#
# Coordination Sequence:
#
# PCOD8118027 Si02
#       8
#     4   4   4   4   4   4   4   4
#     4   9  22  41  62  88 121 166 208 248 310 374
#     4  10  20  36  61  86 120 169 200 244 317 369
#     4  10  19  35  58  90 122 150 210 255 303 358
#     4  11  21  36  61  90 123 157 204 253 307 367
#     4  10  21  39  66  91 118 155 209 259 304 359
#     4  11  24  37  60  89 128 164 204 253 305 368
#     4  10  20  38  63  89 121 160 202 255 304 360
#     4   9  19  33  59  90 117 158 205 253 308 372
#
# _framework density 20.487515999999999
#
# number of rings (size 3 to 8) (size 9 to 14) (size 15 to 20)
#    0.000    2.000    1.250    3.000    5.250    2.500 
#    0.000    2.500    0.000    0.000    0.000    0.000 
#    0.000    0.000    0.000    0.000    0.000    0.000 
#
# Total GULP energy -396674.333496 kJ/mol
# GULP energy per Si atom -12396.072922 kJ/mol
# Density = 2.044089 g / cm^3
# Si number density = 20.487516 Si / 1000 Ang^3
#
#
#
# Elastic Constant Matrix: (Units=GPa)
#
#
# Indices 1 2 3 4 5 6 
#
# 1 82.5677 29.9378 38.9062 0.0000 -12.2735 0.0000
# 2 29.9378 125.8960 60.7321 0.0000 -21.0010 0.0000
# 3 38.9062 60.7321 111.5240 0.0000 -9.0395 0.0000
# 4 0.0000 0.0000 0.0000 23.4585 0.0000 -4.5025
# 5 -12.2735 -21.0010 -9.0395 0.0000 28.4383 0.0000
# 6 0.0000 0.0000 0.0000 -4.5025 0.0000 20.4276
#
#
#
# Elastic Compliance Matrix: (Units=1/GPa)
#
#
# Indices 1 2 3 4 5 6 
#
# 1 0.015186 -0.000629 -0.004580 0.000000 0.004634 0.000000
# 2 -0.000629 0.012003 -0.005769 0.000000 0.006759 0.000000
# 3 -0.004580 -0.005769 0.013550 0.000000 -0.001930 0.000000
# 4 0.000000 0.000000 0.000000 0.044511 0.000000 0.009811
# 5 0.004634 0.006759 -0.001930 0.000000 0.041541 0.000000
# 6 0.000000 0.000000 0.000000 0.009811 0.000000 0.051116
#
#
# Mechanical properties :
#
#
# Convention : Reuss Voigt Hill
#
# Bulk Modulus (GPa) = 53.23952 64.34888 58.79420
# Shear Modulus (GPa) = 24.25719 27.15899 25.70809
#
# Velocity S-wave (km/s) = 3.44466 3.64488 3.54618
# Velocity P-wave (km/s) = 6.47021 7.01360 6.74738
#
# Compressibility (1/GPa) = 0.01878304
#
# Stress axis : x y z
#
# Youngs Moduli (GPa) = 65.84959 83.31122 73.80263
#
# Poissons Ratio (x) = 0.05240 0.33799
# Poissons Ratio (y) = 0.04142 0.42579
# Poissons Ratio (z) = 0.30157 0.48064
#
# Static dielectric constant tensor:
#      x y z
#    x 3.827940 0.000000 -0.197840 
#    y 0.000000 3.715650 0.000000 
#    z -0.197840 0.000000 3.624670 
# 
# 
# High freq. dielectric constant tensor:
#      x y z
#    x 1.794470 0.000000 -0.010260 
#    y 0.000000 1.799990 0.000000 
#    z -0.010260 0.000000 1.787960 
# 
# From -- ./inp_files/71499.got.cif
#   From: 2010.06.25/outbox.cif.g09.slc.cpg/sg13_36_cif.got.tgz:71499.got - 2010.06.28 04:50:58.
