data_PCOD8118201
_publ_section_title
;
Structure prediction by ZEFSAII (Michael W. Deem and Ramdas Pophale) SiO2 
 PCOD8118201
Probable space group: P 2/C
;
_chemical_formula_sum "Si O2"
_cell_formula_units_Z 16
_cell_length_a 9.688189
_cell_length_b 5.592973
_cell_length_c 17.908800
_cell_angle_alpha 90.000000
_cell_angle_beta 42.926715
_cell_angle_gamma 90.000000
_cell_volume 660.904466
_symmetry_space_group_name_H-M "P 2/C"
_symmetry_group_IT_number 13
_symmetry_cell_setting 'monoclinic'
loop_
_space_group_symop_operation_xyz
x,y,z
-x,y,1/2-z
-x,-y,-z
x,-y,1/2+z
loop_
_atom_site_type_symbol
_atom_site_label
_atom_site_fract_x
_atom_site_fract_y
_atom_site_fract_z
Si Si1 0.917443 0.304830 0.978002
Si Si2 0.281155 0.001239 0.318815
Si Si3 0.762905 0.137421 0.324095
Si Si4 0.221372 0.370460 0.625507
O O1 0.783371 0.393200 0.962425
O O2 0.783754 0.123959 0.078564
O O3 0.118283 0.196267 0.860841
O O4 0.000000 0.500000 0.000000
O O5 0.500000 0.887261 0.250000
O O6 0.283638 0.171796 0.245527
O O7 0.661164 0.381378 0.398329
O O8 0.000000 0.138341 0.250000
O O9 0.672498 0.882774 0.391433
O O10 0.000000 0.380249 0.750000
#
# Coordination Sequence:
#
# PCOD8118201 Si02
#       4
#     4   4   4   4
#     4  11  23  42  70  97 134 183 228 279 346 411
#     4  11  25  43  67 103 139 177 228 288 345 408
#     4  10  19  39  65  93 132 180 220 272 339 403
#     4  10  19  36  67  92 127 181 224 270 332 406
#
# _framework density 24.209246
#
# number of rings (size 3 to 8) (size 9 to 14) (size 15 to 20)
#    0.000    1.500    5.000    3.000    3.500    1.000 
#    0.000    2.500    0.000    0.000    0.000    0.000 
#    0.000    0.000    0.000    0.000    0.000    0.000 
#
# Total GULP energy -198246.810048 kJ/mol
# GULP energy per Si atom -12390.425628 kJ/mol
# Density = 2.415414 g / cm^3
# Si number density = 24.209246 Si / 1000 Ang^3
#
#
#
# Elastic Constant Matrix: (Units=GPa)
#
#
# Indices 1 2 3 4 5 6 
#
# 1 113.7140 28.2339 53.3336 0.0000 30.9050 0.0000
# 2 28.2339 191.9801 42.9153 0.0000 13.4108 0.0000
# 3 53.3336 42.9153 50.6233 0.0000 28.2295 0.0000
# 4 0.0000 0.0000 0.0000 24.4877 0.0000 17.0413
# 5 30.9050 13.4108 28.2295 0.0000 43.3507 0.0000
# 6 0.0000 0.0000 0.0000 17.0413 0.0000 42.4050
#
#
#
# Elastic Compliance Matrix: (Units=1/GPa)
#
#
# Indices 1 2 3 4 5 6 
#
# 1 0.017962 0.001959 -0.020579 0.000000 -0.000011 0.000000
# 2 0.001959 0.006810 -0.009239 0.000000 0.002513 0.000000
# 3 -0.020579 -0.009239 0.062009 0.000000 -0.022850 0.000000
# 4 0.000000 0.000000 0.000000 0.056692 0.000000 -0.022783
# 5 -0.000011 0.002513 -0.022850 0.000000 0.037178 0.000000
# 6 0.000000 0.000000 0.000000 -0.022783 0.000000 0.032738
#
#
# Mechanical properties :
#
#
# Convention : Reuss Voigt Hill
#
# Bulk Modulus (GPa) = 32.19085 67.25369 49.72227
# Shear Modulus (GPa) = 17.89162 37.50432 27.69797
#
# Velocity S-wave (km/s) = 2.72148 3.94022 3.38613
# Velocity P-wave (km/s) = 4.81675 6.96713 5.98924
#
# Compressibility (1/GPa) = 0.03106473
#
# Stress axis : x y z
#
# Youngs Moduli (GPa) = 55.67220 146.83326 16.12675
#
# Poissons Ratio (x) = -0.28769 0.33187
# Poissons Ratio (y) = -0.10908 0.14899
# Poissons Ratio (z) = 1.14568 1.35656
#
# Static dielectric constant tensor:
#      x y z
#    x 3.312580 0.000000 -1.849670 
#    y 0.000000 5.217030 0.000000 
#    z -1.849670 0.000000 -0.771730 
# 
# 
# High freq. dielectric constant tensor:
#      x y z
#    x 1.958790 0.000000 0.024060 
#    y 0.000000 1.961760 0.000000 
#    z 0.024060 0.000000 1.956280 
# 
# From -- ./inp_files/45123.got.cif
#   From: 2010.06.25/outbox.cif.g09.slc.cpg/sg13_23_cif.got.tgz:45123.got - 2010.06.28 04:50:58.
