data_PCOD8118934
_publ_section_title
;
Structure prediction by ZEFSAII (Michael W. Deem and Ramdas Pophale) SiO2 
 PCOD8118934
Probable space group: P 2/C
;
_chemical_formula_sum "Si O2"
_cell_formula_units_Z 26
_cell_length_a 14.632606
_cell_length_b 9.814625
_cell_length_c 13.410814
_cell_angle_alpha 90.000000
_cell_angle_beta 44.233460
_cell_angle_gamma 90.000000
_cell_volume 1343.528310
_symmetry_space_group_name_H-M "P 2/C"
_symmetry_group_IT_number 13
_symmetry_cell_setting 'monoclinic'
loop_
_space_group_symop_operation_xyz
x,y,z
-x,y,1/2-z
-x,-y,-z
x,-y,1/2+z
loop_
_atom_site_type_symbol
_atom_site_label
_atom_site_fract_x
_atom_site_fract_y
_atom_site_fract_z
Si Si1 0.360688 0.923770 0.703104
Si Si2 0.076396 0.333627 0.557518
Si Si3 0.811588 0.310780 0.245319
Si Si4 0.204983 0.413039 0.655345
Si Si5 0.000000 0.824579 0.750000
Si Si6 0.173589 0.052685 0.532727
Si Si7 0.639959 0.848668 0.450855
O O1 0.286815 0.815401 0.690018
O O2 0.502342 0.858723 0.617770
O O3 0.376947 0.070844 0.639222
O O4 0.284635 0.955923 0.862864
O O5 0.132130 0.360485 0.404521
O O6 0.174015 0.405829 0.561018
O O7 0.071679 0.172150 0.585020
O O8 0.929043 0.386829 0.679104
O O9 0.740612 0.439101 0.354078
O O10 0.927590 0.270908 0.228648
O O11 0.319520 0.308259 0.597486
O O12 0.094468 0.913714 0.605756
O O13 0.242095 0.080320 0.583604
#
# Coordination Sequence:
#
# PCOD8118934 Si02
#       7
#     4   4   4   4   2   4   4
#     4  10  22  37  59  84 112 151 197 241 285 339
#     4   9  20  36  57  82 117 153 190 228 298 359
#     4  11  23  36  56  88 117 149 192 241 293 346
#     4  10  20  37  58  81 117 154 188 238 287 353
#     4  12  22  34  58  90 124 146 190 256 294 344
#     4  10  20  36  59  87 114 148 193 238 296 339
#     4  10  20  39  58  82 112 154 196 236 283 348
#
# _framework density 19.352031
#
# number of rings (size 3 to 8) (size 9 to 14) (size 15 to 20)
#    0.000    1.846    1.538    3.692    2.154    1.846 
#    0.000    0.000    0.000    0.000    0.000    0.000 
#    0.000    0.000    0.000    0.000    0.000    0.000 
#
# Total GULP energy -322399.340558 kJ/mol
# GULP energy per Si atom -12399.974637 kJ/mol
# Density = 1.930798 g / cm^3
# Si number density = 19.352031 Si / 1000 Ang^3
#
#
#
# Elastic Constant Matrix: (Units=GPa)
#
#
# Indices 1 2 3 4 5 6 
#
# 1 57.9869 36.9795 14.3571 0.0000 4.1301 0.0000
# 2 36.9795 108.8160 41.9822 0.0000 7.4976 0.0000
# 3 14.3571 41.9822 76.8783 0.0000 3.1072 0.0000
# 4 0.0000 0.0000 0.0000 18.7177 0.0000 5.4171
# 5 4.1301 7.4976 3.1072 0.0000 32.0275 0.0000
# 6 0.0000 0.0000 0.0000 5.4171 0.0000 24.8461
#
#
#
# Elastic Compliance Matrix: (Units=1/GPa)
#
#
# Indices 1 2 3 4 5 6 
#
# 1 0.022055 -0.007408 -0.000029 0.000000 -0.001107 0.000000
# 2 -0.007408 0.014276 -0.006341 0.000000 -0.001771 0.000000
# 3 -0.000029 -0.006341 0.016480 0.000000 -0.000111 0.000000
# 4 0.000000 0.000000 0.000000 0.057024 0.000000 -0.012433
# 5 -0.001107 -0.001771 -0.000111 0.000000 0.031791 0.000000
# 6 0.000000 0.000000 0.000000 -0.012433 0.000000 0.042958
#
#
# Mechanical properties :
#
#
# Convention : Reuss Voigt Hill
#
# Bulk Modulus (GPa) = 39.59399 47.81320 43.70360
# Shear Modulus (GPa) = 22.66980 25.14241 23.90611
#
# Velocity S-wave (km/s) = 3.42635 3.60837 3.51854
# Velocity P-wave (km/s) = 6.01310 6.49008 6.25614
#
# Compressibility (1/GPa) = 0.02525636
#
# Stress axis : x y z
#
# Youngs Moduli (GPa) = 45.34046 70.04959 60.67967
#
# Poissons Ratio (x) = 0.51891 0.00175
# Poissons Ratio (y) = 0.33587 0.38475
# Poissons Ratio (z) = 0.00131 0.44416
#
# Static dielectric constant tensor:
#      x y z
#    x 3.509290 0.000000 0.036890 
#    y 0.000000 3.592830 0.000000 
#    z 0.036890 0.000000 3.450230 
# 
# 
# High freq. dielectric constant tensor:
#      x y z
#    x 1.750600 0.000000 0.005290 
#    y 0.000000 1.753100 0.000000 
#    z 0.005290 0.000000 1.745770 
# 
# From -- ./inp_files/49635.got.cif
#   From: 2010.06.25/outbox.cif.g09.slc.cpg/sg13_25_cif.got.tgz:49635.got - 2010.06.28 04:50:58.
