data_PCOD8118440
_publ_section_title
;
Structure prediction by ZEFSAII (Michael W. Deem and Ramdas Pophale) SiO2 
 PCOD8118440
Probable space group: P 2/C
;
_chemical_formula_sum "Si O2"
_cell_formula_units_Z 28
_cell_length_a 8.987937
_cell_length_b 13.951963
_cell_length_c 19.792450
_cell_angle_alpha 90.000000
_cell_angle_beta 146.248739
_cell_angle_gamma 90.000000
_cell_volume 1378.948876
_symmetry_space_group_name_H-M "P 2/C"
_symmetry_group_IT_number 13
_symmetry_cell_setting 'monoclinic'
loop_
_space_group_symop_operation_xyz
x,y,z
-x,y,1/2-z
-x,-y,-z
x,-y,1/2+z
loop_
_atom_site_type_symbol
_atom_site_label
_atom_site_fract_x
_atom_site_fract_y
_atom_site_fract_z
Si Si1 0.027356 0.835484 0.341386
Si Si2 0.418464 0.702691 0.293564
Si Si3 0.813289 0.756736 0.555075
Si Si4 0.441514 0.676785 0.524890
Si Si5 0.191320 0.964344 0.887864
Si Si6 0.972430 0.460420 0.814069
Si Si7 0.301932 0.362072 0.236875
O O1 0.768487 0.796060 0.282085
O O2 0.000000 0.823635 0.250000
O O3 0.287354 0.777775 0.464179
O O4 0.048699 0.946336 0.371338
O O5 0.500000 0.667596 0.250000
O O6 0.676975 0.731750 0.433003
O O7 0.258991 0.619699 0.272255
O O8 0.692325 0.689994 0.569175
O O9 0.796880 0.869447 0.563098
O O10 0.123290 0.732408 0.661176
O O11 0.528989 0.651393 0.632437
O O12 0.257016 0.586735 0.437170
O O13 0.000000 0.943524 0.750000
O O14 0.500000 0.000000 0.000000
O O15 0.894002 0.545330 0.835363
O O16 0.000000 0.505066 0.750000
O O17 0.500000 0.375537 0.250000
#
# Coordination Sequence:
#
# PCOD8118440 Si02
#       7
#     4   4   4   4   4   4   4
#     4  10  19  40  68  99 127 164 220 273 318 385
#     4  11  23  41  67  97 131 173 213 266 332 392
#     4  12  23  43  67  98 129 168 222 272 328 387
#     4  11  21  42  69  92 128 165 217 276 317 382
#     4  11  21  38  71 103 132 169 224 286 331 384
#     4  11  23  44  72  93 121 167 224 273 319 387
#     4  12  30  42  59  96 138 175 210 264 334 392
#
# _framework density 20.305320999999999
#
# number of rings (size 3 to 8) (size 9 to 14) (size 15 to 20)
#    0.000    0.857    4.286    4.286    6.000    1.714 
#    0.000    1.429    0.000    0.000    0.000    0.000 
#    0.000    0.000    0.000    0.000    0.000    0.000 
#
# Total GULP energy -347107.003271 kJ/mol
# GULP energy per Si atom -12396.678688 kJ/mol
# Density = 2.025911 g / cm^3
# Si number density = 20.305321 Si / 1000 Ang^3
#
#
#
# Elastic Constant Matrix: (Units=GPa)
#
#
# Indices 1 2 3 4 5 6 
#
# 1 122.6472 37.9779 31.1376 0.0000 3.8882 0.0000
# 2 37.9779 115.1293 21.3370 0.0000 7.3310 0.0000
# 3 31.1376 21.3370 90.8416 0.0000 -2.3239 0.0000
# 4 0.0000 0.0000 0.0000 -28.4046 0.0000 -7.5983
# 5 3.8882 7.3310 -2.3239 0.0000 31.8525 0.0000
# 6 0.0000 0.0000 0.0000 -7.5983 0.0000 11.4763
#
#
#
# Elastic Compliance Matrix: (Units=1/GPa)
#
#
# Indices 1 2 3 4 5 6 
#
# 1 0.009687 -0.002642 -0.002719 0.000000 -0.000773 0.000000
# 2 -0.002642 0.009966 -0.001488 0.000000 -0.002080 0.000000
# 3 -0.002719 -0.001488 0.012330 0.000000 0.001574 0.000000
# 4 0.000000 0.000000 0.000000 -0.029909 0.000000 -0.019802
# 5 -0.000773 -0.002080 0.001574 0.000000 0.032083 0.000000
# 6 0.000000 0.000000 0.000000 -0.019802 0.000000 0.074026
#
#
# Mechanical properties :
#
#
# Convention : Reuss Voigt Hill
#
# Bulk Modulus (GPa) = 54.69664 56.61367 55.65516
# Shear Modulus (GPa) = 39.06981 18.86254 28.96618
#
# Velocity S-wave (km/s) = 4.39123 3.05117 3.78104
# Velocity P-wave (km/s) = 7.25990 6.35252 6.82132
#
# Compressibility (1/GPa) = 0.01828266
#
# Stress axis : x y z
#
# Youngs Moduli (GPa) = 103.23639 100.34414 81.10204
#
# Poissons Ratio (x) = 0.26512 0.22055
# Poissons Ratio (y) = 0.27276 0.12071
# Poissons Ratio (z) = 0.28074 0.14934
#
# Static dielectric constant tensor:
#      x y z
#    x 3.458010 0.000000 0.130970 
#    y 0.000000 3.926600 0.000000 
#    z 0.130970 0.000000 3.927170 
# 
# 
# High freq. dielectric constant tensor:
#      x y z
#    x 1.765440 0.000000 0.010070 
#    y 0.000000 1.804920 0.000000 
#    z 0.010070 0.000000 1.812070 
# 
# From -- ./inp_files/76749.got.cif
#   From: 2010.06.25/outbox.cif.g09.slc.cpg/sg13_39_cif.got.tgz:76749.got - 2010.06.28 04:50:58.
