data_PCOD8118013
_publ_section_title
;
Structure prediction by ZEFSAII (Michael W. Deem and Ramdas Pophale) SiO2 
 PCOD8118013
Probable space group: P 2/C
;
_chemical_formula_sum "Si O2"
_cell_formula_units_Z 28
_cell_length_a 15.093726
_cell_length_b 12.404551
_cell_length_c 9.949325
_cell_angle_alpha 90.000000
_cell_angle_beta 122.087968
_cell_angle_gamma 90.000000
_cell_volume 1578.244359
_symmetry_space_group_name_H-M "P 2/C"
_symmetry_group_IT_number 13
_symmetry_cell_setting 'monoclinic'
loop_
_space_group_symop_operation_xyz
x,y,z
-x,y,1/2-z
-x,-y,-z
x,-y,1/2+z
loop_
_atom_site_type_symbol
_atom_site_label
_atom_site_fract_x
_atom_site_fract_y
_atom_site_fract_z
Si Si1 0.207964 0.100396 0.732598
Si Si2 0.619877 0.715284 0.832619
Si Si3 0.038549 0.590654 0.131868
Si Si4 0.766658 0.089543 0.431481
Si Si5 0.271910 0.337679 0.804407
Si Si6 0.987714 0.175658 0.582040
Si Si7 0.573675 0.502130 0.184946
O O1 0.254929 0.217105 0.736064
O O2 0.083235 0.103947 0.601628
O O3 0.264331 0.017736 0.676003
O O4 0.229158 0.067713 0.905250
O O5 0.500000 0.752965 0.750000
O O6 0.684204 0.817254 0.830122
O O7 0.628873 0.615114 0.737676
O O8 0.664839 0.669711 0.007078
O O9 0.163682 0.600183 0.240762
O O10 0.000000 0.562549 0.250000
O O11 0.991343 0.701514 0.032902
O O12 0.000000 0.500000 0.000000
O O13 0.877533 0.123541 0.456565
O O14 0.338819 0.405154 0.751278
O O15 0.000000 0.185356 0.750000
O O16 0.500000 0.527256 0.250000
O O17 0.500000 0.500000 0.000000
#
# Coordination Sequence:
#
# PCOD8118013 Si02
#       7
#     4   4   4   4   4   4   4
#     4   9  19  36  54  81 106 141 181 225 274 332
#     4  10  20  37  58  80 109 144 189 223 281 333
#     4  10  21  34  53  82 115 149 184 219 280 339
#     4  10  19  35  58  76 107 143 184 222 277 323
#     4  10  21  38  59  78 119 149 182 231 285 333
#     4   8  16  33  54  74 103 146 180 213 267 341
#     4  11  21  38  60  84 107 148 194 231 277 334
#
# _framework density 17.741230999999999
#
# number of rings (size 3 to 8) (size 9 to 14) (size 15 to 20)
#    0.000    2.286    2.857    3.000    4.000    0.000 
#    2.571    6.429    0.000    0.000    0.000    0.000 
#    0.000    0.000    0.000    0.000    0.000    0.000 
#
# Total GULP energy -347097.018032 kJ/mol
# GULP energy per Si atom -12396.322073 kJ/mol
# Density = 1.770085 g / cm^3
# Si number density = 17.741231 Si / 1000 Ang^3
#
#
#
# Elastic Constant Matrix: (Units=GPa)
#
#
# Indices 1 2 3 4 5 6 
#
# 1 111.0376 76.5929 49.1486 0.0000 3.8477 0.0000
# 2 76.5929 143.6159 58.3317 0.0000 -2.3842 0.0000
# 3 49.1486 58.3317 81.7836 0.0000 7.9689 0.0000
# 4 0.0000 0.0000 0.0000 30.1117 0.0000 -5.6950
# 5 3.8477 -2.3842 7.9689 0.0000 29.1370 0.0000
# 6 0.0000 0.0000 0.0000 -5.6950 0.0000 37.8157
#
#
#
# Elastic Compliance Matrix: (Units=1/GPa)
#
#
# Indices 1 2 3 4 5 6 
#
# 1 0.015531 -0.006428 -0.004621 0.000000 -0.001313 0.000000
# 2 -0.006428 0.012689 -0.005518 0.000000 0.003396 0.000000
# 3 -0.004621 -0.005518 0.019443 0.000000 -0.005159 0.000000
# 4 0.000000 0.000000 0.000000 0.034183 0.000000 0.005148
# 5 -0.001313 0.003396 -0.005159 0.000000 0.036183 0.000000
# 6 0.000000 0.000000 0.000000 0.005148 0.000000 0.027219
#
#
# Mechanical properties :
#
#
# Convention : Reuss Voigt Hill
#
# Bulk Modulus (GPa) = 68.82977 78.28703 73.55840
# Shear Modulus (GPa) = 27.28899 29.57049 28.42974
#
# Velocity S-wave (km/s) = 3.92620 4.08703 4.00743
# Velocity P-wave (km/s) = 7.70935 8.15443 7.93501
#
# Compressibility (1/GPa) = 0.01452860
#
# Stress axis : x y z
#
# Youngs Moduli (GPa) = 64.38927 78.80987 51.43278
#
# Poissons Ratio (x) = 0.50657 0.23766
# Poissons Ratio (y) = 0.41388 0.28382
# Poissons Ratio (z) = 0.29752 0.43490
#
# Static dielectric constant tensor:
#      x y z
#    x 3.367510 0.000000 0.216330 
#    y 0.000000 3.509160 0.000000 
#    z 0.216330 0.000000 3.117810 
# 
# 
# High freq. dielectric constant tensor:
#      x y z
#    x 1.683520 0.000000 0.014820 
#    y 0.000000 1.692910 0.000000 
#    z 0.014820 0.000000 1.671190 
# 
# From -- ./inp_files/19136.got.cif
#   From: 2010.06.25/outbox.cif.g09.slc.cpg/sg13_10_cif.got.tgz:19136.got - 2010.06.28 04:50:58.
