data_PCOD8118047
_publ_section_title
;
Structure prediction by ZEFSAII (Michael W. Deem and Ramdas Pophale) SiO2 
 PCOD8118047
Probable space group: P 2/C
;
_chemical_formula_sum "Si O2"
_cell_formula_units_Z 24
_cell_length_a 16.978381
_cell_length_b 7.651218
_cell_length_c 17.555724
_cell_angle_alpha 90.000000
_cell_angle_beta 147.998987
_cell_angle_gamma 90.000000
_cell_volume 1208.558261
_symmetry_space_group_name_H-M "P 2/C"
_symmetry_group_IT_number 13
_symmetry_cell_setting 'monoclinic'
loop_
_space_group_symop_operation_xyz
x,y,z
-x,y,1/2-z
-x,-y,-z
x,-y,1/2+z
loop_
_atom_site_type_symbol
_atom_site_label
_atom_site_fract_x
_atom_site_fract_y
_atom_site_fract_z
Si Si1 0.631739 0.151813 0.946746
Si Si2 0.259268 0.074731 0.771005
Si Si3 0.439913 0.512739 0.280806
Si Si4 0.205920 0.239111 0.567273
Si Si5 0.926222 0.101779 0.264718
Si Si6 0.503251 0.823907 0.926748
O O1 0.516580 0.306205 0.870162
O O2 0.675314 0.144722 0.892700
O O3 0.564932 0.964296 0.915768
O O4 0.777433 0.200348 0.115802
O O5 0.200043 0.138218 0.641912
O O6 0.115220 0.044587 0.706616
O O7 0.350189 0.893157 0.837469
O O8 0.373162 0.208358 0.906038
O O9 0.500000 0.442837 0.250000
O O10 0.264030 0.561914 0.128348
O O11 0.467400 0.363388 0.363585
O O12 0.041620 0.240682 0.396085
O O13 0.000000 0.011608 0.250000
#
# Coordination Sequence:
#
# PCOD8118047 Si02
#       6
#     4   4   4   4   4   4
#     4   9  19  38  60  83 115 155 185 234 284 338
#     4  10  20  35  57  88 113 150 190 235 289 331
#     4  10  21  34  60  88 110 151 191 229 286 336
#     4  10  19  35  60  85 116 149 191 237 283 334
#     4   9  19  37  60  78 113 157 193 231 287 342
#     4  10  21  36  56  88 118 145 190 234 286 339
#
# _framework density 19.858371999999999
#
# number of rings (size 3 to 8) (size 9 to 14) (size 15 to 20)
#    0.000    2.333    1.667    0.500    2.333    0.667 
#    0.000    0.833    7.333    8.000    0.000    0.000 
#    0.000    0.000    0.000    0.000    0.000    0.000 
#
# Total GULP energy -297427.051782 kJ/mol
# GULP energy per Si atom -12392.793824 kJ/mol
# Density = 1.981317 g / cm^3
# Si number density = 19.858372 Si / 1000 Ang^3
#
#
#
# Elastic Constant Matrix: (Units=GPa)
#
#
# Indices 1 2 3 4 5 6 
#
# 1 116.0291 39.8532 52.2680 0.0000 -10.0352 0.0000
# 2 39.8532 79.3533 51.0773 0.0000 -6.1808 0.0000
# 3 52.2680 51.0773 107.8086 0.0000 -6.1418 0.0000
# 4 0.0000 0.0000 0.0000 27.8273 0.0000 -14.5259
# 5 -10.0352 -6.1808 -6.1418 0.0000 31.4074 0.0000
# 6 0.0000 0.0000 0.0000 -14.5259 0.0000 21.6849
#
#
#
# Elastic Compliance Matrix: (Units=1/GPa)
#
#
# Indices 1 2 3 4 5 6 
#
# 1 0.011719 -0.003068 -0.004095 0.000000 0.002340 0.000000
# 2 -0.003068 0.019048 -0.007463 0.000000 0.001309 0.000000
# 3 -0.004095 -0.007463 0.014803 0.000000 0.000118 0.000000
# 4 0.000000 0.000000 0.000000 0.055258 0.000000 0.037015
# 5 0.002340 0.001309 0.000118 0.000000 0.032868 0.000000
# 6 0.000000 0.000000 0.000000 0.037015 0.000000 0.070910
#
#
# Mechanical properties :
#
#
# Convention : Reuss Voigt Hill
#
# Bulk Modulus (GPa) = 61.27465 65.50978 63.39222
# Shear Modulus (GPa) = 20.89447 26.85008 23.87228
#
# Velocity S-wave (km/s) = 3.24724 3.68105 3.47093
# Velocity P-wave (km/s) = 6.70688 7.15031 6.93214
#
# Compressibility (1/GPa) = 0.01631996
#
# Stress axis : x y z
#
# Youngs Moduli (GPa) = 85.32952 52.49903 67.55169
#
# Poissons Ratio (x) = 0.16104 0.27663
# Poissons Ratio (y) = 0.26175 0.50412
# Poissons Ratio (z) = 0.34943 0.39179
#
# Static dielectric constant tensor:
#      x y z
#    x 3.962330 0.000000 -0.051120 
#    y 0.000000 3.060990 0.000000 
#    z -0.051120 0.000000 3.934700 
# 
# 
# High freq. dielectric constant tensor:
#      x y z
#    x 1.793560 0.000000 -0.012730 
#    y 0.000000 1.715120 0.000000 
#    z -0.012730 0.000000 1.791340 
# 
# From -- ./inp_files/69522.got.cif
#   From: 2010.06.25/outbox.cif.g09.slc.cpg/sg13_35_cif.got.tgz:69522.got - 2010.06.28 04:50:58.
