data_PCOD8118058
_publ_section_title
;
Structure prediction by ZEFSAII (Michael W. Deem and Ramdas Pophale) SiO2 
 PCOD8118058
Probable space group: P 2/C
;
_chemical_formula_sum "Si O2"
_cell_formula_units_Z 20
_cell_length_a 24.314194
_cell_length_b 9.023851
_cell_length_c 14.987289
_cell_angle_alpha 90.000000
_cell_angle_beta 159.635646
_cell_angle_gamma 90.000000
_cell_volume 1144.300837
_symmetry_space_group_name_H-M "P 2/C"
_symmetry_group_IT_number 13
_symmetry_cell_setting 'monoclinic'
loop_
_space_group_symop_operation_xyz
x,y,z
-x,y,1/2-z
-x,-y,-z
x,-y,1/2+z
loop_
_atom_site_type_symbol
_atom_site_label
_atom_site_fract_x
_atom_site_fract_y
_atom_site_fract_z
Si Si1 0.154253 0.584630 0.624899
Si Si2 0.679479 0.356174 0.496119
Si Si3 0.986811 0.174205 0.980608
Si Si4 0.327216 0.460847 0.210429
Si Si5 0.080243 0.329535 0.285993
O O1 0.243316 0.618453 0.667357
O O2 0.079561 0.740817 0.542538
O O3 0.008309 0.475872 0.385629
O O4 0.268488 0.509059 0.873989
O O5 0.500000 0.313551 0.250000
O O6 0.803851 0.226826 0.711726
O O7 0.683204 0.363392 0.394536
O O8 0.086461 0.207030 0.220718
O O9 0.000000 0.000000 0.000000
O O10 0.500000 0.500000 0.500000
O O11 0.253754 0.621570 0.078996
O O12 0.000000 0.257372 0.250000
#
# Coordination Sequence:
#
# PCOD8118058 Si02
#       5
#     4   4   4   4   4
#     4  10  19  35  61  82 109 151 196 239 286 337
#     4  11  20  37  59  85 118 145 191 254 290 330
#     4  11  22  39  58  82 119 161 192 226 290 364
#     4  11  19  31  60  92 109 140 192 253 294 321
#     4   9  18  35  56  83 110 140 194 243 274 333
#
# _framework density 17.477922
#
# number of rings (size 3 to 8) (size 9 to 14) (size 15 to 20)
#    0.000    1.600    6.000    1.200    0.000    0.000 
#    3.600    3.000    0.000    2.400    0.000    0.000 
#    0.000    0.000    0.000    0.000    0.000    0.000 
#
# Total GULP energy -247825.728105 kJ/mol
# GULP energy per Si atom -12391.286405 kJ/mol
# Density = 1.743814 g / cm^3
# Si number density = 17.477922 Si / 1000 Ang^3
#
#
#
# Elastic Constant Matrix: (Units=GPa)
#
#
# Indices 1 2 3 4 5 6 
#
# 1 144.4384 55.8884 43.7757 0.0000 -4.4450 0.0000
# 2 55.8884 102.7524 32.3221 0.0000 9.0769 0.0000
# 3 43.7757 32.3221 116.3362 0.0000 10.5455 0.0000
# 4 0.0000 0.0000 0.0000 14.1872 0.0000 2.2717
# 5 -4.4450 9.0769 10.5455 0.0000 31.7473 0.0000
# 6 0.0000 0.0000 0.0000 2.2717 0.0000 12.4361
#
#
#
# Elastic Compliance Matrix: (Units=1/GPa)
#
#
# Indices 1 2 3 4 5 6 
#
# 1 0.009672 -0.004745 -0.002646 0.000000 0.003590 0.000000
# 2 -0.004745 0.013134 -0.001508 0.000000 -0.003919 0.000000
# 3 -0.002646 -0.001508 0.010316 0.000000 -0.003366 0.000000
# 4 0.000000 0.000000 0.000000 0.072610 0.000000 -0.013263
# 5 0.003590 -0.003919 -0.003366 0.000000 0.034240 0.000000
# 6 0.000000 0.000000 0.000000 -0.013263 0.000000 0.082834
#
#
# Mechanical properties :
#
#
# Convention : Reuss Voigt Hill
#
# Bulk Modulus (GPa) = 65.26774 69.72215 67.49494
# Shear Modulus (GPa) = 20.34900 27.11017 23.72959
#
# Velocity S-wave (km/s) = 3.41584 3.94269 3.68868
# Velocity P-wave (km/s) = 7.27883 7.79131 7.53942
#
# Compressibility (1/GPa) = 0.01532151
#
# Stress axis : x y z
#
# Youngs Moduli (GPa) = 103.39001 76.13937 96.93930
#
# Poissons Ratio (x) = 0.36132 0.25655
# Poissons Ratio (y) = 0.49063 0.14620
# Poissons Ratio (z) = 0.27362 0.11483
#
# Static dielectric constant tensor:
#      x y z
#    x 3.172270 0.000000 -0.018850 
#    y 0.000000 2.808730 0.000000 
#    z -0.018850 0.000000 3.510160 
# 
# 
# High freq. dielectric constant tensor:
#      x y z
#    x 1.700380 0.000000 -0.008750 
#    y 0.000000 1.615420 0.000000 
#    z -0.008750 0.000000 1.689160 
# 
# From -- ./inp_files/49135.got.cif
#   From: 2010.06.25/outbox.cif.g09.slc.cpg/sg13_25_cif.got.tgz:49135.got - 2010.06.28 04:50:58.
