data_PCOD8118686
_publ_section_title
;
Structure prediction by ZEFSAII (Michael W. Deem and Ramdas Pophale) SiO2 
 PCOD8118686
Probable space group: P 2/C
;
_chemical_formula_sum "Si O2"
_cell_formula_units_Z 32
_cell_length_a 20.150793
_cell_length_b 10.966328
_cell_length_c 8.796130
_cell_angle_alpha 90.000000
_cell_angle_beta 124.567480
_cell_angle_gamma 90.000000
_cell_volume 1600.614500
_symmetry_space_group_name_H-M "P 2/C"
_symmetry_group_IT_number 13
_symmetry_cell_setting 'monoclinic'
loop_
_space_group_symop_operation_xyz
x,y,z
-x,y,1/2-z
-x,-y,-z
x,-y,1/2+z
loop_
_atom_site_type_symbol
_atom_site_label
_atom_site_fract_x
_atom_site_fract_y
_atom_site_fract_z
Si Si1 0.334869 0.030351 0.993891
Si Si2 0.580152 0.582119 0.270543
Si Si3 0.626141 0.169086 0.729510
Si Si4 0.683672 0.445636 0.188527
Si Si5 0.220742 0.689429 0.182690
Si Si6 0.756312 0.223294 0.457766
Si Si7 0.837365 0.055178 0.344390
Si Si8 0.906861 0.158162 0.124219
O O1 0.316398 0.129498 0.100473
O O2 0.376043 0.912547 0.121689
O O3 0.396475 0.087664 0.948410
O O4 0.251041 0.995249 0.806002
O O5 0.500000 0.537780 0.250000
O O6 0.566458 0.716948 0.180277
O O7 0.601224 0.485610 0.166548
O O8 0.658175 0.581286 0.482537
O O9 0.714656 0.221334 0.810683
O O10 0.751872 0.549448 0.291843
O O11 0.718813 0.323056 0.299844
O O12 0.207883 0.719458 0.342930
O O13 0.138592 0.716636 0.984131
O O14 0.829448 0.156938 0.465736
O O15 0.878378 0.113241 0.251364
O O16 0.891615 0.945380 0.477832
O O17 0.000000 0.191558 0.250000
#
# Coordination Sequence:
#
# PCOD8118686 Si02
#       8
#     4   4   4   4   4   4   4   4
#     4  11  17  34  59  87 117 148 204 250 285 345
#     4  11  24  42  61  91 125 155 195 249 310 363
#     4  10  20  34  61  85 116 155 197 248 290 352
#     4  11  23  39  66  90 114 161 205 252 295 350
#     4  10  20  39  56  87 116 154 214 248 291 352
#     4  11  20  34  63  90 114 151 208 257 284 344
#     4  12  19  34  57  88 120 159 198 249 297 356
#     4  12  23  36  57  89 131 163 196 250 309 356
#
# _framework density 19.992322000000001
#
# number of rings (size 3 to 8) (size 9 to 14) (size 15 to 20)
#    0.000    1.000    7.500    1.500    1.750    0.000 
#    0.000    0.625    0.000    3.750    0.000    0.000 
#    0.000    0.000    0.000    0.000    0.000    0.000 
#
# Total GULP energy -396813.852442 kJ/mol
# GULP energy per Si atom -12400.432889 kJ/mol
# Density = 1.994682 g / cm^3
# Si number density = 19.992322 Si / 1000 Ang^3
#
#
#
# Elastic Constant Matrix: (Units=GPa)
#
#
# Indices 1 2 3 4 5 6 
#
# 1 55.6666 12.9845 13.3119 0.0000 -10.7269 0.0000
# 2 12.9845 75.0439 13.5614 0.0000 0.9435 0.0000
# 3 13.3119 13.5614 49.7636 0.0000 -12.5445 0.0000
# 4 0.0000 0.0000 0.0000 31.5381 0.0000 -9.5570
# 5 -10.7269 0.9435 -12.5445 0.0000 26.1731 0.0000
# 6 0.0000 0.0000 0.0000 -9.5570 0.0000 23.3036
#
#
#
# Elastic Compliance Matrix: (Units=1/GPa)
#
#
# Indices 1 2 3 4 5 6 
#
# 1 0.020788 -0.003170 -0.002867 0.000000 0.007260 0.000000
# 2 -0.003170 0.014664 -0.004105 0.000000 -0.003795 0.000000
# 3 -0.002867 -0.004105 0.024707 0.000000 0.010815 0.000000
# 4 0.000000 0.000000 0.000000 0.036207 0.000000 0.014849
# 5 0.007260 -0.003795 0.010815 0.000000 0.046503 0.000000
# 6 0.000000 0.000000 0.000000 0.014849 0.000000 0.049002
#
#
# Mechanical properties :
#
#
# Convention : Reuss Voigt Hill
#
# Bulk Modulus (GPa) = 25.07834 28.90996 26.99415
# Shear Modulus (GPa) = 22.17832 25.57737 23.87784
#
# Velocity S-wave (km/s) = 3.33429 3.58069 3.45969
# Velocity P-wave (km/s) = 5.23398 5.62024 5.43054
#
# Compressibility (1/GPa) = 0.03987505
#
# Stress axis : x y z
#
# Youngs Moduli (GPa) = 48.10440 68.19631 40.47480
#
# Poissons Ratio (x) = 0.21619 0.11603
# Poissons Ratio (y) = 0.15250 0.16614
# Poissons Ratio (z) = 0.13791 0.27993
#
# Static dielectric constant tensor:
#      x y z
#    x 3.618040 0.000000 -0.393500 
#    y 0.000000 3.849650 0.000000 
#    z -0.393500 0.000000 3.577980 
# 
# 
# High freq. dielectric constant tensor:
#      x y z
#    x 1.762400 0.000000 -0.040310 
#    y 0.000000 1.784020 0.000000 
#    z -0.040310 0.000000 1.769830 
# 
# From -- ./inp_files/23382.got.cif
#   From: 2010.06.25/outbox.cif.g09.slc.cpg/sg13_12_cif.got.tgz:23382.got - 2010.06.28 04:50:58.
