data_PCOD8118636
_publ_section_title
;
Structure prediction by ZEFSAII (Michael W. Deem and Ramdas Pophale) SiO2 
 PCOD8118636
Probable space group: P 2/C
;
_chemical_formula_sum "Si O2"
_cell_formula_units_Z 26
_cell_length_a 12.630048
_cell_length_b 20.723898
_cell_length_c 5.089985
_cell_angle_alpha 90.000000
_cell_angle_beta 110.100740
_cell_angle_gamma 90.000000
_cell_volume 1251.123205
_symmetry_space_group_name_H-M "P 2/C"
_symmetry_group_IT_number 13
_symmetry_cell_setting 'monoclinic'
loop_
_space_group_symop_operation_xyz
x,y,z
-x,y,1/2-z
-x,-y,-z
x,-y,1/2+z
loop_
_atom_site_type_symbol
_atom_site_label
_atom_site_fract_x
_atom_site_fract_y
_atom_site_fract_z
Si Si1 0.389771 0.150229 0.776688
Si Si2 0.000000 0.823505 0.750000
Si Si3 0.759991 0.040293 0.617377
Si Si4 0.219925 0.750961 0.976940
Si Si5 0.715888 0.321070 0.443988
Si Si6 0.500000 0.250507 0.250000
Si Si7 0.000000 0.904803 0.250000
Si Si8 0.629652 0.541645 0.837280
O O1 0.500000 0.113179 0.750000
O O2 0.315811 0.103148 0.894781
O O3 0.306409 0.188184 0.503826
O O4 0.445908 0.207393 0.982972
O O5 0.899681 0.780808 0.548834
O O6 0.043860 0.864983 0.539301
O O7 0.893439 0.053417 0.756442
O O8 0.728474 0.014577 0.302556
O O9 0.258421 0.704595 0.244730
O O10 0.197969 0.708556 0.696127
O O11 0.596808 0.297203 0.221554
O O12 0.714328 0.398469 0.450755
O O13 0.500000 0.564637 0.750000
O O14 0.655707 0.512650 0.574762
#
# Coordination Sequence:
#
# PCOD8118636 Si02
#       8
#     4   2   4   4   4   2   2   4
#     4  11  24  42  65  91 128 167 207 257 322 393
#     4  12  24  43  70 100 124 159 202 278 332 382
#     4  12  28  45  66  92 121 165 219 262 316 388
#     4  11  24  39  64  96 124 163 207 261 324 381
#     4  11  21  38  60  94 127 173 205 255 309 380
#     4  10  22  36  60  86 128 160 208 244 316 380
#     4  12  24  45  72  88 128 155 214 268 338 380
#     4  10  20  34  55  88 133 177 216 256 299 357
#
# _framework density 20.781327000000001
#
# number of rings (size 3 to 8) (size 9 to 14) (size 15 to 20)
#    0.000    0.923    3.846    3.231    4.308    0.615 
#    0.000    0.000    0.000    0.000    0.000   10.769 
#    0.000    0.000    0.000    0.000    0.000    0.000 
#
# Total GULP energy -322349.929998 kJ/mol
# GULP energy per Si atom -12398.074231 kJ/mol
# Density = 2.073403 g / cm^3
# Si number density = 20.781327 Si / 1000 Ang^3
#
#
#
# Elastic Constant Matrix: (Units=GPa)
#
#
# Indices 1 2 3 4 5 6 
#
# 1 89.7938 29.0578 16.6046 0.0000 1.4898 0.0000
# 2 29.0578 79.6998 14.2001 0.0000 -1.5123 0.0000
# 3 16.6046 14.2001 65.4445 0.0000 -12.5643 0.0000
# 4 0.0000 0.0000 0.0000 69.9567 0.0000 -5.0305
# 5 1.4898 -1.5123 -12.5643 0.0000 35.0707 0.0000
# 6 0.0000 0.0000 0.0000 -5.0305 0.0000 20.1324
#
#
#
# Elastic Compliance Matrix: (Units=1/GPa)
#
#
# Indices 1 2 3 4 5 6 
#
# 1 0.013061 -0.004312 -0.002707 0.000000 -0.001710 0.000000
# 2 -0.004312 0.014483 -0.002033 0.000000 0.000079 0.000000
# 3 -0.002707 -0.002033 0.017626 0.000000 0.006342 0.000000
# 4 0.000000 0.000000 0.000000 0.014556 0.000000 0.003637
# 5 -0.001710 0.000079 0.006342 0.000000 0.030862 0.000000
# 6 0.000000 0.000000 0.000000 0.003637 0.000000 0.050580
#
#
# Mechanical properties :
#
#
# Convention : Reuss Voigt Hill
#
# Bulk Modulus (GPa) = 36.94719 39.40701 38.17710
# Shear Modulus (GPa) = 29.71009 36.70367 33.20688
#
# Velocity S-wave (km/s) = 3.78518 4.20716 4.00173
# Velocity P-wave (km/s) = 6.07627 6.52718 6.30576
#
# Compressibility (1/GPa) = 0.02706565
#
# Stress axis : x y z
#
# Youngs Moduli (GPa) = 76.56426 69.04647 56.73595
#
# Poissons Ratio (x) = 0.29774 0.15356
# Poissons Ratio (y) = 0.33015 0.11536
# Poissons Ratio (z) = 0.20722 0.14039
#
# Static dielectric constant tensor:
#      x y z
#    x 3.988490 0.000000 -0.001750 
#    y 0.000000 3.638000 0.000000 
#    z -0.001750 0.000000 3.826580 
# 
# 
# High freq. dielectric constant tensor:
#      x y z
#    x 1.802600 0.000000 -0.011800 
#    y 0.000000 1.805190 0.000000 
#    z -0.011800 0.000000 1.815810 
# 
# From -- ./inp_files/3992.got.cif
#   From: 2010.06.25/outbox.cif.g09.slc.cpg/sg13_2_cif.got.tgz:3992.got - 2010.06.28 04:50:58.
