data_PCOD8118612
_publ_section_title
;
Structure prediction by ZEFSAII (Michael W. Deem and Ramdas Pophale) SiO2 
 PCOD8118612
Probable space group: P 2/C
;
_chemical_formula_sum "Si O2"
_cell_formula_units_Z 26
_cell_length_a 31.310276
_cell_length_b 5.267503
_cell_length_c 23.423352
_cell_angle_alpha 90.000000
_cell_angle_beta 22.204880
_cell_angle_gamma 90.000000
_cell_volume 1459.957451
_symmetry_space_group_name_H-M "P 2/C"
_symmetry_group_IT_number 13
_symmetry_cell_setting 'monoclinic'
loop_
_space_group_symop_operation_xyz
x,y,z
-x,y,1/2-z
-x,-y,-z
x,-y,1/2+z
loop_
_atom_site_type_symbol
_atom_site_label
_atom_site_fract_x
_atom_site_fract_y
_atom_site_fract_z
Si Si1 0.634460 0.746667 0.575662
Si Si2 0.355969 0.755503 0.160965
Si Si3 0.199511 0.265788 0.950681
Si Si4 0.589981 0.245872 0.587536
Si Si5 0.000000 0.505932 0.250000
Si Si6 0.557762 0.251600 0.498622
Si Si7 0.223892 0.745172 0.986166
O O1 0.500000 0.729092 0.750000
O O2 0.670772 0.490599 0.497212
O O3 0.696373 0.770705 0.558738
O O4 0.666159 0.991474 0.498021
O O5 0.232013 0.752478 0.343609
O O6 0.373096 0.504742 0.102342
O O7 0.366858 0.004359 0.108539
O O8 0.441488 0.765015 0.108557
O O9 0.064962 0.325711 0.123568
O O10 0.267763 0.506350 0.893845
O O11 0.232730 0.004762 0.940280
O O12 0.500000 0.229956 0.750000
O O13 0.529818 0.256691 0.600458
O O14 0.093274 0.684749 0.165960
#
# Coordination Sequence:
#
# PCOD8118612 Si02
#       7
#     4   4   4   4   2   4   4
#     4  10  21  31  50  82 110 153 176 215 288 330
#     4  10  21  34  55  78 109 160 180 239 275 333
#     4  10  20  34  57  81 114 147 182 233 298 322
#     4  10  21  34  51  76 109 154 184 226 267 323
#     4   8  22  34  58  84 112 146 180 260 272 346
#     4  10  21  36  50  79 116 147 203 215 273 350
#     4  10  20  34  53  84 119 137 188 231 284 345
#
# _framework density 17.80874
#
# number of rings (size 3 to 8) (size 9 to 14) (size 15 to 20)
#    0.923    1.231    0.000    3.231    8.615    0.000 
#    0.000    0.000    0.000    0.000    0.000    6.462 
#    0.000    0.000    0.000    0.000    0.000    0.000 
#
# Total GULP energy -322119.210568 kJ/mol
# GULP energy per Si atom -12389.200406 kJ/mol
# Density = 1.776821 g / cm^3
# Si number density = 17.808740 Si / 1000 Ang^3
#
#
#
# Elastic Constant Matrix: (Units=GPa)
#
#
# Indices 1 2 3 4 5 6 
#
# 1 76.1524 26.0645 29.5456 0.0000 15.3389 0.0000
# 2 26.0645 169.8605 22.4181 0.0000 12.9767 0.0000
# 3 29.5456 22.4181 87.0244 0.0000 12.8456 0.0000
# 4 0.0000 0.0000 0.0000 15.3623 0.0000 8.9182
# 5 15.3389 12.9767 12.8456 0.0000 28.7667 0.0000
# 6 0.0000 0.0000 0.0000 8.9182 0.0000 25.1344
#
#
#
# Elastic Compliance Matrix: (Units=1/GPa)
#
#
# Indices 1 2 3 4 5 6 
#
# 1 0.016576 -0.001497 -0.004322 0.000000 -0.006234 0.000000
# 2 -0.001497 0.006362 -0.000883 0.000000 -0.001677 0.000000
# 3 -0.004322 -0.000883 0.013689 0.000000 -0.003410 0.000000
# 4 0.000000 0.000000 0.000000 0.081981 0.000000 -0.029089
# 5 -0.006234 -0.001677 -0.003410 0.000000 0.040365 0.000000
# 6 0.000000 0.000000 0.000000 -0.029089 0.000000 0.050107
#
#
# Mechanical properties :
#
#
# Convention : Reuss Voigt Hill
#
# Bulk Modulus (GPa) = 43.06053 54.34375 48.70214
# Shear Modulus (GPa) = 21.71777 30.85329 26.28553
#
# Velocity S-wave (km/s) = 3.49592 4.16682 3.84603
# Velocity P-wave (km/s) = 6.36610 7.33017 6.86508
#
# Compressibility (1/GPa) = 0.02322312
#
# Stress axis : x y z
#
# Youngs Moduli (GPa) = 60.32674 157.19433 73.05025
#
# Poissons Ratio (x) = 0.23531 0.31573
# Poissons Ratio (y) = 0.09031 0.06450
# Poissons Ratio (z) = 0.26074 0.13880
#
# Static dielectric constant tensor:
#      x y z
#    x 2.965970 0.000000 0.106010 
#    y 0.000000 5.381000 0.000000 
#    z 0.106010 0.000000 3.046130 
# 
# 
# High freq. dielectric constant tensor:
#      x y z
#    x 1.654180 0.000000 0.016460 
#    y 0.000000 1.727710 0.000000 
#    z 0.016460 0.000000 1.651810 
# 
# From -- ./inp_files/71690.got.cif
#   From: 2010.06.25/outbox.cif.g09.slc.cpg/sg13_36_cif.got.tgz:71690.got - 2010.06.28 04:50:58.
