data_PCOD8118763
_publ_section_title
;
Structure prediction by ZEFSAII (Michael W. Deem and Ramdas Pophale) SiO2 
 PCOD8118763
Probable space group: P 2/C
;
_chemical_formula_sum "Si O2"
_cell_formula_units_Z 30
_cell_length_a 12.416460
_cell_length_b 11.278381
_cell_length_c 15.322249
_cell_angle_alpha 90.000000
_cell_angle_beta 48.998959
_cell_angle_gamma 90.000000
_cell_volume 1619.347573
_symmetry_space_group_name_H-M "P 2/C"
_symmetry_group_IT_number 13
_symmetry_cell_setting 'monoclinic'
loop_
_space_group_symop_operation_xyz
x,y,z
-x,y,1/2-z
-x,-y,-z
x,-y,1/2+z
loop_
_atom_site_type_symbol
_atom_site_label
_atom_site_fract_x
_atom_site_fract_y
_atom_site_fract_z
Si Si1 0.162802 0.861726 0.164712
Si Si2 0.134170 0.946412 0.824512
Si Si3 0.365154 0.242340 0.940650
Si Si4 0.500000 0.428771 0.750000
Si Si5 0.368237 0.558732 0.668570
Si Si6 0.589514 0.313999 0.945992
Si Si7 0.155674 0.285659 0.204695
Si Si8 0.192744 0.980824 0.481003
O O1 0.262586 0.747409 0.108551
O O2 0.000000 0.817023 0.250000
O O3 0.176853 0.938101 0.245828
O O4 0.210592 0.933619 0.053737
O O5 0.182297 0.836455 0.741109
O O6 0.965765 0.926992 0.930143
O O7 0.212580 0.952825 0.877119
O O8 0.386176 0.346270 0.859547
O O9 0.515580 0.229275 0.912159
O O10 0.249818 0.290597 0.068568
O O11 0.313440 0.121170 0.922543
O O12 0.399828 0.516521 0.748723
O O13 0.376414 0.445276 0.603020
O O14 0.480436 0.664363 0.584239
O O15 0.207794 0.611062 0.743132
O O16 0.000000 0.307049 0.250000
#
# Coordination Sequence:
#
# PCOD8118763 Si02
#       8
#     4   4   4   2   4   4   4   4
#     4  10  20  37  59  86 123 157 189 254 309 363
#     4  10  20  35  58  88 121 152 195 244 299 367
#     4  10  20  37  62  82 115 164 200 242 296 375
#     4  10  22  40  58  84 118 158 210 262 302 350
#     4   9  21  38  58  80 113 159 199 252 299 350
#     4   9  20  38  57  80 112 156 203 240 301 354
#     4  11  19  39  64  86 119 165 203 242 310 374
#     4  10  20  35  57  89 118 157 196 237 309 363
#
# _framework density 18.525977999999999
#
# number of rings (size 3 to 8) (size 9 to 14) (size 15 to 20)
#    0.000    2.133    2.667    1.200    3.733    2.133 
#    0.000    0.667    0.000    0.000    0.000    0.000 
#    0.000    0.000    0.000    0.000    0.000    0.000 
#
# Total GULP energy -371758.983540 kJ/mol
# GULP energy per Si atom -12391.966118 kJ/mol
# Density = 1.848381 g / cm^3
# Si number density = 18.525978 Si / 1000 Ang^3
#
#
#
# Elastic Constant Matrix: (Units=GPa)
#
#
# Indices 1 2 3 4 5 6 
#
# 1 113.6106 72.2152 48.8187 0.0000 4.2189 0.0000
# 2 72.2152 93.7687 44.4238 0.0000 -8.5555 0.0000
# 3 48.8187 44.4238 87.6335 0.0000 13.1357 0.0000
# 4 0.0000 0.0000 0.0000 17.1771 0.0000 -5.5884
# 5 4.2189 -8.5555 13.1357 0.0000 30.1596 0.0000
# 6 0.0000 0.0000 0.0000 -5.5884 0.0000 36.9788
#
#
#
# Elastic Compliance Matrix: (Units=1/GPa)
#
#
# Indices 1 2 3 4 5 6 
#
# 1 0.018938 -0.013758 -0.002775 0.000000 -0.005343 0.000000
# 2 -0.013758 0.025858 -0.007309 0.000000 0.012443 0.000000
# 3 -0.002775 -0.007309 0.018096 0.000000 -0.009567 0.000000
# 4 0.000000 0.000000 0.000000 0.061227 0.000000 0.009253
# 5 -0.005343 0.012443 -0.009567 0.000000 0.041601 0.000000
# 6 0.000000 0.000000 0.000000 0.009253 0.000000 0.028441
#
#
# Mechanical properties :
#
#
# Convention : Reuss Voigt Hill
#
# Bulk Modulus (GPa) = 65.75187 69.54757 67.64972
# Shear Modulus (GPa) = 20.25004 25.50010 22.87507
#
# Velocity S-wave (km/s) = 3.30974 3.71408 3.51772
# Velocity P-wave (km/s) = 7.08340 7.48429 7.28660
#
# Compressibility (1/GPa) = 0.01520869
#
# Stress axis : x y z
#
# Youngs Moduli (GPa) = 52.80517 38.67285 55.26044
#
# Poissons Ratio (x) = 0.53204 0.15333
# Poissons Ratio (y) = 0.72647 0.40391
# Poissons Ratio (z) = 0.14652 0.28267
#
# Static dielectric constant tensor:
#      x y z
#    x 3.702760 0.000000 0.046450 
#    y 0.000000 3.286390 0.000000 
#    z 0.046450 0.000000 3.472490 
# 
# 
# High freq. dielectric constant tensor:
#      x y z
#    x 1.721180 0.000000 0.007590 
#    y 0.000000 1.706980 0.000000 
#    z 0.007590 0.000000 1.715840 
# 
# From -- ./inp_files/51163.got.cif
#   From: 2010.06.25/outbox.cif.g09.slc.cpg/sg13_26_cif.got.tgz:51163.got - 2010.06.28 04:50:58.
