data_PCOD8118651
_publ_section_title
;
Structure prediction by ZEFSAII (Michael W. Deem and Ramdas Pophale) SiO2 
 PCOD8118651
Probable space group: P 2/C
;
_chemical_formula_sum "Si O2"
_cell_formula_units_Z 26
_cell_length_a 7.965255
_cell_length_b 8.524286
_cell_length_c 20.468346
_cell_angle_alpha 90.000000
_cell_angle_beta 74.449790
_cell_angle_gamma 90.000000
_cell_volume 1338.891046
_symmetry_space_group_name_H-M "P 2/C"
_symmetry_group_IT_number 13
_symmetry_cell_setting 'monoclinic'
loop_
_space_group_symop_operation_xyz
x,y,z
-x,y,1/2-z
-x,-y,-z
x,-y,1/2+z
loop_
_atom_site_type_symbol
_atom_site_label
_atom_site_fract_x
_atom_site_fract_y
_atom_site_fract_z
Si Si1 0.738276 0.738478 0.796141
Si Si2 0.795930 0.906188 0.285085
Si Si3 0.156364 0.387890 0.466996
Si Si4 0.500000 0.712097 0.250000
Si Si5 0.041306 0.618079 0.842314
Si Si6 0.817186 0.326368 0.895225
Si Si7 0.495979 0.498515 0.873348
O O1 0.879745 0.724978 0.838849
O O2 0.553912 0.667187 0.837569
O O3 0.805081 0.635354 0.727157
O O4 0.713548 0.921775 0.786661
O O5 0.676596 0.808152 0.247557
O O6 0.789650 0.833465 0.358323
O O7 0.000000 0.907641 0.250000
O O8 0.175452 0.276464 0.528759
O O9 0.332387 0.485832 0.437945
O O10 0.000000 0.500000 0.500000
O O11 0.110176 0.304994 0.403015
O O12 0.555234 0.612480 0.181391
O O13 0.984345 0.433530 0.855197
O O14 0.649746 0.434064 0.901901
#
# Coordination Sequence:
#
# PCOD8118651 Si02
#       7
#     4   4   4   2   4   4   4
#     4  10  20  38  58  87 120 158 196 247 309 349
#     4  11  23  39  62  89 132 154 196 257 313 356
#     4  10  20  34  56  87 115 153 204 250 298 355
#     4  10  24  36  60 100 110 162 204 256 314 348
#     4   9  18  34  57  86 114 152 205 237 291 366
#     4   9  21  35  58  84 117 158 193 248 302 354
#     4  10  20  36  59  83 119 153 206 253 292 363
#
# _framework density 19.419056999999999
#
# number of rings (size 3 to 8) (size 9 to 14) (size 15 to 20)
#    0.000    2.154    1.538    1.385   10.769    1.846 
#    0.000    1.538    0.000    0.000    0.000    0.000 
#    0.000    0.000    0.000    0.000    0.000    0.000 
#
# Total GULP energy -322145.257064 kJ/mol
# GULP energy per Si atom -12390.202195 kJ/mol
# Density = 1.937486 g / cm^3
# Si number density = 19.419057 Si / 1000 Ang^3
#
#
#
# Elastic Constant Matrix: (Units=GPa)
#
#
# Indices 1 2 3 4 5 6 
#
# 1 99.2305 33.5522 51.2520 0.0000 2.3026 0.0000
# 2 33.5522 75.1560 37.8032 0.0000 -3.8651 0.0000
# 3 51.2520 37.8032 116.6544 0.0000 9.6593 0.0000
# 4 0.0000 0.0000 0.0000 9.7804 0.0000 -4.0907
# 5 2.3026 -3.8651 9.6593 0.0000 51.4348 0.0000
# 6 0.0000 0.0000 0.0000 -4.0907 0.0000 18.2577
#
#
#
# Elastic Compliance Matrix: (Units=1/GPa)
#
#
# Indices 1 2 3 4 5 6 
#
# 1 0.013860 -0.003731 -0.004882 0.000000 0.000016 0.000000
# 2 -0.003731 0.017149 -0.004102 0.000000 0.002226 0.000000
# 3 -0.004882 -0.004102 0.012244 0.000000 -0.002389 0.000000
# 4 0.000000 0.000000 0.000000 0.112817 0.000000 0.025277
# 5 0.000016 0.002226 -0.002389 0.000000 0.020057 0.000000
# 6 0.000000 0.000000 0.000000 0.025277 0.000000 0.060435
#
#
# Mechanical properties :
#
#
# Convention : Reuss Voigt Hill
#
# Bulk Modulus (GPa) = 56.10682 59.58397 57.84540
# Shear Modulus (GPa) = 18.66124 27.12347 22.89235
#
# Velocity S-wave (km/s) = 3.10332 3.74136 3.43718
# Velocity P-wave (km/s) = 6.46500 7.02948 6.75314
#
# Compressibility (1/GPa) = 0.01782315
#
# Stress axis : x y z
#
# Youngs Moduli (GPa) = 72.14927 58.31076 81.67062
#
# Poissons Ratio (x) = 0.21758 0.39868
# Poissons Ratio (y) = 0.26922 0.33505
# Poissons Ratio (z) = 0.35220 0.23922
#
# Static dielectric constant tensor:
#      x y z
#    x 3.893120 0.000000 0.346540 
#    y 0.000000 3.376430 0.000000 
#    z 0.346540 0.000000 3.983190 
# 
# 
# High freq. dielectric constant tensor:
#      x y z
#    x 1.780880 0.000000 0.008680 
#    y 0.000000 1.714860 0.000000 
#    z 0.008680 0.000000 1.755080 
# 
# From -- ./inp_files/75204.got.cif
#   From: 2010.06.25/outbox.cif.g09.slc.cpg/sg13_38_cif.got.tgz:75204.got - 2010.06.28 04:50:58.
