data_PCOD8118817
_publ_section_title
;
Structure prediction by ZEFSAII (Michael W. Deem and Ramdas Pophale) SiO2 
 PCOD8118817
Probable space group: P 2/C
;
_chemical_formula_sum "Si O2"
_cell_formula_units_Z 30
_cell_length_a 30.398978
_cell_length_b 9.192924
_cell_length_c 12.391784
_cell_angle_alpha 90.000000
_cell_angle_beta 154.111933
_cell_angle_gamma 90.000000
_cell_volume 1511.974861
_symmetry_space_group_name_H-M "P 2/C"
_symmetry_group_IT_number 13
_symmetry_cell_setting 'monoclinic'
loop_
_space_group_symop_operation_xyz
x,y,z
-x,y,1/2-z
-x,-y,-z
x,-y,1/2+z
loop_
_atom_site_type_symbol
_atom_site_label
_atom_site_fract_x
_atom_site_fract_y
_atom_site_fract_z
Si Si1 0.853918 0.280986 0.433300
Si Si2 0.625135 0.930021 0.950176
Si Si3 0.150668 0.051830 0.603152
Si Si4 0.978801 0.123927 0.372132
Si Si5 0.010784 0.365859 0.947891
Si Si6 0.430222 0.236795 0.969254
Si Si7 0.500000 0.505318 0.250000
Si Si8 0.374818 0.741272 0.100507
O O1 0.904962 0.311487 0.662250
O O2 0.905899 0.389476 0.461717
O O3 0.874844 0.118142 0.436092
O O4 0.735795 0.307402 0.181432
O O5 0.542997 0.831203 0.706342
O O6 0.595857 0.101647 0.885328
O O7 0.731391 0.911274 0.122592
O O8 0.631187 0.873782 0.087718
O O9 0.119880 0.089157 0.414174
O O10 0.081543 0.148170 0.529675
O O11 0.945612 0.258519 0.367958
O O12 0.000000 0.000000 0.500000
O O13 0.000000 0.500000 0.000000
O O14 0.379552 0.246809 0.740767
O O15 0.431067 0.398335 0.024389
O O16 0.443015 0.610920 0.207297
#
# Coordination Sequence:
#
# PCOD8118817 Si02
#       8
#     4   4   4   4   4   4   2   4
#     4  10  22  40  58  88 121 151 204 242 296 357
#     4   9  21  38  59  93 122 148 205 254 301 366
#     4  10  20  35  61  93 113 152 204 248 284 364
#     4  11  19  36  63  82 118 157 198 237 299 347
#     4  11  23  41  58  85 124 161 189 249 296 351
#     4  10  22  42  62  89 125 158 195 265 309 350
#     4  10  22  42  60  88 120 156 216 242 292 380
#     4  11  22  40  66  87 119 169 196 251 311 362
#
# _framework density 19.841598999999999
#
# number of rings (size 3 to 8) (size 9 to 14) (size 15 to 20)
#    0.000    1.867    2.667    2.400    1.867    3.200 
#    9.600    0.000    0.000    0.000    0.000    0.000 
#    0.000    0.000    0.000    0.000    0.000    0.000 
#
# Total GULP energy -371747.060511 kJ/mol
# GULP energy per Si atom -12391.568684 kJ/mol
# Density = 1.979644 g / cm^3
# Si number density = 19.841599 Si / 1000 Ang^3
#
#
#
# Elastic Constant Matrix: (Units=GPa)
#
#
# Indices 1 2 3 4 5 6 
#
# 1 68.1332 25.7360 18.6350 0.0000 -12.3517 0.0000
# 2 25.7360 97.2369 7.0878 0.0000 -9.8543 0.0000
# 3 18.6350 7.0878 69.9525 0.0000 -0.1704 0.0000
# 4 0.0000 0.0000 0.0000 19.1475 0.0000 -5.5644
# 5 -12.3517 -9.8543 -0.1704 0.0000 33.8534 0.0000
# 6 0.0000 0.0000 0.0000 -5.5644 0.0000 36.4968
#
#
#
# Elastic Compliance Matrix: (Units=1/GPa)
#
#
# Indices 1 2 3 4 5 6 
#
# 1 0.018414 -0.003985 -0.004488 0.000000 0.005536 0.000000
# 2 -0.003985 0.011539 -0.000103 0.000000 0.001904 0.000000
# 3 -0.004488 -0.000103 0.015498 0.000000 -0.001589 0.000000
# 4 0.000000 0.000000 0.000000 0.054647 0.000000 0.008332
# 5 0.005536 0.001904 -0.001589 0.000000 0.032105 0.000000
# 6 0.000000 0.000000 0.000000 0.008332 0.000000 0.028670
#
#
# Mechanical properties :
#
#
# Convention : Reuss Voigt Hill
#
# Bulk Modulus (GPa) = 35.33815 37.58223 36.46019
# Shear Modulus (GPa) = 26.67258 30.15713 28.41486
#
# Velocity S-wave (km/s) = 3.67041 3.90281 3.78840
# Velocity P-wave (km/s) = 5.98426 6.26829 6.12792
#
# Compressibility (1/GPa) = 0.02829803
#
# Stress axis : x y z
#
# Youngs Moduli (GPa) = 54.30765 86.65897 64.52630
#
# Poissons Ratio (x) = 0.34537 0.28959
# Poissons Ratio (y) = 0.21644 0.00664
# Poissons Ratio (z) = 0.24373 0.00892
#
# Static dielectric constant tensor:
#      x y z
#    x 3.460310 0.000000 -0.155070 
#    y 0.000000 3.546300 0.000000 
#    z -0.155070 0.000000 3.541840 
# 
# 
# High freq. dielectric constant tensor:
#      x y z
#    x 1.775760 0.000000 -0.006820 
#    y 0.000000 1.769440 0.000000 
#    z -0.006820 0.000000 1.770400 
# 
# From -- ./inp_files/42722.got.cif
#   From: 2010.06.25/outbox.cif.g09.slc.cpg/sg13_22_cif.got.tgz:42722.got - 2010.06.28 04:50:58.
