data_PCOD8118445
_publ_section_title
;
Structure prediction by ZEFSAII (Michael W. Deem and Ramdas Pophale) SiO2 
 PCOD8118445
Probable space group: P 2/C
;
_chemical_formula_sum "Si O2"
_cell_formula_units_Z 30
_cell_length_a 8.946741
_cell_length_b 18.459875
_cell_length_c 9.179201
_cell_angle_alpha 90.000000
_cell_angle_beta 90.196440
_cell_angle_gamma 90.000000
_cell_volume 1515.988645
_symmetry_space_group_name_H-M "P 2/C"
_symmetry_group_IT_number 13
_symmetry_cell_setting 'monoclinic'
loop_
_space_group_symop_operation_xyz
x,y,z
-x,y,1/2-z
-x,-y,-z
x,-y,1/2+z
loop_
_atom_site_type_symbol
_atom_site_label
_atom_site_fract_x
_atom_site_fract_y
_atom_site_fract_z
Si Si1 0.470078 0.823387 0.600415
Si Si2 0.778509 0.719941 0.895627
Si Si3 0.696211 0.698428 0.577967
Si Si4 0.925702 0.062739 0.904892
Si Si5 0.500000 0.493678 0.750000
Si Si6 0.434352 0.401205 0.012164
Si Si7 0.575553 0.941747 0.401481
Si Si8 0.046051 0.229271 0.581060
O O1 0.500000 0.869894 0.750000
O O2 0.296710 0.800100 0.587957
O O3 0.562664 0.750560 0.622754
O O4 0.530432 0.862979 0.458896
O O5 0.793432 0.691983 0.728102
O O6 0.682664 0.663627 0.989732
O O7 0.937751 0.727737 0.972189
O O8 0.609738 0.625093 0.527400
O O9 0.794432 0.731688 0.446131
O O10 0.751145 0.045991 0.892397
O O11 0.947949 0.144400 0.966022
O O12 0.000000 0.056750 0.750000
O O13 0.000000 0.000000 0.000000
O O14 0.593279 0.442603 0.640394
O O15 0.602842 0.545102 0.852705
O O16 0.500000 0.951577 0.250000
O O17 0.500000 0.000000 0.500000
O O18 0.000000 0.237538 0.750000
#
# Coordination Sequence:
#
# PCOD8118445 Si02
#       8
#     4   4   4   4   2   4   4   4
#     4   9  20  37  61  87 118 152 210 255 308 359
#     4  10  21  37  63  90 125 166 207 256 306 371
#     4  10  19  41  59  90 124 163 207 256 304 373
#     4  11  26  46  63  89 128 169 213 265 331 396
#     4  10  20  36  66  98 132 158 204 258 314 374
#     4  10  20  38  65  99 125 165 208 257 310 374
#     4  12  25  41  64  90 120 161 211 266 322 377
#     4  11  25  39  61  92 128 165 216 257 317 376
#
# _framework density 19.789065999999998
#
# number of rings (size 3 to 8) (size 9 to 14) (size 15 to 20)
#    0.000    1.600    2.667    2.400    7.467    1.067 
#    2.400    0.000    0.000    4.800    0.000    0.000 
#    0.000    0.000    0.000    0.000    0.000    0.000 
#
# Total GULP energy -371787.129344 kJ/mol
# GULP energy per Si atom -12392.904311 kJ/mol
# Density = 1.974403 g / cm^3
# Si number density = 19.789066 Si / 1000 Ang^3
#
#
#
# Elastic Constant Matrix: (Units=GPa)
#
#
# Indices 1 2 3 4 5 6 
#
# 1 104.3220 39.6953 42.1212 0.0000 -5.1087 0.0000
# 2 39.6953 96.4415 48.1589 0.0000 1.2353 0.0000
# 3 42.1212 48.1589 119.4678 0.0000 -1.6819 0.0000
# 4 0.0000 0.0000 0.0000 35.3951 0.0000 -5.1362
# 5 -5.1087 1.2353 -1.6819 0.0000 33.3924 0.0000
# 6 0.0000 0.0000 0.0000 -5.1362 0.0000 48.9853
#
#
#
# Elastic Compliance Matrix: (Units=1/GPa)
#
#
# Indices 1 2 3 4 5 6 
#
# 1 0.012195 -0.003643 -0.002805 0.000000 0.001859 0.000000
# 2 -0.003643 0.014089 -0.004413 0.000000 -0.001301 0.000000
# 3 -0.002805 -0.004413 0.011143 0.000000 0.000295 0.000000
# 4 0.000000 0.000000 0.000000 0.028689 0.000000 0.003008
# 5 0.001859 -0.001301 0.000295 0.000000 0.030294 0.000000
# 6 0.000000 0.000000 0.000000 0.003008 0.000000 0.020730
#
#
# Mechanical properties :
#
#
# Convention : Reuss Voigt Hill
#
# Bulk Modulus (GPa) = 63.67599 64.46468 64.07033
# Shear Modulus (GPa) = 34.69876 36.23830 35.46853
#
# Velocity S-wave (km/s) = 4.19194 4.28393 4.23818
# Velocity P-wave (km/s) = 7.46170 7.55751 7.50976
#
# Compressibility (1/GPa) = 0.01570451
#
# Stress axis : x y z
#
# Youngs Moduli (GPa) = 81.99781 70.97827 89.74447
#
# Poissons Ratio (x) = 0.25855 0.25175
# Poissons Ratio (y) = 0.29869 0.39608
# Poissons Ratio (z) = 0.23002 0.31325
#
# Static dielectric constant tensor:
#      x y z
#    x 3.497260 0.000000 0.023850 
#    y 0.000000 7.569470 0.000000 
#    z 0.023850 0.000000 3.550880 
# 
# 
# High freq. dielectric constant tensor:
#      x y z
#    x 1.754630 0.000000 -0.004600 
#    y 0.000000 1.769390 0.000000 
#    z -0.004600 0.000000 1.783980 
# 
# From -- ./inp_files/13491.got.cif
#   From: 2010.06.25/outbox.cif.g09.slc.cpg/sg13_7_cif.got.tgz:13491.got - 2010.06.28 04:50:58.
