data_PCOD8118241
_publ_section_title
;
Structure prediction by ZEFSAII (Michael W. Deem and Ramdas Pophale) SiO2 
 PCOD8118241
Probable space group: P 2/C
;
_chemical_formula_sum "Si O2"
_cell_formula_units_Z 20
_cell_length_a 30.773642
_cell_length_b 5.137543
_cell_length_c 13.260185
_cell_angle_alpha 90.000000
_cell_angle_beta 26.846318
_cell_angle_gamma 90.000000
_cell_volume 946.753424
_symmetry_space_group_name_H-M "P 2/C"
_symmetry_group_IT_number 13
_symmetry_cell_setting 'monoclinic'
loop_
_space_group_symop_operation_xyz
x,y,z
-x,y,1/2-z
-x,-y,-z
x,-y,1/2+z
loop_
_atom_site_type_symbol
_atom_site_label
_atom_site_fract_x
_atom_site_fract_y
_atom_site_fract_z
Si Si1 0.890834 0.588594 0.227677
Si Si2 0.804623 0.913567 0.807789
Si Si3 0.224996 0.777309 0.853932
Si Si4 0.416405 0.553010 0.503522
Si Si5 0.642060 0.954991 0.281379
O O1 0.827067 0.359058 0.314536
O O2 0.860137 0.639435 0.406868
O O3 0.874850 0.851667 0.195600
O O4 0.000000 0.500000 0.000000
O O5 0.817750 0.879500 0.661617
O O6 0.691534 0.970582 0.068213
O O7 0.314761 0.576372 0.653941
O O8 0.265986 0.022982 0.832744
O O9 0.430581 0.802910 0.548240
O O10 0.417352 0.305255 0.575081
O O11 0.500000 0.529431 0.250000
#
# Coordination Sequence:
#
# PCOD8118241 Si02
#       5
#     4   4   4   4   4
#     4  11  24  42  62  92 125 154 204 258 305 365
#     4  11  21  40  66  86 121 167 199 249 311 364
#     4   9  23  38  64  87 125 161 204 247 308 361
#     4  10  19  37  61  85 125 163 200 254 304 352
#     4   9  19  37  56  85 122 155 204 248 299 351
#
# _framework density 21.124824
#
# number of rings (size 3 to 8) (size 9 to 14) (size 15 to 20)
#    1.200    0.800    2.000    1.200    2.800    0.800 
#    0.000    4.000    0.000    0.000    0.000    0.000 
#    0.000    0.000    0.000    0.000    0.000    0.000 
#
# Total GULP energy -247839.845108 kJ/mol
# GULP energy per Si atom -12391.992255 kJ/mol
# Density = 2.107674 g / cm^3
# Si number density = 21.124824 Si / 1000 Ang^3
#
#
#
# Elastic Constant Matrix: (Units=GPa)
#
#
# Indices 1 2 3 4 5 6 
#
# 1 56.7025 24.7798 40.9107 0.0000 24.4111 0.0000
# 2 24.7798 140.4746 33.0106 0.0000 12.2558 0.0000
# 3 40.9107 33.0106 155.8892 0.0000 11.1644 0.0000
# 4 0.0000 0.0000 0.0000 37.2789 0.0000 0.8762
# 5 24.4111 12.2558 11.1644 0.0000 28.2131 0.0000
# 6 0.0000 0.0000 0.0000 0.8762 0.0000 16.8735
#
#
#
# Elastic Compliance Matrix: (Units=1/GPa)
#
#
# Indices 1 2 3 4 5 6 
#
# 1 0.034971 -0.002252 -0.006796 0.000000 -0.026591 0.000000
# 2 -0.002252 0.007842 -0.000993 0.000000 -0.001065 0.000000
# 3 -0.006796 -0.000993 0.008189 0.000000 0.003072 0.000000
# 4 0.000000 0.000000 0.000000 0.026858 0.000000 -0.001395
# 5 -0.026591 -0.001065 0.003072 0.000000 0.057699 0.000000
# 6 0.000000 0.000000 0.000000 -0.001395 0.000000 0.059337
#
#
# Mechanical properties :
#
#
# Convention : Reuss Voigt Hill
#
# Bulk Modulus (GPa) = 32.34261 61.16317 46.75289
# Shear Modulus (GPa) = 22.19400 33.43079 27.81239
#
# Velocity S-wave (km/s) = 3.24483 3.98243 3.63240
# Velocity P-wave (km/s) = 5.42052 7.08254 6.30652
#
# Compressibility (1/GPa) = 0.03091896
#
# Stress axis : x y z
#
# Youngs Moduli (GPa) = 28.59484 127.51299 122.11791
#
# Poissons Ratio (x) = 0.28715 0.82997
# Poissons Ratio (y) = 0.06439 0.12131
# Poissons Ratio (z) = 0.19434 0.12667
#
# Static dielectric constant tensor:
#      x y z
#    x 3.307740 0.000000 0.137120 
#    y 0.000000 3.951160 0.000000 
#    z 0.137120 0.000000 3.772600 
# 
# 
# High freq. dielectric constant tensor:
#      x y z
#    x 1.783950 0.000000 0.013650 
#    y 0.000000 1.840750 0.000000 
#    z 0.013650 0.000000 1.835600 
# 
# From -- ./inp_files/42512.got.cif
#   From: 2010.06.25/outbox.cif.g09.slc.cpg/sg13_22_cif.got.tgz:42512.got - 2010.06.28 04:50:58.
