data_PCOD8118885
_publ_section_title
;
Structure prediction by ZEFSAII (Michael W. Deem and Ramdas Pophale) SiO2 
 PCOD8118885
Probable space group: P 2/C
;
_chemical_formula_sum "Si O2"
_cell_formula_units_Z 24
_cell_length_a 16.981125
_cell_length_b 8.225213
_cell_length_c 23.299200
_cell_angle_alpha 90.000000
_cell_angle_beta 157.873767
_cell_angle_gamma 90.000000
_cell_volume 1225.718641
_symmetry_space_group_name_H-M "P 2/C"
_symmetry_group_IT_number 13
_symmetry_cell_setting 'monoclinic'
loop_
_space_group_symop_operation_xyz
x,y,z
-x,y,1/2-z
-x,-y,-z
x,-y,1/2+z
loop_
_atom_site_type_symbol
_atom_site_label
_atom_site_fract_x
_atom_site_fract_y
_atom_site_fract_z
Si Si1 0.595991 0.328834 0.190752
Si Si2 0.611260 0.305263 0.665970
Si Si3 0.784700 0.923717 0.586755
Si Si4 0.601444 0.158586 0.543043
Si Si5 0.318762 0.123000 0.087251
Si Si6 0.027335 0.821710 0.492682
O O1 0.556038 0.515977 0.149721
O O2 0.573527 0.239665 0.114980
O O3 0.423188 0.268567 0.120341
O O4 0.831272 0.291293 0.370677
O O5 0.405318 0.197340 0.531939
O O6 0.680681 0.285189 0.645626
O O7 0.794540 0.247367 0.831669
O O8 0.000000 0.832987 0.750000
O O9 0.785215 0.088582 0.626450
O O10 0.774034 0.977895 0.513512
O O11 0.500000 0.000000 0.500000
O O12 0.500000 0.047807 0.250000
O O13 0.128515 0.185011 0.997734
O O14 0.000000 0.000000 0.500000
#
# Coordination Sequence:
#
# PCOD8118885 Si02
#       6
#     4   4   4   4   4   4
#     4  10  21  37  57  85 119 148 182 233 295 341
#     4  11  21  36  57  87 118 147 186 237 287 338
#     4  10  20  36  57  82 112 151 197 234 275 334
#     4   9  18  35  57  80 109 148 192 231 270 331
#     4   9  19  38  58  80 111 149 190 236 283 338
#     4  11  21  38  62  84 111 151 196 235 277 338
#
# _framework density 19.580351
#
# number of rings (size 3 to 8) (size 9 to 14) (size 15 to 20)
#    0.000    2.000    0.000    6.000    0.000    1.333 
#    0.000   17.500    0.000    0.000    0.000    0.000 
#    0.000    0.000    0.000    0.000    0.000    0.000 
#
# Total GULP energy -297399.570475 kJ/mol
# GULP energy per Si atom -12391.648770 kJ/mol
# Density = 1.953578 g / cm^3
# Si number density = 19.580351 Si / 1000 Ang^3
#
#
#
# Elastic Constant Matrix: (Units=GPa)
#
#
# Indices 1 2 3 4 5 6 
#
# 1 79.5277 51.8954 46.1334 0.0000 -16.4426 0.0000
# 2 51.8954 108.4884 59.3650 0.0000 -9.4300 0.0000
# 3 46.1334 59.3650 151.0890 0.0000 -3.5011 0.0000
# 4 0.0000 0.0000 0.0000 27.3570 0.0000 -10.4882
# 5 -16.4426 -9.4300 -3.5011 0.0000 33.2803 0.0000
# 6 0.0000 0.0000 0.0000 -10.4882 0.0000 19.1149
#
#
#
# Elastic Compliance Matrix: (Units=1/GPa)
#
#
# Indices 1 2 3 4 5 6 
#
# 1 0.021062 -0.007604 -0.003260 0.000000 0.007909 0.000000
# 2 -0.007604 0.014763 -0.003477 0.000000 0.000061 0.000000
# 3 -0.003260 -0.003477 0.008942 0.000000 -0.001655 0.000000
# 4 0.000000 0.000000 0.000000 0.046292 0.000000 0.025400
# 5 0.007909 0.000061 -0.001655 0.000000 0.033798 0.000000
# 6 0.000000 0.000000 0.000000 0.025400 0.000000 0.066252
#
#
# Mechanical properties :
#
#
# Convention : Reuss Voigt Hill
#
# Bulk Modulus (GPa) = 62.17168 72.65474 67.41321
# Shear Modulus (GPa) = 22.20704 28.06453 25.13578
#
# Velocity S-wave (km/s) = 3.37137 3.79000 3.58680
# Velocity P-wave (km/s) = 6.85389 7.50591 7.18730
#
# Compressibility (1/GPa) = 0.01608449
#
# Stress axis : x y z
#
# Youngs Moduli (GPa) = 47.47787 67.73717 111.83068
#
# Poissons Ratio (x) = 0.51506 0.36460
# Poissons Ratio (y) = 0.36101 0.38888
# Poissons Ratio (z) = 0.15479 0.23555
#
# Static dielectric constant tensor:
#      x y z
#    x 4.378310 0.000000 -0.242000 
#    y 0.000000 3.433990 0.000000 
#    z -0.242000 0.000000 3.800660 
# 
# 
# High freq. dielectric constant tensor:
#      x y z
#    x 1.769170 0.000000 -0.016850 
#    y 0.000000 1.736620 0.000000 
#    z -0.016850 0.000000 1.776450 
# 
# From -- ./inp_files/88040.got.cif
#   From: 2010.06.25/outbox.cif.g09.slc.cpg/sg13_45_cif.got.tgz:88040.got - 2010.06.28 04:50:58.
