data_PCOD8118409
_publ_section_title
;
Structure prediction by ZEFSAII (Michael W. Deem and Ramdas Pophale) SiO2 
 PCOD8118409
Probable space group: P 2/C
;
_chemical_formula_sum "Si O2"
_cell_formula_units_Z 22
_cell_length_a 12.811955
_cell_length_b 12.656488
_cell_length_c 13.300383
_cell_angle_alpha 90.000000
_cell_angle_beta 23.153339
_cell_angle_gamma 90.000000
_cell_volume 848.005781
_symmetry_space_group_name_H-M "P 2/C"
_symmetry_group_IT_number 13
_symmetry_cell_setting 'monoclinic'
loop_
_space_group_symop_operation_xyz
x,y,z
-x,y,1/2-z
-x,-y,-z
x,-y,1/2+z
loop_
_atom_site_type_symbol
_atom_site_label
_atom_site_fract_x
_atom_site_fract_y
_atom_site_fract_z
Si Si1 0.737771 0.148807 0.430622
Si Si2 0.500000 0.039110 0.250000
Si Si3 0.641998 0.803197 0.796020
Si Si4 0.919759 0.557687 0.708366
Si Si5 0.080724 0.310602 0.791168
Si Si6 0.430106 0.347368 0.706718
O O1 0.764722 0.140023 0.285907
O O2 0.473476 0.221288 0.683129
O O3 0.000000 0.202263 0.250000
O O4 0.710934 0.034324 0.504985
O O5 0.363026 0.109417 0.286705
O O6 0.845225 0.716337 0.575799
O O7 0.354324 0.750175 0.076363
O O8 0.881247 0.434684 0.729144
O O9 0.866827 0.387248 0.557727
O O10 0.000000 0.588306 0.750000
O O11 0.637601 0.615158 0.936517
O O12 0.000000 0.279090 0.750000
O O13 0.500000 0.406814 0.750000
#
# Coordination Sequence:
#
# PCOD8118409 Si02
#       6
#     4   2   4   4   4   4
#     4  12  29  48  77 109 153 201 251 314 381 451
#     4  12  28  52  78 104 148 196 260 320 388 444
#     4  12  28  48  78 114 148 193 255 316 377 452
#     4   9  19  35  71 105 146 195 238 290 361 443
#     4  11  22  47  75 113 153 197 245 308 379 440
#     4  10  19  39  65 105 146 196 240 291 359 443
#
# _framework density 25.943221000000001
#
# number of rings (size 3 to 8) (size 9 to 14) (size 15 to 20)
#    0.000    1.091    2.727    3.273    5.091    3.636 
#    0.000    5.455    0.000    0.000    0.000    0.000 
#    0.000    0.000    0.000    0.000    0.000    0.000 
#
# Total GULP energy -272696.282405 kJ/mol
# GULP energy per Si atom -12395.285564 kJ/mol
# Density = 2.588417 g / cm^3
# Si number density = 25.943221 Si / 1000 Ang^3
#
#
#
# Elastic Constant Matrix: (Units=GPa)
#
#
# Indices 1 2 3 4 5 6 
#
# 1 153.4900 23.0260 21.0204 0.0000 -14.9958 0.0000
# 2 23.0260 132.2978 42.2948 0.0000 -12.9600 0.0000
# 3 21.0204 42.2948 163.1935 0.0000 -16.9717 0.0000
# 4 0.0000 0.0000 0.0000 176.4336 0.0000 205.0639
# 5 -14.9958 -12.9600 -16.9717 0.0000 24.3880 0.0000
# 6 0.0000 0.0000 0.0000 205.0639 0.0000 288.9090
#
#
#
# Elastic Compliance Matrix: (Units=1/GPa)
#
#
# Indices 1 2 3 4 5 6 
#
# 1 0.007034 -0.000758 -0.000325 0.000000 0.003696 0.000000
# 2 -0.000758 0.008549 -0.001826 0.000000 0.002806 0.000000
# 3 -0.000325 -0.001826 0.007030 0.000000 0.003722 0.000000
# 4 0.000000 0.000000 0.000000 0.032382 0.000000 -0.022984
# 5 0.003696 0.002806 0.003722 0.000000 0.047358 0.000000
# 6 0.000000 0.000000 0.000000 -0.022984 0.000000 0.019775
#
#
# Mechanical properties :
#
#
# Convention : Reuss Voigt Hill
#
# Bulk Modulus (GPa) = 59.54366 69.07374 64.30870
# Shear Modulus (GPa) = 37.44039 122.12211 79.78125
#
# Velocity S-wave (km/s) = 3.80302 6.86841 5.55149
# Velocity P-wave (km/s) = 6.50272 9.46482 8.11998
#
# Compressibility (1/GPa) = 0.01679440
#
# Stress axis : x y z
#
# Youngs Moduli (GPa) = 142.15688 116.96708 142.24871
#
# Poissons Ratio (x) = 0.08870 0.04625
# Poissons Ratio (y) = 0.10780 0.25978
# Poissons Ratio (z) = 0.04623 0.21361
#
# Static dielectric constant tensor:
#      x y z
#    x 5.070590 0.000000 0.173080 
#    y 0.000000 4.456840 0.000000 
#    z 0.173080 0.000000 5.226570 
# 
# 
# High freq. dielectric constant tensor:
#      x y z
#    x 2.062600 0.000000 0.016470 
#    y 0.000000 2.028460 0.000000 
#    z 0.016470 0.000000 2.051690 
# 
# From -- ./inp_files/34535.got.cif
#   From: 2010.06.25/outbox.cif.g09.slc.cpg/sg13_18_cif.got.tgz:34535.got - 2010.06.28 04:50:58.
