data_PCOD8118020
_publ_section_title
;
Structure prediction by ZEFSAII (Michael W. Deem and Ramdas Pophale) SiO2 
 PCOD8118020
Probable space group: P 2/C
;
_chemical_formula_sum "Si O2"
_cell_formula_units_Z 26
_cell_length_a 5.237839
_cell_length_b 13.616850
_cell_length_c 18.951660
_cell_angle_alpha 90.000000
_cell_angle_beta 118.776687
_cell_angle_gamma 90.000000
_cell_volume 1184.756983
_symmetry_space_group_name_H-M "P 2/C"
_symmetry_group_IT_number 13
_symmetry_cell_setting 'monoclinic'
loop_
_space_group_symop_operation_xyz
x,y,z
-x,y,1/2-z
-x,-y,-z
x,-y,1/2+z
loop_
_atom_site_type_symbol
_atom_site_label
_atom_site_fract_x
_atom_site_fract_y
_atom_site_fract_z
Si Si1 0.894587 0.571144 0.088578
Si Si2 0.585857 0.536251 0.898990
Si Si3 0.101431 0.925721 0.615327
Si Si4 0.678060 0.090199 0.940299
Si Si5 0.796844 0.211253 0.556616
Si Si6 0.000000 0.123692 0.250000
Si Si7 0.536722 0.755488 0.876987
O O1 0.723722 0.515769 0.128476
O O2 0.894466 0.687052 0.105633
O O3 0.224603 0.530947 0.128828
O O4 0.748247 0.550676 0.994245
O O5 0.541172 0.641532 0.855907
O O6 0.184082 0.810645 0.619346
O O7 0.798942 0.946155 0.533103
O O8 0.078487 0.948341 0.695332
O O9 0.354994 0.994155 0.614224
O O10 0.365828 0.142869 0.907083
O O11 0.915272 0.160919 0.935529
O O12 0.555003 0.232683 0.464189
O O13 0.254119 0.195384 0.307717
#
# Coordination Sequence:
#
# PCOD8118020 Si02
#       7
#     4   4   4   4   4   2   4
#     4   9  17  30  51  80 112 144 182 227 283 342
#     4   9  18  30  50  78 114 149 177 224 286 339
#     4  10  23  36  55  80 119 154 199 242 298 359
#     4  10  21  36  59  83 115 157 192 245 307 349
#     4  10  19  35  58  85 116 151 193 243 297 348
#     4  12  22  38  54  80 118 164 198 248 282 374
#     4  10  22  34  54  80 121 155 193 236 291 356
#
# _framework density 21.945429000000001
#
# number of rings (size 3 to 8) (size 9 to 14) (size 15 to 20)
#    0.000    2.154    1.538    1.385    4.308    5.538 
#    0.000    0.000    0.000    0.000    0.000    1.077 
#    0.000    0.000    0.000    0.000    0.000    0.000 
#
# Total GULP energy -322356.048404 kJ/mol
# GULP energy per Si atom -12398.309554 kJ/mol
# Density = 2.189548 g / cm^3
# Si number density = 21.945429 Si / 1000 Ang^3
#
#
#
# Elastic Constant Matrix: (Units=GPa)
#
#
# Indices 1 2 3 4 5 6 
#
# 1 123.4067 41.3557 27.1875 0.0000 -22.0416 0.0000
# 2 41.3557 125.4373 32.7050 0.0000 -26.6994 0.0000
# 3 27.1875 32.7050 56.8926 0.0000 -15.1242 0.0000
# 4 0.0000 0.0000 0.0000 14.7108 0.0000 1.2984
# 5 -22.0416 -26.6994 -15.1242 0.0000 25.2670 0.0000
# 6 0.0000 0.0000 0.0000 1.2984 0.0000 41.1058
#
#
#
# Elastic Compliance Matrix: (Units=1/GPa)
#
#
# Indices 1 2 3 4 5 6 
#
# 1 0.010185 -0.001468 -0.002466 0.000000 0.005857 0.000000
# 2 -0.001468 0.011155 -0.003470 0.000000 0.008430 0.000000
# 3 -0.002466 -0.003470 0.022838 0.000000 0.007852 0.000000
# 4 0.000000 0.000000 0.000000 0.068167 0.000000 -0.002153
# 5 0.005857 0.008430 0.007852 0.000000 0.058294 0.000000
# 6 0.000000 0.000000 0.000000 -0.002153 0.000000 0.024395
#
#
# Mechanical properties :
#
#
# Convention : Reuss Voigt Hill
#
# Bulk Modulus (GPa) = 34.04951 56.47034 45.25992
# Shear Modulus (GPa) = 22.76528 29.84929 26.30728
#
# Velocity S-wave (km/s) = 3.22430 3.69204 3.46607
# Velocity P-wave (km/s) = 5.42316 6.63045 6.05696
#
# Compressibility (1/GPa) = 0.02936900
#
# Stress axis : x y z
#
# Youngs Moduli (GPa) = 98.18643 89.64464 43.78750
#
# Poissons Ratio (x) = 0.13161 0.10798
# Poissons Ratio (y) = 0.14416 0.15195
# Poissons Ratio (z) = 0.24213 0.31107
#
# Static dielectric constant tensor:
#      x y z
#    x 4.002270 0.000000 -0.143210 
#    y 0.000000 4.145610 0.000000 
#    z -0.143210 0.000000 3.510780 
# 
# 
# High freq. dielectric constant tensor:
#      x y z
#    x 1.870790 0.000000 -0.005920 
#    y 0.000000 1.868860 0.000000 
#    z -0.005920 0.000000 1.802330 
# 
# From -- ./inp_files/61120.got.cif
#   From: 2010.06.25/outbox.cif.g09.slc.cpg/sg13_31_cif.got.tgz:61120.got - 2010.06.28 04:50:58.
