data_PCOD8118710
_publ_section_title
;
Structure prediction by ZEFSAII (Michael W. Deem and Ramdas Pophale) SiO2 
 PCOD8118710
Probable space group: P 2/C
;
_chemical_formula_sum "Si O2"
_cell_formula_units_Z 24
_cell_length_a 12.920359
_cell_length_b 4.831840
_cell_length_c 26.315626
_cell_angle_alpha 90.000000
_cell_angle_beta 135.858512
_cell_angle_gamma 90.000000
_cell_volume 1144.142005
_symmetry_space_group_name_H-M "P 2/C"
_symmetry_group_IT_number 13
_symmetry_cell_setting 'monoclinic'
loop_
_space_group_symop_operation_xyz
x,y,z
-x,y,1/2-z
-x,-y,-z
x,-y,1/2+z
loop_
_atom_site_type_symbol
_atom_site_label
_atom_site_fract_x
_atom_site_fract_y
_atom_site_fract_z
Si Si1 0.338545 0.751976 0.220848
Si Si2 0.664601 0.409489 0.891556
Si Si3 0.070342 0.731434 0.721644
Si Si4 0.143622 0.904348 0.519703
Si Si5 0.980349 0.218263 0.863719
Si Si6 0.387389 0.743264 0.802424
O O1 0.401840 0.718876 0.185300
O O2 0.325510 0.439990 0.234850
O O3 0.170517 0.868086 0.159266
O O4 0.427647 0.957322 0.291970
O O5 0.789229 0.644319 0.925397
O O6 0.532073 0.574127 0.875017
O O7 0.737671 0.153111 0.946656
O O8 0.250187 0.760170 0.793912
O O9 0.000000 0.642452 0.750000
O O10 0.024380 0.521986 0.661099
O O11 0.999994 0.018804 0.677906
O O12 0.110815 0.803910 0.450867
O O13 0.000000 0.000000 0.500000
#
# Coordination Sequence:
#
# PCOD8118710 Si02
#       6
#     4   4   4   4   4   4
#     4  10  20  35  54  81 117 154 193 241 282 349
#     4  12  23  35  57  82 124 165 191 234 290 352
#     4  10  21  40  66  86 109 148 198 264 307 331
#     4  12  24  37  57  83 126 167 200 224 278 365
#     4  10  21  37  59  86 116 147 201 245 288 348
#     4  10  22  37  55  86 116 150 198 244 296 344
#
# _framework density 20.976416
#
# number of rings (size 3 to 8) (size 9 to 14) (size 15 to 20)
#    0.000    1.333    1.667    4.500    4.667    1.333 
#    0.000    0.000    0.000    6.000    0.000    0.000 
#    0.000    0.000    0.000    0.000    0.000    0.000 
#
# Total GULP energy -297382.021197 kJ/mol
# GULP energy per Si atom -12390.917550 kJ/mol
# Density = 2.092867 g / cm^3
# Si number density = 20.976416 Si / 1000 Ang^3
#
#
#
# Elastic Constant Matrix: (Units=GPa)
#
#
# Indices 1 2 3 4 5 6 
#
# 1 108.2183 14.9996 27.5538 0.0000 -0.6865 0.0000
# 2 14.9996 78.2517 4.4254 0.0000 0.2073 0.0000
# 3 27.5538 4.4254 70.6959 0.0000 9.6077 0.0000
# 4 0.0000 0.0000 0.0000 38.5114 0.0000 5.6275
# 5 -0.6865 0.2073 9.6077 0.0000 18.6498 0.0000
# 6 0.0000 0.0000 0.0000 5.6275 0.0000 26.2929
#
#
#
# Elastic Compliance Matrix: (Units=1/GPa)
#
#
# Indices 1 2 3 4 5 6 
#
# 1 0.010625 -0.001795 -0.004392 0.000000 0.002674 0.000000
# 2 -0.001795 0.013130 -0.000100 0.000000 -0.000160 0.000000
# 3 -0.004392 -0.000100 0.017081 0.000000 -0.008960 0.000000
# 4 0.000000 0.000000 0.000000 0.026805 0.000000 -0.005737
# 5 0.002674 -0.000160 -0.008960 0.000000 0.058336 0.000000
# 6 0.000000 0.000000 0.000000 -0.005737 0.000000 0.039261
#
#
# Mechanical properties :
#
#
# Convention : Reuss Voigt Hill
#
# Bulk Modulus (GPa) = 35.38598 39.01371 37.19984
# Shear Modulus (GPa) = 26.70492 30.70329 28.70411
#
# Velocity S-wave (km/s) = 3.57191 3.82999 3.70320
# Velocity P-wave (km/s) = 5.82387 6.18043 6.00479
#
# Compressibility (1/GPa) = 0.02825978
#
# Stress axis : x y z
#
# Youngs Moduli (GPa) = 94.12106 76.16430 58.54526
#
# Poissons Ratio (x) = 0.13674 0.25713
# Poissons Ratio (y) = 0.16897 0.00588
# Poissons Ratio (z) = 0.41337 0.00764
#
# Static dielectric constant tensor:
#      x y z
#    x 3.711880 0.000000 0.503700 
#    y 0.000000 3.986590 0.000000 
#    z 0.503700 0.000000 3.766880 
# 
# 
# High freq. dielectric constant tensor:
#      x y z
#    x 1.792120 0.000000 0.040790 
#    y 0.000000 1.852170 0.000000 
#    z 0.040790 0.000000 1.802380 
# 
# From -- ./inp_files/85875.got.cif
#   From: 2010.06.25/outbox.cif.g09.slc.cpg/sg13_43_cif.got.tgz:85875.got - 2010.06.28 04:50:58.
