data_PCOD8118149
_publ_section_title
;
Structure prediction by ZEFSAII (Michael W. Deem and Ramdas Pophale) SiO2 
 PCOD8118149
Probable space group: P 2/C
;
_chemical_formula_sum "Si O2"
_cell_formula_units_Z 12
_cell_length_a 7.652003
_cell_length_b 9.343601
_cell_length_c 15.599323
_cell_angle_alpha 90.000000
_cell_angle_beta 148.073286
_cell_angle_gamma 90.000000
_cell_volume 589.813386
_symmetry_space_group_name_H-M "P 2/C"
_symmetry_group_IT_number 13
_symmetry_cell_setting 'monoclinic'
loop_
_space_group_symop_operation_xyz
x,y,z
-x,y,1/2-z
-x,-y,-z
x,-y,1/2+z
loop_
_atom_site_type_symbol
_atom_site_label
_atom_site_fract_x
_atom_site_fract_y
_atom_site_fract_z
Si Si1 0.734529 0.408960 0.033554
Si Si2 0.483947 0.650674 0.839825
Si Si3 0.361973 0.157954 0.938499
O O1 0.884517 0.390567 0.281490
O O2 0.500000 0.500000 0.000000
O O3 0.704971 0.504339 0.934677
O O4 0.584115 0.249891 0.964447
O O5 0.500000 0.711208 0.750000
O O6 0.628615 0.772910 0.962519
O O7 0.000000 0.155135 0.750000
O O8 0.500000 0.000000 0.000000
#
# Coordination Sequence:
#
# PCOD8118149 Si02
#       3
#     4   4   4
#     4  10  19  36  60  85 115 156 196 236 289 357
#     4  11  22  38  60  91 121 151 197 255 298 338
#     4  11  22  40  61  84 115 159 201 239 294 369
#
# _framework density 20.345420000000001
#
# number of rings (size 3 to 8) (size 9 to 14) (size 15 to 20)
#    0.000    1.333    0.000   11.000    0.000    0.000 
#    0.000    8.333    0.000    0.000    0.000    0.000 
#    0.000    0.000    0.000    0.000    0.000    0.000 
#
# Total GULP energy -148686.837496 kJ/mol
# GULP energy per Si atom -12390.569791 kJ/mol
# Density = 2.029911 g / cm^3
# Si number density = 20.345420 Si / 1000 Ang^3
#
#
#
# Elastic Constant Matrix: (Units=GPa)
#
#
# Indices 1 2 3 4 5 6 
#
# 1 87.7469 34.7579 49.3449 0.0000 -15.6878 0.0000
# 2 34.7579 189.9900 82.0979 0.0000 -8.2231 0.0000
# 3 49.3449 82.0979 187.1221 0.0000 3.5672 0.0000
# 4 0.0000 0.0000 0.0000 38.3198 0.0000 3.9240
# 5 -15.6878 -8.2231 3.5672 0.0000 40.6598 0.0000
# 6 0.0000 0.0000 0.0000 3.9240 0.0000 14.6722
#
#
#
# Elastic Compliance Matrix: (Units=1/GPa)
#
#
# Indices 1 2 3 4 5 6 
#
# 1 0.014842 -0.000891 -0.003635 0.000000 0.005865 0.000000
# 2 -0.000891 0.006649 -0.002706 0.000000 0.001239 0.000000
# 3 -0.003635 -0.002706 0.007540 0.000000 -0.002611 0.000000
# 4 0.000000 0.000000 0.000000 0.026831 0.000000 -0.007176
# 5 0.005865 0.001239 -0.002611 0.000000 0.027337 0.000000
# 6 0.000000 0.000000 0.000000 -0.007176 0.000000 0.070075
#
#
# Mechanical properties :
#
#
# Convention : Reuss Voigt Hill
#
# Bulk Modulus (GPa) = 68.64539 88.58449 78.61494
# Shear Modulus (GPa) = 28.96983 38.64091 33.80537
#
# Velocity S-wave (km/s) = 3.77755 4.36276 4.08066
# Velocity P-wave (km/s) = 7.26910 8.30741 7.80554
#
# Compressibility (1/GPa) = 0.01456762
#
# Stress axis : x y z
#
# Youngs Moduli (GPa) = 67.37652 150.39128 132.63162
#
# Poissons Ratio (x) = 0.13395 0.48211
# Poissons Ratio (y) = 0.06001 0.35891
# Poissons Ratio (z) = 0.24491 0.40697
#
# Static dielectric constant tensor:
#      x y z
#    x 3.677890 0.000000 -0.168040 
#    y 0.000000 3.989270 0.000000 
#    z -0.168040 0.000000 4.175330 
# 
# 
# High freq. dielectric constant tensor:
#      x y z
#    x 1.771920 0.000000 0.004830 
#    y 0.000000 1.793080 0.000000 
#    z 0.004830 0.000000 1.823560 
# 
# From -- ./inp_files/10907.got.cif
#   From: 2010.06.25/outbox.cif.g09.slc.cpg/sg13_6_cif.got.tgz:10907.got - 2010.06.28 04:50:58.
