data_PCOD8118336
_publ_section_title
;
Structure prediction by ZEFSAII (Michael W. Deem and Ramdas Pophale) SiO2 
 PCOD8118336
Probable space group: P 2/C
;
_chemical_formula_sum "Si O2"
_cell_formula_units_Z 26
_cell_length_a 9.933234
_cell_length_b 16.208139
_cell_length_c 15.982918
_cell_angle_alpha 90.000000
_cell_angle_beta 149.343774
_cell_angle_gamma 90.000000
_cell_volume 1312.057424
_symmetry_space_group_name_H-M "P 2/C"
_symmetry_group_IT_number 13
_symmetry_cell_setting 'monoclinic'
loop_
_space_group_symop_operation_xyz
x,y,z
-x,y,1/2-z
-x,-y,-z
x,-y,1/2+z
loop_
_atom_site_type_symbol
_atom_site_label
_atom_site_fract_x
_atom_site_fract_y
_atom_site_fract_z
Si Si1 0.744072 0.513875 0.070030
Si Si2 0.907027 0.747315 0.789706
Si Si3 0.372528 0.366969 0.591976
Si Si4 0.389566 0.319852 0.950755
Si Si5 0.212045 0.917759 0.693506
Si Si6 0.809347 0.053232 0.511407
Si Si7 0.000000 0.174909 0.750000
O O1 0.774782 0.613756 0.080018
O O2 0.000000 0.474318 0.250000
O O3 0.500000 0.500000 0.000000
O O4 0.713034 0.463448 0.966444
O O5 0.670202 0.684153 0.646535
O O6 0.805155 0.823212 0.789652
O O7 0.000000 0.782628 0.750000
O O8 0.131452 0.697155 0.958720
O O9 0.500000 0.356168 0.750000
O O10 0.581991 0.347828 0.630545
O O11 0.257462 0.230850 0.878426
O O12 0.173037 0.916913 0.573800
O O13 0.500026 0.956311 0.872371
O O14 0.972769 0.967989 0.609353
O O15 0.963458 0.119661 0.648847
#
# Coordination Sequence:
#
# PCOD8118336 Si02
#       7
#     4   4   4   4   4   4   2
#     4  10  19  38  62  84 122 163 203 249 306 363
#     4  10  21  40  63  87 123 163 206 249 311 368
#     4  10  22  38  60  91 121 158 207 253 307 373
#     4  10  21  39  61  89 121 162 201 255 305 359
#     4  10  22  44  60  90 123 166 199 259 309 360
#     4  10  24  40  64  88 127 157 208 251 310 369
#     4  12  22  38  64  92 118 158 212 248 302 372
#
# _framework density 19.816203999999999
#
# number of rings (size 3 to 8) (size 9 to 14) (size 15 to 20)
#    0.000    1.846    2.308    2.308    3.231    3.077 
#    2.769    8.462    0.000    0.000    0.000    0.000 
#    0.000    0.000    0.000    0.000    0.000    0.000 
#
# Total GULP energy -322268.545565 kJ/mol
# GULP energy per Si atom -12394.944060 kJ/mol
# Density = 1.977110 g / cm^3
# Si number density = 19.816204 Si / 1000 Ang^3
#
#
#
# Elastic Constant Matrix: (Units=GPa)
#
#
# Indices 1 2 3 4 5 6 
#
# 1 58.5284 46.6259 50.9896 0.0000 4.7911 0.0000
# 2 46.6259 108.9560 52.3478 0.0000 -9.2583 0.0000
# 3 50.9896 52.3478 136.6583 0.0000 -2.6712 0.0000
# 4 0.0000 0.0000 0.0000 24.3628 0.0000 3.8481
# 5 4.7911 -9.2583 -2.6712 0.0000 32.9097 0.0000
# 6 0.0000 0.0000 0.0000 3.8481 0.0000 25.5782
#
#
#
# Elastic Compliance Matrix: (Units=1/GPa)
#
#
# Indices 1 2 3 4 5 6 
#
# 1 0.034363 -0.011295 -0.008668 0.000000 -0.008884 0.000000
# 2 -0.011295 0.015228 -0.001505 0.000000 0.005806 0.000000
# 3 -0.008668 -0.001505 0.011163 0.000000 0.001745 0.000000
# 4 0.000000 0.000000 0.000000 0.042045 0.000000 -0.006326
# 5 -0.008884 0.005806 0.001745 0.000000 0.033455 0.000000
# 6 0.000000 0.000000 0.000000 -0.006326 0.000000 0.040048
#
#
# Mechanical properties :
#
#
# Convention : Reuss Voigt Hill
#
# Bulk Modulus (GPa) = 56.12960 67.11882 61.62421
# Shear Modulus (GPa) = 22.20468 26.84874 24.52671
#
# Velocity S-wave (km/s) = 3.35107 3.68487 3.52193
# Velocity P-wave (km/s) = 6.58479 7.21447 6.90681
#
# Compressibility (1/GPa) = 0.01781591
#
# Stress axis : x y z
#
# Youngs Moduli (GPa) = 29.10107 65.66747 89.58523
#
# Poissons Ratio (x) = 0.74173 0.77656
# Poissons Ratio (y) = 0.32870 0.13485
# Poissons Ratio (z) = 0.25226 0.09885
#
# Static dielectric constant tensor:
#      x y z
#    x 3.472960 0.000000 0.216250 
#    y 0.000000 3.978550 0.000000 
#    z 0.216250 0.000000 3.792270 
# 
# 
# High freq. dielectric constant tensor:
#      x y z
#    x 1.751240 0.000000 0.014710 
#    y 0.000000 1.781410 0.000000 
#    z 0.014710 0.000000 1.786580 
# 
# From -- ./inp_files/66800.got.cif
#   From: 2010.06.25/outbox.cif.g09.slc.cpg/sg13_34_cif.got.tgz:66800.got - 2010.06.28 04:50:58.
