data_PCOD8118373
_publ_section_title
;
Structure prediction by ZEFSAII (Michael W. Deem and Ramdas Pophale) SiO2 
 PCOD8118373
Probable space group: P 2/C
;
_chemical_formula_sum "Si O2"
_cell_formula_units_Z 32
_cell_length_a 8.825544
_cell_length_b 11.983788
_cell_length_c 30.818037
_cell_angle_alpha 90.000000
_cell_angle_beta 29.542761
_cell_angle_gamma 90.000000
_cell_volume 1607.132873
_symmetry_space_group_name_H-M "P 2/C"
_symmetry_group_IT_number 13
_symmetry_cell_setting 'monoclinic'
loop_
_space_group_symop_operation_xyz
x,y,z
-x,y,1/2-z
-x,-y,-z
x,-y,1/2+z
loop_
_atom_site_type_symbol
_atom_site_label
_atom_site_fract_x
_atom_site_fract_y
_atom_site_fract_z
Si Si1 0.854845 0.019535 0.489904
Si Si2 0.861068 0.762099 0.611678
Si Si3 0.134741 0.013559 0.171647
Si Si4 0.135287 0.882968 0.341944
Si Si5 0.162797 0.764017 0.779955
Si Si6 0.134088 0.520523 0.919742
Si Si7 0.138126 0.518279 0.760916
Si Si8 0.865466 0.628744 0.158474
O O1 0.902928 0.148455 0.466034
O O2 0.497888 0.994016 0.580171
O O3 0.000000 0.000000 0.500000
O O4 0.017818 0.939085 0.414998
O O5 0.518700 0.783662 0.678410
O O6 0.867275 0.771571 0.661370
O O7 0.977949 0.640884 0.568523
O O8 0.000000 0.963533 0.250000
O O9 0.043940 0.143121 0.191249
O O10 0.995112 0.945246 0.167018
O O11 0.500000 0.891406 0.250000
O O12 0.017347 0.755685 0.369902
O O13 0.035176 0.645014 0.795859
O O14 0.497771 0.512505 0.831399
O O15 0.008119 0.429233 0.916882
O O16 0.000000 0.500000 0.000000
O O17 0.007867 0.437363 0.831051
O O18 0.000000 0.476167 0.750000
O O19 0.500000 0.623260 0.250000
#
# Coordination Sequence:
#
# PCOD8118373 Si02
#       8
#     4   4   4   4   4   4   4   4
#     4  12  26  42  63  93 126 163 209 256 310 374
#     4  10  20  38  67  91 120 162 205 252 311 371
#     4  12  25  43  63  91 126 162 209 259 311 368
#     4  11  23  42  65  91 127 166 205 252 312 374
#     4  10  19  38  67  91 120 158 205 258 308 362
#     4  10  21  40  62  90 122 159 203 253 303 361
#     4  10  20  39  62  91 119 159 206 249 303 363
#     4   9  20  40  62  85 121 163 199 241 303 371
#
# _framework density 19.911235000000001
#
# number of rings (size 3 to 8) (size 9 to 14) (size 15 to 20)
#    0.000    1.500    2.500    3.000    1.750    1.500 
#    4.500    0.625    0.000    0.000    0.000    0.000 
#    0.000    0.000    0.000    0.000    0.000    0.000 
#
# Total GULP energy -396909.039441 kJ/mol
# GULP energy per Si atom -12403.407483 kJ/mol
# Density = 1.986592 g / cm^3
# Si number density = 19.911235 Si / 1000 Ang^3
#
#
#
# Elastic Constant Matrix: (Units=GPa)
#
#
# Indices 1 2 3 4 5 6 
#
# 1 133.6376 62.6384 44.1323 0.0000 21.8722 0.0000
# 2 62.6384 149.9254 54.3019 0.0000 12.8533 0.0000
# 3 44.1323 54.3019 103.1402 0.0000 16.9067 0.0000
# 4 0.0000 0.0000 0.0000 -2.8824 0.0000 0.7013
# 5 21.8722 12.8533 16.9067 0.0000 39.5168 0.0000
# 6 0.0000 0.0000 0.0000 0.7013 0.0000 25.4809
#
#
#
# Elastic Compliance Matrix: (Units=1/GPa)
#
#
# Indices 1 2 3 4 5 6 
#
# 1 0.010300 -0.003223 -0.002095 0.000000 -0.003757 0.000000
# 2 -0.003223 0.009279 -0.003553 0.000000 0.000286 0.000000
# 3 -0.002095 -0.003553 0.012994 0.000000 -0.003244 0.000000
# 4 0.000000 0.000000 0.000000 -0.344628 0.000000 0.009485
# 5 -0.003757 0.000286 -0.003244 0.000000 0.028680 0.000000
# 6 0.000000 0.000000 0.000000 0.009485 0.000000 0.038984
#
#
# Mechanical properties :
#
#
# Convention : Reuss Voigt Hill
#
# Bulk Modulus (GPa) = 67.42098 78.76092 73.09095
# Shear Modulus (GPa) = -22.55246 27.46509 2.45632
#
# Velocity S-wave (km/s) = -3.36914 3.71803 1.11190
# Velocity P-wave (km/s) = 4.33584 7.62060 6.19972
#
# Compressibility (1/GPa) = 0.01483218
#
# Stress axis : x y z
#
# Youngs Moduli (GPa) = 97.08735 107.77302 76.95643
#
# Poissons Ratio (x) = 0.34730 0.16121
# Poissons Ratio (y) = 0.31287 0.27343
# Poissons Ratio (z) = 0.20338 0.38293
#
# Static dielectric constant tensor:
#      x y z
#    x 3.492650 0.000000 0.398830 
#    y 0.000000 3.651820 0.000000 
#    z 0.398830 0.000000 3.384920 
# 
# 
# High freq. dielectric constant tensor:
#      x y z
#    x 1.786110 0.000000 0.016260 
#    y 0.000000 1.788580 0.000000 
#    z 0.016260 0.000000 1.766070 
# 
# From -- ./inp_files/96105.got.cif
#   From: 2010.06.25/outbox.cif.g09.slc.cpg/sg13_49_cif.got.tgz:96105.got - 2010.06.28 04:50:58.
