data_PCOD8118489
_publ_section_title
;
Structure prediction by ZEFSAII (Michael W. Deem and Ramdas Pophale) SiO2 
 PCOD8118489
Probable space group: P 2/C
;
_chemical_formula_sum "Si O2"
_cell_formula_units_Z 24
_cell_length_a 24.066109
_cell_length_b 7.569009
_cell_length_c 18.467412
_cell_angle_alpha 90.000000
_cell_angle_beta 157.881361
_cell_angle_gamma 90.000000
_cell_volume 1266.617578
_symmetry_space_group_name_H-M "P 2/C"
_symmetry_group_IT_number 13
_symmetry_cell_setting 'monoclinic'
loop_
_space_group_symop_operation_xyz
x,y,z
-x,y,1/2-z
-x,-y,-z
x,-y,1/2+z
loop_
_atom_site_type_symbol
_atom_site_label
_atom_site_fract_x
_atom_site_fract_y
_atom_site_fract_z
Si Si1 0.152549 0.484458 0.596010
Si Si2 0.843072 0.766027 0.018811
Si Si3 0.850787 0.156054 0.992000
Si Si4 0.195318 0.504394 0.306654
Si Si5 0.802459 0.193551 0.090389
Si Si6 0.326297 0.824286 0.545307
O O1 0.197896 0.608538 0.584263
O O2 0.203660 0.282375 0.639101
O O3 0.233650 0.536447 0.768802
O O4 0.979062 0.511367 0.395333
O O5 0.000000 0.747168 0.250000
O O6 0.716740 0.759995 0.926599
O O7 0.834902 0.945690 0.961143
O O8 0.756959 0.208573 0.950905
O O9 0.022616 0.198674 0.203609
O O10 0.262391 0.353303 0.439898
O O11 0.264685 0.691545 0.410782
O O12 0.745000 0.014335 0.057490
O O13 0.500000 0.838289 0.750000
#
# Coordination Sequence:
#
# PCOD8118489 Si02
#       6
#     4   4   4   4   4   4
#     4  10  20  31  56  85 112 137 172 228 277 316
#     4  11  18  34  57  79 103 142 185 222 262 313
#     4   9  16  30  54  81 101 131 180 224 262 309
#     4  10  20  34  52  84 114 140 173 222 277 319
#     4   9  17  32  54  75 104 137 178 220 262 312
#     4  11  22  36  55  79 108 143 183 223 262 315
#
# _framework density 18.948101999999999
#
# number of rings (size 3 to 8) (size 9 to 14) (size 15 to 20)
#    0.000    2.000    5.000    1.000    2.333    2.000 
#    0.000    5.833    0.000    5.000    0.000    0.000 
#    0.000    0.000    0.000    0.000    0.000    0.000 
#
# Total GULP energy -297393.461751 kJ/mol
# GULP energy per Si atom -12391.394240 kJ/mol
# Density = 1.890498 g / cm^3
# Si number density = 18.948102 Si / 1000 Ang^3
#
#
#
# Elastic Constant Matrix: (Units=GPa)
#
#
# Indices 1 2 3 4 5 6 
#
# 1 89.1057 43.5702 35.3113 0.0000 -7.8675 0.0000
# 2 43.5702 113.0656 37.4501 0.0000 -11.6755 0.0000
# 3 35.3113 37.4501 31.9366 0.0000 -9.8691 0.0000
# 4 0.0000 0.0000 0.0000 2.2577 0.0000 -15.1796
# 5 -7.8675 -11.6755 -9.8691 0.0000 16.9632 0.0000
# 6 0.0000 0.0000 0.0000 -15.1796 0.0000 15.9192
#
#
#
# Elastic Compliance Matrix: (Units=1/GPa)
#
#
# Indices 1 2 3 4 5 6 
#
# 1 0.020272 -0.000641 -0.023036 0.000000 -0.004441 0.000000
# 2 -0.000641 0.014482 -0.016197 0.000000 0.000247 0.000000
# 3 -0.023036 -0.016197 0.084159 0.000000 0.027131 0.000000
# 4 0.000000 0.000000 0.000000 -0.081856 0.000000 -0.078053
# 5 -0.004441 0.000247 0.027131 0.000000 0.072846 0.000000
# 6 0.000000 0.000000 0.000000 -0.078053 0.000000 -0.011609
#
#
# Mechanical properties :
#
#
# Convention : Reuss Voigt Hill
#
# Bulk Modulus (GPa) = 25.53188 51.86345 38.69767
# Shear Modulus (GPa) = 26.16477 14.87979 20.52228
#
# Velocity S-wave (km/s) = 3.72003 2.80535 3.29459
# Velocity P-wave (km/s) = 5.65291 6.15825 5.91098
#
# Compressibility (1/GPa) = 0.03916672
#
# Stress axis : x y z
#
# Youngs Moduli (GPa) = 49.32796 69.05282 11.88223
#
# Poissons Ratio (x) = 0.04424 0.27371
# Poissons Ratio (y) = 0.03160 0.19246
# Poissons Ratio (z) = 1.13630 1.11845
#
# Static dielectric constant tensor:
#      x y z
#    x 4.026630 0.000000 -0.538550 
#    y 0.000000 3.708200 0.000000 
#    z -0.538550 0.000000 3.270920 
# 
# 
# High freq. dielectric constant tensor:
#      x y z
#    x 1.739260 0.000000 -0.014860 
#    y 0.000000 1.751050 0.000000 
#    z -0.014860 0.000000 1.674540 
# 
# From -- ./inp_files/71858.got.cif
#   From: 2010.06.25/outbox.cif.g09.slc.cpg/sg13_36_cif.got.tgz:71858.got - 2010.06.28 04:50:58.
