data_PCOD8118315
_publ_section_title
;
Structure prediction by ZEFSAII (Michael W. Deem and Ramdas Pophale) SiO2 
 PCOD8118315
Probable space group: P 2/C
;
_chemical_formula_sum "Si O2"
_cell_formula_units_Z 30
_cell_length_a 11.635564
_cell_length_b 14.102531
_cell_length_c 9.515864
_cell_angle_alpha 90.000000
_cell_angle_beta 83.635662
_cell_angle_gamma 90.000000
_cell_volume 1551.843555
_symmetry_space_group_name_H-M "P 2/C"
_symmetry_group_IT_number 13
_symmetry_cell_setting 'monoclinic'
loop_
_space_group_symop_operation_xyz
x,y,z
-x,y,1/2-z
-x,-y,-z
x,-y,1/2+z
loop_
_atom_site_type_symbol
_atom_site_label
_atom_site_fract_x
_atom_site_fract_y
_atom_site_fract_z
Si Si1 0.937124 0.873035 0.623730
Si Si2 0.424618 0.614774 0.393685
Si Si3 0.049016 0.384184 0.971976
Si Si4 0.587651 0.597336 0.610557
Si Si5 0.000000 0.473165 0.250000
Si Si6 0.905043 0.918518 0.149374
Si Si7 0.194275 0.296241 0.493584
Si Si8 0.226626 0.742453 0.310236
O O1 0.842816 0.804104 0.567727
O O2 0.000000 0.825084 0.750000
O O3 0.042535 0.901479 0.510073
O O4 0.872050 0.970948 0.676144
O O5 0.500000 0.597327 0.250000
O O6 0.512445 0.647797 0.500643
O O7 0.370774 0.510298 0.435831
O O8 0.331812 0.698277 0.384022
O O9 0.076486 0.464475 0.849875
O O10 0.111550 0.290682 0.909235
O O11 0.081880 0.411879 0.130623
O O12 0.911942 0.368174 0.994025
O O13 0.500000 0.599339 0.750000
O O14 0.702907 0.660154 0.615466
O O15 0.786648 0.856760 0.182835
O O16 0.000000 0.883968 0.250000
O O17 0.236810 0.288946 0.648036
#
# Coordination Sequence:
#
# PCOD8118315 Si02
#       8
#     4   4   4   4   2   4   4   4
#     4  10  22  36  59  90 129 157 194 243 308 376
#     4  10  22  41  60  87 115 163 212 244 290 354
#     4  11  23  37  54  88 121 156 195 238 307 367
#     4  10  24  42  61  86 121 158 208 257 299 343
#     4  10  24  36  46  78 132 158 184 230 300 372
#     4  10  19  38  59  90 126 161 191 241 305 379
#     4  12  22  38  63  88 121 158 204 253 298 364
#     4  12  21  37  66  87 120 158 207 248 293 371
#
# _framework density 19.331845999999999
#
# number of rings (size 3 to 8) (size 9 to 14) (size 15 to 20)
#    0.000    1.333    5.333    0.000    4.667    2.133 
#    0.000    0.000    0.000    1.600    0.000    0.000 
#    0.000    0.000    0.000    0.000    0.000    0.000 
#
# Total GULP energy -371705.757823 kJ/mol
# GULP energy per Si atom -12390.191927 kJ/mol
# Density = 1.928785 g / cm^3
# Si number density = 19.331846 Si / 1000 Ang^3
#
#
#
# Elastic Constant Matrix: (Units=GPa)
#
#
# Indices 1 2 3 4 5 6 
#
# 1 93.1148 45.5578 18.3817 0.0000 5.6607 0.0000
# 2 45.5578 103.7749 16.0979 0.0000 7.1959 0.0000
# 3 18.3817 16.0979 105.9476 0.0000 8.5704 0.0000
# 4 0.0000 0.0000 0.0000 26.3517 0.0000 5.8275
# 5 5.6607 7.1959 8.5704 0.0000 29.5048 0.0000
# 6 0.0000 0.0000 0.0000 5.8275 0.0000 31.3255
#
#
#
# Elastic Compliance Matrix: (Units=1/GPa)
#
#
# Indices 1 2 3 4 5 6 
#
# 1 0.013932 -0.005832 -0.001464 0.000000 -0.000825 0.000000
# 2 -0.005832 0.012429 -0.000739 0.000000 -0.001698 0.000000
# 3 -0.001464 -0.000739 0.010003 0.000000 -0.002444 0.000000
# 4 0.000000 0.000000 0.000000 0.039576 0.000000 -0.007362
# 5 -0.000825 -0.001698 -0.002444 0.000000 0.035175 0.000000
# 6 0.000000 0.000000 0.000000 -0.007362 0.000000 0.033292
#
#
# Mechanical properties :
#
#
# Convention : Reuss Voigt Hill
#
# Bulk Modulus (GPa) = 49.27900 51.43467 50.35684
# Shear Modulus (GPa) = 29.89667 32.28975 31.09321
#
# Velocity S-wave (km/s) = 3.93682 4.09135 4.01483
# Velocity P-wave (km/s) = 6.79788 6.99877 6.89906
#
# Compressibility (1/GPa) = 0.02029262
#
# Stress axis : x y z
#
# Youngs Moduli (GPa) = 71.77719 80.45786 99.97266
#
# Poissons Ratio (x) = 0.46922 0.14639
# Poissons Ratio (y) = 0.41859 0.07391
# Poissons Ratio (z) = 0.10510 0.05948
#
# Static dielectric constant tensor:
#      x y z
#    x 3.146970 0.000000 -0.017250 
#    y 0.000000 3.694510 0.000000 
#    z -0.017250 0.000000 3.793220 
# 
# 
# High freq. dielectric constant tensor:
#      x y z
#    x 1.707070 0.000000 0.002470 
#    y 0.000000 1.748350 0.000000 
#    z 0.002470 0.000000 1.773770 
# 
# From -- ./inp_files/16504.got.cif
#   From: 2010.06.25/outbox.cif.g09.slc.cpg/sg13_9_cif.got.tgz:16504.got - 2010.06.28 04:50:58.
