data_PCOD8118253
_publ_section_title
;
Structure prediction by ZEFSAII (Michael W. Deem and Ramdas Pophale) SiO2 
 PCOD8118253
Probable space group: P 2/C
;
_chemical_formula_sum "Si O2"
_cell_formula_units_Z 26
_cell_length_a 9.124288
_cell_length_b 17.334573
_cell_length_c 8.798665
_cell_angle_alpha 90.000000
_cell_angle_beta 75.972491
_cell_angle_gamma 90.000000
_cell_volume 1350.146804
_symmetry_space_group_name_H-M "P 2/C"
_symmetry_group_IT_number 13
_symmetry_cell_setting 'monoclinic'
loop_
_space_group_symop_operation_xyz
x,y,z
-x,y,1/2-z
-x,-y,-z
x,-y,1/2+z
loop_
_atom_site_type_symbol
_atom_site_label
_atom_site_fract_x
_atom_site_fract_y
_atom_site_fract_z
Si Si1 0.757429 0.599963 0.414324
Si Si2 0.171802 0.228987 0.704913
Si Si3 0.500000 0.988037 0.750000
Si Si4 0.599856 0.894573 0.454315
Si Si5 0.614732 0.769696 0.090725
Si Si6 0.840556 0.540516 0.722043
Si Si7 0.438479 0.631378 0.601109
O O1 0.807131 0.688152 0.380342
O O2 0.833032 0.563795 0.547474
O O3 0.819433 0.551788 0.253698
O O4 0.574956 0.594107 0.469260
O O5 0.264610 0.166470 0.584246
O O6 0.223345 0.225661 0.868121
O O7 0.000000 0.203616 0.750000
O O8 0.385192 0.039643 0.678508
O O9 0.602267 0.933707 0.618037
O O10 0.439713 0.851664 0.462186
O O11 0.500000 0.739881 0.250000
O O12 0.623512 0.709709 0.953329
O O13 0.703124 0.574637 0.855491
O O14 0.000000 0.569158 0.750000
O O15 0.500000 0.653718 0.750000
#
# Coordination Sequence:
#
# PCOD8118253 Si02
#       7
#     4   4   2   4   4   4   4
#     4  11  23  41  58  83 115 164 205 256 305 354
#     4  11  23  39  63  88 125 162 206 247 306 360
#     4  10  20  36  72  92 126 150 200 246 288 362
#     4  10  20  40  64  98 117 160 199 242 296 360
#     4  10  19  37  62  84 116 152 201 238 293 350
#     4  11  25  38  56  84 120 154 210 256 316 356
#     4  10  22  38  59  85 113 153 202 258 301 354
#
# _framework density 19.257165000000001
#
# number of rings (size 3 to 8) (size 9 to 14) (size 15 to 20)
#    0.000    1.538    5.385    1.385    5.385    0.000 
#    0.000    0.769    0.000    0.000    0.000    0.000 
#    0.000    0.000    0.000    0.000    0.000    0.000 
#
# Total GULP energy -322361.247920 kJ/mol
# GULP energy per Si atom -12398.509535 kJ/mol
# Density = 1.921333 g / cm^3
# Si number density = 19.257165 Si / 1000 Ang^3
#
#
#
# Elastic Constant Matrix: (Units=GPa)
#
#
# Indices 1 2 3 4 5 6 
#
# 1 129.2495 45.5017 33.0988 0.0000 9.6297 0.0000
# 2 45.5017 136.5519 63.9489 0.0000 4.3672 0.0000
# 3 33.0988 63.9489 85.6714 0.0000 8.5820 0.0000
# 4 0.0000 0.0000 0.0000 39.1785 0.0000 2.4321
# 5 9.6297 4.3672 8.5820 0.0000 17.8155 0.0000
# 6 0.0000 0.0000 0.0000 2.4321 0.0000 14.7439
#
#
#
# Elastic Compliance Matrix: (Units=1/GPa)
#
#
# Indices 1 2 3 4 5 6 
#
# 1 0.009186 -0.002235 -0.001511 0.000000 -0.003689 0.000000
# 2 -0.002235 0.011834 -0.008196 0.000000 0.002255 0.000000
# 3 -0.001511 -0.008196 0.019008 0.000000 -0.006331 0.000000
# 4 0.000000 0.000000 0.000000 0.025788 0.000000 -0.004254
# 5 -0.003689 0.002255 -0.006331 0.000000 0.060622 0.000000
# 6 0.000000 0.000000 0.000000 -0.004254 0.000000 0.068526
#
#
# Mechanical properties :
#
#
# Convention : Reuss Voigt Hill
#
# Bulk Modulus (GPa) = 61.94211 70.73019 66.33615
# Shear Modulus (GPa) = 22.29855 28.27579 25.28717
#
# Velocity S-wave (km/s) = 3.40654 3.83603 3.62765
# Velocity P-wave (km/s) = 6.90711 7.51194 7.21587
#
# Compressibility (1/GPa) = 0.01614411
#
# Stress axis : x y z
#
# Youngs Moduli (GPa) = 108.86526 84.50101 52.60921
#
# Poissons Ratio (x) = 0.18889 0.07948
# Poissons Ratio (y) = 0.24335 0.43118
# Poissons Ratio (z) = 0.16446 0.69256
#
# Static dielectric constant tensor:
#      x y z
#    x 3.600540 0.000000 0.102690 
#    y 0.000000 3.576580 0.000000 
#    z 0.102690 0.000000 3.567560 
# 
# 
# High freq. dielectric constant tensor:
#      x y z
#    x 1.735400 0.000000 0.010880 
#    y 0.000000 1.752780 0.000000 
#    z 0.010880 0.000000 1.746830 
# 
# From -- ./inp_files/13079.got.cif
#   From: 2010.06.25/outbox.cif.g09.slc.cpg/sg13_7_cif.got.tgz:13079.got - 2010.06.28 04:50:58.
