data_PCOD8118028
_publ_section_title
;
Structure prediction by ZEFSAII (Michael W. Deem and Ramdas Pophale) SiO2 
 PCOD8118028
Probable space group: P 2/C
;
_chemical_formula_sum "Si O2"
_cell_formula_units_Z 28
_cell_length_a 13.438147
_cell_length_b 9.616798
_cell_length_c 12.115230
_cell_angle_alpha 90.000000
_cell_angle_beta 59.794974
_cell_angle_gamma 90.000000
_cell_volume 1353.104135
_symmetry_space_group_name_H-M "P 2/C"
_symmetry_group_IT_number 13
_symmetry_cell_setting 'monoclinic'
loop_
_space_group_symop_operation_xyz
x,y,z
-x,y,1/2-z
-x,-y,-z
x,-y,1/2+z
loop_
_atom_site_type_symbol
_atom_site_label
_atom_site_fract_x
_atom_site_fract_y
_atom_site_fract_z
Si Si1 0.825806 0.923381 0.063502
Si Si2 0.587092 0.679811 0.941167
Si Si3 0.339337 0.385885 0.636963
Si Si4 0.372733 0.866018 0.776643
Si Si5 0.778892 0.650880 0.512557
Si Si6 0.713096 0.657065 0.090720
Si Si7 0.024926 0.153154 0.612384
O O1 0.799866 0.781662 0.012349
O O2 0.905238 0.878987 0.121094
O O3 0.709663 0.999553 0.170809
O O4 0.893516 0.018464 0.939508
O O5 0.654796 0.551929 0.846286
O O6 0.622341 0.819287 0.855439
O O7 0.450922 0.662840 0.006682
O O8 0.611720 0.674436 0.058649
O O9 0.234386 0.345105 0.613977
O O10 0.330086 0.312312 0.760645
O O11 0.500000 0.905318 0.750000
O O12 0.324405 0.737211 0.874216
O O13 0.776064 0.491109 0.552603
O O14 0.902437 0.716526 0.478368
O O15 0.000000 0.191407 0.750000
#
# Coordination Sequence:
#
# PCOD8118028 Si02
#       7
#     4   4   4   4   4   4   4
#     4  10  25  41  62  92 122 165 206 265 317 373
#     4  10  21  33  61  90 128 172 202 250 310 373
#     4  10  19  35  58  93 127 167 201 256 310 364
#     4  11  21  41  62  91 127 169 213 248 313 393
#     4  10  21  38  66  90 119 164 214 259 313 374
#     4  11  22  38  58  95 129 153 211 265 312 368
#     4  10  22  45  66  82 118 167 213 256 316 381
#
# _framework density 20.693159999999999
#
# number of rings (size 3 to 8) (size 9 to 14) (size 15 to 20)
#    0.000    1.714    2.857    1.286    2.000    1.714 
#    0.000    2.143    0.000    0.000    0.000    0.000 
#    0.000    0.000    0.000    0.000    0.000    0.000 
#
# Total GULP energy -347083.972062 kJ/mol
# GULP energy per Si atom -12395.856145 kJ/mol
# Density = 2.064606 g / cm^3
# Si number density = 20.693160 Si / 1000 Ang^3
#
#
#
# Elastic Constant Matrix: (Units=GPa)
#
#
# Indices 1 2 3 4 5 6 
#
# 1 104.5081 60.7186 32.4073 0.0000 -15.3937 0.0000
# 2 60.7186 121.3011 17.4601 0.0000 -8.9214 0.0000
# 3 32.4073 17.4601 62.8286 0.0000 13.1829 0.0000
# 4 0.0000 0.0000 0.0000 -6.1909 0.0000 -0.4673
# 5 -15.3937 -8.9214 13.1829 0.0000 25.6209 0.0000
# 6 0.0000 0.0000 0.0000 -0.4673 0.0000 27.8301
#
#
#
# Elastic Compliance Matrix: (Units=1/GPa)
#
#
# Indices 1 2 3 4 5 6 
#
# 1 0.019231 -0.006934 -0.011109 0.000000 0.014856 0.000000
# 2 -0.006934 0.011631 0.000413 0.000000 -0.000329 0.000000
# 3 -0.011109 0.000413 0.025674 0.000000 -0.019741 0.000000
# 4 0.000000 0.000000 0.000000 -0.161324 0.000000 -0.002709
# 5 0.014856 -0.000329 -0.019741 0.000000 0.057999 0.000000
# 6 0.000000 0.000000 0.000000 -0.002709 0.000000 0.035887
#
#
# Mechanical properties :
#
#
# Convention : Reuss Voigt Hill
#
# Bulk Modulus (GPa) = 47.00289 56.64552 51.82421
# Shear Modulus (GPa) = 158.98624 21.32216 90.15420
#
# Velocity S-wave (km/s) = 8.77480 3.21346 6.60770
# Velocity P-wave (km/s) = 11.19939 6.41887 9.12766
#
# Compressibility (1/GPa) = 0.02127529
#
# Stress axis : x y z
#
# Youngs Moduli (GPa) = 52.00052 85.97471 38.95043
#
# Poissons Ratio (x) = 0.59618 0.43271
# Poissons Ratio (y) = 0.36059 -0.01611
# Poissons Ratio (z) = 0.57769 -0.03555
#
# Static dielectric constant tensor:
#      x y z
#    x 3.765820 0.000000 0.024650 
#    y 0.000000 3.828830 0.000000 
#    z 0.024650 0.000000 3.532340 
# 
# 
# High freq. dielectric constant tensor:
#      x y z
#    x 1.806670 0.000000 0.004910 
#    y 0.000000 1.810390 0.000000 
#    z 0.004910 0.000000 1.800180 
# 
# From -- ./inp_files/36343.got.cif
#   From: 2010.06.25/outbox.cif.g09.slc.cpg/sg13_19_cif.got.tgz:36343.got - 2010.06.28 04:50:58.
