data_PCOD8118325
_publ_section_title
;
Structure prediction by ZEFSAII (Michael W. Deem and Ramdas Pophale) SiO2 
 PCOD8118325
Probable space group: P 2/C
;
_chemical_formula_sum "Si O2"
_cell_formula_units_Z 20
_cell_length_a 19.414978
_cell_length_b 10.675888
_cell_length_c 12.838349
_cell_angle_alpha 90.000000
_cell_angle_beta 21.942586
_cell_angle_gamma 90.000000
_cell_volume 994.367258
_symmetry_space_group_name_H-M "P 2/C"
_symmetry_group_IT_number 13
_symmetry_cell_setting 'monoclinic'
loop_
_space_group_symop_operation_xyz
x,y,z
-x,y,1/2-z
-x,-y,-z
x,-y,1/2+z
loop_
_atom_site_type_symbol
_atom_site_label
_atom_site_fract_x
_atom_site_fract_y
_atom_site_fract_z
Si Si1 0.500000 0.326444 0.750000
Si Si2 0.291211 0.105553 0.352999
Si Si3 0.109304 0.381625 0.309252
Si Si4 0.374575 0.172717 0.727900
Si Si5 0.009859 0.122550 0.560096
Si Si6 0.000000 0.707704 0.750000
O O1 0.674970 0.408550 0.467356
O O2 0.421816 0.244173 0.766560
O O3 0.179760 0.149521 0.611181
O O4 0.169496 0.099329 0.419457
O O5 0.373481 0.970734 0.263646
O O6 0.467173 0.196247 0.082180
O O7 0.000000 0.500000 0.500000
O O8 0.049330 0.247469 0.439492
O O9 0.072879 0.381712 0.237725
O O10 0.171976 0.208181 0.968617
O O11 0.000000 0.000000 0.500000
#
# Coordination Sequence:
#
# PCOD8118325 Si02
#       6
#     2   4   4   4   4   2
#     4  10  20  42  66  84 128 172 210 250 330 378
#     4  10  21  33  60  96 128 159 214 260 308 369
#     4  11  24  44  66  91 122 169 209 258 316 376
#     4  10  19  38  60  94 127 169 203 256 317 377
#     4  11  21  39  63  94 129 164 206 265 315 369
#     4  10  22  42  62  84 126 162 208 248 318 374
#
# _framework density 20.113292999999999
#
# number of rings (size 3 to 8) (size 9 to 14) (size 15 to 20)
#    0.000    1.600    2.000    4.800    0.000    1.600 
#    3.600    2.000    0.000    0.000    0.000    0.000 
#    0.000    0.000    0.000    0.000    0.000    0.000 
#
# Total GULP energy -247876.036069 kJ/mol
# GULP energy per Si atom -12393.801803 kJ/mol
# Density = 2.006751 g / cm^3
# Si number density = 20.113293 Si / 1000 Ang^3
#
#
#
# Elastic Constant Matrix: (Units=GPa)
#
#
# Indices 1 2 3 4 5 6 
#
# 1 85.3715 29.7310 47.1766 0.0000 -0.3824 0.0000
# 2 29.7310 100.6118 51.9702 0.0000 1.6390 0.0000
# 3 47.1766 51.9702 207.0403 0.0000 1.0077 0.0000
# 4 0.0000 0.0000 0.0000 34.2583 0.0000 5.0997
# 5 -0.3824 1.6390 1.0077 0.0000 31.4011 0.0000
# 6 0.0000 0.0000 0.0000 5.0997 0.0000 13.5897
#
#
#
# Elastic Compliance Matrix: (Units=1/GPa)
#
#
# Indices 1 2 3 4 5 6 
#
# 1 0.014096 -0.002886 -0.002489 0.000000 0.000402 0.000000
# 2 -0.002886 0.012019 -0.002356 0.000000 -0.000587 0.000000
# 3 -0.002489 -0.002356 0.005989 0.000000 -0.000100 0.000000
# 4 0.000000 0.000000 0.000000 0.030917 0.000000 -0.011602
# 5 0.000402 -0.000587 -0.000100 0.000000 0.031885 0.000000
# 6 0.000000 0.000000 0.000000 -0.011602 0.000000 0.077939
#
#
# Mechanical properties :
#
#
# Convention : Reuss Voigt Hill
#
# Bulk Modulus (GPa) = 60.09549 72.30881 66.20215
# Shear Modulus (GPa) = 25.79240 33.45954 29.62597
#
# Velocity S-wave (km/s) = 3.58488 4.08309 3.84207
# Velocity P-wave (km/s) = 6.86138 7.63267 7.25728
#
# Compressibility (1/GPa) = 0.01664018
#
# Stress axis : x y z
#
# Youngs Moduli (GPa) = 70.94165 83.20320 166.96674
#
# Poissons Ratio (x) = 0.24013 0.41566
# Poissons Ratio (y) = 0.20474 0.39344
# Poissons Ratio (z) = 0.17661 0.19606
#
# Static dielectric constant tensor:
#      x y z
#    x 3.677620 0.000000 0.073190 
#    y 0.000000 3.396240 0.000000 
#    z 0.073190 0.000000 4.620000 
# 
# 
# High freq. dielectric constant tensor:
#      x y z
#    x 1.785480 0.000000 -0.000510 
#    y 0.000000 1.749400 0.000000 
#    z -0.000510 0.000000 1.816950 
# 
# From -- ./inp_files/29155.got.cif
#   From: 2010.06.25/outbox.cif.g09.slc.cpg/sg13_15_cif.got.tgz:29155.got - 2010.06.28 04:50:58.
