data_PCOD8118587
_publ_section_title
;
Structure prediction by ZEFSAII (Michael W. Deem and Ramdas Pophale) SiO2 
 PCOD8118587
Probable space group: P 2/C
;
_chemical_formula_sum "Si O2"
_cell_formula_units_Z 22
_cell_length_a 18.346201
_cell_length_b 13.731731
_cell_length_c 7.704765
_cell_angle_alpha 90.000000
_cell_angle_beta 137.899699
_cell_angle_gamma 90.000000
_cell_volume 1301.321502
_symmetry_space_group_name_H-M "P 2/C"
_symmetry_group_IT_number 13
_symmetry_cell_setting 'monoclinic'
loop_
_space_group_symop_operation_xyz
x,y,z
-x,y,1/2-z
-x,-y,-z
x,-y,1/2+z
loop_
_atom_site_type_symbol
_atom_site_label
_atom_site_fract_x
_atom_site_fract_y
_atom_site_fract_z
Si Si1 0.000000 0.523809 0.250000
Si Si2 0.000000 0.802673 0.750000
Si Si3 0.889393 0.367242 0.249833
Si Si4 0.709101 0.902901 0.751074
Si Si5 0.779538 0.115367 0.764736
Si Si6 0.295232 0.236439 0.553843
Si Si7 0.500000 0.824523 0.250000
O O1 0.899628 0.452693 0.124901
O O2 0.043259 0.595713 0.469515
O O3 0.943432 0.734998 0.793149
O O4 0.909769 0.871671 0.502503
O O5 0.762451 0.342821 0.061849
O O6 0.760456 0.833713 0.691490
O O7 0.577259 0.894234 0.503733
O O8 0.747379 0.011521 0.784042
O O9 0.743586 0.869021 0.003159
O O10 0.719757 0.195372 0.778399
O O11 0.424385 0.244219 0.739599
#
# Coordination Sequence:
#
# PCOD8118587 Si02
#       7
#     2   2   4   4   4   4   2
#     4   9  18  32  59  80  98 136 163 216 276 335
#     4   9  22  34  49  80 108 144 175 216 254 329
#     4   9  18  35  53  78 106 128 173 212 272 324
#     4  10  20  34  50  75 102 150 182 218 255 295
#     4  11  20  35  50  73 113 142 188 218 256 297
#     4   9  20  36  50  78 105 137 180 224 249 318
#     4   8  20  36  52  78 100 146 184 224 258 294
#
# _framework density 16.905891
#
# number of rings (size 3 to 8) (size 9 to 14) (size 15 to 20)
#    1.091    1.455    1.818    0.000    2.545    4.364 
#    0.000    0.000    0.000    1.091    0.000    0.000 
#    0.000    0.000    0.000    0.000    0.000    0.000 
#
# Total GULP energy -272552.159128 kJ/mol
# GULP energy per Si atom -12388.734506 kJ/mol
# Density = 1.686741 g / cm^3
# Si number density = 16.905891 Si / 1000 Ang^3
#
#
#
# Elastic Constant Matrix: (Units=GPa)
#
#
# Indices 1 2 3 4 5 6 
#
# 1 73.4802 26.0266 46.4044 0.0000 4.1933 0.0000
# 2 26.0266 72.2691 40.2409 0.0000 10.8938 0.0000
# 3 46.4044 40.2409 116.7302 0.0000 3.5755 0.0000
# 4 0.0000 0.0000 0.0000 3.3392 0.0000 5.2947
# 5 4.1933 10.8938 3.5755 0.0000 38.9781 0.0000
# 6 0.0000 0.0000 0.0000 5.2947 0.0000 11.6570
#
#
#
# Elastic Compliance Matrix: (Units=1/GPa)
#
#
# Indices 1 2 3 4 5 6 
#
# 1 0.018770 -0.003131 -0.006365 0.000000 -0.000560 0.000000
# 2 -0.003131 0.018381 -0.004959 0.000000 -0.004345 0.000000
# 3 -0.006365 -0.004959 0.012779 0.000000 0.000898 0.000000
# 4 0.000000 0.000000 0.000000 1.070357 0.000000 -0.486164
# 5 -0.000560 -0.004345 0.000898 0.000000 0.026848 0.000000
# 6 0.000000 0.000000 0.000000 -0.486164 0.000000 0.306605
#
#
# Mechanical properties :
#
#
# Convention : Reuss Voigt Hill
#
# Bulk Modulus (GPa) = 47.57361 54.20261 50.88811
# Shear Modulus (GPa) = 3.35648 20.78200 12.06924
#
# Velocity S-wave (km/s) = 1.41057 3.50991 2.67480
# Velocity P-wave (km/s) = 5.55466 6.96828 6.30124
#
# Compressibility (1/GPa) = 0.02102006
#
# Stress axis : x y z
#
# Youngs Moduli (GPa) = 53.27704 54.40425 78.25283
#
# Poissons Ratio (x) = 0.17034 0.49809
# Poissons Ratio (y) = 0.16681 0.38804
# Poissons Ratio (z) = 0.33912 0.26978
#
# Static dielectric constant tensor:
#      x y z
#    x 3.337660 0.000000 -0.029730 
#    y 0.000000 3.055900 0.000000 
#    z -0.029730 0.000000 3.095070 
# 
# 
# High freq. dielectric constant tensor:
#      x y z
#    x 1.659550 0.000000 -0.008420 
#    y 0.000000 1.632290 0.000000 
#    z -0.008420 0.000000 1.640370 
# 
# From -- ./inp_files/23158.got.cif
#   From: 2010.06.25/outbox.cif.g09.slc.cpg/sg13_12_cif.got.tgz:23158.got - 2010.06.28 04:50:58.
