data_PCOD8118556
_publ_section_title
;
Structure prediction by ZEFSAII (Michael W. Deem and Ramdas Pophale) SiO2 
 PCOD8118556
Probable space group: P 2/C
;
_chemical_formula_sum "Si O2"
_cell_formula_units_Z 28
_cell_length_a 9.123561
_cell_length_b 10.807879
_cell_length_c 14.832644
_cell_angle_alpha 90.000000
_cell_angle_beta 74.166805
_cell_angle_gamma 90.000000
_cell_volume 1407.102138
_symmetry_space_group_name_H-M "P 2/C"
_symmetry_group_IT_number 13
_symmetry_cell_setting 'monoclinic'
loop_
_space_group_symop_operation_xyz
x,y,z
-x,y,1/2-z
-x,-y,-z
x,-y,1/2+z
loop_
_atom_site_type_symbol
_atom_site_label
_atom_site_fract_x
_atom_site_fract_y
_atom_site_fract_z
Si Si1 0.257763 0.913222 0.906539
Si Si2 0.828875 0.948359 0.243711
Si Si3 0.328427 0.284406 0.812358
Si Si4 0.420780 0.940418 0.599408
Si Si5 0.931573 0.537470 0.159893
Si Si6 0.763243 0.174398 0.500133
Si Si7 0.065842 0.686285 0.973877
O O1 0.440889 0.904766 0.857296
O O2 0.205217 0.783115 0.959259
O O3 0.179788 0.934557 0.822355
O O4 0.215610 0.029882 0.976517
O O5 0.784639 0.822344 0.202489
O O6 0.000000 0.936557 0.250000
O O7 0.699859 0.962594 0.340858
O O8 0.500000 0.286137 0.750000
O O9 0.240388 0.410152 0.802896
O O10 0.340861 0.257583 0.916486
O O11 0.324145 0.821192 0.581505
O O12 0.500000 0.000000 0.500000
O O13 0.907553 0.409267 0.111758
O O14 0.000000 0.523360 0.250000
O O15 0.037801 0.623953 0.077047
O O16 0.926393 0.233109 0.462833
#
# Coordination Sequence:
#
# PCOD8118556 Si02
#       7
#     4   4   4   4   4   4   4
#     4  10  20  35  58  86 118 148 184 234 293 349
#     4  11  21  34  55  85 118 153 191 233 292 357
#     4  10  20  37  57  80 111 144 192 243 282 338
#     4  10  20  33  53  86 122 151 184 229 292 355
#     4  10  23  40  59  81 108 154 201 241 289 340
#     4   9  19  34  56  85 113 146 179 229 295 349
#     4  10  21  39  58  83 117 147 195 247 285 347
#
# _framework density 19.899052999999999
#
# number of rings (size 3 to 8) (size 9 to 14) (size 15 to 20)
#    0.000    2.000    0.000    4.714    0.000   10.857 
#    0.000    2.857    0.000    6.000    0.000    0.000 
#    0.000    0.000    0.000    0.000    0.000    0.000 
#
# Total GULP energy -346902.757195 kJ/mol
# GULP energy per Si atom -12389.384186 kJ/mol
# Density = 1.985376 g / cm^3
# Si number density = 19.899053 Si / 1000 Ang^3
#
#
#
# Elastic Constant Matrix: (Units=GPa)
#
#
# Indices 1 2 3 4 5 6 
#
# 1 135.4532 45.6423 30.3263 0.0000 -8.2127 0.0000
# 2 45.6423 95.1077 28.5454 0.0000 -5.5124 0.0000
# 3 30.3263 28.5454 64.5263 0.0000 -2.0623 0.0000
# 4 0.0000 0.0000 0.0000 15.8792 0.0000 7.1582
# 5 -8.2127 -5.5124 -2.0623 0.0000 36.2940 0.0000
# 6 0.0000 0.0000 0.0000 7.1582 0.0000 -9.1339
#
#
#
# Elastic Compliance Matrix: (Units=1/GPa)
#
#
# Indices 1 2 3 4 5 6 
#
# 1 0.009278 -0.003547 -0.002747 0.000000 0.001405 0.000000
# 2 -0.003547 0.013566 -0.004302 0.000000 0.001013 0.000000
# 3 -0.002747 -0.004302 0.018685 0.000000 -0.000213 0.000000
# 4 0.000000 0.000000 0.000000 0.046535 0.000000 0.036470
# 5 0.001405 0.001013 -0.000213 0.000000 0.028012 0.000000
# 6 0.000000 0.000000 0.000000 0.036470 0.000000 -0.080901
#
#
# Mechanical properties :
#
#
# Convention : Reuss Voigt Hill
#
# Bulk Modulus (GPa) = 49.16885 56.01279 52.59082
# Shear Modulus (GPa) = 79.18178 21.31274 50.24726
#
# Velocity S-wave (km/s) = 6.31491 3.27623 5.03050
# Velocity P-wave (km/s) = 8.82800 6.52082 7.76063
#
# Compressibility (1/GPa) = 0.02033808
#
# Stress axis : x y z
#
# Youngs Moduli (GPa) = 107.78423 73.71112 53.51930
#
# Poissons Ratio (x) = 0.26143 0.14699
# Poissons Ratio (y) = 0.38228 0.23026
# Poissons Ratio (z) = 0.29603 0.31713
#
# Static dielectric constant tensor:
#      x y z
#    x 4.130060 0.000000 0.273530 
#    y 0.000000 3.613800 0.000000 
#    z 0.273530 0.000000 3.907280 
# 
# 
# High freq. dielectric constant tensor:
#      x y z
#    x 1.784100 0.000000 -0.000830 
#    y 0.000000 1.751610 0.000000 
#    z -0.000830 0.000000 1.779780 
# 
# From -- ./inp_files/46885.got.cif
#   From: 2010.06.25/outbox.cif.g09.slc.cpg/sg13_24_cif.got.tgz:46885.got - 2010.06.28 04:50:58.
