data_PCOD8118353
_publ_section_title
;
Structure prediction by ZEFSAII (Michael W. Deem and Ramdas Pophale) SiO2 
 PCOD8118353
Probable space group: P 2/C
;
_chemical_formula_sum "Si O2"
_cell_formula_units_Z 32
_cell_length_a 11.321107
_cell_length_b 9.236827
_cell_length_c 29.443780
_cell_angle_alpha 90.000000
_cell_angle_beta 149.955160
_cell_angle_gamma 90.000000
_cell_volume 1541.570651
_symmetry_space_group_name_H-M "P 2/C"
_symmetry_group_IT_number 13
_symmetry_cell_setting 'monoclinic'
loop_
_space_group_symop_operation_xyz
x,y,z
-x,y,1/2-z
-x,-y,-z
x,-y,1/2+z
loop_
_atom_site_type_symbol
_atom_site_label
_atom_site_fract_x
_atom_site_fract_y
_atom_site_fract_z
Si Si1 0.354691 0.134276 0.574905
Si Si2 0.352006 0.604236 0.134042
Si Si3 0.165765 0.497365 0.661049
Si Si4 0.533300 0.137971 0.184353
Si Si5 0.520339 0.592732 0.619159
Si Si6 0.152324 0.827500 0.632465
Si Si7 0.742707 0.312016 0.653527
Si Si8 0.310829 0.394459 0.958713
O O1 0.313831 0.229263 0.606782
O O2 0.542216 0.211793 0.606110
O O3 0.112725 0.119858 0.465562
O O4 0.467169 0.981594 0.625293
O O5 0.618413 0.572031 0.239271
O O6 0.160595 0.575643 0.109391
O O7 0.318200 0.499872 0.078801
O O8 0.192858 0.666278 0.663325
O O9 0.931385 0.476326 0.611579
O O10 0.619985 0.282668 0.185837
O O11 0.735670 0.083395 0.287412
O O12 0.294641 0.162965 0.133088
O O13 0.712568 0.477231 0.663164
O O14 0.403353 0.673228 0.536777
O O15 0.731301 0.282400 0.595526
O O16 0.000000 0.253521 0.750000
O O17 0.500000 0.500000 0.000000
#
# Coordination Sequence:
#
# PCOD8118353 Si02
#       8
#     4   4   4   4   4   4   4   4
#     4  11  25  42  65  95 133 177 216 272 334 396
#     4  10  20  36  60 100 128 159 211 267 338 384
#     4  11  19  35  65  98 128 164 210 273 323 393
#     4  11  23  43  63  96 135 176 213 262 341 397
#     4  10  19  38  63  93 120 164 215 268 321 398
#     4  11  22  40  67  93 144 166 213 271 333 410
#     4  10  22  44  65  89 131 168 221 283 323 373
#     4  10  21  34  58  92 121 161 211 265 323 368
#
# _framework density 20.758049
#
# number of rings (size 3 to 8) (size 9 to 14) (size 15 to 20)
#    0.000    1.500    2.500    4.875    1.750    3.000 
#    4.500    1.250    0.000    0.000    0.000    0.000 
#    0.000    0.000    0.000    0.000    0.000    0.000 
#
# Total GULP energy -396454.615277 kJ/mol
# GULP energy per Si atom -12389.206727 kJ/mol
# Density = 2.071080 g / cm^3
# Si number density = 20.758049 Si / 1000 Ang^3
#
#
#
# Elastic Constant Matrix: (Units=GPa)
#
#
# Indices 1 2 3 4 5 6 
#
# 1 131.5257 16.9661 54.7944 0.0000 -5.0879 0.0000
# 2 16.9661 58.4075 24.3848 0.0000 -6.5433 0.0000
# 3 54.7944 24.3848 130.6099 0.0000 3.3723 0.0000
# 4 0.0000 0.0000 0.0000 27.2325 0.0000 -8.6030
# 5 -5.0879 -6.5433 3.3723 0.0000 41.0676 0.0000
# 6 0.0000 0.0000 0.0000 -8.6030 0.0000 24.1486
#
#
#
# Elastic Compliance Matrix: (Units=1/GPa)
#
#
# Indices 1 2 3 4 5 6 
#
# 1 0.009354 -0.000995 -0.003772 0.000000 0.001310 0.000000
# 2 -0.000995 0.019118 -0.003234 0.000000 0.003188 0.000000
# 3 -0.003772 -0.003234 0.009889 0.000000 -0.001795 0.000000
# 4 0.000000 0.000000 0.000000 0.041378 0.000000 0.014741
# 5 0.001310 0.003188 -0.001795 0.000000 0.025168 0.000000
# 6 0.000000 0.000000 0.000000 0.014741 0.000000 0.046662
#
#
# Mechanical properties :
#
#
# Convention : Reuss Voigt Hill
#
# Bulk Modulus (GPa) = 44.72823 56.98152 50.85488
# Shear Modulus (GPa) = 28.56772 33.44960 31.00866
#
# Velocity S-wave (km/s) = 3.71377 4.01858 3.86918
# Velocity P-wave (km/s) = 6.32326 7.00300 6.67179
#
# Compressibility (1/GPa) = 0.02235724
#
# Stress axis : x y z
#
# Youngs Moduli (GPa) = 106.91039 52.30796 101.12267
#
# Poissons Ratio (x) = 0.05207 0.38144
# Poissons Ratio (y) = 0.10643 0.32702
# Poissons Ratio (z) = 0.40327 0.16916
#
# Static dielectric constant tensor:
#      x y z
#    x 4.451890 0.000000 -0.546900 
#    y 0.000000 3.484960 0.000000 
#    z -0.546900 0.000000 4.062410 
# 
# 
# High freq. dielectric constant tensor:
#      x y z
#    x 1.825450 0.000000 -0.016950 
#    y 0.000000 1.769330 0.000000 
#    z -0.016950 0.000000 1.824330 
# 
# From -- ./inp_files/96720.got.cif
#   From: 2010.06.25/outbox.cif.g09.slc.cpg/sg13_49_cif.got.tgz:96720.got - 2010.06.28 04:50:58.
