data_PCOD8118144
_publ_section_title
;
Structure prediction by ZEFSAII (Michael W. Deem and Ramdas Pophale) SiO2 
 PCOD8118144
Probable space group: P 2/C
;
_chemical_formula_sum "Si O2"
_cell_formula_units_Z 28
_cell_length_a 8.625795
_cell_length_b 13.314230
_cell_length_c 12.337019
_cell_angle_alpha 90.000000
_cell_angle_beta 83.756655
_cell_angle_gamma 90.000000
_cell_volume 1408.451645
_symmetry_space_group_name_H-M "P 2/C"
_symmetry_group_IT_number 13
_symmetry_cell_setting 'monoclinic'
loop_
_space_group_symop_operation_xyz
x,y,z
-x,y,1/2-z
-x,-y,-z
x,-y,1/2+z
loop_
_atom_site_type_symbol
_atom_site_label
_atom_site_fract_x
_atom_site_fract_y
_atom_site_fract_z
Si Si1 0.680265 0.398707 0.749195
Si Si2 0.163656 0.684074 0.465827
Si Si3 0.665339 0.123927 0.471973
Si Si4 0.318935 0.797372 0.761636
Si Si5 0.695754 0.899121 0.513124
Si Si6 0.829618 0.599235 0.798004
Si Si7 0.112805 0.755203 0.142583
O O1 0.500000 0.374239 0.750000
O O2 0.758173 0.389200 0.626421
O O3 0.704991 0.511577 0.789152
O O4 0.754922 0.321617 0.828777
O O5 0.255707 0.789631 0.462538
O O6 0.170815 0.625512 0.576541
O O7 0.985333 0.702764 0.445467
O O8 0.712498 0.135373 0.342273
O O9 0.480434 0.129857 0.503434
O O10 0.727099 0.017792 0.510563
O O11 0.500000 0.766888 0.750000
O O12 0.263571 0.859673 0.870055
O O13 0.217765 0.696162 0.768484
O O14 0.806117 0.853054 0.412872
O O15 0.000000 0.561108 0.750000
O O16 0.000000 0.787542 0.250000
#
# Coordination Sequence:
#
# PCOD8118144 Si02
#       7
#     4   4   4   4   4   4   4
#     4  11  24  40  60  84 111 148 190 232 280 336
#     4  10  22  40  57  82 119 148 184 235 282 335
#     4   9  20  36  58  86 113 151 192 232 283 331
#     4   9  19  35  55  83 114 146 191 235 276 333
#     4  10  19  36  60  83 115 153 191 236 279 326
#     4  11  22  37  59  84 112 148 186 229 285 339
#     4  10  22  38  57  85 116 149 187 229 281 337
#
# _framework density 19.879987
#
# number of rings (size 3 to 8) (size 9 to 14) (size 15 to 20)
#    0.000    2.000    0.000    3.429    0.000    6.857 
#    0.000    7.143    0.000    0.000    0.000    0.000 
#    0.000    0.000    0.000    0.000    0.000    0.000 
#
# Total GULP energy -347330.162020 kJ/mol
# GULP energy per Si atom -12404.648644 kJ/mol
# Density = 1.983474 g / cm^3
# Si number density = 19.879987 Si / 1000 Ang^3
#
#
#
# Elastic Constant Matrix: (Units=GPa)
#
#
# Indices 1 2 3 4 5 6 
#
# 1 99.9963 45.4424 35.8386 0.0000 7.9677 0.0000
# 2 45.4424 99.0783 65.8283 0.0000 2.2232 0.0000
# 3 35.8386 65.8283 96.7053 0.0000 10.8558 0.0000
# 4 0.0000 0.0000 0.0000 25.1364 0.0000 3.2963
# 5 7.9677 2.2232 10.8558 0.0000 30.8458 0.0000
# 6 0.0000 0.0000 0.0000 3.2963 0.0000 14.7643
#
#
#
# Elastic Compliance Matrix: (Units=1/GPa)
#
#
# Indices 1 2 3 4 5 6 
#
# 1 0.012930 -0.005266 -0.000911 0.000000 -0.002640 0.000000
# 2 -0.005266 0.020883 -0.012751 0.000000 0.004343 0.000000
# 3 -0.000911 -0.012751 0.020019 0.000000 -0.005891 0.000000
# 4 0.000000 0.000000 0.000000 0.040983 0.000000 -0.009150
# 5 -0.002640 0.004343 -0.005891 0.000000 0.034862 0.000000
# 6 0.000000 0.000000 0.000000 -0.009150 0.000000 0.069774
#
#
# Mechanical properties :
#
#
# Convention : Reuss Voigt Hill
#
# Bulk Modulus (GPa) = 62.59225 65.55540 64.07382
# Shear Modulus (GPa) = 20.60737 24.06069 22.33403
#
# Velocity S-wave (km/s) = 3.22310 3.48271 3.35542
# Velocity P-wave (km/s) = 6.73829 7.01566 6.87837
#
# Compressibility (1/GPa) = 0.01597642
#
# Stress axis : x y z
#
# Youngs Moduli (GPa) = 77.33777 47.88649 49.95167
#
# Poissons Ratio (x) = 0.25217 0.04550
# Poissons Ratio (y) = 0.40726 0.63693
# Poissons Ratio (z) = 0.07045 0.61060
#
# Static dielectric constant tensor:
#      x y z
#    x 3.765300 0.000000 0.107620 
#    y 0.000000 3.521770 0.000000 
#    z 0.107620 0.000000 3.616530 
# 
# 
# High freq. dielectric constant tensor:
#      x y z
#    x 1.781390 0.000000 0.006760 
#    y 0.000000 1.774410 0.000000 
#    z 0.006760 0.000000 1.781120 
# 
# From -- ./inp_files/30071.got.cif
#   From: 2010.06.25/outbox.cif.g09.slc.cpg/sg13_16_cif.got.tgz:30071.got - 2010.06.28 04:50:58.
