data_PCOD8118420
_publ_section_title
;
Structure prediction by ZEFSAII (Michael W. Deem and Ramdas Pophale) SiO2 
 PCOD8118420
Probable space group: P 2/C
;
_chemical_formula_sum "Si O2"
_cell_formula_units_Z 22
_cell_length_a 14.992909
_cell_length_b 11.790161
_cell_length_c 11.008633
_cell_angle_alpha 90.000000
_cell_angle_beta 148.488868
_cell_angle_gamma 90.000000
_cell_volume 1017.095658
_symmetry_space_group_name_H-M "P 2/C"
_symmetry_group_IT_number 13
_symmetry_cell_setting 'monoclinic'
loop_
_space_group_symop_operation_xyz
x,y,z
-x,y,1/2-z
-x,-y,-z
x,-y,1/2+z
loop_
_atom_site_type_symbol
_atom_site_label
_atom_site_fract_x
_atom_site_fract_y
_atom_site_fract_z
Si Si1 0.873217 0.654329 0.848090
Si Si2 0.616776 0.067997 0.774419
Si Si3 0.500000 0.319165 0.250000
Si Si4 0.248298 0.412919 0.767600
Si Si5 0.684350 0.698374 0.402296
Si Si6 0.655629 0.163533 0.227106
O O1 0.789223 0.543241 0.811320
O O2 0.830072 0.642526 0.654667
O O3 0.799430 0.770506 0.817920
O O4 0.075704 0.654426 0.101139
O O5 0.500000 0.024535 0.750000
O O6 0.742029 0.169070 0.960684
O O7 0.507141 0.131584 0.542683
O O8 0.724826 0.959534 0.853278
O O9 0.624805 0.401367 0.471093
O O10 0.606997 0.240297 0.284600
O O11 0.334738 0.361023 0.749207
O O12 0.500000 0.690919 0.250000
#
# Coordination Sequence:
#
# PCOD8118420 Si02
#       6
#     4   4   2   4   4   4
#     4  11  25  45  65  94 140 177 213 279 338 391
#     4  10  19  39  68  97 128 172 225 274 322 388
#     4  12  24  40  66  98 132 168 224 272 318 398
#     4  11  27  43  65  99 135 175 220 273 337 395
#     4  11  21  43  71  97 126 172 226 269 323 401
#     4  11  22  38  68  96 132 172 220 270 331 391
#
# _framework density 21.630215
#
# number of rings (size 3 to 8) (size 9 to 14) (size 15 to 20)
#    0.000    1.091    6.364    0.545    3.818    2.182 
#    0.000    0.909    4.000    0.000    0.000    0.000 
#    0.000    0.000    0.000    0.000    0.000    0.000 
#
# Total GULP energy -272743.669826 kJ/mol
# GULP energy per Si atom -12397.439538 kJ/mol
# Density = 2.158098 g / cm^3
# Si number density = 21.630215 Si / 1000 Ang^3
#
#
#
# Elastic Constant Matrix: (Units=GPa)
#
#
# Indices 1 2 3 4 5 6 
#
# 1 108.0801 51.2075 35.3658 0.0000 -13.9644 0.0000
# 2 51.2075 125.1532 32.7265 0.0000 12.2193 0.0000
# 3 35.3658 32.7265 105.7274 0.0000 -5.5317 0.0000
# 4 0.0000 0.0000 0.0000 26.7283 0.0000 -0.1222
# 5 -13.9644 12.2193 -5.5317 0.0000 24.5741 0.0000
# 6 0.0000 0.0000 0.0000 -0.1222 0.0000 41.5491
#
#
#
# Elastic Compliance Matrix: (Units=1/GPa)
#
#
# Indices 1 2 3 4 5 6 
#
# 1 0.014413 -0.006357 -0.002286 0.000000 0.010837 0.000000
# 2 -0.006357 0.012147 -0.002164 0.000000 -0.010140 0.000000
# 3 -0.002286 -0.002164 0.011011 0.000000 0.002255 0.000000
# 4 0.000000 0.000000 0.000000 0.037414 0.000000 0.000110
# 5 0.010837 -0.010140 0.002255 0.000000 0.052401 0.000000
# 6 0.000000 0.000000 0.000000 0.000110 0.000000 0.024068
#
#
# Mechanical properties :
#
#
# Convention : Reuss Voigt Hill
#
# Bulk Modulus (GPa) = 62.67360 64.17338 63.42349
# Shear Modulus (GPa) = 28.02889 33.21437 30.62163
#
# Velocity S-wave (km/s) = 3.60366 3.92287 3.76664
# Velocity P-wave (km/s) = 6.80831 7.08882 6.94998
#
# Compressibility (1/GPa) = 0.01595568
#
# Stress axis : x y z
#
# Youngs Moduli (GPa) = 69.38357 82.32341 90.81917
#
# Poissons Ratio (x) = 0.52335 0.20763
# Poissons Ratio (y) = 0.44109 0.19654
# Poissons Ratio (z) = 0.15863 0.17815
#
# Static dielectric constant tensor:
#      x y z
#    x 3.967780 0.000000 -0.370160 
#    y 0.000000 4.309480 0.000000 
#    z -0.370160 0.000000 3.738250 
# 
# 
# High freq. dielectric constant tensor:
#      x y z
#    x 1.852230 0.000000 -0.025510 
#    y 0.000000 1.868940 0.000000 
#    z -0.025510 0.000000 1.821400 
# 
# From -- ./inp_files/37247.got.cif
#   From: 2010.06.25/outbox.cif.g09.slc.cpg/sg13_19_cif.got.tgz:37247.got - 2010.06.28 04:50:58.
