data_PCOD8118755
_publ_section_title
;
Structure prediction by ZEFSAII (Michael W. Deem and Ramdas Pophale) SiO2 
 PCOD8118755
Probable space group: P 2/C
;
_chemical_formula_sum "Si O2"
_cell_formula_units_Z 32
_cell_length_a 23.586694
_cell_length_b 10.308112
_cell_length_c 17.965645
_cell_angle_alpha 90.000000
_cell_angle_beta 156.923936
_cell_angle_gamma 90.000000
_cell_volume 1712.075073
_symmetry_space_group_name_H-M "P 2/C"
_symmetry_group_IT_number 13
_symmetry_cell_setting 'monoclinic'
loop_
_space_group_symop_operation_xyz
x,y,z
-x,y,1/2-z
-x,-y,-z
x,-y,1/2+z
loop_
_atom_site_type_symbol
_atom_site_label
_atom_site_fract_x
_atom_site_fract_y
_atom_site_fract_z
Si Si1 0.369888 0.520259 0.036601
Si Si2 0.585255 0.129042 0.580936
Si Si3 0.928218 0.868307 0.325046
Si Si4 0.619448 0.219915 0.457532
Si Si5 0.105000 0.627417 0.543374
Si Si6 0.571698 0.624077 0.550822
Si Si7 0.078793 0.124374 0.506962
Si Si8 0.066969 0.383538 0.173971
O O1 0.500000 0.530547 0.250000
O O2 0.341503 0.370440 0.979295
O O3 0.414067 0.604621 0.019500
O O4 0.225173 0.581926 0.898546
O O5 0.566832 0.154509 0.470550
O O6 0.521892 0.248431 0.550153
O O7 0.751828 0.116349 0.807361
O O8 0.500000 0.000000 0.500000
O O9 0.940039 0.869244 0.427846
O O10 0.020147 0.747884 0.404756
O O11 0.761846 0.853489 0.099454
O O12 0.996040 0.999667 0.373567
O O13 0.500000 0.203658 0.250000
O O14 0.271840 0.643012 0.722512
O O15 0.084079 0.621725 0.606248
O O16 0.044671 0.494698 0.435592
O O17 0.500000 0.500000 0.500000
O O18 0.999590 0.249489 0.375227
#
# Coordination Sequence:
#
# PCOD8118755 Si02
#       8
#     4   4   4   4   4   4   4   4
#     4  10  20  35  57  84 112 142 182 233 277 323
#     4  11  22  37  56  84 116 147 179 224 277 329
#     4   9  16  31  51  78 103 136 181 228 263 310
#     4  10  20  36  59  83 110 143 182 229 276 325
#     4   9  16  26  49  74 101 135 179 223 260 308
#     4  11  20  33  55  82 110 145 180 220 273 328
#     4   9  18  30  51  77 108 137 179 230 268 308
#     4   9  16  29  50  77 102 135 180 229 267 303
#
# _framework density 18.690770000000001
#
# number of rings (size 3 to 8) (size 9 to 14) (size 15 to 20)
#    0.000    2.250    2.500    1.500    3.500    3.000 
#    0.000    2.500    0.000    9.000    0.000    0.000 
#    0.000    0.000    0.000    0.000    0.000    0.000 
#
# Total GULP energy -396753.713605 kJ/mol
# GULP energy per Si atom -12398.553550 kJ/mol
# Density = 1.864823 g / cm^3
# Si number density = 18.690770 Si / 1000 Ang^3
#
#
#
# Elastic Constant Matrix: (Units=GPa)
#
#
# Indices 1 2 3 4 5 6 
#
# 1 45.0148 36.6422 38.9350 0.0000 15.9947 0.0000
# 2 36.6422 181.1645 82.8552 0.0000 25.9215 0.0000
# 3 38.9350 82.8552 137.4299 0.0000 25.3437 0.0000
# 4 0.0000 0.0000 0.0000 38.4490 0.0000 13.3252
# 5 15.9947 25.9215 25.3437 0.0000 28.9214 0.0000
# 6 0.0000 0.0000 0.0000 13.3252 0.0000 24.5194
#
#
#
# Elastic Compliance Matrix: (Units=1/GPa)
#
#
# Indices 1 2 3 4 5 6 
#
# 1 0.033227 -0.002442 -0.005911 0.000000 -0.011007 0.000000
# 2 -0.002442 0.008082 -0.003690 0.000000 -0.002659 0.000000
# 3 -0.005911 -0.003690 0.011884 0.000000 -0.003837 0.000000
# 4 0.000000 0.000000 0.000000 0.032044 0.000000 -0.017414
# 5 -0.011007 -0.002659 -0.003837 0.000000 0.046409 0.000000
# 6 0.000000 0.000000 0.000000 -0.017414 0.000000 0.050248
#
#
# Mechanical properties :
#
#
# Convention : Reuss Voigt Hill
#
# Bulk Modulus (GPa) = 34.35835 75.60822 54.98328
# Shear Modulus (GPa) = 23.18225 32.05642 27.61933
#
# Velocity S-wave (km/s) = 3.52562 4.14586 3.84826
# Velocity P-wave (km/s) = 5.91572 7.96602 7.01617
#
# Compressibility (1/GPa) = 0.02910501
#
# Stress axis : x y z
#
# Youngs Moduli (GPa) = 30.09633 123.73129 84.14970
#
# Poissons Ratio (x) = 0.30215 0.49744
# Poissons Ratio (y) = 0.07349 0.31054
# Poissons Ratio (z) = 0.17791 0.45661
#
# Static dielectric constant tensor:
#      x y z
#    x 2.988230 0.000000 0.317430 
#    y 0.000000 3.701550 0.000000 
#    z 0.317430 0.000000 3.572900 
# 
# 
# High freq. dielectric constant tensor:
#      x y z
#    x 1.675580 0.000000 0.029990 
#    y 0.000000 1.739150 0.000000 
#    z 0.029990 0.000000 1.734440 
# 
# From -- ./inp_files/82538.got.cif
#   From: 2010.06.25/outbox.cif.g09.slc.cpg/sg13_42_cif.got.tgz:82538.got - 2010.06.28 04:50:58.
