data_PCOD8118455
_publ_section_title
;
Structure prediction by ZEFSAII (Michael W. Deem and Ramdas Pophale) SiO2 
 PCOD8118455
Probable space group: P 2/C
;
_chemical_formula_sum "Si O2"
_cell_formula_units_Z 28
_cell_length_a 9.893604
_cell_length_b 14.303320
_cell_length_c 17.510029
_cell_angle_alpha 90.000000
_cell_angle_beta 33.536586
_cell_angle_gamma 90.000000
_cell_volume 1368.946358
_symmetry_space_group_name_H-M "P 2/C"
_symmetry_group_IT_number 13
_symmetry_cell_setting 'monoclinic'
loop_
_space_group_symop_operation_xyz
x,y,z
-x,y,1/2-z
-x,-y,-z
x,-y,1/2+z
loop_
_atom_site_type_symbol
_atom_site_label
_atom_site_fract_x
_atom_site_fract_y
_atom_site_fract_z
Si Si1 0.281285 0.930099 0.624171
Si Si2 0.016646 0.313656 0.049477
Si Si3 0.833891 0.671768 0.192748
Si Si4 0.374107 0.327685 0.470922
Si Si5 0.624984 0.168160 0.264940
Si Si6 0.362034 0.477126 0.240101
Si Si7 0.591438 0.743026 0.019771
O O1 0.327838 0.905556 0.690496
O O2 0.305237 0.843245 0.554825
O O3 0.000000 0.969685 0.750000
O O4 0.500000 0.000000 0.500000
O O5 0.877662 0.215476 0.121135
O O6 0.849174 0.404554 0.136979
O O7 0.148179 0.314741 0.906208
O O8 0.209064 0.315899 0.027835
O O9 0.740975 0.567193 0.254939
O O10 0.650676 0.750220 0.313255
O O11 0.086356 0.682598 0.119611
O O12 0.441264 0.249651 0.377132
O O13 0.438459 0.429348 0.408358
O O14 0.528292 0.315702 0.474670
O O15 0.500000 0.118126 0.250000
O O16 0.500000 0.513360 0.250000
#
# Coordination Sequence:
#
# PCOD8118455 Si02
#       7
#     4   4   4   4   4   4   4
#     4  11  25  48  75 101 133 168 208 267 341 412
#     4  11  20  40  65  87 129 170 221 265 315 381
#     4  12  23  38  60  90 132 173 222 275 315 378
#     4  10  22  39  57  87 125 171 222 266 323 373
#     4  10  19  41  71  94 122 167 213 257 316 394
#     4  11  22  37  60  86 125 180 229 270 318 370
#     4  11  25  41  64  95 125 167 215 266 336 387
#
# _framework density 20.453686000000001
#
# number of rings (size 3 to 8) (size 9 to 14) (size 15 to 20)
#    0.000    1.143    4.286    3.000    2.000    2.857 
#    2.571    2.143    0.000    0.000    0.000    0.000 
#    0.000    0.000    0.000    0.000    0.000    0.000 
#
# Total GULP energy -347182.557474 kJ/mol
# GULP energy per Si atom -12399.377053 kJ/mol
# Density = 2.040713 g / cm^3
# Si number density = 20.453686 Si / 1000 Ang^3
#
#
#
# Elastic Constant Matrix: (Units=GPa)
#
#
# Indices 1 2 3 4 5 6 
#
# 1 118.0849 27.0772 42.7310 0.0000 -7.1944 0.0000
# 2 27.0772 53.4549 26.5381 0.0000 -2.8900 0.0000
# 3 42.7310 26.5381 114.9908 0.0000 -12.2734 0.0000
# 4 0.0000 0.0000 0.0000 30.2208 0.0000 1.2866
# 5 -7.1944 -2.8900 -12.2734 0.0000 37.1379 0.0000
# 6 0.0000 0.0000 0.0000 1.2866 0.0000 17.5996
#
#
#
# Elastic Compliance Matrix: (Units=1/GPa)
#
#
# Indices 1 2 3 4 5 6 
#
# 1 0.010443 -0.003798 -0.002923 0.000000 0.000762 0.000000
# 2 -0.003798 0.022509 -0.003809 0.000000 -0.000243 0.000000
# 3 -0.002923 -0.003809 0.010956 0.000000 0.002758 0.000000
# 4 0.000000 0.000000 0.000000 0.033193 0.000000 -0.002427
# 5 0.000762 -0.000243 0.002758 0.000000 0.027967 0.000000
# 6 0.000000 0.000000 0.000000 -0.002427 0.000000 0.056997
#
#
# Mechanical properties :
#
#
# Convention : Reuss Voigt Hill
#
# Bulk Modulus (GPa) = 43.76710 53.24705 48.50707
# Shear Modulus (GPa) = 26.21341 29.67061 27.94201
#
# Velocity S-wave (km/s) = 3.58383 3.81284 3.70010
# Velocity P-wave (km/s) = 6.21045 6.74338 6.48239
#
# Compressibility (1/GPa) = 0.02284821
#
# Stress axis : x y z
#
# Youngs Moduli (GPa) = 95.75355 44.42637 91.27308
#
# Poissons Ratio (x) = 0.16872 0.26680
# Poissons Ratio (y) = 0.36364 0.34770
# Poissons Ratio (z) = 0.27990 0.16924
#
# Static dielectric constant tensor:
#      x y z
#    x 3.852690 0.000000 -0.028190 
#    y 0.000000 3.392780 0.000000 
#    z -0.028190 0.000000 3.981980 
# 
# 
# High freq. dielectric constant tensor:
#      x y z
#    x 1.818490 0.000000 -0.005370 
#    y 0.000000 1.760400 0.000000 
#    z -0.005370 0.000000 1.813000 
# 
# From -- ./inp_files/64609.got.cif
#   From: 2010.06.25/outbox.cif.g09.slc.cpg/sg13_33_cif.got.tgz:64609.got - 2010.06.28 04:50:58.
