data_PCOD8118800
_publ_section_title
;
Structure prediction by ZEFSAII (Michael W. Deem and Ramdas Pophale) SiO2 
 PCOD8118800
Probable space group: P 2/C
;
_chemical_formula_sum "Si O2"
_cell_formula_units_Z 32
_cell_length_a 22.115579
_cell_length_b 13.710152
_cell_length_c 15.073662
_cell_angle_alpha 90.000000
_cell_angle_beta 159.569716
_cell_angle_gamma 90.000000
_cell_volume 1595.396566
_symmetry_space_group_name_H-M "P 2/C"
_symmetry_group_IT_number 13
_symmetry_cell_setting 'monoclinic'
loop_
_space_group_symop_operation_xyz
x,y,z
-x,y,1/2-z
-x,-y,-z
x,-y,1/2+z
loop_
_atom_site_type_symbol
_atom_site_label
_atom_site_fract_x
_atom_site_fract_y
_atom_site_fract_z
Si Si1 0.602022 0.782384 0.738912
Si Si2 0.556122 0.293775 0.924671
Si Si3 0.085264 0.177350 0.709936
Si Si4 0.955239 0.546339 0.583428
Si Si5 0.575919 0.607067 0.093777
Si Si6 0.297224 0.113540 0.293720
Si Si7 0.633825 0.932071 0.002198
Si Si8 0.077260 0.364347 0.081720
O O1 0.547710 0.671727 0.640287
O O2 0.608093 0.857736 0.666060
O O3 0.451495 0.827614 0.592225
O O4 0.791675 0.781310 0.043235
O O5 0.500000 0.320406 0.750000
O O6 0.412837 0.333538 0.797391
O O7 0.608831 0.179972 0.002476
O O8 0.728461 0.352547 0.185060
O O9 0.907572 0.130988 0.501646
O O10 0.039173 0.268114 0.584529
O O11 0.181909 0.091666 0.789101
O O12 0.765030 0.593202 0.312194
O O13 0.987394 0.443306 0.578858
O O14 0.000000 0.542038 0.750000
O O15 0.075502 0.612815 0.685134
O O16 0.500000 0.500000 0.000000
O O17 0.331709 0.001405 0.366336
O O18 0.500000 0.984662 0.750000
#
# Coordination Sequence:
#
# PCOD8118800 Si02
#       8
#     4   4   4   4   4   4   4   4
#     4  10  22  37  59  85 121 151 195 247 289 350
#     4  10  20  37  56  81 114 150 192 245 291 359
#     4  10  21  37  60  85 118 152 194 242 297 345
#     4  11  23  38  58  81 115 155 197 247 294 354
#     4  11  22  38  56  86 114 154 201 240 299 349
#     4  10  20  35  60  85 116 150 195 239 296 356
#     4  10  20  37  57  86 116 154 191 240 299 355
#     4  10  22  38  56  84 113 153 198 243 300 346
#
# _framework density 20.057708000000002
#
# number of rings (size 3 to 8) (size 9 to 14) (size 15 to 20)
#    0.000    1.750    1.250    3.000    1.750    0.000 
#    0.000    0.625    0.000   10.500    0.000    0.000 
#    0.000    0.000    0.000    0.000    0.000    0.000 
#
# Total GULP energy -396493.110886 kJ/mol
# GULP energy per Si atom -12390.409715 kJ/mol
# Density = 2.001206 g / cm^3
# Si number density = 20.057708 Si / 1000 Ang^3
#
#
#
# Elastic Constant Matrix: (Units=GPa)
#
#
# Indices 1 2 3 4 5 6 
#
# 1 82.3821 21.4423 17.8801 0.0000 -6.3487 0.0000
# 2 21.4423 86.1520 32.8897 0.0000 -4.8322 0.0000
# 3 17.8801 32.8897 69.5795 0.0000 -3.1155 0.0000
# 4 0.0000 0.0000 0.0000 20.1410 0.0000 -3.4859
# 5 -6.3487 -4.8322 -3.1155 0.0000 39.6082 0.0000
# 6 0.0000 0.0000 0.0000 -3.4859 0.0000 29.0585
#
#
#
# Elastic Compliance Matrix: (Units=1/GPa)
#
#
# Indices 1 2 3 4 5 6 
#
# 1 0.013373 -0.002381 -0.002236 0.000000 0.001677 0.000000
# 2 -0.002381 0.014645 -0.006270 0.000000 0.000912 0.000000
# 3 -0.002236 -0.006270 0.017923 0.000000 0.000286 0.000000
# 4 0.000000 0.000000 0.000000 0.050703 0.000000 0.006082
# 5 0.001677 0.000912 0.000286 0.000000 0.025650 0.000000
# 6 0.000000 0.000000 0.000000 0.006082 0.000000 0.035143
#
#
# Mechanical properties :
#
#
# Convention : Reuss Voigt Hill
#
# Bulk Modulus (GPa) = 41.37773 42.50420 41.94096
# Shear Modulus (GPa) = 26.70012 28.82164 27.76088
#
# Velocity S-wave (km/s) = 3.65247 3.79481 3.72432
# Velocity P-wave (km/s) = 6.20174 6.35906 6.28089
#
# Compressibility (1/GPa) = 0.02416759
#
# Stress axis : x y z
#
# Youngs Moduli (GPa) = 74.77898 68.28444 55.79371
#
# Poissons Ratio (x) = 0.16256 0.12476
# Poissons Ratio (y) = 0.17802 0.34982
# Poissons Ratio (z) = 0.16721 0.42813
#
# Static dielectric constant tensor:
#      x y z
#    x 3.659380 0.000000 0.059600 
#    y 0.000000 3.507170 0.000000 
#    z 0.059600 0.000000 3.662890 
# 
# 
# High freq. dielectric constant tensor:
#      x y z
#    x 1.789560 0.000000 0.009080 
#    y 0.000000 1.778800 0.000000 
#    z 0.009080 0.000000 1.779400 
# 
# From -- ./inp_files/57891.got.cif
#   From: 2010.06.25/outbox.cif.g09.slc.cpg/sg13_29_cif.got.tgz:57891.got - 2010.06.28 04:50:58.
