data_PCOD8118081
_publ_section_title
;
Structure prediction by ZEFSAII (Michael W. Deem and Ramdas Pophale) SiO2 
 PCOD8118081
Probable space group: P 2/C
;
_chemical_formula_sum "Si O2"
_cell_formula_units_Z 32
_cell_length_a 25.521547
_cell_length_b 8.411629
_cell_length_c 14.936054
_cell_angle_alpha 90.000000
_cell_angle_beta 28.778985
_cell_angle_gamma 90.000000
_cell_volume 1543.683069
_symmetry_space_group_name_H-M "P 2/C"
_symmetry_group_IT_number 13
_symmetry_cell_setting 'monoclinic'
loop_
_space_group_symop_operation_xyz
x,y,z
-x,y,1/2-z
-x,-y,-z
x,-y,1/2+z
loop_
_atom_site_type_symbol
_atom_site_label
_atom_site_fract_x
_atom_site_fract_y
_atom_site_fract_z
Si Si1 0.502045 0.566534 0.594411
Si Si2 0.735829 0.937546 0.544474
Si Si3 0.878728 0.063831 0.176622
Si Si4 0.731398 0.564153 0.541575
Si Si5 0.735280 0.565978 0.233711
Si Si6 0.880638 0.565905 0.668109
Si Si7 0.730309 0.939806 0.243408
Si Si8 0.498217 0.914975 0.648281
O O1 0.500000 0.500000 0.500000
O O2 0.390508 0.509396 0.809846
O O3 0.620585 0.517691 0.456301
O O4 0.494182 0.755320 0.597000
O O5 0.745648 0.752311 0.504308
O O6 0.613369 0.007716 0.709311
O O7 0.820358 0.036406 0.358737
O O8 0.766997 0.964084 0.600945
O O9 0.881038 0.248161 0.148914
O O10 0.815041 0.971080 0.195020
O O11 0.000000 0.000000 0.000000
O O12 0.750733 0.524706 0.616813
O O13 0.816712 0.469516 0.354842
O O14 0.831361 0.521396 0.155931
O O15 0.732759 0.753263 0.218392
O O16 0.000000 0.500000 0.500000
O O17 0.609878 0.004108 0.453348
O O18 0.500000 0.873066 0.750000
#
# Coordination Sequence:
#
# PCOD8118081 Si02
#       8
#     4   4   4   4   4   4   4   4
#     4   8  18  33  59  92 127 162 204 246 302 369
#     4  11  22  40  66  95 130 168 209 259 314 375
#     4  12  26  45  64  91 125 162 216 266 317 378
#     4  10  21  40  63  94 127 164 206 253 310 369
#     4  10  21  40  63  94 127 164 206 253 310 369
#     4  12  26  43  64  89 119 164 212 262 313 372
#     4  11  22  40  66  95 130 168 209 259 314 375
#     4  10  19  35  63  95 131 172 208 252 318 379
#
# _framework density 20.729645000000001
#
# number of rings (size 3 to 8) (size 9 to 14) (size 15 to 20)
#    0.000    1.500    1.250    4.125    5.250    1.000 
#    0.000   10.000    0.000    0.000    0.000    0.000 
#    0.000    0.000    0.000    0.000    0.000    0.000 
#
# Total GULP energy -396640.294715 kJ/mol
# GULP energy per Si atom -12395.009210 kJ/mol
# Density = 2.068246 g / cm^3
# Si number density = 20.729645 Si / 1000 Ang^3
#
#
#
# Elastic Constant Matrix: (Units=GPa)
#
#
# Indices 1 2 3 4 5 6 
#
# 1 94.4181 4.1723 48.9352 0.0000 -7.1148 0.0000
# 2 4.1723 58.9300 12.5303 0.0000 -1.1451 0.0000
# 3 48.9352 12.5303 124.9854 0.0000 -23.2190 0.0000
# 4 0.0000 0.0000 0.0000 27.7471 0.0000 2.2557
# 5 -7.1148 -1.1451 -23.2190 0.0000 39.6222 0.0000
# 6 0.0000 0.0000 0.0000 2.2557 0.0000 33.6454
#
#
#
# Elastic Compliance Matrix: (Units=1/GPa)
#
#
# Indices 1 2 3 4 5 6 
#
# 1 0.013309 0.000185 -0.005369 0.000000 -0.000751 0.000000
# 2 0.000185 0.017353 -0.001922 0.000000 -0.000592 0.000000
# 3 -0.005369 -0.001922 0.011341 0.000000 0.005626 0.000000
# 4 0.000000 0.000000 0.000000 0.036237 0.000000 -0.002430
# 5 -0.000751 -0.000592 0.005626 0.000000 0.028383 0.000000
# 6 0.000000 0.000000 0.000000 -0.002430 0.000000 0.029885
#
#
# Mechanical properties :
#
#
# Convention : Reuss Voigt Hill
#
# Bulk Modulus (GPa) = 35.98285 45.51211 40.74748
# Shear Modulus (GPa) = 31.25298 34.38265 32.81782
#
# Velocity S-wave (km/s) = 3.88706 4.07704 3.98318
# Velocity P-wave (km/s) = 6.12711 6.64573 6.39168
#
# Compressibility (1/GPa) = 0.02779101
#
# Stress axis : x y z
#
# Youngs Moduli (GPa) = 75.13693 57.62565 88.17645
#
# Poissons Ratio (x) = -0.01064 0.47341
# Poissons Ratio (y) = -0.01388 0.16947
# Poissons Ratio (z) = 0.40340 0.11075
#
# Static dielectric constant tensor:
#      x y z
#    x 3.697070 0.000000 -0.230750 
#    y 0.000000 3.641800 0.000000 
#    z -0.230750 0.000000 4.180800 
# 
# 
# High freq. dielectric constant tensor:
#      x y z
#    x 1.813970 0.000000 -0.005360 
#    y 0.000000 1.799160 0.000000 
#    z -0.005360 0.000000 1.824360 
# 
# From -- ./inp_files/58796.got.cif
#   From: 2010.06.25/outbox.cif.g09.slc.cpg/sg13_30_cif.got.tgz:58796.got - 2010.06.28 04:50:58.
