data_PCOD8118719
_publ_section_title
;
Structure prediction by ZEFSAII (Michael W. Deem and Ramdas Pophale) SiO2 
 PCOD8118719
Probable space group: P 2/C
;
_chemical_formula_sum "Si O2"
_cell_formula_units_Z 32
_cell_length_a 22.937658
_cell_length_b 10.584956
_cell_length_c 17.611705
_cell_angle_alpha 90.000000
_cell_angle_beta 20.749100
_cell_angle_gamma 90.000000
_cell_volume 1514.892072
_symmetry_space_group_name_H-M "P 2/C"
_symmetry_group_IT_number 13
_symmetry_cell_setting 'monoclinic'
loop_
_space_group_symop_operation_xyz
x,y,z
-x,y,1/2-z
-x,-y,-z
x,-y,1/2+z
loop_
_atom_site_type_symbol
_atom_site_label
_atom_site_fract_x
_atom_site_fract_y
_atom_site_fract_z
Si Si1 0.208218 0.683977 0.370388
Si Si2 0.832222 0.713670 0.494030
Si Si3 0.309386 0.554921 0.385336
Si Si4 0.636345 0.570911 0.457211
Si Si5 0.492299 0.821512 0.675957
Si Si6 0.855648 0.610957 0.758704
Si Si7 0.099202 0.809150 0.923125
Si Si8 0.216449 0.912676 0.264498
O O1 0.254677 0.673343 0.401197
O O2 0.351356 0.620101 0.144253
O O3 0.194239 0.832355 0.368937
O O4 0.039609 0.606916 0.564652
O O5 0.786762 0.570604 0.526016
O O6 0.689504 0.807095 0.637832
O O7 0.860737 0.729263 0.549868
O O8 0.000000 0.755738 0.250000
O O9 0.272717 0.601176 0.514846
O O10 0.503103 0.538717 0.133164
O O11 0.583990 0.686746 0.574297
O O12 0.817031 0.517789 0.259144
O O13 0.500000 0.884022 0.750000
O O14 0.597394 0.909262 0.492097
O O15 0.829628 0.732492 0.736037
O O16 0.187194 0.943357 0.819552
O O17 0.905430 0.843373 0.148186
#
# Coordination Sequence:
#
# PCOD8118719 Si02
#       8
#     4   4   4   4   4   4   4   4
#     4  10  20  35  58  82 110 151 195 241 290 347
#     4  11  22  37  61  91 119 151 196 244 292 355
#     4  11  22  36  55  87 122 149 187 241 299 360
#     4  10  20  35  55  82 116 154 188 234 298 358
#     4  10  20  36  59  86 118 154 193 244 299 348
#     4  11  21  35  58  85 117 152 189 239 297 354
#     4  10  22  41  61  83 116 157 200 244 290 347
#     4   9  21  41  60  81 114 157 203 243 288 347
#
# _framework density 21.123618
#
# number of rings (size 3 to 8) (size 9 to 14) (size 15 to 20)
#    0.000    1.750    0.000    5.250    0.000    6.500 
#    0.000    6.250    0.000    0.000    0.000    0.000 
#    0.000    0.000    0.000    0.000    0.000    0.000 
#
# Total GULP energy -396618.372679 kJ/mol
# GULP energy per Si atom -12394.324146 kJ/mol
# Density = 2.107554 g / cm^3
# Si number density = 21.123618 Si / 1000 Ang^3
#
#
#
# Elastic Constant Matrix: (Units=GPa)
#
#
# Indices 1 2 3 4 5 6 
#
# 1 97.7875 30.7899 8.2955 0.0000 14.7458 0.0000
# 2 30.7899 70.2971 26.0650 0.0000 8.3336 0.0000
# 3 8.2955 26.0650 84.6064 0.0000 -5.9888 0.0000
# 4 0.0000 0.0000 0.0000 20.4446 0.0000 -4.7767
# 5 14.7458 8.3336 -5.9888 0.0000 23.1248 0.0000
# 6 0.0000 0.0000 0.0000 -4.7767 0.0000 23.9871
#
#
#
# Elastic Compliance Matrix: (Units=1/GPa)
#
#
# Indices 1 2 3 4 5 6 
#
# 1 0.012705 -0.004703 -0.000255 0.000000 -0.006473 0.000000
# 2 -0.004703 0.019071 -0.005795 0.000000 -0.005375 0.000000
# 3 -0.000255 -0.005795 0.014046 0.000000 0.005889 0.000000
# 4 0.000000 0.000000 0.000000 0.051299 0.000000 0.010216
# 5 -0.006473 -0.005375 0.005889 0.000000 0.050833 0.000000
# 6 0.000000 0.000000 0.000000 0.010216 0.000000 0.043723
#
#
# Mechanical properties :
#
#
# Convention : Reuss Voigt Hill
#
# Bulk Modulus (GPa) = 41.12313 42.55465 41.83889
# Shear Modulus (GPa) = 22.59504 26.01403 24.30453
#
# Velocity S-wave (km/s) = 3.27411 3.51310 3.39571
# Velocity P-wave (km/s) = 5.81405 6.05352 5.93499
#
# Compressibility (1/GPa) = 0.02431721
#
# Stress axis : x y z
#
# Youngs Moduli (GPa) = 78.71144 52.43620 71.19263
#
# Poissons Ratio (x) = 0.24659 0.01816
# Poissons Ratio (y) = 0.37016 0.41253
# Poissons Ratio (z) = 0.02007 0.30384
#
# Static dielectric constant tensor:
#      x y z
#    x 3.851550 0.000000 -0.083900 
#    y 0.000000 3.536950 0.000000 
#    z -0.083900 0.000000 4.045730 
# 
# 
# High freq. dielectric constant tensor:
#      x y z
#    x 1.828540 0.000000 -0.002290 
#    y 0.000000 1.799640 0.000000 
#    z -0.002290 0.000000 1.838380 
# 
# From -- ./inp_files/71453.got.cif
#   From: 2010.06.25/outbox.cif.g09.slc.cpg/sg13_36_cif.got.tgz:71453.got - 2010.06.28 04:50:58.
