data_PCOD8118498
_publ_section_title
;
Structure prediction by ZEFSAII (Michael W. Deem and Ramdas Pophale) SiO2 
 PCOD8118498
Probable space group: P 2/C
;
_chemical_formula_sum "Si O2"
_cell_formula_units_Z 26
_cell_length_a 14.423647
_cell_length_b 19.705883
_cell_length_c 5.245458
_cell_angle_alpha 90.000000
_cell_angle_beta 64.699521
_cell_angle_gamma 90.000000
_cell_volume 1347.909609
_symmetry_space_group_name_H-M "P 2/C"
_symmetry_group_IT_number 13
_symmetry_cell_setting 'monoclinic'
loop_
_space_group_symop_operation_xyz
x,y,z
-x,y,1/2-z
-x,-y,-z
x,-y,1/2+z
loop_
_atom_site_type_symbol
_atom_site_label
_atom_site_fract_x
_atom_site_fract_y
_atom_site_fract_z
Si Si1 0.067839 0.827363 0.421217
Si Si2 0.208521 0.042566 0.734377
Si Si3 0.344194 0.682118 0.560199
Si Si4 0.609787 0.863899 0.494551
Si Si5 0.614548 0.528017 0.908839
Si Si6 0.742391 0.740315 0.368064
Si Si7 0.500000 0.219683 0.750000
O O1 0.132351 0.895875 0.372391
O O2 0.141208 0.761825 0.323426
O O3 0.000000 0.831000 0.250000
O O4 0.000000 0.818663 0.750000
O O5 0.327229 0.066574 0.609751
O O6 0.187869 0.011916 0.479849
O O7 0.384584 0.605911 0.510258
O O8 0.302881 0.703243 0.328935
O O9 0.442283 0.730061 0.516428
O O10 0.260515 0.689981 0.884533
O O11 0.680609 0.807005 0.544874
O O12 0.587866 0.830135 0.248575
O O13 0.500000 0.878602 0.750000
O O14 0.670668 0.513851 0.572238
O O15 0.500000 0.500000 0.000000
#
# Coordination Sequence:
#
# PCOD8118498 Si02
#       7
#     4   4   4   4   4   4   2
#     4  11  23  42  68  88 112 141 178 247 316 357
#     4  11  26  41  57  83 114 146 189 234 283 358
#     4  11  20  34  55  80 120 159 196 236 273 325
#     4  10  21  36  55  76 112 149 195 237 278 330
#     4  10  20  32  47  75 117 164 206 232 257 305
#     4  10  22  37  57  88 114 144 195 241 292 352
#     4  10  20  32  54  78 104 156 204 232 278 330
#
# _framework density 19.289126
#
# number of rings (size 3 to 8) (size 9 to 14) (size 15 to 20)
#    0.000    1.538    1.538    3.692    2.154    8.615 
#    0.000    0.000    0.000    0.000    0.000    0.000 
#    0.000   43.077    0.000    0.000    0.000    0.000 
#
# Total GULP energy -322143.748110 kJ/mol
# GULP energy per Si atom -12390.144158 kJ/mol
# Density = 1.924522 g / cm^3
# Si number density = 19.289126 Si / 1000 Ang^3
#
#
#
# Elastic Constant Matrix: (Units=GPa)
#
#
# Indices 1 2 3 4 5 6 
#
# 1 74.8611 32.9744 40.6173 0.0000 -4.1468 0.0000
# 2 32.9744 83.4879 37.5213 0.0000 -0.9601 0.0000
# 3 40.6173 37.5213 138.2386 0.0000 6.6256 0.0000
# 4 0.0000 0.0000 0.0000 28.6693 0.0000 3.6478
# 5 -4.1468 -0.9601 6.6256 0.0000 38.3105 0.0000
# 6 0.0000 0.0000 0.0000 3.6478 0.0000 29.1129
#
#
#
# Elastic Compliance Matrix: (Units=1/GPa)
#
#
# Indices 1 2 3 4 5 6 
#
# 1 0.017978 -0.005289 -0.003967 0.000000 0.002499 0.000000
# 2 -0.005289 0.015235 -0.002593 0.000000 0.000258 0.000000
# 3 -0.003967 -0.002593 0.009203 0.000000 -0.002086 0.000000
# 4 0.000000 0.000000 0.000000 0.035446 0.000000 -0.004441
# 5 0.002499 0.000258 -0.002086 0.000000 0.026740 0.000000
# 6 0.000000 0.000000 0.000000 -0.004441 0.000000 0.034905
#
#
# Mechanical properties :
#
#
# Convention : Reuss Voigt Hill
#
# Bulk Modulus (GPa) = 53.42376 57.64595 55.53485
# Shear Modulus (GPa) = 29.50779 31.58353 30.54566
#
# Velocity S-wave (km/s) = 3.91546 4.05084 3.98373
# Velocity P-wave (km/s) = 6.94245 7.19925 7.07201
#
# Compressibility (1/GPa) = 0.01871826
#
# Stress axis : x y z
#
# Youngs Moduli (GPa) = 55.62200 65.63654 108.65729
#
# Poissons Ratio (x) = 0.34718 0.43100
# Poissons Ratio (y) = 0.29421 0.28180
# Poissons Ratio (z) = 0.22063 0.17023
#
# Static dielectric constant tensor:
#      x y z
#    x 2.582090 0.000000 -1.494430 
#    y 0.000000 3.451610 0.000000 
#    z -1.494430 0.000000 1.073890 
# 
# 
# High freq. dielectric constant tensor:
#      x y z
#    x 1.727470 0.000000 0.017340 
#    y 0.000000 1.742760 0.000000 
#    z 0.017340 0.000000 1.761500 
# 
# From -- ./inp_files/5192.got.cif
#   From: 2010.06.25/outbox.cif.g09.slc.cpg/sg13_3_cif.got.tgz:5192.got - 2010.06.28 04:50:58.
