data_PCOD8118311
_publ_section_title
;
Structure prediction by ZEFSAII (Michael W. Deem and Ramdas Pophale) SiO2 
 PCOD8118311
Probable space group: P 2/C
;
_chemical_formula_sum "Si O2"
_cell_formula_units_Z 24
_cell_length_a 6.337417
_cell_length_b 13.554207
_cell_length_c 14.460339
_cell_angle_alpha 90.000000
_cell_angle_beta 109.550391
_cell_angle_gamma 90.000000
_cell_volume 1170.512288
_symmetry_space_group_name_H-M "P 2/C"
_symmetry_group_IT_number 13
_symmetry_cell_setting 'monoclinic'
loop_
_space_group_symop_operation_xyz
x,y,z
-x,y,1/2-z
-x,-y,-z
x,-y,1/2+z
loop_
_atom_site_type_symbol
_atom_site_label
_atom_site_fract_x
_atom_site_fract_y
_atom_site_fract_z
Si Si1 0.104574 0.478778 0.367215
Si Si2 0.369901 0.976431 0.573485
Si Si3 0.773693 0.140557 0.170772
Si Si4 0.103621 0.651565 0.502829
Si Si5 0.925845 0.855909 0.485812
Si Si6 0.553605 0.658686 0.656761
O O1 0.124089 0.587831 0.412642
O O2 0.347486 0.430246 0.390136
O O3 0.000000 0.483631 0.250000
O O4 0.966540 0.412237 0.418589
O O5 0.559778 0.928170 0.668090
O O6 0.175645 0.898308 0.521867
O O7 0.500000 0.000000 0.500000
O O8 0.246225 0.074382 0.598912
O O9 0.727155 0.251780 0.197964
O O10 0.000000 0.099102 0.250000
O O11 0.813932 0.141972 0.068845
O O12 0.935850 0.742104 0.453961
O O13 0.341266 0.697713 0.567705
O O14 0.500000 0.615414 0.750000
#
# Coordination Sequence:
#
# PCOD8118311 Si02
#       6
#     4   4   4   4   4   4
#     4  11  23  40  57  91 124 157 210 261 311 379
#     4   9  20  35  57  84 117 155 196 250 305 372
#     4  11  21  32  56  93 124 155 195 259 320 365
#     4  11  22  37  64  86 121 169 205 256 320 367
#     4  10  19  38  58  87 117 160 204 247 301 376
#     4  12  21  35  57  92 129 157 201 263 315 372
#
# _framework density 20.503844000000001
#
# number of rings (size 3 to 8) (size 9 to 14) (size 15 to 20)
#    0.000    1.333    5.000    2.000    0.000    0.000 
#    0.000    0.000    0.000   11.000    0.000    0.000 
#    0.000    0.000    0.000    0.000    0.000    0.000 
#
# Total GULP energy -297381.910587 kJ/mol
# GULP energy per Si atom -12390.912941 kJ/mol
# Density = 2.045718 g / cm^3
# Si number density = 20.503844 Si / 1000 Ang^3
#
#
#
# Elastic Constant Matrix: (Units=GPa)
#
#
# Indices 1 2 3 4 5 6 
#
# 1 114.9145 58.0109 33.1635 0.0000 12.8706 0.0000
# 2 58.0109 144.6675 48.5585 0.0000 12.5980 0.0000
# 3 33.1635 48.5585 59.7391 0.0000 -6.1684 0.0000
# 4 0.0000 0.0000 0.0000 20.7482 0.0000 2.5965
# 5 12.8706 12.5980 -6.1684 0.0000 32.5241 0.0000
# 6 0.0000 0.0000 0.0000 2.5965 0.0000 32.3350
#
#
#
# Elastic Compliance Matrix: (Units=1/GPa)
#
#
# Indices 1 2 3 4 5 6 
#
# 1 0.012036 -0.002780 -0.004898 0.000000 -0.004615 0.000000
# 2 -0.002780 0.011117 -0.007980 0.000000 -0.004719 0.000000
# 3 -0.004898 -0.007980 0.026993 0.000000 0.010149 0.000000
# 4 0.000000 0.000000 0.000000 0.048686 0.000000 -0.003910
# 5 -0.004615 -0.004719 0.010149 0.000000 0.036325 0.000000
# 6 0.000000 0.000000 0.000000 -0.003910 0.000000 0.031240
#
#
# Mechanical properties :
#
#
# Convention : Reuss Voigt Hill
#
# Bulk Modulus (GPa) = 53.11021 66.53186 59.82104
# Shear Modulus (GPa) = 24.51084 29.09402 26.80243
#
# Velocity S-wave (km/s) = 3.46124 3.77099 3.61943
# Velocity P-wave (km/s) = 6.47552 7.17491 6.83417
#
# Compressibility (1/GPa) = 0.01882877
#
# Stress axis : x y z
#
# Youngs Moduli (GPa) = 83.08246 89.95373 37.04658
#
# Poissons Ratio (x) = 0.25011 0.18146
# Poissons Ratio (y) = 0.23101 0.29563
# Poissons Ratio (z) = 0.40696 0.71783
#
# Static dielectric constant tensor:
#      x y z
#    x 3.888430 0.000000 -0.007400 
#    y 0.000000 4.124040 0.000000 
#    z -0.007400 0.000000 3.468160 
# 
# 
# High freq. dielectric constant tensor:
#      x y z
#    x 1.826810 0.000000 -0.007390 
#    y 0.000000 1.800720 0.000000 
#    z -0.007390 0.000000 1.761990 
# 
# From -- ./inp_files/44074.got.cif
#   From: 2010.06.25/outbox.cif.g09.slc.cpg/sg13_23_cif.got.tgz:44074.got - 2010.06.28 04:50:58.
