data_PCOD8118344
_publ_section_title
;
Structure prediction by ZEFSAII (Michael W. Deem and Ramdas Pophale) SiO2 
 PCOD8118344
Probable space group: P 2/C
;
_chemical_formula_sum "Si O2"
_cell_formula_units_Z 26
_cell_length_a 10.591833
_cell_length_b 8.212347
_cell_length_c 22.002892
_cell_angle_alpha 90.000000
_cell_angle_beta 44.137604
_cell_angle_gamma 90.000000
_cell_volume 1332.806016
_symmetry_space_group_name_H-M "P 2/C"
_symmetry_group_IT_number 13
_symmetry_cell_setting 'monoclinic'
loop_
_space_group_symop_operation_xyz
x,y,z
-x,y,1/2-z
-x,-y,-z
x,-y,1/2+z
loop_
_atom_site_type_symbol
_atom_site_label
_atom_site_fract_x
_atom_site_fract_y
_atom_site_fract_z
Si Si1 0.500000 0.552789 0.250000
Si Si2 0.610868 0.583486 0.013928
Si Si3 0.390711 0.672311 0.888188
Si Si4 0.187212 0.999338 0.969763
Si Si5 0.134028 0.848909 0.615655
Si Si6 0.468590 0.198392 0.661564
Si Si7 0.735652 0.878852 0.797258
O O1 0.628603 0.430693 0.167620
O O2 0.599001 0.672880 0.264100
O O3 0.790237 0.671311 0.927149
O O4 0.500000 0.500000 0.000000
O O5 0.680844 0.444692 0.034569
O O6 0.476534 0.711107 0.093920
O O7 0.258122 0.821747 0.930644
O O8 0.595449 0.733682 0.831399
O O9 0.327610 0.132326 0.894020
O O10 0.167052 0.024375 0.049318
O O11 0.000000 0.000000 0.000000
O O12 0.240346 0.909024 0.638947
O O13 0.921765 0.828252 0.701240
O O14 0.329497 0.049552 0.708271
#
# Coordination Sequence:
#
# PCOD8118344 Si02
#       7
#     2   4   4   4   4   4   4
#     4  10  22  40  58  92 116 156 202 244 298 366
#     4  10  19  38  62  89 122 155 191 250 310 367
#     4  10  22  39  65  87 119 169 198 239 317 358
#     4  10  23  39  61  92 118 162 207 244 294 368
#     4  10  22  38  61  92 123 149 210 255 294 358
#     4   9  22  38  63  84 118 164 201 243 303 358
#     4  10  21  39  64  89 116 162 203 257 295 351
#
# _framework density 19.507717
#
# number of rings (size 3 to 8) (size 9 to 14) (size 15 to 20)
#    0.000    2.154    1.538    0.000    6.462    3.077 
#    2.769    2.308    0.000    0.000    0.000    0.000 
#    0.000    0.000    0.000    0.000    0.000    0.000 
#
# Total GULP energy -322292.941500 kJ/mol
# GULP energy per Si atom -12395.882365 kJ/mol
# Density = 1.946332 g / cm^3
# Si number density = 19.507717 Si / 1000 Ang^3
#
#
#
# Elastic Constant Matrix: (Units=GPa)
#
#
# Indices 1 2 3 4 5 6 
#
# 1 113.7989 61.2532 71.9612 0.0000 1.4664 0.0000
# 2 61.2532 143.4941 71.6122 0.0000 5.1210 0.0000
# 3 71.9612 71.6122 115.7763 0.0000 7.9061 0.0000
# 4 0.0000 0.0000 0.0000 32.6716 0.0000 8.0106
# 5 1.4664 5.1210 7.9061 0.0000 34.5101 0.0000
# 6 0.0000 0.0000 0.0000 8.0106 0.0000 27.5635
#
#
#
# Elastic Compliance Matrix: (Units=1/GPa)
#
#
# Indices 1 2 3 4 5 6 
#
# 1 0.015177 -0.002565 -0.007953 0.000000 0.001558 0.000000
# 2 -0.002565 0.010514 -0.004887 0.000000 -0.000332 0.000000
# 3 -0.007953 -0.004887 0.016793 0.000000 -0.002784 0.000000
# 4 0.000000 0.000000 0.000000 0.032956 0.000000 -0.009578
# 5 0.001558 -0.000332 -0.002784 0.000000 0.029598 0.000000
# 6 0.000000 0.000000 0.000000 -0.009578 0.000000 0.039063
#
#
# Mechanical properties :
#
#
# Convention : Reuss Voigt Hill
#
# Bulk Modulus (GPa) = 85.65158 86.96917 86.31038
# Shear Modulus (GPa) = 27.96355 30.16522 29.06439
#
# Velocity S-wave (km/s) = 3.79022 3.93660 3.86410
# Velocity P-wave (km/s) = 7.94708 8.08338 8.01552
#
# Compressibility (1/GPa) = 0.01167521
#
# Stress axis : x y z
#
# Youngs Moduli (GPa) = 65.88755 95.10732 59.54734
#
# Poissons Ratio (x) = 0.24397 0.47360
# Poissons Ratio (y) = 0.16901 0.29098
# Poissons Ratio (z) = 0.52402 0.46474
#
# Static dielectric constant tensor:
#      x y z
#    x 3.318550 0.000000 0.129980 
#    y 0.000000 3.973730 0.000000 
#    z 0.129980 0.000000 3.641380 
# 
# 
# High freq. dielectric constant tensor:
#      x y z
#    x 1.749190 0.000000 0.021140 
#    y 0.000000 1.772960 0.000000 
#    z 0.021140 0.000000 1.760770 
# 
# From -- ./inp_files/75922.got.cif
#   From: 2010.06.25/outbox.cif.g09.slc.cpg/sg13_38_cif.got.tgz:75922.got - 2010.06.28 04:50:58.
