data_PCOD8118328
_publ_section_title
;
Structure prediction by ZEFSAII (Michael W. Deem and Ramdas Pophale) SiO2 
 PCOD8118328
Probable space group: P 2/C
;
_chemical_formula_sum "Si O2"
_cell_formula_units_Z 28
_cell_length_a 23.986477
_cell_length_b 9.021642
_cell_length_c 8.969863
_cell_angle_alpha 90.000000
_cell_angle_beta 137.939089
_cell_angle_gamma 90.000000
_cell_volume 1300.352148
_symmetry_space_group_name_H-M "P 2/C"
_symmetry_group_IT_number 13
_symmetry_cell_setting 'monoclinic'
loop_
_space_group_symop_operation_xyz
x,y,z
-x,y,1/2-z
-x,-y,-z
x,-y,1/2+z
loop_
_atom_site_type_symbol
_atom_site_label
_atom_site_fract_x
_atom_site_fract_y
_atom_site_fract_z
Si Si1 0.917643 0.180172 0.772374
Si Si2 0.500000 0.203414 0.250000
Si Si3 0.098604 0.896046 0.582191
Si Si4 0.757161 0.697423 0.572981
Si Si5 0.500000 0.191811 0.750000
Si Si6 0.391128 0.914859 0.287144
Si Si7 0.223044 0.402421 0.047748
Si Si8 0.383911 0.748618 0.776388
O O1 0.883028 0.099196 0.556735
O O2 0.864108 0.331112 0.685363
O O3 0.906823 0.068375 0.887788
O O4 0.016836 0.204994 0.953789
O O5 0.570842 0.107609 0.473409
O O6 0.552331 0.298364 0.230679
O O7 0.173791 0.821386 0.818111
O O8 0.670327 0.780087 0.373993
O O9 0.776360 0.576694 0.483876
O O10 0.763419 0.626536 0.750248
O O11 0.535433 0.086669 0.689293
O O12 0.429347 0.288695 0.525517
O O13 0.353374 0.079510 0.208572
O O14 0.299355 0.342359 0.099647
#
# Coordination Sequence:
#
# PCOD8118328 Si02
#       8
#     4   2   4   4   2   4   4   4
#     4   9  19  39  66  95 122 151 192 242 293 346
#     4  10  23  34  65  94 109 142 205 248 311 352
#     4   9  19  39  66  95 122 151 192 242 293 346
#     4  11  25  41  57  84 123 164 199 238 289 350
#     4  10  19  38  61  86 115 148 191 254 303 348
#     4  11  20  38  62  88 115 150 195 252 299 354
#     4  11  25  41  57  84 123 164 199 238 289 350
#     4  11  20  38  62  88 115 150 195 252 299 354
#
# _framework density 21.532630000000001
#
# number of rings (size 3 to 8) (size 9 to 14) (size 15 to 20)
#    0.000    1.714    1.429    4.286    2.000    1.714 
#    0.000    4.286    0.000    0.000    0.000    0.000 
#    0.000    0.000    0.000    0.000    0.000    0.000 
#
# Total GULP energy -347048.148903 kJ/mol
# GULP energy per Si atom -12394.576747 kJ/mol
# Density = 2.148362 g / cm^3
# Si number density = 21.532630 Si / 1000 Ang^3
#
#
#
# Elastic Constant Matrix: (Units=GPa)
#
#
# Indices 1 2 3 4 5 6 
#
# 1 63.9125 5.4018 19.3486 0.0000 -5.2303 0.0000
# 2 5.4018 48.2350 17.2072 0.0000 3.0556 0.0000
# 3 19.3486 17.2072 88.8439 0.0000 0.8767 0.0000
# 4 0.0000 0.0000 0.0000 19.5603 0.0000 -5.7766
# 5 -5.2303 3.0556 0.8767 0.0000 30.7415 0.0000
# 6 0.0000 0.0000 0.0000 -5.7766 0.0000 18.4444
#
#
#
# Elastic Compliance Matrix: (Units=1/GPa)
#
#
# Indices 1 2 3 4 5 6 
#
# 1 0.017054 -0.000827 -0.003584 0.000000 0.003086 0.000000
# 2 -0.000827 0.022446 -0.004145 0.000000 -0.002253 0.000000
# 3 -0.003584 -0.004145 0.012845 0.000000 -0.000564 0.000000
# 4 0.000000 0.000000 0.000000 0.056335 0.000000 0.017644
# 5 0.003086 -0.002253 -0.000564 0.000000 0.033294 0.000000
# 6 0.000000 0.000000 0.000000 0.017644 0.000000 0.059743
#
#
# Mechanical properties :
#
#
# Convention : Reuss Voigt Hill
#
# Bulk Modulus (GPa) = 28.38305 31.65631 30.01968
# Shear Modulus (GPa) = 21.68516 24.35149 23.01833
#
# Velocity S-wave (km/s) = 3.17690 3.36655 3.27310
# Velocity P-wave (km/s) = 5.16401 5.46306 5.31564
#
# Compressibility (1/GPa) = 0.03523230
#
# Stress axis : x y z
#
# Youngs Moduli (GPa) = 58.63757 44.55162 77.85322
#
# Poissons Ratio (x) = 0.03683 0.27906
# Poissons Ratio (y) = 0.04847 0.32270
# Poissons Ratio (z) = 0.21018 0.18467
#
# Static dielectric constant tensor:
#      x y z
#    x 3.938440 0.000000 0.014720 
#    y 0.000000 3.498010 0.000000 
#    z 0.014720 0.000000 4.056000 
# 
# 
# High freq. dielectric constant tensor:
#      x y z
#    x 1.851500 0.000000 -0.001460 
#    y 0.000000 1.809980 0.000000 
#    z -0.001460 0.000000 1.855100 
# 
# From -- ./inp_files/24627.got.cif
#   From: 2010.06.25/outbox.cif.g09.slc.cpg/sg13_13_cif.got.tgz:24627.got - 2010.06.28 04:50:58.
