data_PCOD8118358
_publ_section_title
;
Structure prediction by ZEFSAII (Michael W. Deem and Ramdas Pophale) SiO2 
 PCOD8118358
Probable space group: P 2/C
;
_chemical_formula_sum "Si O2"
_cell_formula_units_Z 24
_cell_length_a 9.679144
_cell_length_b 12.080817
_cell_length_c 11.048569
_cell_angle_alpha 90.000000
_cell_angle_beta 124.115426
_cell_angle_gamma 90.000000
_cell_volume 1069.601694
_symmetry_space_group_name_H-M "P 2/C"
_symmetry_group_IT_number 13
_symmetry_cell_setting 'monoclinic'
loop_
_space_group_symop_operation_xyz
x,y,z
-x,y,1/2-z
-x,-y,-z
x,-y,1/2+z
loop_
_atom_site_type_symbol
_atom_site_label
_atom_site_fract_x
_atom_site_fract_y
_atom_site_fract_z
Si Si1 0.269874 0.825971 0.571176
Si Si2 0.819004 0.356403 0.630715
Si Si3 0.654586 0.063014 0.909992
Si Si4 0.817200 0.401406 0.099364
Si Si5 0.697670 0.717872 0.321987
Si Si6 0.616636 0.790790 0.621383
O O1 0.143286 0.734831 0.455832
O O2 0.439514 0.773894 0.598121
O O3 0.257111 0.827578 0.710134
O O4 0.237058 0.952387 0.511276
O O5 0.737783 0.474862 0.556944
O O6 0.719058 0.300160 0.690784
O O7 0.000000 0.399992 0.750000
O O8 0.500000 0.021834 0.750000
O O9 0.755051 0.156869 0.885185
O O10 0.599931 0.113630 0.012135
O O11 0.682318 0.324246 0.100276
O O12 0.000000 0.386552 0.250000
O O13 0.814411 0.364939 0.956584
O O14 0.500000 0.706819 0.250000
#
# Coordination Sequence:
#
# PCOD8118358 Si02
#       6
#     4   4   4   4   4   4
#     4  11  22  36  63  97 125 159 211 264 304 380
#     4  11  26  42  64  91 130 172 213 262 320 376
#     4  10  19  38  64  92 127 165 202 257 325 375
#     4  10  24  43  66  88 128 173 211 262 324 382
#     4  10  23  42  67  94 127 171 211 264 323 378
#     4  10  22  37  64  98 120 162 211 262 310 377
#
# _framework density 22.438261000000001
#
# number of rings (size 3 to 8) (size 9 to 14) (size 15 to 20)
#    0.000    1.667    1.667    3.500    7.000    4.000 
#    0.000    4.167    0.000    0.000    0.000    0.000 
#    0.000    0.000    0.000    0.000    0.000    0.000 
#
# Total GULP energy -297360.577733 kJ/mol
# GULP energy per Si atom -12390.024072 kJ/mol
# Density = 2.238719 g / cm^3
# Si number density = 22.438261 Si / 1000 Ang^3
#
#
#
# Elastic Constant Matrix: (Units=GPa)
#
#
# Indices 1 2 3 4 5 6 
#
# 1 33.6522 20.7748 5.1824 0.0000 -13.6586 0.0000
# 2 20.7748 201.4244 50.0593 0.0000 -12.6309 0.0000
# 3 5.1824 50.0593 111.5923 0.0000 -24.7718 0.0000
# 4 0.0000 0.0000 0.0000 34.8292 0.0000 5.4595
# 5 -13.6586 -12.6309 -24.7718 0.0000 32.5668 0.0000
# 6 0.0000 0.0000 0.0000 5.4595 0.0000 17.7467
#
#
#
# Elastic Compliance Matrix: (Units=1/GPa)
#
#
# Indices 1 2 3 4 5 6 
#
# 1 0.038654 -0.003835 0.003843 0.000000 0.017647 0.000000
# 2 -0.003835 0.005971 -0.002819 0.000000 -0.001437 0.000000
# 3 0.003843 -0.002819 0.012227 0.000000 0.009819 0.000000
# 4 0.000000 0.000000 0.000000 0.030166 0.000000 -0.009280
# 5 0.017647 -0.001437 0.009819 0.000000 0.045019 0.000000
# 6 0.000000 0.000000 0.000000 -0.009280 0.000000 0.059203
#
#
# Mechanical properties :
#
#
# Convention : Reuss Voigt Hill
#
# Bulk Modulus (GPa) = 19.52041 55.41132 37.46587
# Shear Modulus (GPa) = 23.37103 35.07201 29.22152
#
# Velocity S-wave (km/s) = 3.23084 3.95783 3.61267
# Velocity P-wave (km/s) = 4.75776 6.75533 5.84255
#
# Compressibility (1/GPa) = 0.05122844
#
# Stress axis : x y z
#
# Youngs Moduli (GPa) = 25.87037 167.48273 81.78564
#
# Poissons Ratio (x) = 0.64233 -0.31428
# Poissons Ratio (y) = 0.09922 0.23059
# Poissons Ratio (z) = -0.09941 0.47220
#
# Static dielectric constant tensor:
#      x y z
#    x 3.532580 0.000000 -0.187030 
#    y 0.000000 4.142220 0.000000 
#    z -0.187030 0.000000 4.349530 
# 
# 
# High freq. dielectric constant tensor:
#      x y z
#    x 1.850210 0.000000 -0.022110 
#    y 0.000000 1.902770 0.000000 
#    z -0.022110 0.000000 1.890540 
# 
# From -- ./inp_files/33928.got.cif
#   From: 2010.06.25/outbox.cif.g09.slc.cpg/sg13_17_cif.got.tgz:33928.got - 2010.06.28 04:50:58.
