data_PCOD8118071
_publ_section_title
;
Structure prediction by ZEFSAII (Michael W. Deem and Ramdas Pophale) SiO2 
 PCOD8118071
Probable space group: P 2/C
;
_chemical_formula_sum "Si O2"
_cell_formula_units_Z 24
_cell_length_a 11.326760
_cell_length_b 7.278975
_cell_length_c 19.917468
_cell_angle_alpha 90.000000
_cell_angle_beta 139.545194
_cell_angle_gamma 90.000000
_cell_volume 1065.499029
_symmetry_space_group_name_H-M "P 2/C"
_symmetry_group_IT_number 13
_symmetry_cell_setting 'monoclinic'
loop_
_space_group_symop_operation_xyz
x,y,z
-x,y,1/2-z
-x,-y,-z
x,-y,1/2+z
loop_
_atom_site_type_symbol
_atom_site_label
_atom_site_fract_x
_atom_site_fract_y
_atom_site_fract_z
Si Si1 0.482126 0.993534 0.312682
Si Si2 0.692663 0.627623 0.012348
Si Si3 0.327337 0.374075 0.140523
Si Si4 0.246917 0.953597 0.962432
Si Si5 0.277481 0.335358 0.366918
Si Si6 0.872654 0.789572 0.828990
O O1 0.500000 0.878986 0.250000
O O2 0.600741 0.176475 0.352945
O O3 0.274958 0.045486 0.240095
O O4 0.578423 0.892305 0.416707
O O5 0.779233 0.495653 0.105920
O O6 0.774372 0.829447 0.058959
O O7 0.743273 0.538934 0.960460
O O8 0.474837 0.629371 0.921510
O O9 0.500000 0.479440 0.250000
O O10 0.165865 0.345899 0.124597
O O11 0.275883 0.861135 0.902989
O O12 0.067853 0.881077 0.922868
O O13 0.134280 0.327800 0.243387
#
# Coordination Sequence:
#
# PCOD8118071 Si02
#       6
#     4   4   4   4   4   4
#     4   8  17  33  57  89 120 153 208 246 295 364
#     4  10  21  37  64  85 119 166 204 250 315 365
#     4   8  14  33  58  87 117 157 205 248 305 361
#     4  11  21  37  63  88 122 164 200 251 311 367
#     4  11  21  38  59  90 124 160 203 260 302 369
#     4  10  19  35  62  90 124 163 201 256 306 361
#
# _framework density 22.524657000000001
#
# number of rings (size 3 to 8) (size 9 to 14) (size 15 to 20)
#    0.000    2.667    5.000    1.000    0.000    6.000 
#    0.000    5.000    0.000    0.000    0.000    0.000 
#    0.000    0.000    0.000    0.000    0.000    0.000 
#
# Total GULP energy -297431.940064 kJ/mol
# GULP energy per Si atom -12392.997503 kJ/mol
# Density = 2.247339 g / cm^3
# Si number density = 22.524657 Si / 1000 Ang^3
#
#
#
# Elastic Constant Matrix: (Units=GPa)
#
#
# Indices 1 2 3 4 5 6 
#
# 1 115.1002 32.1946 64.1398 0.0000 -36.4440 0.0000
# 2 32.1946 67.1444 29.7136 0.0000 -15.5782 0.0000
# 3 64.1398 29.7136 78.3696 0.0000 -12.2570 0.0000
# 4 0.0000 0.0000 0.0000 15.8860 0.0000 1.2681
# 5 -36.4440 -15.5782 -12.2570 0.0000 46.6520 0.0000
# 6 0.0000 0.0000 0.0000 1.2681 0.0000 16.3806
#
#
#
# Elastic Compliance Matrix: (Units=1/GPa)
#
#
# Indices 1 2 3 4 5 6 
#
# 1 0.021288 -0.000569 -0.015263 0.000000 0.012430 0.000000
# 2 -0.000569 0.018810 -0.006000 0.000000 0.004260 0.000000
# 3 -0.015263 -0.006000 0.026435 0.000000 -0.006982 0.000000
# 4 0.000000 0.000000 0.000000 0.063340 0.000000 -0.004904
# 5 0.012430 0.004260 -0.006982 0.000000 0.030734 0.000000
# 6 0.000000 0.000000 0.000000 -0.004904 0.000000 0.061427
#
#
# Mechanical properties :
#
#
# Convention : Reuss Voigt Hill
#
# Bulk Modulus (GPa) = 43.72736 56.96780 50.34758
# Shear Modulus (GPa) = 18.29358 24.75482 21.52420
#
# Velocity S-wave (km/s) = 2.85293 3.31873 3.09461
# Velocity P-wave (km/s) = 5.50523 6.32704 5.93039
#
# Compressibility (1/GPa) = 0.02286897
#
# Stress axis : x y z
#
# Youngs Moduli (GPa) = 46.97397 53.16460 37.82916
#
# Poissons Ratio (x) = 0.03025 0.57739
# Poissons Ratio (y) = 0.02673 0.22696
# Poissons Ratio (z) = 0.71697 0.31896
#
# Static dielectric constant tensor:
#      x y z
#    x 4.520990 0.000000 -0.711140 
#    y 0.000000 3.604800 0.000000 
#    z -0.711140 0.000000 4.650770 
# 
# 
# High freq. dielectric constant tensor:
#      x y z
#    x 1.903680 0.000000 -0.022230 
#    y 0.000000 1.838160 0.000000 
#    z -0.022230 0.000000 1.886490 
# 
# From -- ./inp_files/78150.got.cif
#   From: 2010.06.25/outbox.cif.g09.slc.cpg/sg13_40_cif.got.tgz:78150.got - 2010.06.28 04:50:58.
