data_PCOD8118159
_publ_section_title
;
Structure prediction by ZEFSAII (Michael W. Deem and Ramdas Pophale) SiO2 
 PCOD8118159
Probable space group: P 2/C
;
_chemical_formula_sum "Si O2"
_cell_formula_units_Z 16
_cell_length_a 7.746656
_cell_length_b 17.022980
_cell_length_c 5.227296
_cell_angle_alpha 90.000000
_cell_angle_beta 94.876008
_cell_angle_gamma 90.000000
_cell_volume 686.834940
_symmetry_space_group_name_H-M "P 2/C"
_symmetry_group_IT_number 13
_symmetry_cell_setting 'monoclinic'
loop_
_space_group_symop_operation_xyz
x,y,z
-x,y,1/2-z
-x,-y,-z
x,-y,1/2+z
loop_
_atom_site_type_symbol
_atom_site_label
_atom_site_fract_x
_atom_site_fract_y
_atom_site_fract_z
Si Si1 0.193939 0.533132 0.059932
Si Si2 0.187598 0.715959 0.172551
Si Si3 0.193572 0.033814 0.046084
Si Si4 0.305632 0.202689 0.168382
O O1 0.289456 0.486779 0.304354
O O2 0.199087 0.624300 0.120008
O O3 0.000000 0.500000 0.000000
O O4 0.314684 0.738774 0.423739
O O5 0.000000 0.740681 0.250000
O O6 0.223051 0.759021 0.910087
O O7 0.191721 0.127382 0.077361
O O8 0.290616 0.992062 0.297574
O O9 0.000000 0.000000 0.000000
O O10 0.500000 0.175644 0.250000
#
# Coordination Sequence:
#
# PCOD8118159 Si02
#       4
#     4   4   4   4
#     4  10  19  36  61 104 133 162 228 299 334 369
#     4  12  25  41  75 104 131 183 239 285 334 403
#     4  10  23  42  67  99 131 170 232 284 328 398
#     4  12  28  46  67 101 148 182 218 280 361 416
#
# _framework density 23.295262999999998
#
# number of rings (size 3 to 8) (size 9 to 14) (size 15 to 20)
#    0.000    1.000    2.500    4.500   14.000    1.000 
#    0.000    0.000    0.000   15.000    0.000    0.000 
#    0.000    0.000    0.000    0.000    0.000    0.000 
#
# Total GULP energy -198308.746062 kJ/mol
# GULP energy per Si atom -12394.296629 kJ/mol
# Density = 2.324224 g / cm^3
# Si number density = 23.295263 Si / 1000 Ang^3
#
#
#
# Elastic Constant Matrix: (Units=GPa)
#
#
# Indices 1 2 3 4 5 6 
#
# 1 41.6726 48.6989 28.3190 0.0000 -0.0633 0.0000
# 2 48.6989 196.8821 104.3495 0.0000 -8.3561 0.0000
# 3 28.3190 104.3495 265.0543 0.0000 -37.4407 0.0000
# 4 0.0000 0.0000 0.0000 55.4478 0.0000 -4.6093
# 5 -0.0633 -8.3561 -37.4407 0.0000 33.5197 0.0000
# 6 0.0000 0.0000 0.0000 -4.6093 0.0000 7.9558
#
#
#
# Elastic Compliance Matrix: (Units=1/GPa)
#
#
# Indices 1 2 3 4 5 6 
#
# 1 0.034024 -0.008081 -0.000866 0.000000 -0.002918 0.000000
# 2 -0.008081 0.008398 -0.002552 0.000000 -0.000772 0.000000
# 3 -0.000866 -0.002552 0.005675 0.000000 0.005701 0.000000
# 4 0.000000 0.000000 0.000000 0.018948 0.000000 0.010978
# 5 -0.002918 -0.000772 0.005701 0.000000 0.036004 0.000000
# 6 0.000000 0.000000 0.000000 0.010978 0.000000 0.132055
#
#
# Mechanical properties :
#
#
# Convention : Reuss Voigt Hill
#
# Bulk Modulus (GPa) = 39.84093 96.26043 68.05068
# Shear Modulus (GPa) = 18.76409 40.86743 29.81576
#
# Velocity S-wave (km/s) = 2.84119 4.19301 3.58146
# Velocity P-wave (km/s) = 5.28232 8.05316 6.81015
#
# Compressibility (1/GPa) = 0.02509981
#
# Stress axis : x y z
#
# Youngs Moduli (GPa) = 29.39128 119.08117 176.20150
#
# Poissons Ratio (x) = 0.96225 0.15259
# Poissons Ratio (y) = 0.23750 0.44963
# Poissons Ratio (z) = 0.02545 0.30387
#
# Static dielectric constant tensor:
#      x y z
#    x 3.656840 0.000000 0.347960 
#    y 0.000000 4.162630 0.000000 
#    z 0.347960 0.000000 2.357420 
# 
# 
# High freq. dielectric constant tensor:
#      x y z
#    x 1.876900 0.000000 -0.015710 
#    y 0.000000 1.928060 0.000000 
#    z -0.015710 0.000000 1.968590 
# 
# From -- ./inp_files/1099.got.cif
#   From: 2010.06.25/outbox.cif.g09.slc.cpg/sg13_1_cif.got.tgz:1099.got - 2010.06.28 04:50:58.
