data_PCOD8118992
_publ_section_title
;
Structure prediction by ZEFSAII (Michael W. Deem and Ramdas Pophale) SiO2 
 PCOD8118992
Probable space group: P 2/C
;
_chemical_formula_sum "Si O2"
_cell_formula_units_Z 18
_cell_length_a 8.014002
_cell_length_b 8.816653
_cell_length_c 27.744871
_cell_angle_alpha 90.000000
_cell_angle_beta 30.455400
_cell_angle_gamma 90.000000
_cell_volume 993.642943
_symmetry_space_group_name_H-M "P 2/C"
_symmetry_group_IT_number 13
_symmetry_cell_setting 'monoclinic'
loop_
_space_group_symop_operation_xyz
x,y,z
-x,y,1/2-z
-x,-y,-z
x,-y,1/2+z
loop_
_atom_site_type_symbol
_atom_site_label
_atom_site_fract_x
_atom_site_fract_y
_atom_site_fract_z
Si Si1 0.858258 0.759696 0.151434
Si Si2 0.500000 0.531438 0.750000
Si Si3 0.271269 0.257269 0.220468
Si Si4 0.239228 0.892819 0.968621
Si Si5 0.103401 0.956980 0.172022
O O1 0.500000 0.836613 0.250000
O O2 0.815144 0.576722 0.160230
O O3 0.078484 0.820124 0.140564
O O4 0.020882 0.803403 0.061062
O O5 0.620101 0.628591 0.765232
O O6 0.600533 0.224941 0.108410
O O7 0.000000 0.323856 0.250000
O O8 0.126796 0.104100 0.281083
O O9 0.517913 0.992717 0.925124
O O10 0.000000 0.000000 0.000000
O O11 0.000000 0.891771 0.250000
#
# Coordination Sequence:
#
# PCOD8118992 Si02
#       5
#     4   2   4   4   4
#     4  10  21  36  55  90 114 144 200 234 290 345
#     4  10  24  36  60  84 122 166 178 234 304 350
#     4   9  21  41  59  83 119 155 196 232 297 350
#     4  10  20  36  61  90 107 149 197 250 288 329
#     4   9  19  36  62  85 112 150 195 248 284 335
#
# _framework density 18.115158999999998
#
# number of rings (size 3 to 8) (size 9 to 14) (size 15 to 20)
#    0.667    2.222    0.000    3.333    4.667    1.778 
#    0.000    4.444    0.000    0.000    0.000    0.000 
#    0.000    0.000    0.000    0.000    0.000    0.000 
#
# Total GULP energy -223015.881869 kJ/mol
# GULP energy per Si atom -12389.771215 kJ/mol
# Density = 1.807393 g / cm^3
# Si number density = 18.115159 Si / 1000 Ang^3
#
#
#
# Elastic Constant Matrix: (Units=GPa)
#
#
# Indices 1 2 3 4 5 6 
#
# 1 137.5420 94.6986 57.7258 0.0000 11.2313 0.0000
# 2 94.6986 101.2468 52.9111 0.0000 9.3003 0.0000
# 3 57.7258 52.9111 142.9989 0.0000 1.7626 0.0000
# 4 0.0000 0.0000 0.0000 13.6152 0.0000 0.6851
# 5 11.2313 9.3003 1.7626 0.0000 23.2140 0.0000
# 6 0.0000 0.0000 0.0000 0.6851 0.0000 12.3227
#
#
#
# Elastic Compliance Matrix: (Units=1/GPa)
#
#
# Indices 1 2 3 4 5 6 
#
# 1 0.020816 -0.018421 -0.001556 0.000000 -0.002573 0.000000
# 2 -0.018421 0.029049 -0.003282 0.000000 -0.002476 0.000000
# 3 -0.001556 -0.003282 0.008818 0.000000 0.001398 0.000000
# 4 0.000000 0.000000 0.000000 0.073654 0.000000 -0.004095
# 5 -0.002573 -0.002476 0.001398 0.000000 0.045208 0.000000
# 6 0.000000 0.000000 0.000000 -0.004095 0.000000 0.081379
#
#
# Mechanical properties :
#
#
# Convention : Reuss Voigt Hill
#
# Bulk Modulus (GPa) = 82.18901 88.05096 85.11999
# Shear Modulus (GPa) = 16.15535 21.59386 18.87461
#
# Velocity S-wave (km/s) = 2.98957 3.45633 3.23139
# Velocity P-wave (km/s) = 7.57532 8.03990 7.81107
#
# Compressibility (1/GPa) = 0.01216708
#
# Stress axis : x y z
#
# Youngs Moduli (GPa) = 48.03951 34.42508 113.40382
#
# Poissons Ratio (x) = 0.63413 0.17641
# Poissons Ratio (y) = 0.88492 0.37216
# Poissons Ratio (z) = 0.07473 0.11297
#
# Static dielectric constant tensor:
#      x y z
#    x 3.310100 0.000000 -0.104080 
#    y 0.000000 3.187010 0.000000 
#    z -0.104080 0.000000 3.284200 
# 
# 
# High freq. dielectric constant tensor:
#      x y z
#    x 1.707720 0.000000 -0.000980 
#    y 0.000000 1.677660 0.000000 
#    z -0.000980 0.000000 1.708210 
# 
# From -- ./inp_files/62621.got.cif
#   From: 2010.06.25/outbox.cif.g09.slc.cpg/sg13_32_cif.got.tgz:62621.got - 2010.06.28 04:50:58.
