data_PCOD8118548
_publ_section_title
;
Structure prediction by ZEFSAII (Michael W. Deem and Ramdas Pophale) SiO2 
 PCOD8118548
Probable space group: P 2/C
;
_chemical_formula_sum "Si O2"
_cell_formula_units_Z 24
_cell_length_a 16.536356
_cell_length_b 11.710744
_cell_length_c 12.072842
_cell_angle_alpha 90.000000
_cell_angle_beta 31.926778
_cell_angle_gamma 90.000000
_cell_volume 1236.385930
_symmetry_space_group_name_H-M "P 2/C"
_symmetry_group_IT_number 13
_symmetry_cell_setting 'monoclinic'
loop_
_space_group_symop_operation_xyz
x,y,z
-x,y,1/2-z
-x,-y,-z
x,-y,1/2+z
loop_
_atom_site_type_symbol
_atom_site_label
_atom_site_fract_x
_atom_site_fract_y
_atom_site_fract_z
Si Si1 0.369278 0.186469 0.486682
Si Si2 0.671322 0.941790 0.012074
Si Si3 0.147519 0.354553 0.849097
Si Si4 0.800164 0.613136 0.750434
Si Si5 0.265797 0.727389 0.441890
Si Si6 0.559598 0.777060 0.976581
O O1 0.241046 0.281901 0.650744
O O2 0.462405 0.169286 0.491547
O O3 0.271777 0.072317 0.567504
O O4 0.500000 0.226318 0.250000
O O5 0.500000 0.959878 0.250000
O O6 0.769442 0.860681 0.981541
O O7 0.665651 0.878116 0.900820
O O8 0.216686 0.480316 0.756715
O O9 0.162497 0.308408 0.957620
O O10 0.970931 0.347350 0.021382
O O11 0.679756 0.675947 0.808145
O O12 0.764155 0.641687 0.921138
O O13 0.444989 0.723575 0.201598
#
# Coordination Sequence:
#
# PCOD8118548 Si02
#       6
#     4   4   4   4   4   4
#     4  10  20  33  52  79 108 139 179 223 263 314
#     4   8  15  31  55  79 102 133 175 221 269 314
#     4  10  22  35  53  80 111 147 180 217 270 319
#     4  10  20  36  54  78 111 144 178 222 270 318
#     4   9  18  35  58  79 101 140 184 220 264 323
#     4   9  18  33  56  79 103 139 180 221 265 318
#
# _framework density 19.411415000000002
#
# number of rings (size 3 to 8) (size 9 to 14) (size 15 to 20)
#    0.000    2.667    0.000    2.500    0.000    6.667 
#    0.000    5.833    0.000   12.000    0.000    0.000 
#    0.000    0.000    0.000    0.000    0.000    0.000 
#
# Total GULP energy -297329.069519 kJ/mol
# GULP energy per Si atom -12388.711230 kJ/mol
# Density = 1.936723 g / cm^3
# Si number density = 19.411415 Si / 1000 Ang^3
#
#
#
# Elastic Constant Matrix: (Units=GPa)
#
#
# Indices 1 2 3 4 5 6 
#
# 1 52.9384 49.9751 21.0400 0.0000 3.0549 0.0000
# 2 49.9751 150.8978 53.8408 0.0000 -5.0654 0.0000
# 3 21.0400 53.8408 75.8319 0.0000 6.4653 0.0000
# 4 0.0000 0.0000 0.0000 17.8792 0.0000 1.1547
# 5 3.0549 -5.0654 6.4653 0.0000 26.0236 0.0000
# 6 0.0000 0.0000 0.0000 1.1547 0.0000 24.7688
#
#
#
# Elastic Compliance Matrix: (Units=1/GPa)
#
#
# Indices 1 2 3 4 5 6 
#
# 1 0.028194 -0.009186 -0.000885 0.000000 -0.004878 0.000000
# 2 -0.009186 0.012166 -0.006521 0.000000 0.005066 0.000000
# 3 -0.000885 -0.006521 0.018555 0.000000 -0.005775 0.000000
# 4 0.000000 0.000000 0.000000 0.056100 0.000000 -0.002615
# 5 -0.004878 0.005066 -0.005775 0.000000 0.041420 0.000000
# 6 0.000000 0.000000 0.000000 -0.002615 0.000000 0.040495
#
#
# Mechanical properties :
#
#
# Convention : Reuss Voigt Hill
#
# Bulk Modulus (GPa) = 38.86239 58.81998 48.84118
# Shear Modulus (GPa) = 20.94749 24.05513 22.50131
#
# Velocity S-wave (km/s) = 3.28858 3.52408 3.40837
# Velocity P-wave (km/s) = 5.87227 6.85029 6.38004
#
# Compressibility (1/GPa) = 0.02573182
#
# Stress axis : x y z
#
# Youngs Moduli (GPa) = 35.46791 82.19638 53.89344
#
# Poissons Ratio (x) = 0.75502 0.04770
# Poissons Ratio (y) = 0.32579 0.35145
# Poissons Ratio (z) = 0.03139 0.53602
#
# Static dielectric constant tensor:
#      x y z
#    x 3.455110 0.000000 0.148410 
#    y 0.000000 3.820430 0.000000 
#    z 0.148410 0.000000 3.614420 
# 
# 
# High freq. dielectric constant tensor:
#      x y z
#    x 1.736860 0.000000 0.005550 
#    y 0.000000 1.759430 0.000000 
#    z 0.005550 0.000000 1.744950 
# 
# From -- ./inp_files/39101.got.cif
#   From: 2010.06.25/outbox.cif.g09.slc.cpg/sg13_20_cif.got.tgz:39101.got - 2010.06.28 04:50:58.
