data_PCOD8118057
_publ_section_title
;
Structure prediction by ZEFSAII (Michael W. Deem and Ramdas Pophale) SiO2 
 PCOD8118057
Probable space group: P 2/C
;
_chemical_formula_sum "Si O2"
_cell_formula_units_Z 30
_cell_length_a 17.091838
_cell_length_b 6.451094
_cell_length_c 28.243174
_cell_angle_alpha 90.000000
_cell_angle_beta 28.134231
_cell_angle_gamma 90.000000
_cell_volume 1468.429465
_symmetry_space_group_name_H-M "P 2/C"
_symmetry_group_IT_number 13
_symmetry_cell_setting 'monoclinic'
loop_
_space_group_symop_operation_xyz
x,y,z
-x,y,1/2-z
-x,-y,-z
x,-y,1/2+z
loop_
_atom_site_type_symbol
_atom_site_label
_atom_site_fract_x
_atom_site_fract_y
_atom_site_fract_z
Si Si1 0.779950 0.385831 0.592836
Si Si2 0.141459 0.437320 0.638763
Si Si3 0.002839 0.725178 0.438024
Si Si4 0.806018 0.859214 0.929500
Si Si5 0.500000 0.701230 0.750000
Si Si6 0.690145 0.000142 0.586595
Si Si7 0.679889 0.094405 0.909355
Si Si8 0.917413 0.870874 0.200760
O O1 0.913396 0.500193 0.487374
O O2 0.657167 0.559419 0.680433
O O3 0.671652 0.224915 0.620555
O O4 0.875051 0.257614 0.582600
O O5 0.213654 0.612112 0.565361
O O6 0.298571 0.329831 0.582115
O O7 0.000000 0.526005 0.750000
O O8 0.056890 0.262680 0.652625
O O9 0.118521 0.759327 0.330078
O O10 0.865250 0.905482 0.510339
O O11 0.781278 0.944210 0.889720
O O12 0.678343 0.959982 0.036109
O O13 0.991381 0.905121 0.850835
O O14 0.542014 0.847515 0.682240
O O15 0.749069 0.098399 0.819096
O O16 0.500000 0.000000 0.000000
#
# Coordination Sequence:
#
# PCOD8118057 Si02
#       8
#     4   4   4   4   2   4   4   4
#     4  10  19  36  59  84 119 146 189 241 288 351
#     4   9  17  32  59  82 106 144 192 233 278 332
#     4   9  19  34  60  87 111 144 192 246 286 337
#     4  10  19  35  61  80 105 150 195 236 281 337
#     4  10  22  38  54  82 120 156 186 226 294 360
#     4  10  20  36  59  84 112 149 193 235 293 345
#     4  10  21  36  52  80 122 151 183 236 284 338
#     4   9  18  35  57  83 111 144 192 237 276 338
#
# _framework density 20.429988999999999
#
# number of rings (size 3 to 8) (size 9 to 14) (size 15 to 20)
#    0.000    2.400    0.000    3.600    0.000    1.600 
#    4.800    0.000    5.867    0.000    0.000    0.000 
#    0.000    0.000    0.000    0.000    0.000    0.000 
#
# Total GULP energy -371735.053957 kJ/mol
# GULP energy per Si atom -12391.168465 kJ/mol
# Density = 2.038349 g / cm^3
# Si number density = 20.429989 Si / 1000 Ang^3
#
#
#
# Elastic Constant Matrix: (Units=GPa)
#
#
# Indices 1 2 3 4 5 6 
#
# 1 76.4560 35.9358 47.1271 0.0000 16.3516 0.0000
# 2 35.9358 99.5469 50.9954 0.0000 8.1302 0.0000
# 3 47.1271 50.9954 113.4224 0.0000 23.8641 0.0000
# 4 0.0000 0.0000 0.0000 29.2084 0.0000 3.7310
# 5 16.3516 8.1302 23.8641 0.0000 28.1738 0.0000
# 6 0.0000 0.0000 0.0000 3.7310 0.0000 26.3458
#
#
#
# Elastic Compliance Matrix: (Units=1/GPa)
#
#
# Indices 1 2 3 4 5 6 
#
# 1 0.019249 -0.003901 -0.005026 0.000000 -0.005789 0.000000
# 2 -0.003901 0.013892 -0.005181 0.000000 0.002644 0.000000
# 3 -0.005026 -0.005181 0.014975 0.000000 -0.008272 0.000000
# 4 0.000000 0.000000 0.000000 0.034868 0.000000 -0.004938
# 5 -0.005789 0.002644 -0.008272 0.000000 0.045097 0.000000
# 6 0.000000 0.000000 0.000000 -0.004938 0.000000 0.038656
#
#
# Mechanical properties :
#
#
# Convention : Reuss Voigt Hill
#
# Bulk Modulus (GPa) = 50.25391 61.94911 56.10151
# Shear Modulus (GPa) = 24.80312 27.10339 25.95326
#
# Velocity S-wave (km/s) = 3.48811 3.64627 3.56807
# Velocity P-wave (km/s) = 6.39328 6.93653 6.67044
#
# Compressibility (1/GPa) = 0.01989895
#
# Stress axis : x y z
#
# Youngs Moduli (GPa) = 51.95029 71.98295 66.77840
#
# Poissons Ratio (x) = 0.28083 0.33563
# Poissons Ratio (y) = 0.20268 0.34600
# Poissons Ratio (z) = 0.26110 0.37297
#
# Static dielectric constant tensor:
#      x y z
#    x 3.677210 0.000000 0.361660 
#    y 0.000000 3.823090 0.000000 
#    z 0.361660 0.000000 3.706660 
# 
# 
# High freq. dielectric constant tensor:
#      x y z
#    x 1.775730 0.000000 0.022300 
#    y 0.000000 1.805760 0.000000 
#    z 0.022300 0.000000 1.783140 
# 
# From -- ./inp_files/97174.got.cif
#   From: 2010.06.25/outbox.cif.g09.slc.cpg/sg13_49_cif.got.tgz:97174.got - 2010.06.28 04:50:58.
