data_PCOD8118782
_publ_section_title
;
Structure prediction by ZEFSAII (Michael W. Deem and Ramdas Pophale) SiO2 
 PCOD8118782
Probable space group: P 2/C
;
_chemical_formula_sum "Si O2"
_cell_formula_units_Z 30
_cell_length_a 10.251500
_cell_length_b 9.009349
_cell_length_c 17.196521
_cell_angle_alpha 90.000000
_cell_angle_beta 60.942734
_cell_angle_gamma 90.000000
_cell_volume 1388.352632
_symmetry_space_group_name_H-M "P 2/C"
_symmetry_group_IT_number 13
_symmetry_cell_setting 'monoclinic'
loop_
_space_group_symop_operation_xyz
x,y,z
-x,y,1/2-z
-x,-y,-z
x,-y,1/2+z
loop_
_atom_site_type_symbol
_atom_site_label
_atom_site_fract_x
_atom_site_fract_y
_atom_site_fract_z
Si Si1 0.000000 0.091278 0.750000
Si Si2 0.171593 0.161993 0.273743
Si Si3 0.739769 0.622751 0.870508
Si Si4 0.530296 0.502744 0.652173
Si Si5 0.794142 0.698663 0.406667
Si Si6 0.494822 0.969655 0.667341
Si Si7 0.760332 0.260641 0.082327
Si Si8 0.529800 0.236190 0.550061
O O1 0.127999 0.197399 0.679439
O O2 0.068480 0.984019 0.796474
O O3 0.139436 0.285237 0.215833
O O4 0.340828 0.117318 0.206044
O O5 0.141902 0.234871 0.367741
O O6 0.600423 0.579256 0.857974
O O7 0.822418 0.475730 0.880259
O O8 0.677506 0.729811 0.957011
O O9 0.500000 0.520239 0.750000
O O10 0.692070 0.575168 0.592448
O O11 0.538770 0.332340 0.625726
O O12 0.855195 0.751212 0.474381
O O13 0.616160 0.725234 0.458064
O O14 0.500000 0.053933 0.750000
O O15 0.626287 0.853054 0.627515
O O16 0.520525 0.069087 0.583711
#
# Coordination Sequence:
#
# PCOD8118782 Si02
#       8
#     2   4   4   4   4   4   4   4
#     4  12  28  44  64  84 124 184 218 254 294 366
#     4  11  23  41  63  91 128 170 213 250 312 379
#     4  11  21  36  65  95 123 159 206 262 326 371
#     4  11  17  32  57  96 129 156 183 250 337 381
#     4  11  23  41  62  90 126 169 213 256 309 376
#     4  10  20  35  58  97 129 160 195 266 333 370
#     4  11  20  39  65  93 128 158 200 267 329 369
#     4  11  20  33  60 100 127 156 201 260 328 380
#
# _framework density 21.608343000000001
#
# number of rings (size 3 to 8) (size 9 to 14) (size 15 to 20)
#    0.000    1.067    6.667    1.600    1.867    2.133 
#    0.000    0.000    0.000    1.600    0.000    0.000 
#    0.000    0.000    0.000    0.000    0.000    0.000 
#
# Total GULP energy -371812.413641 kJ/mol
# GULP energy per Si atom -12393.747121 kJ/mol
# Density = 2.155916 g / cm^3
# Si number density = 21.608343 Si / 1000 Ang^3
#
#
#
# Elastic Constant Matrix: (Units=GPa)
#
#
# Indices 1 2 3 4 5 6 
#
# 1 -65.4476 63.1969 121.1558 0.0000 10.7606 0.0000
# 2 63.1969 71.2771 9.1107 0.0000 7.1251 0.0000
# 3 121.1558 9.1107 12.6321 0.0000 21.7052 0.0000
# 4 0.0000 0.0000 0.0000 26.4499 0.0000 6.2324
# 5 10.7606 7.1251 21.7052 0.0000 22.7917 0.0000
# 6 0.0000 0.0000 0.0000 6.2324 0.0000 37.6214
#
#
#
# Elastic Compliance Matrix: (Units=1/GPa)
#
#
# Indices 1 2 3 4 5 6 
#
# 1 0.000747 -0.000985 0.010023 0.000000 -0.009590 0.000000
# 2 -0.000985 0.015641 -0.009064 0.000000 0.004207 0.000000
# 3 0.010023 -0.009064 0.011264 0.000000 -0.012625 0.000000
# 4 0.000000 0.000000 0.000000 0.039343 0.000000 -0.006518
# 5 -0.009590 0.004207 -0.012625 0.000000 0.059111 0.000000
# 6 0.000000 0.000000 0.000000 -0.006518 0.000000 0.027660
#
#
# Mechanical properties :
#
#
# Convention : Reuss Voigt Hill
#
# Bulk Modulus (GPa) = 36.23304 45.04315 40.63809
# Shear Modulus (GPa) = 30.67133 5.70583 18.18858
#
# Velocity S-wave (km/s) = 3.77161 1.62674 2.90442
# Velocity P-wave (km/s) = 5.98090 4.94155 5.48589
#
# Compressibility (1/GPa) = 0.02759912
#
# Stress axis : x y z
#
# Youngs Moduli (GPa) = 1338.55471 63.93459 88.78078
#
# Poissons Ratio (x) = 0.06297 -0.88984
# Poissons Ratio (y) = 1.31830 0.80474
# Poissons Ratio (z) = -13.41615 0.57952
#
# Static dielectric constant tensor:
#      x y z
#    x 3.721480 0.000000 0.307500 
#    y 0.000000 4.043990 0.000000 
#    z 0.307500 0.000000 4.066730 
# 
# 
# High freq. dielectric constant tensor:
#      x y z
#    x 1.813480 0.000000 0.023110 
#    y 0.000000 1.853780 0.000000 
#    z 0.023110 0.000000 1.857270 
# 
# From -- ./inp_files/66298.got.cif
#   From: 2010.06.25/outbox.cif.g09.slc.cpg/sg13_34_cif.got.tgz:66298.got - 2010.06.28 04:50:58.
