data_PCOD8118986
_publ_section_title
;
Structure prediction by ZEFSAII (Michael W. Deem and Ramdas Pophale) SiO2 
 PCOD8118986
Probable space group: P 2/C
;
_chemical_formula_sum "Si O2"
_cell_formula_units_Z 28
_cell_length_a 11.644691
_cell_length_b 9.579591
_cell_length_c 13.229198
_cell_angle_alpha 90.000000
_cell_angle_beta 74.938588
_cell_angle_gamma 90.000000
_cell_volume 1425.040589
_symmetry_space_group_name_H-M "P 2/C"
_symmetry_group_IT_number 13
_symmetry_cell_setting 'monoclinic'
loop_
_space_group_symop_operation_xyz
x,y,z
-x,y,1/2-z
-x,-y,-z
x,-y,1/2+z
loop_
_atom_site_type_symbol
_atom_site_label
_atom_site_fract_x
_atom_site_fract_y
_atom_site_fract_z
Si Si1 0.079751 0.619095 0.026561
Si Si2 0.246960 0.371459 0.666515
Si Si3 0.799645 0.068642 0.791910
Si Si4 0.553359 0.638140 0.535048
Si Si5 0.004855 0.084881 0.597482
Si Si6 0.403349 0.851204 0.686588
Si Si7 0.716652 0.612624 0.678658
O O1 0.143783 0.569247 0.115901
O O2 0.997309 0.750778 0.073028
O O3 0.170738 0.648676 0.915260
O O4 0.000000 0.500000 0.000000
O O5 0.214997 0.231412 0.732818
O O6 0.351319 0.315607 0.569174
O O7 0.275222 0.484319 0.745516
O O8 0.865851 0.054247 0.883832
O O9 0.894534 0.022773 0.685910
O O10 0.673071 0.988022 0.826346
O O11 0.500000 0.500000 0.500000
O O12 0.465376 0.770655 0.576863
O O13 0.604171 0.587856 0.631504
O O14 0.000000 0.000000 0.500000
O O15 0.500000 0.893391 0.750000
O O16 0.302805 0.749620 0.751442
#
# Coordination Sequence:
#
# PCOD8118986 Si02
#       7
#     4   4   4   4   4   4   4
#     4  10  21  36  59  89 118 152 196 244 297 348
#     4  10  21  38  59  87 120 153 195 250 293 353
#     4  10  22  40  60  88 120 157 198 242 299 350
#     4  10  20  38  60  83 117 152 194 243 296 344
#     4  10  21  40  62  84 122 158 193 245 296 353
#     4  10  21  39  60  86 119 158 199 243 292 357
#     4  10  20  36  61  84 115 154 194 242 296 348
#
# _framework density 19.648564
#
# number of rings (size 3 to 8) (size 9 to 14) (size 15 to 20)
#    0.000    2.000    1.429    1.714    0.000    4.571 
#    5.143    0.000    0.000    0.000    0.000    0.000 
#    0.000    0.000    0.000    0.000    0.000    0.000 
#
# Total GULP energy -346885.451385 kJ/mol
# GULP energy per Si atom -12388.766121 kJ/mol
# Density = 1.960384 g / cm^3
# Si number density = 19.648564 Si / 1000 Ang^3
#
#
#
# Elastic Constant Matrix: (Units=GPa)
#
#
# Indices 1 2 3 4 5 6 
#
# 1 93.1128 59.5875 25.9845 0.0000 2.8172 0.0000
# 2 59.5875 89.4750 33.5078 0.0000 16.0015 0.0000
# 3 25.9845 33.5078 83.0734 0.0000 6.7402 0.0000
# 4 0.0000 0.0000 0.0000 34.5171 0.0000 -0.6264
# 5 2.8172 16.0015 6.7402 0.0000 28.3195 0.0000
# 6 0.0000 0.0000 0.0000 -0.6264 0.0000 44.7797
#
#
#
# Elastic Compliance Matrix: (Units=1/GPa)
#
#
# Indices 1 2 3 4 5 6 
#
# 1 0.019685 -0.013792 -0.001089 0.000000 0.006094 0.000000
# 2 -0.013792 0.024029 -0.004474 0.000000 -0.011140 0.000000
# 3 -0.001089 -0.004474 0.014244 0.000000 -0.000754 0.000000
# 4 0.000000 0.000000 0.000000 0.028979 0.000000 0.000405
# 5 0.006094 -0.011140 -0.000754 0.000000 0.041179 0.000000
# 6 0.000000 0.000000 0.000000 0.000405 0.000000 0.022337
#
#
# Mechanical properties :
#
#
# Convention : Reuss Voigt Hill
#
# Bulk Modulus (GPa) = 51.95231 55.98011 53.96621
# Shear Modulus (GPa) = 25.56507 31.29533 28.43020
#
# Velocity S-wave (km/s) = 3.61101 3.99526 3.80799
# Velocity P-wave (km/s) = 6.62450 7.05942 6.84541
#
# Compressibility (1/GPa) = 0.01924842
#
# Stress axis : x y z
#
# Youngs Moduli (GPa) = 50.79973 41.61617 70.20489
#
# Poissons Ratio (x) = 0.57396 0.07644
# Poissons Ratio (y) = 0.70062 0.31413
# Poissons Ratio (z) = 0.05531 0.18621
#
# Static dielectric constant tensor:
#      x y z
#    x 13.618000 0.000000 -9.060340 
#    y 0.000000 3.439040 0.000000 
#    z -9.060340 0.000000 11.876690 
# 
# 
# High freq. dielectric constant tensor:
#      x y z
#    x 1.765140 0.000000 -0.008050 
#    y 0.000000 1.755790 0.000000 
#    z -0.008050 0.000000 1.780640 
# 
# From -- ./inp_files/49991.got.cif
#   From: 2010.06.25/outbox.cif.g09.slc.cpg/sg13_25_cif.got.tgz:49991.got - 2010.06.28 04:50:58.
