data_PCOD8118464
_publ_section_title
;
Structure prediction by ZEFSAII (Michael W. Deem and Ramdas Pophale) SiO2 
 PCOD8118464
Probable space group: P 2/C
;
_chemical_formula_sum "Si O2"
_cell_formula_units_Z 14
_cell_length_a 7.392598
_cell_length_b 10.788554
_cell_length_c 9.577434
_cell_angle_alpha 90.000000
_cell_angle_beta 50.844234
_cell_angle_gamma 90.000000
_cell_volume 592.315818
_symmetry_space_group_name_H-M "P 2/C"
_symmetry_group_IT_number 13
_symmetry_cell_setting 'monoclinic'
loop_
_space_group_symop_operation_xyz
x,y,z
-x,y,1/2-z
-x,-y,-z
x,-y,1/2+z
loop_
_atom_site_type_symbol
_atom_site_label
_atom_site_fract_x
_atom_site_fract_y
_atom_site_fract_z
Si Si1 0.000000 0.734810 0.250000
Si Si2 0.446659 0.616883 0.932465
Si Si3 0.721510 0.142700 0.390410
Si Si4 0.772560 0.932442 0.165679
O O1 0.826615 0.650298 0.424530
O O2 0.841113 0.815791 0.225405
O O3 0.500000 0.576906 0.750000
O O4 0.608451 0.730687 0.897173
O O5 0.500000 0.500000 0.000000
O O6 0.631774 0.112940 0.594158
O O7 0.000000 0.156733 0.250000
O O8 0.636870 0.033309 0.327883
O O9 0.000000 0.000000 0.000000
#
# Coordination Sequence:
#
# PCOD8118464 Si02
#       4
#     2   4   4   4
#     4  12  26  48  76 106 154 186 252 306 368 434
#     4  12  31  51  74 107 146 203 251 300 360 441
#     4  10  22  44  74 108 149 186 243 299 374 434
#     4  10  19  42  72 113 145 185 232 303 374 433
#
# _framework density 23.636039
#
# number of rings (size 3 to 8) (size 9 to 14) (size 15 to 20)
#    0.000    1.143    4.286    3.429    6.000    2.286 
#    5.143    0.000    0.000    0.000    0.000    0.000 
#    0.000    0.000    0.000    0.000    0.000    0.000 
#
# Total GULP energy -173671.324254 kJ/mol
# GULP energy per Si atom -12405.094590 kJ/mol
# Density = 2.358224 g / cm^3
# Si number density = 23.636039 Si / 1000 Ang^3
#
#
#
# Elastic Constant Matrix: (Units=GPa)
#
#
# Indices 1 2 3 4 5 6 
#
# 1 146.3092 85.6231 54.3165 0.0000 28.4067 0.0000
# 2 85.6231 172.0605 76.0616 0.0000 21.1048 0.0000
# 3 54.3165 76.0616 171.5241 0.0000 35.7587 0.0000
# 4 0.0000 0.0000 0.0000 37.4974 0.0000 9.6872
# 5 28.4067 21.1048 35.7587 0.0000 56.8444 0.0000
# 6 0.0000 0.0000 0.0000 9.6872 0.0000 31.6970
#
#
#
# Elastic Compliance Matrix: (Units=1/GPa)
#
#
# Indices 1 2 3 4 5 6 
#
# 1 0.010276 -0.004454 -0.000637 0.000000 -0.003081 0.000000
# 2 -0.004454 0.009189 -0.002782 0.000000 0.000564 0.000000
# 3 -0.000637 -0.002782 0.008038 0.000000 -0.003705 0.000000
# 4 0.000000 0.000000 0.000000 0.028955 0.000000 -0.008849
# 5 -0.003081 0.000564 -0.003705 0.000000 0.021253 0.000000
# 6 0.000000 0.000000 0.000000 -0.008849 0.000000 0.034253
#
#
# Mechanical properties :
#
#
# Convention : Reuss Voigt Hill
#
# Bulk Modulus (GPa) = 85.05399 102.43292 93.74345
# Shear Modulus (GPa) = 37.98562 43.46728 40.72645
#
# Velocity S-wave (km/s) = 4.01322 4.29304 4.15549
# Velocity P-wave (km/s) = 7.58535 8.24653 7.92284
#
# Compressibility (1/GPa) = 0.01175724
#
# Stress axis : x y z
#
# Youngs Moduli (GPa) = 97.31230 108.82359 124.41273
#
# Poissons Ratio (x) = 0.48475 0.07919
# Poissons Ratio (y) = 0.43348 0.34611
# Poissons Ratio (z) = 0.06194 0.30274
#
# Static dielectric constant tensor:
#      x y z
#    x 4.548760 0.000000 0.244500 
#    y 0.000000 4.210810 0.000000 
#    z 0.244500 0.000000 5.235090 
# 
# 
# High freq. dielectric constant tensor:
#      x y z
#    x 1.952890 0.000000 -0.004580 
#    y 0.000000 1.925220 0.000000 
#    z -0.004580 0.000000 1.989130 
# 
# From -- ./inp_files/25920.got.cif
#   From: 2010.06.25/outbox.cif.g09.slc.cpg/sg13_13_cif.got.tgz:25920.got - 2010.06.28 04:50:58.
