data_PCOD8118827
_publ_section_title
;
Structure prediction by ZEFSAII (Michael W. Deem and Ramdas Pophale) SiO2 
 PCOD8118827
Probable space group: P 2/C
;
_chemical_formula_sum "Si O2"
_cell_formula_units_Z 30
_cell_length_a 14.726491
_cell_length_b 11.859440
_cell_length_c 17.799538
_cell_angle_alpha 90.000000
_cell_angle_beta 151.440356
_cell_angle_gamma 90.000000
_cell_volume 1486.163911
_symmetry_space_group_name_H-M "P 2/C"
_symmetry_group_IT_number 13
_symmetry_cell_setting 'monoclinic'
loop_
_space_group_symop_operation_xyz
x,y,z
-x,y,1/2-z
-x,-y,-z
x,-y,1/2+z
loop_
_atom_site_type_symbol
_atom_site_label
_atom_site_fract_x
_atom_site_fract_y
_atom_site_fract_z
Si Si1 0.000000 0.125760 0.250000
Si Si2 0.638822 0.747501 0.074502
Si Si3 0.704803 0.494681 0.367368
Si Si4 0.349743 0.568606 0.842452
Si Si5 0.235487 0.257740 0.534105
Si Si6 0.050068 0.555471 0.203425
Si Si7 0.421163 0.170813 0.801907
Si Si8 0.631005 0.985988 0.021709
O O1 0.059833 0.209291 0.360332
O O2 0.166314 0.050009 0.333469
O O3 0.812625 0.662836 0.190882
O O4 0.640950 0.786978 0.161904
O O5 0.669799 0.852936 0.040392
O O6 0.433534 0.695176 0.901266
O O7 0.500000 0.463107 0.250000
O O8 0.688309 0.485012 0.266380
O O9 0.785628 0.615687 0.451576
O O10 0.863026 0.410764 0.518517
O O11 0.150257 0.555024 0.739994
O O12 0.500000 0.500000 0.000000
O O13 0.250500 0.175262 0.618107
O O14 0.421010 0.257133 0.615538
O O15 0.000000 0.515487 0.250000
O O16 0.505395 0.043275 0.864437
O O17 0.500000 0.000000 0.000000
#
# Coordination Sequence:
#
# PCOD8118827 Si02
#       8
#     2   4   4   4   4   4   4   4
#     4  10  22  38  62  96 122 158 218 260 324 374
#     4  10  21  41  65  86 131 163 202 253 329 371
#     4  12  23  38  60  89 126 162 216 263 309 376
#     4  10  22  40  60  87 125 165 205 260 308 379
#     4  10  20  35  63  92 120 156 207 266 317 353
#     4  11  25  37  59  89 126 168 213 249 314 378
#     4   9  18  37  64  90 117 159 203 258 317 363
#     4   9  20  39  64  91 121 161 203 255 311 383
#
# _framework density 20.186198999999998
#
# number of rings (size 3 to 8) (size 9 to 14) (size 15 to 20)
#    0.000    1.867    1.333    3.600    3.733    2.133 
#    0.000    4.000    8.800    0.000    0.000    0.000 
#    0.000    0.000    0.000    0.000    0.000    0.000 
#
# Total GULP energy -371683.838585 kJ/mol
# GULP energy per Si atom -12389.461286 kJ/mol
# Density = 2.014025 g / cm^3
# Si number density = 20.186199 Si / 1000 Ang^3
#
#
#
# Elastic Constant Matrix: (Units=GPa)
#
#
# Indices 1 2 3 4 5 6 
#
# 1 121.5990 35.4686 53.1539 0.0000 -3.4702 0.0000
# 2 35.4686 109.1478 52.3803 0.0000 -1.9756 0.0000
# 3 53.1539 52.3803 137.5132 0.0000 -6.1307 0.0000
# 4 0.0000 0.0000 0.0000 25.7232 0.0000 1.6964
# 5 -3.4702 -1.9756 -6.1307 0.0000 38.2424 0.0000
# 6 0.0000 0.0000 0.0000 1.6964 0.0000 2.5533
#
#
#
# Elastic Compliance Matrix: (Units=1/GPa)
#
#
# Indices 1 2 3 4 5 6 
#
# 1 0.010161 -0.001735 -0.003253 0.000000 0.000311 0.000000
# 2 -0.001735 0.011508 -0.003720 0.000000 -0.000159 0.000000
# 3 -0.003253 -0.003720 0.009996 0.000000 0.001115 0.000000
# 4 0.000000 0.000000 0.000000 0.040657 0.000000 -0.027012
# 5 0.000311 -0.000159 0.001115 0.000000 0.026348 0.000000
# 6 0.000000 0.000000 0.000000 -0.027012 0.000000 0.409594
#
#
# Mechanical properties :
#
#
# Convention : Reuss Voigt Hill
#
# Bulk Modulus (GPa) = 70.17989 72.25174 71.21582
# Shear Modulus (GPa) = 9.42634 28.45427 18.94030
#
# Velocity S-wave (km/s) = 2.16329 3.75852 3.06646
# Velocity P-wave (km/s) = 6.40949 7.39633 6.92052
#
# Compressibility (1/GPa) = 0.01424910
#
# Stress axis : x y z
#
# Youngs Moduli (GPa) = 98.41986 86.89542 100.04035
#
# Poissons Ratio (x) = 0.15078 0.32539
# Poissons Ratio (y) = 0.17078 0.37214
# Poissons Ratio (z) = 0.32012 0.32325
#
# Static dielectric constant tensor:
#      x y z
#    x 3.265180 0.000000 0.009530 
#    y 0.000000 3.975730 0.000000 
#    z 0.009530 0.000000 4.104720 
# 
# 
# High freq. dielectric constant tensor:
#      x y z
#    x 1.791280 0.000000 0.000750 
#    y 0.000000 1.771800 0.000000 
#    z 0.000750 0.000000 1.795750 
# 
# From -- ./inp_files/68575.got.cif
#   From: 2010.06.25/outbox.cif.g09.slc.cpg/sg13_35_cif.got.tgz:68575.got - 2010.06.28 04:50:58.
