data_PCOD8118606
_publ_section_title
;
Structure prediction by ZEFSAII (Michael W. Deem and Ramdas Pophale) SiO2 
 PCOD8118606
Probable space group: P 2/C
;
_chemical_formula_sum "Si O2"
_cell_formula_units_Z 32
_cell_length_a 16.822705
_cell_length_b 11.532892
_cell_length_c 20.506394
_cell_angle_alpha 90.000000
_cell_angle_beta 156.756609
_cell_angle_gamma 90.000000
_cell_volume 1570.081198
_symmetry_space_group_name_H-M "P 2/C"
_symmetry_group_IT_number 13
_symmetry_cell_setting 'monoclinic'
loop_
_space_group_symop_operation_xyz
x,y,z
-x,y,1/2-z
-x,-y,-z
x,-y,1/2+z
loop_
_atom_site_type_symbol
_atom_site_label
_atom_site_fract_x
_atom_site_fract_y
_atom_site_fract_z
Si Si1 0.447567 0.465351 0.843248
Si Si2 0.399597 0.257854 0.901134
Si Si3 0.665095 0.709945 0.713689
Si Si4 0.191357 0.883611 0.583822
Si Si5 0.225409 0.871770 0.155034
Si Si6 0.848440 0.505661 0.577008
Si Si7 0.895503 0.355108 0.990328
Si Si8 0.977467 0.254820 0.656849
O O1 0.456399 0.380880 0.911736
O O2 0.478464 0.598458 0.888099
O O3 0.233816 0.450475 0.646189
O O4 0.629456 0.445407 0.930189
O O5 0.379592 0.158614 0.830383
O O6 0.195472 0.271671 0.788742
O O7 0.584496 0.222797 0.088321
O O8 0.647097 0.795176 0.762289
O O9 0.890549 0.662803 0.881296
O O10 0.142826 0.846807 0.472725
O O11 0.994902 0.882612 0.480575
O O12 0.286165 0.012844 0.660672
O O13 0.226542 0.766445 0.103862
O O14 0.934492 0.598443 0.591386
O O15 0.849835 0.373494 0.551348
O O16 0.000000 0.509891 0.750000
O O17 0.000000 0.219454 0.750000
#
# Coordination Sequence:
#
# PCOD8118606 Si02
#       8
#     4   4   4   4   4   4   4   4
#     4  11  21  34  53  78 112 146 179 220 272 332
#     4  10  20  35  56  81 111 142 180 225 272 329
#     4  11  19  31  55  83 107 139 181 224 270 330
#     4   9  18  34  56  78 105 141 183 224 270 326
#     4   8  18  36  55  76 104 142 181 224 270 319
#     4  11  21  34  53  79 112 144 179 226 277 329
#     4  10  20  34  53  77 107 143 182 223 272 326
#     4  10  20  36  56  81 112 144 179 226 281 328
#
# _framework density 20.381112000000002
#
# number of rings (size 3 to 8) (size 9 to 14) (size 15 to 20)
#    0.000    2.000    0.000    5.625    0.000    0.500 
#    0.000    2.500    0.000   13.500    0.000    0.000 
#    0.000    0.000    0.000    0.000    0.000    0.000 
#
# Total GULP energy -396660.650939 kJ/mol
# GULP energy per Si atom -12395.645342 kJ/mol
# Density = 2.033472 g / cm^3
# Si number density = 20.381112 Si / 1000 Ang^3
#
#
#
# Elastic Constant Matrix: (Units=GPa)
#
#
# Indices 1 2 3 4 5 6 
#
# 1 74.5494 48.9980 16.0156 0.0000 -16.7650 0.0000
# 2 48.9980 130.1634 39.3969 0.0000 -33.1131 0.0000
# 3 16.0156 39.3969 85.0688 0.0000 -15.5196 0.0000
# 4 0.0000 0.0000 0.0000 21.7834 0.0000 -12.3960
# 5 -16.7650 -33.1131 -15.5196 0.0000 32.8234 0.0000
# 6 0.0000 0.0000 0.0000 -12.3960 0.0000 26.2080
#
#
#
# Elastic Compliance Matrix: (Units=1/GPa)
#
#
# Indices 1 2 3 4 5 6 
#
# 1 0.018068 -0.005978 -0.000054 0.000000 0.003172 0.000000
# 2 -0.005978 0.013150 -0.003394 0.000000 0.008608 0.000000
# 3 -0.000054 -0.003394 0.013907 0.000000 0.003124 0.000000
# 4 0.000000 0.000000 0.000000 0.062813 0.000000 0.029710
# 5 0.003172 0.008608 0.003124 0.000000 0.042247 0.000000
# 6 0.000000 0.000000 0.000000 0.029710 0.000000 0.052208
#
#
# Mechanical properties :
#
#
# Convention : Reuss Voigt Hill
#
# Bulk Modulus (GPa) = 38.06308 55.40028 46.73168
# Shear Modulus (GPa) = 21.73871 28.52105 25.12988
#
# Velocity S-wave (km/s) = 3.26944 3.74490 3.51522
# Velocity P-wave (km/s) = 5.74182 6.77792 6.28127
#
# Compressibility (1/GPa) = 0.02627218
#
# Stress axis : x y z
#
# Youngs Moduli (GPa) = 55.34642 76.04475 71.90504
#
# Poissons Ratio (x) = 0.45460 0.00391
# Poissons Ratio (y) = 0.33086 0.24406
# Poissons Ratio (z) = 0.00301 0.25811
#
# Static dielectric constant tensor:
#      x y z
#    x 3.608810 0.000000 -0.158210 
#    y 0.000000 3.993960 0.000000 
#    z -0.158210 0.000000 3.666980 
# 
# 
# High freq. dielectric constant tensor:
#      x y z
#    x 1.778040 0.000000 -0.015760 
#    y 0.000000 1.786550 0.000000 
#    z -0.015760 0.000000 1.799700 
# 
# From -- ./inp_files/68706.got.cif
#   From: 2010.06.25/outbox.cif.g09.slc.cpg/sg13_35_cif.got.tgz:68706.got - 2010.06.28 04:50:58.
