data_PCOD8118575
_publ_section_title
;
Structure prediction by ZEFSAII (Michael W. Deem and Ramdas Pophale) SiO2 
 PCOD8118575
Probable space group: P 2/C
;
_chemical_formula_sum "Si O2"
_cell_formula_units_Z 28
_cell_length_a 14.648032
_cell_length_b 9.793068
_cell_length_c 12.227409
_cell_angle_alpha 90.000000
_cell_angle_beta 128.317750
_cell_angle_gamma 90.000000
_cell_volume 1376.170102
_symmetry_space_group_name_H-M "P 2/C"
_symmetry_group_IT_number 13
_symmetry_cell_setting 'monoclinic'
loop_
_space_group_symop_operation_xyz
x,y,z
-x,y,1/2-z
-x,-y,-z
x,-y,1/2+z
loop_
_atom_site_type_symbol
_atom_site_label
_atom_site_fract_x
_atom_site_fract_y
_atom_site_fract_z
Si Si1 0.914264 0.288238 0.543599
Si Si2 0.500000 0.854405 0.250000
Si Si3 0.794635 0.332801 0.225319
Si Si4 0.329181 0.071092 0.443515
Si Si5 0.831805 0.630840 0.214079
Si Si6 0.000000 0.224791 0.250000
Si Si7 0.306743 0.852207 0.260251
Si Si8 0.135401 0.017993 0.464910
O O1 0.838517 0.315186 0.380854
O O2 0.842744 0.347955 0.592678
O O3 0.041398 0.359112 0.633077
O O4 0.928459 0.125810 0.567433
O O5 0.572436 0.942180 0.390929
O O6 0.401207 0.776611 0.249402
O O7 0.690482 0.226348 0.118385
O O8 0.761541 0.491085 0.186419
O O9 0.896305 0.320067 0.211539
O O10 0.207779 0.019058 0.405171
O O11 0.370144 0.968297 0.379383
O O12 0.747693 0.742599 0.201612
O O13 0.034225 0.130668 0.379044
O O14 0.211517 0.938420 0.124014
#
# Coordination Sequence:
#
# PCOD8118575 Si02
#       8
#     4   2   4   4   4   2   4   4
#     4  11  21  36  59  89 130 168 204 232 292 354
#     4  10  24  40  68  88 112 148 210 264 324 346
#     4  11  23  38  58  88 128 168 200 242 295 361
#     4  10  21  40  62  88 116 152 204 261 305 355
#     4  11  24  36  59  91 129 164 202 239 287 365
#     4  10  20  34  54  86 130 166 204 234 290 352
#     4  11  21  40  62  88 117 155 203 261 305 353
#     4  10  20  33  59  91 121 162 201 245 292 356
#
# _framework density 20.346322000000001
#
# number of rings (size 3 to 8) (size 9 to 14) (size 15 to 20)
#    0.000    1.429    2.857    3.429    2.000    4.571 
#    0.000    0.714    0.000    1.714    0.000    0.000 
#    0.000    0.000    0.000    0.000    0.000    0.000 
#
# Total GULP energy -347014.002472 kJ/mol
# GULP energy per Si atom -12393.357231 kJ/mol
# Density = 2.030001 g / cm^3
# Si number density = 20.346322 Si / 1000 Ang^3
#
#
#
# Elastic Constant Matrix: (Units=GPa)
#
#
# Indices 1 2 3 4 5 6 
#
# 1 76.4544 27.5669 19.6476 0.0000 -4.3222 0.0000
# 2 27.5669 116.0833 36.4042 0.0000 -7.0726 0.0000
# 3 19.6476 36.4042 131.7119 0.0000 -5.5419 0.0000
# 4 0.0000 0.0000 0.0000 -1.8850 0.0000 -12.8819
# 5 -4.3222 -7.0726 -5.5419 0.0000 21.8449 0.0000
# 6 0.0000 0.0000 0.0000 -12.8819 0.0000 8.1082
#
#
#
# Elastic Compliance Matrix: (Units=1/GPa)
#
#
# Indices 1 2 3 4 5 6 
#
# 1 0.014568 -0.002958 -0.001288 0.000000 0.001598 0.000000
# 2 -0.002958 0.010161 -0.002278 0.000000 0.002127 0.000000
# 3 -0.001288 -0.002278 0.008463 0.000000 0.001155 0.000000
# 4 0.000000 0.000000 0.000000 -0.044741 0.000000 -0.071082
# 5 0.001598 0.002127 0.001155 0.000000 0.047075 0.000000
# 6 0.000000 0.000000 0.000000 -0.071082 0.000000 0.010401
#
#
# Mechanical properties :
#
#
# Convention : Reuss Voigt Hill
#
# Bulk Modulus (GPa) = 49.64477 54.60967 52.12722
# Shear Modulus (GPa) = 76.11622 21.65566 48.88594
#
# Velocity S-wave (km/s) = 6.12303 3.26598 4.90704
# Velocity P-wave (km/s) = 8.62795 6.41253 7.60138
#
# Compressibility (1/GPa) = 0.02014311
#
# Stress axis : x y z
#
# Youngs Moduli (GPa) = 68.64511 98.41714 118.16697
#
# Poissons Ratio (x) = 0.29113 0.15223
# Poissons Ratio (y) = 0.20306 0.26914
# Poissons Ratio (z) = 0.08843 0.22416
#
# Static dielectric constant tensor:
#      x y z
#    x 3.741130 0.000000 -0.178650 
#    y 0.000000 3.651420 0.000000 
#    z -0.178650 0.000000 3.820060 
# 
# 
# High freq. dielectric constant tensor:
#      x y z
#    x 1.785710 0.000000 -0.021270 
#    y 0.000000 1.778460 0.000000 
#    z -0.021270 0.000000 1.803770 
# 
# From -- ./inp_files/36377.got.cif
#   From: 2010.06.25/outbox.cif.g09.slc.cpg/sg13_19_cif.got.tgz:36377.got - 2010.06.28 04:50:58.
