data_PCOD8118348
_publ_section_title
;
Structure prediction by ZEFSAII (Michael W. Deem and Ramdas Pophale) SiO2 
 PCOD8118348
Probable space group: P 2/C
;
_chemical_formula_sum "Si O2"
_cell_formula_units_Z 28
_cell_length_a 10.771182
_cell_length_b 8.862982
_cell_length_c 14.218784
_cell_angle_alpha 90.000000
_cell_angle_beta 85.393370
_cell_angle_gamma 90.000000
_cell_volume 1353.008325
_symmetry_space_group_name_H-M "P 2/C"
_symmetry_group_IT_number 13
_symmetry_cell_setting 'monoclinic'
loop_
_space_group_symop_operation_xyz
x,y,z
-x,y,1/2-z
-x,-y,-z
x,-y,1/2+z
loop_
_atom_site_type_symbol
_atom_site_label
_atom_site_fract_x
_atom_site_fract_y
_atom_site_fract_z
Si Si1 0.269854 0.249016 0.857157
Si Si2 0.500000 0.335808 0.750000
Si Si3 0.039868 0.955193 0.350243
Si Si4 0.555509 0.594202 0.882706
Si Si5 0.849737 0.825051 0.506126
Si Si6 0.500000 0.838735 0.750000
Si Si7 0.294390 0.537047 0.967918
Si Si8 0.387069 0.012368 0.437730
O O1 0.376065 0.235871 0.770324
O O2 0.143359 0.173801 0.828711
O O3 0.251654 0.423408 0.887440
O O4 0.322399 0.151482 0.940851
O O5 0.526693 0.433204 0.839918
O O6 0.000000 0.013115 0.250000
O O7 0.926883 0.873145 0.410362
O O8 0.087221 0.102936 0.404044
O O9 0.589823 0.726493 0.806070
O O10 0.421017 0.635011 0.938768
O O11 0.672833 0.569361 0.944415
O O12 0.827859 0.643504 0.511450
O O13 0.709234 0.879848 0.504983
O O14 0.579257 0.938016 0.671723
O O15 0.500000 0.000000 0.500000
#
# Coordination Sequence:
#
# PCOD8118348 Si02
#       8
#     4   2   4   4   4   2   4   4
#     4  10  22  37  58  92 122 161 212 269 316 395
#     4   9  19  32  56  90 124 152 204 260 322 380
#     4  10  24  45  65  86 126 173 230 273 319 380
#     4   9  19  32  58  91 128 169 195 264 329 395
#     4  10  23  43  65  89 125 176 215 273 327 391
#     4  11  19  36  54  94 136 172 222 252 312 420
#     4  10  19  38  63  88 129 164 209 263 345 380
#     4  11  23  36  60  95 130 169 211 266 335 395
#
# _framework density 20.694624000000001
#
# number of rings (size 3 to 8) (size 9 to 14) (size 15 to 20)
#    0.000    2.000    1.429    1.286    6.000    2.857 
#    0.000    3.571    0.000    0.000    0.000    0.000 
#    0.000    0.000    0.000    0.000    0.000    0.000 
#
# Total GULP energy -346919.424716 kJ/mol
# GULP energy per Si atom -12389.979454 kJ/mol
# Density = 2.064752 g / cm^3
# Si number density = 20.694624 Si / 1000 Ang^3
#
#
#
# Elastic Constant Matrix: (Units=GPa)
#
#
# Indices 1 2 3 4 5 6 
#
# 1 102.4434 37.7487 53.3102 0.0000 -4.6119 0.0000
# 2 37.7487 92.5892 33.5784 0.0000 -1.5486 0.0000
# 3 53.3102 33.5784 110.6470 0.0000 -0.8167 0.0000
# 4 0.0000 0.0000 0.0000 25.1451 0.0000 -4.0201
# 5 -4.6119 -1.5486 -0.8167 0.0000 35.7185 0.0000
# 6 0.0000 0.0000 0.0000 -4.0201 0.0000 22.2621
#
#
#
# Elastic Compliance Matrix: (Units=1/GPa)
#
#
# Indices 1 2 3 4 5 6 
#
# 1 0.014146 -0.003679 -0.005688 0.000000 0.001537 0.000000
# 2 -0.003679 0.013100 -0.002203 0.000000 0.000043 0.000000
# 3 -0.005688 -0.002203 0.012443 0.000000 -0.000545 0.000000
# 4 0.000000 0.000000 0.000000 0.040951 0.000000 0.007395
# 5 0.001537 0.000043 -0.000545 0.000000 0.028185 0.000000
# 6 0.000000 0.000000 0.000000 0.007395 0.000000 0.046255
#
#
# Mechanical properties :
#
#
# Convention : Reuss Voigt Hill
#
# Bulk Modulus (GPa) = 60.42387 61.66158 61.04272
# Shear Modulus (GPa) = 27.21313 28.69463 27.95388
#
# Velocity S-wave (km/s) = 3.63021 3.72771 3.67928
# Velocity P-wave (km/s) = 6.84342 6.95618 6.90003
#
# Compressibility (1/GPa) = 0.01654975
#
# Stress axis : x y z
#
# Youngs Moduli (GPa) = 70.69025 76.33699 80.36906
#
# Poissons Ratio (x) = 0.28084 0.45713
# Poissons Ratio (y) = 0.26007 0.17702
# Poissons Ratio (z) = 0.40208 0.16814
#
# Static dielectric constant tensor:
#      x y z
#    x 3.608390 0.000000 -0.143680 
#    y 0.000000 3.906590 0.000000 
#    z -0.143680 0.000000 3.761290 
# 
# 
# High freq. dielectric constant tensor:
#      x y z
#    x 1.784810 0.000000 -0.004640 
#    y 0.000000 1.819610 0.000000 
#    z -0.004640 0.000000 1.802820 
# 
# From -- ./inp_files/49674.got.cif
#   From: 2010.06.25/outbox.cif.g09.slc.cpg/sg13_25_cif.got.tgz:49674.got - 2010.06.28 04:50:58.
