data_PCOD8118927
_publ_section_title
;
Structure prediction by ZEFSAII (Michael W. Deem and Ramdas Pophale) SiO2 
 PCOD8118927
Probable space group: P 2/C
;
_chemical_formula_sum "Si O2"
_cell_formula_units_Z 32
_cell_length_a 17.277266
_cell_length_b 11.311783
_cell_length_c 23.244995
_cell_angle_alpha 90.000000
_cell_angle_beta 19.959169
_cell_angle_gamma 90.000000
_cell_volume 1550.729169
_symmetry_space_group_name_H-M "P 2/C"
_symmetry_group_IT_number 13
_symmetry_cell_setting 'monoclinic'
loop_
_space_group_symop_operation_xyz
x,y,z
-x,y,1/2-z
-x,-y,-z
x,-y,1/2+z
loop_
_atom_site_type_symbol
_atom_site_label
_atom_site_fract_x
_atom_site_fract_y
_atom_site_fract_z
Si Si1 0.685472 0.066454 0.752352
Si Si2 0.631848 0.499358 0.466687
Si Si3 0.964382 0.459799 0.888584
Si Si4 0.246635 0.316642 0.912795
Si Si5 0.782165 0.031883 0.942981
Si Si6 0.926387 0.070338 0.463216
Si Si7 0.286926 0.335581 0.753931
Si Si8 0.237090 0.294278 0.553135
O O1 0.759688 0.051131 0.634086
O O2 0.729870 0.196473 0.748072
O O3 0.820902 0.973267 0.697312
O O4 0.415704 0.050086 0.944288
O O5 0.500000 0.500000 0.500000
O O6 0.542463 0.387218 0.566044
O O7 0.592240 0.622912 0.528977
O O8 0.896046 0.492759 0.264778
O O9 0.800536 0.354326 0.982798
O O10 0.118123 0.412263 0.832811
O O11 0.805971 0.568047 0.014582
O O12 0.500000 0.271977 0.750000
O O13 0.073577 0.210719 0.050176
O O14 0.214810 0.354664 0.869434
O O15 0.668934 0.162708 0.021687
O O16 0.000000 0.016616 0.750000
O O17 0.841757 0.000918 0.966964
O O18 0.000000 0.276871 0.750000
#
# Coordination Sequence:
#
# PCOD8118927 Si02
#       8
#     4   4   4   4   4   4   4   4
#     4  10  22  40  64  85 116 167 206 246 306 369
#     4   9  19  35  58  82 113 151 185 231 291 356
#     4  10  20  36  59  83 113 154 192 236 298 364
#     4  11  22  37  58  85 120 153 194 253 301 353
#     4  11  23  39  62  90 121 155 202 263 308 358
#     4  10  22  42  60  84 121 162 204 247 304 370
#     4  10  20  37  57  84 117 147 192 247 295 351
#     4   9  19  36  55  81 115 148 187 235 293 353
#
# _framework density 20.635453999999999
#
# number of rings (size 3 to 8) (size 9 to 14) (size 15 to 20)
#    0.000    2.000    0.000    3.750    0.000    4.500 
#    0.000   10.000    0.000    0.000    0.000    0.000 
#    0.000    0.000    0.000    0.000    0.000    0.000 
#
# Total GULP energy -396652.873839 kJ/mol
# GULP energy per Si atom -12395.402307 kJ/mol
# Density = 2.058849 g / cm^3
# Si number density = 20.635454 Si / 1000 Ang^3
#
#
#
# Elastic Constant Matrix: (Units=GPa)
#
#
# Indices 1 2 3 4 5 6 
#
# 1 103.2104 44.2644 19.9928 0.0000 -4.8271 0.0000
# 2 44.2644 113.1789 36.0886 0.0000 8.5082 0.0000
# 3 19.9928 36.0886 66.4233 0.0000 -5.5061 0.0000
# 4 0.0000 0.0000 0.0000 35.5454 0.0000 -2.4357
# 5 -4.8271 8.5082 -5.5061 0.0000 25.6605 0.0000
# 6 0.0000 0.0000 0.0000 -2.4357 0.0000 35.8807
#
#
#
# Elastic Compliance Matrix: (Units=1/GPa)
#
#
# Indices 1 2 3 4 5 6 
#
# 1 0.012042 -0.004751 -0.000738 0.000000 0.003682 0.000000
# 2 -0.004751 0.013196 -0.006288 0.000000 -0.006619 0.000000
# 3 -0.000738 -0.006288 0.019196 0.000000 0.006065 0.000000
# 4 0.000000 0.000000 0.000000 0.028264 0.000000 0.001919
# 5 0.003682 -0.006619 0.006065 0.000000 0.043159 0.000000
# 6 0.000000 0.000000 0.000000 0.001919 0.000000 0.028000
#
#
# Mechanical properties :
#
#
# Convention : Reuss Voigt Hill
#
# Bulk Modulus (GPa) = 47.89313 53.72268 50.80791
# Shear Modulus (GPa) = 28.67418 31.58179 30.12799
#
# Velocity S-wave (km/s) = 3.73172 3.91636 3.82515
# Velocity P-wave (km/s) = 6.46740 6.82211 6.64712
#
# Compressibility (1/GPa) = 0.02087982
#
# Stress axis : x y z
#
# Youngs Moduli (GPa) = 83.04482 75.77841 52.09308
#
# Poissons Ratio (x) = 0.36002 0.03844
# Poissons Ratio (y) = 0.39455 0.32758
# Poissons Ratio (z) = 0.06128 0.47652
#
# Static dielectric constant tensor:
#      x y z
#    x 3.786860 0.000000 0.071340 
#    y 0.000000 3.968710 0.000000 
#    z 0.071340 0.000000 3.824750 
# 
# 
# High freq. dielectric constant tensor:
#      x y z
#    x 1.819420 0.000000 -0.000200 
#    y 0.000000 1.814300 0.000000 
#    z -0.000200 0.000000 1.785400 
# 
# From -- ./inp_files/88168.got.cif
#   From: 2010.06.25/outbox.cif.g09.slc.cpg/sg13_45_cif.got.tgz:88168.got - 2010.06.28 04:50:58.
