data_PCOD8118705
_publ_section_title
;
Structure prediction by ZEFSAII (Michael W. Deem and Ramdas Pophale) SiO2 
 PCOD8118705
Probable space group: P 2/C
;
_chemical_formula_sum "Si O2"
_cell_formula_units_Z 24
_cell_length_a 30.842828
_cell_length_b 5.130764
_cell_length_c 23.072461
_cell_angle_alpha 90.000000
_cell_angle_beta 157.077136
_cell_angle_gamma 90.000000
_cell_volume 1422.093522
_symmetry_space_group_name_H-M "P 2/C"
_symmetry_group_IT_number 13
_symmetry_cell_setting 'monoclinic'
loop_
_space_group_symop_operation_xyz
x,y,z
-x,y,1/2-z
-x,-y,-z
x,-y,1/2+z
loop_
_atom_site_type_symbol
_atom_site_label
_atom_site_fract_x
_atom_site_fract_y
_atom_site_fract_z
Si Si1 0.594210 0.648898 0.910857
Si Si2 0.425544 0.248233 0.417727
Si Si3 0.777325 0.642424 0.044793
Si Si4 0.320852 0.090062 0.177732
Si Si5 0.877368 0.128133 0.123491
Si Si6 0.553400 0.140692 0.932642
O O1 0.500000 0.742121 0.750000
O O2 0.605759 0.871214 0.973995
O O3 0.560961 0.368116 0.894898
O O4 0.713394 0.622611 0.026751
O O5 0.500000 0.500000 0.500000
O O6 0.328048 0.231845 0.249324
O O7 0.500000 0.000000 0.500000
O O8 0.379276 0.234951 0.426718
O O9 0.849743 0.386091 0.124988
O O10 0.863443 0.886152 0.150994
O O11 0.687092 0.684842 0.881613
O O12 0.425093 0.904614 0.291867
O O13 0.209054 0.912892 0.036708
O O14 0.000000 0.146188 0.250000
#
# Coordination Sequence:
#
# PCOD8118705 Si02
#       6
#     4   4   4   4   4   4
#     4  12  20  32  49  74 109 142 167 201 248 321
#     4  10  21  33  50  73 108 140 176 208 244 307
#     4  10  21  33  52  77 107 131 170 213 265 307
#     4   9  21  34  52  76 107 135 171 213 258 297
#     4  10  20  35  54  78 101 130 176 223 273 304
#     4  11  21  32  50  77 107 145 168 194 252 317
#
# _framework density 16.876526999999999
#
# number of rings (size 3 to 8) (size 9 to 14) (size 15 to 20)
#    1.000    0.667    1.667    5.000    4.667    0.000 
#    0.000    0.000    0.000    0.000    0.000    7.000 
#    0.000    0.000    0.000    0.000    0.000    0.000 
#
# Total GULP energy -297427.161388 kJ/mol
# GULP energy per Si atom -12392.798391 kJ/mol
# Density = 1.683811 g / cm^3
# Si number density = 16.876527 Si / 1000 Ang^3
#
#
#
# Elastic Constant Matrix: (Units=GPa)
#
#
# Indices 1 2 3 4 5 6 
#
# 1 114.2410 47.9918 54.4086 0.0000 10.9626 0.0000
# 2 47.9918 132.5894 29.4108 0.0000 11.1722 0.0000
# 3 54.4086 29.4108 61.7428 0.0000 13.2519 0.0000
# 4 0.0000 0.0000 0.0000 10.6451 0.0000 3.2649
# 5 10.9626 11.1722 13.2519 0.0000 26.6182 0.0000
# 6 0.0000 0.0000 0.0000 3.2649 0.0000 34.8895
#
#
#
# Elastic Compliance Matrix: (Units=1/GPa)
#
#
# Indices 1 2 3 4 5 6 
#
# 1 0.016110 -0.003044 -0.012983 0.000000 0.001107 0.000000
# 2 -0.003044 0.009080 -0.001224 0.000000 -0.001948 0.000000
# 3 -0.012983 -0.001224 0.030188 0.000000 -0.009168 0.000000
# 4 0.000000 0.000000 0.000000 0.096716 0.000000 -0.009050
# 5 0.001107 -0.001948 -0.009168 0.000000 0.042494 0.000000
# 6 0.000000 0.000000 0.000000 -0.009050 0.000000 0.029509
#
#
# Mechanical properties :
#
#
# Convention : Reuss Voigt Hill
#
# Bulk Modulus (GPa) = 47.90757 63.57728 55.74242
# Shear Modulus (GPa) = 18.82822 26.21470 22.52146
#
# Velocity S-wave (km/s) = 3.34375 3.94550 3.65702
# Velocity P-wave (km/s) = 6.58455 7.64917 7.13674
#
# Compressibility (1/GPa) = 0.02087353
#
# Stress axis : x y z
#
# Youngs Moduli (GPa) = 62.07468 110.13604 33.12523
#
# Poissons Ratio (x) = 0.33529 0.43008
# Poissons Ratio (y) = 0.18897 0.04056
# Poissons Ratio (z) = 0.80594 0.13484
#
# Static dielectric constant tensor:
#      x y z
#    x 3.602820 0.000000 -0.403400 
#    y 0.000000 3.236510 0.000000 
#    z -0.403400 0.000000 3.029460 
# 
# 
# High freq. dielectric constant tensor:
#      x y z
#    x 1.645370 0.000000 -0.007460 
#    y 0.000000 1.671830 0.000000 
#    z -0.007460 0.000000 1.601500 
# 
# From -- ./inp_files/82311.got.cif
#   From: 2010.06.25/outbox.cif.g09.slc.cpg/sg13_42_cif.got.tgz:82311.got - 2010.06.28 04:50:58.
