data_PCOD8118724
_publ_section_title
;
Structure prediction by ZEFSAII (Michael W. Deem and Ramdas Pophale) SiO2 
 PCOD8118724
Probable space group: P 2/C
;
_chemical_formula_sum "Si O2"
_cell_formula_units_Z 24
_cell_length_a 14.705416
_cell_length_b 13.873790
_cell_length_c 11.659795
_cell_angle_alpha 90.000000
_cell_angle_beta 149.293615
_cell_angle_gamma 90.000000
_cell_volume 1214.722575
_symmetry_space_group_name_H-M "P 2/C"
_symmetry_group_IT_number 13
_symmetry_cell_setting 'monoclinic'
loop_
_space_group_symop_operation_xyz
x,y,z
-x,y,1/2-z
-x,-y,-z
x,-y,1/2+z
loop_
_atom_site_type_symbol
_atom_site_label
_atom_site_fract_x
_atom_site_fract_y
_atom_site_fract_z
Si Si1 0.135871 0.049244 0.000244
Si Si2 0.145806 0.602556 0.324653
Si Si3 0.133783 0.135664 0.624158
Si Si4 0.305491 0.198755 0.033267
Si Si5 0.706407 0.412185 0.967799
Si Si6 0.053318 0.345882 0.470905
O O1 0.000000 0.032257 0.750000
O O2 0.049593 0.099874 0.017259
O O3 0.285194 0.121373 0.113579
O O4 0.211388 0.945236 0.120941
O O5 0.181318 0.708584 0.414200
O O6 0.306125 0.525295 0.508267
O O7 0.070535 0.609556 0.115400
O O8 0.000000 0.554922 0.250000
O O9 0.093930 0.232133 0.510903
O O10 0.278662 0.150596 0.880374
O O11 0.500000 0.241900 0.250000
O O12 0.500000 0.372704 0.750000
O O13 0.789962 0.396444 0.932543
O O14 0.849087 0.360522 0.208183
#
# Coordination Sequence:
#
# PCOD8118724 Si02
#       6
#     4   4   4   4   4   4
#     4   9  18  35  60  81 106 152 195 236 288 362
#     4  11  21  41  64  85 118 162 203 245 297 357
#     4   9  19  37  59  81 110 154 197 233 295 355
#     4  10  20  35  55  87 119 146 192 247 293 348
#     4  11  24  40  61  91 122 158 204 249 302 354
#     4  10  22  42  61  87 123 161 197 248 298 363
#
# _framework density 19.757598000000002
#
# number of rings (size 3 to 8) (size 9 to 14) (size 15 to 20)
#    0.000    2.000    1.667    3.500    2.333    1.333 
#   12.000    0.833    0.000    0.000    0.000    0.000 
#    0.000    0.000    0.000    0.000    0.000    0.000 
#
# Total GULP energy -297390.008331 kJ/mol
# GULP energy per Si atom -12391.250347 kJ/mol
# Density = 1.971263 g / cm^3
# Si number density = 19.757598 Si / 1000 Ang^3
#
#
#
# Elastic Constant Matrix: (Units=GPa)
#
#
# Indices 1 2 3 4 5 6 
#
# 1 94.8744 40.4518 52.6598 0.0000 -8.1974 0.0000
# 2 40.4518 128.3265 34.8598 0.0000 -12.0498 0.0000
# 3 52.6598 34.8598 87.5406 0.0000 18.9609 0.0000
# 4 0.0000 0.0000 0.0000 -4.7793 0.0000 0.0987
# 5 -8.1974 -12.0498 18.9609 0.0000 25.0622 0.0000
# 6 0.0000 0.0000 0.0000 0.0987 0.0000 29.9431
#
#
#
# Elastic Compliance Matrix: (Units=1/GPa)
#
#
# Indices 1 2 3 4 5 6 
#
# 1 0.022299 -0.000266 -0.017772 0.000000 0.020612 0.000000
# 2 -0.000266 0.010408 -0.006039 0.000000 0.009486 0.000000
# 3 -0.017772 -0.006039 0.031582 0.000000 -0.032610 0.000000
# 4 0.000000 0.000000 0.000000 -0.209222 0.000000 0.000690
# 5 0.020612 0.009486 -0.032610 0.000000 0.075875 0.000000
# 6 0.000000 0.000000 0.000000 0.000690 0.000000 0.033394
#
#
# Mechanical properties :
#
#
# Convention : Reuss Voigt Hill
#
# Bulk Modulus (GPa) = 61.98028 62.96492 62.47260
# Shear Modulus (GPa) = 279.81031 22.22987 151.02009
#
# Velocity S-wave (km/s) = 11.91340 3.35794 8.75228
# Velocity P-wave (km/s) = 14.85521 6.85363 11.56826
#
# Compressibility (1/GPa) = 0.01613416
#
# Stress axis : x y z
#
# Youngs Moduli (GPa) = 44.84481 96.08277 31.66325
#
# Poissons Ratio (x) = 0.02556 0.56273
# Poissons Ratio (y) = 0.01193 0.19122
# Poissons Ratio (z) = 0.79700 0.58025
#
# Static dielectric constant tensor:
#      x y z
#    x 3.526280 0.000000 -0.180260 
#    y 0.000000 3.764660 0.000000 
#    z -0.180260 0.000000 3.384690 
# 
# 
# High freq. dielectric constant tensor:
#      x y z
#    x 1.762210 0.000000 -0.016810 
#    y 0.000000 1.785680 0.000000 
#    z -0.016810 0.000000 1.752450 
# 
# From -- ./inp_files/34332.got.cif
#   From: 2010.06.25/outbox.cif.g09.slc.cpg/sg13_18_cif.got.tgz:34332.got - 2010.06.28 04:50:58.
