data_PCOD8118152
_publ_section_title
;
Structure prediction by ZEFSAII (Michael W. Deem and Ramdas Pophale) SiO2 
 PCOD8118152
Probable space group: P 2/C
;
_chemical_formula_sum "Si O2"
_cell_formula_units_Z 32
_cell_length_a 13.753011
_cell_length_b 14.934884
_cell_length_c 8.764702
_cell_angle_alpha 90.000000
_cell_angle_beta 63.656103
_cell_angle_gamma 90.000000
_cell_volume 1613.302896
_symmetry_space_group_name_H-M "P 2/C"
_symmetry_group_IT_number 13
_symmetry_cell_setting 'monoclinic'
loop_
_space_group_symop_operation_xyz
x,y,z
-x,y,1/2-z
-x,-y,-z
x,-y,1/2+z
loop_
_atom_site_type_symbol
_atom_site_label
_atom_site_fract_x
_atom_site_fract_y
_atom_site_fract_z
Si Si1 0.218624 0.546535 0.779606
Si Si2 0.884083 0.881601 0.774089
Si Si3 0.743372 0.222009 0.957486
Si Si4 0.124285 0.610031 0.153467
Si Si5 0.717264 0.264092 0.324697
Si Si6 0.476786 0.724213 0.938926
Si Si7 0.111489 0.935250 0.085085
Si Si8 0.429789 0.440068 0.655555
O O1 0.145300 0.479789 0.733911
O O2 0.258812 0.631797 0.648722
O O3 0.320895 0.492470 0.777798
O O4 0.146756 0.586272 0.963337
O O5 0.792810 0.805171 0.865431
O O6 0.895492 0.916418 0.591350
O O7 0.000000 0.842711 0.750000
O O8 0.850346 0.963300 0.908784
O O9 0.804230 0.306061 0.833691
O O10 0.804362 0.129569 0.889126
O O11 0.745941 0.249200 0.131036
O O12 0.618168 0.200921 0.995670
O O13 0.000000 0.639793 0.250000
O O14 0.588197 0.245119 0.443848
O O15 0.500000 0.690558 0.750000
O O16 0.408384 0.648474 0.073746
O O17 0.000000 0.918096 0.250000
O O18 0.500000 0.411712 0.750000
O O19 0.500000 0.500000 0.500000
#
# Coordination Sequence:
#
# PCOD8118152 Si02
#       8
#     4   4   4   4   4   4   4   4
#     4  11  22  36  53  79 110 151 190 235 282 332
#     4  10  20  37  59  88 111 144 185 230 281 336
#     4   9  19  35  58  81 108 147 189 229 283 336
#     4  11  22  37  53  77 111 151 194 234 280 335
#     4   9  20  34  57  81 113 145 187 229 281 342
#     4  10  19  37  59  83 111 147 191 238 282 337
#     4  10  19  36  60  87 111 143 186 231 279 339
#     4  12  22  33  56  82 108 147 195 241 282 326
#
# _framework density 19.835084999999999
#
# number of rings (size 3 to 8) (size 9 to 14) (size 15 to 20)
#    0.000    1.750    2.500    3.375    1.750    0.500 
#    0.000    6.875    0.000    0.000    0.000    0.000 
#    0.000    0.000    0.000    0.000    0.000    0.000 
#
# Total GULP energy -396521.333373 kJ/mol
# GULP energy per Si atom -12391.291668 kJ/mol
# Density = 1.978994 g / cm^3
# Si number density = 19.835085 Si / 1000 Ang^3
#
#
#
# Elastic Constant Matrix: (Units=GPa)
#
#
# Indices 1 2 3 4 5 6 
#
# 1 142.8301 72.3557 32.5808 0.0000 -23.9796 0.0000
# 2 72.3557 100.2534 14.9520 0.0000 -15.6687 0.0000
# 3 32.5808 14.9520 50.8124 0.0000 -10.5046 0.0000
# 4 0.0000 0.0000 0.0000 19.2529 0.0000 -0.3632
# 5 -23.9796 -15.6687 -10.5046 0.0000 30.5814 0.0000
# 6 0.0000 0.0000 0.0000 -0.3632 0.0000 33.8642
#
#
#
# Elastic Compliance Matrix: (Units=1/GPa)
#
#
# Indices 1 2 3 4 5 6 
#
# 1 0.012853 -0.007849 -0.005037 0.000000 0.004327 0.000000
# 2 -0.007849 0.015869 0.000831 0.000000 0.002262 0.000000
# 3 -0.005037 0.000831 0.023614 0.000000 0.004587 0.000000
# 4 0.000000 0.000000 0.000000 0.051951 0.000000 0.000557
# 5 0.004327 0.002262 0.004587 0.000000 0.038827 0.000000
# 6 0.000000 0.000000 0.000000 0.000557 0.000000 0.029536
#
#
# Mechanical properties :
#
#
# Convention : Reuss Voigt Hill
#
# Bulk Modulus (GPa) = 35.42966 59.29700 47.36333
# Shear Modulus (GPa) = 24.25209 28.34019 26.29614
#
# Velocity S-wave (km/s) = 3.50049 3.78404 3.64502
# Velocity P-wave (km/s) = 5.85139 7.00370 6.45332
#
# Compressibility (1/GPa) = 0.02822494
#
# Stress axis : x y z
#
# Youngs Moduli (GPa) = 77.80404 63.01597 42.34785
#
# Poissons Ratio (x) = 0.49460 0.21331
# Poissons Ratio (y) = 0.61067 -0.03517
# Poissons Ratio (z) = 0.39191 -0.05234
#
# Static dielectric constant tensor:
#      x y z
#    x 3.705570 0.000000 -0.164090 
#    y 0.000000 3.779610 0.000000 
#    z -0.164090 0.000000 3.406430 
# 
# 
# High freq. dielectric constant tensor:
#      x y z
#    x 1.778830 0.000000 -0.012110 
#    y 0.000000 1.760500 0.000000 
#    z -0.012110 0.000000 1.757710 
# 
# From -- ./inp_files/19643.got.cif
#   From: 2010.06.25/outbox.cif.g09.slc.cpg/sg13_10_cif.got.tgz:19643.got - 2010.06.28 04:50:58.
