data_PCOD8118866
_publ_section_title
;
Structure prediction by ZEFSAII (Michael W. Deem and Ramdas Pophale) SiO2 
 PCOD8118866
Probable space group: P 2/C
;
_chemical_formula_sum "Si O2"
_cell_formula_units_Z 28
_cell_length_a 22.903467
_cell_length_b 7.276128
_cell_length_c 24.962954
_cell_angle_alpha 90.000000
_cell_angle_beta 160.418510
_cell_angle_gamma 90.000000
_cell_volume 1394.225895
_symmetry_space_group_name_H-M "P 2/C"
_symmetry_group_IT_number 13
_symmetry_cell_setting 'monoclinic'
loop_
_space_group_symop_operation_xyz
x,y,z
-x,y,1/2-z
-x,-y,-z
x,-y,1/2+z
loop_
_atom_site_type_symbol
_atom_site_label
_atom_site_fract_x
_atom_site_fract_y
_atom_site_fract_z
Si Si1 0.359668 0.597187 0.673544
Si Si2 0.958675 0.261224 0.273800
Si Si3 0.197410 0.757864 0.074968
Si Si4 0.747928 0.026530 0.644480
Si Si5 0.885292 0.137581 0.368273
Si Si6 0.614562 0.116598 0.216639
Si Si7 0.996801 0.319286 0.808221
O O1 0.500000 0.540623 0.750000
O O2 0.316781 0.422468 0.674146
O O3 0.438649 0.753812 0.780087
O O4 0.191049 0.679370 0.499073
O O5 0.916638 0.476799 0.241535
O O6 0.000000 0.199408 0.250000
O O7 0.125656 0.197398 0.453395
O O8 0.786157 0.154935 0.142665
O O9 0.308554 0.925419 0.194429
O O10 0.020172 0.718819 0.957013
O O11 0.551748 0.082735 0.463841
O O12 0.880486 0.189275 0.744305
O O13 0.772898 0.978140 0.728217
O O14 0.751714 0.223892 0.296234
O O15 0.000000 0.000000 0.500000
O O16 0.000000 0.246809 0.750000
#
# Coordination Sequence:
#
# PCOD8118866 Si02
#       7
#     4   4   4   4   4   4   4
#     4  11  23  38  59  87 116 149 191 235 283 341
#     4   9  19  35  56  80 110 152 193 231 284 343
#     4   9  21  39  60  83 115 154 191 237 285 333
#     4  11  21  35  58  84 114 149 187 236 287 338
#     4   9  19  40  62  81 110 151 195 235 282 336
#     4  11  23  37  58  87 117 149 189 236 284 339
#     4  10  20  36  56  80 114 152 190 235 286 339
#
# _framework density 20.082827999999999
#
# number of rings (size 3 to 8) (size 9 to 14) (size 15 to 20)
#    0.000    2.000    0.000    4.286    0.000    6.857 
#    0.000    4.286    0.000   12.857    0.000    0.000 
#    0.000    0.000    0.000    0.000    0.000    0.000 
#
# Total GULP energy -347098.860944 kJ/mol
# GULP energy per Si atom -12396.387891 kJ/mol
# Density = 2.003712 g / cm^3
# Si number density = 20.082828 Si / 1000 Ang^3
#
#
#
# Elastic Constant Matrix: (Units=GPa)
#
#
# Indices 1 2 3 4 5 6 
#
# 1 106.2090 31.6498 30.6603 0.0000 1.1261 0.0000
# 2 31.6498 72.5108 26.0084 0.0000 10.3124 0.0000
# 3 30.6603 26.0084 85.2308 0.0000 7.0327 0.0000
# 4 0.0000 0.0000 0.0000 16.5360 0.0000 5.4330
# 5 1.1261 10.3124 7.0327 0.0000 36.3670 0.0000
# 6 0.0000 0.0000 0.0000 5.4330 0.0000 26.5859
#
#
#
# Elastic Compliance Matrix: (Units=1/GPa)
#
#
# Indices 1 2 3 4 5 6 
#
# 1 0.011498 -0.004146 -0.002986 0.000000 0.001397 0.000000
# 2 -0.004146 0.017441 -0.003489 0.000000 -0.004143 0.000000
# 3 -0.002986 -0.003489 0.014006 0.000000 -0.001627 0.000000
# 4 0.000000 0.000000 0.000000 0.064827 0.000000 -0.013248
# 5 0.001397 -0.004143 -0.001627 0.000000 0.028944 0.000000
# 6 0.000000 0.000000 0.000000 -0.013248 0.000000 0.040321
#
#
# Mechanical properties :
#
#
# Convention : Reuss Voigt Hill
#
# Bulk Modulus (GPa) = 46.07755 48.95418 47.51587
# Shear Modulus (GPa) = 24.32919 27.60657 25.96788
#
# Velocity S-wave (km/s) = 3.48435 3.71163 3.59979
# Velocity P-wave (km/s) = 6.25949 6.54197 6.40229
#
# Compressibility (1/GPa) = 0.02170254
#
# Stress axis : x y z
#
# Youngs Moduli (GPa) = 86.96959 57.33464 71.39799
#
# Poissons Ratio (x) = 0.23773 0.21322
# Poissons Ratio (y) = 0.36061 0.24910
# Poissons Ratio (z) = 0.25972 0.20003
#
# Static dielectric constant tensor:
#      x y z
#    x 4.223910 0.000000 0.103150 
#    y 0.000000 2.865370 0.000000 
#    z 0.103150 0.000000 3.697900 
# 
# 
# High freq. dielectric constant tensor:
#      x y z
#    x 1.797180 0.000000 -0.008910 
#    y 0.000000 1.767910 0.000000 
#    z -0.008910 0.000000 1.785620 
# 
# From -- ./inp_files/88538.got.cif
#   From: 2010.06.25/outbox.cif.g09.slc.cpg/sg13_45_cif.got.tgz:88538.got - 2010.06.28 04:50:58.
