data_PCOD8118147
_publ_section_title
;
Structure prediction by ZEFSAII (Michael W. Deem and Ramdas Pophale) SiO2 
 PCOD8118147
Probable space group: P 2/C
;
_chemical_formula_sum "Si O2"
_cell_formula_units_Z 28
_cell_length_a 9.324916
_cell_length_b 8.545599
_cell_length_c 29.585194
_cell_angle_alpha 90.000000
_cell_angle_beta 34.900702
_cell_angle_gamma 90.000000
_cell_volume 1348.889136
_symmetry_space_group_name_H-M "P 2/C"
_symmetry_group_IT_number 13
_symmetry_cell_setting 'monoclinic'
loop_
_space_group_symop_operation_xyz
x,y,z
-x,y,1/2-z
-x,-y,-z
x,-y,1/2+z
loop_
_atom_site_type_symbol
_atom_site_label
_atom_site_fract_x
_atom_site_fract_y
_atom_site_fract_z
Si Si1 0.604695 0.471165 0.620863
Si Si2 0.727364 0.771641 0.338908
Si Si3 0.434337 0.765609 0.715736
Si Si4 0.084260 0.291711 0.180304
Si Si5 0.753792 0.424743 0.917902
Si Si6 0.459705 0.090189 0.401985
Si Si7 0.101090 0.322781 0.524795
O O1 0.364255 0.370907 0.668675
O O2 0.516872 0.585629 0.684085
O O3 0.693849 0.570227 0.554302
O O4 0.823354 0.351558 0.578285
O O5 0.727114 0.721170 0.391141
O O6 0.000000 0.826971 0.250000
O O7 0.521563 0.908819 0.390642
O O8 0.500000 0.811608 0.750000
O O9 0.572100 0.873667 0.643201
O O10 0.141719 0.806684 0.783485
O O11 0.100928 0.436621 0.143114
O O12 0.327840 0.186072 0.124981
O O13 0.000000 0.362115 0.250000
O O14 0.500000 0.500000 0.000000
O O15 0.910979 0.363741 0.919614
O O16 0.193873 0.142523 0.493406
#
# Coordination Sequence:
#
# PCOD8118147 Si02
#       7
#     4   4   4   4   4   4   4
#     4  10  21  37  60  86 120 156 195 255 306 348
#     4  12  24  40  61  88 122 161 202 249 304 360
#     4  10  19  36  60  87 112 156 205 245 296 359
#     4  10  19  36  60  84 120 157 199 251 303 354
#     4  12  20  36  62  93 113 152 208 257 290 353
#     4  10  22  40  59  84 124 167 195 238 311 370
#     4  10  21  39  58  89 122 154 199 247 305 364
#
# _framework density 20.757819999999999
#
# number of rings (size 3 to 8) (size 9 to 14) (size 15 to 20)
#    0.000    1.429    2.857    5.143    0.000    1.143 
#    0.000    3.571    0.000    0.000    0.000    0.000 
#    0.000    0.000    0.000    0.000    0.000    0.000 
#
# Total GULP energy -347071.329275 kJ/mol
# GULP energy per Si atom -12395.404617 kJ/mol
# Density = 2.071057 g / cm^3
# Si number density = 20.757820 Si / 1000 Ang^3
#
#
#
# Elastic Constant Matrix: (Units=GPa)
#
#
# Indices 1 2 3 4 5 6 
#
# 1 123.2785 15.8228 26.2006 0.0000 22.9787 0.0000
# 2 15.8228 59.4640 5.3073 0.0000 9.7953 0.0000
# 3 26.2006 5.3073 48.8812 0.0000 6.0793 0.0000
# 4 0.0000 0.0000 0.0000 21.8425 0.0000 7.3603
# 5 22.9787 9.7953 6.0793 0.0000 39.6322 0.0000
# 6 0.0000 0.0000 0.0000 7.3603 0.0000 -8.6013
#
#
#
# Elastic Compliance Matrix: (Units=1/GPa)
#
#
# Indices 1 2 3 4 5 6 
#
# 1 0.010204 -0.001501 -0.004706 0.000000 -0.004823 0.000000
# 2 -0.001501 0.017845 -0.000706 0.000000 -0.003432 0.000000
# 3 -0.004706 -0.000706 0.023137 0.000000 -0.000646 0.000000
# 4 0.000000 0.000000 0.000000 0.035536 0.000000 0.030409
# 5 -0.004823 -0.003432 -0.000646 0.000000 0.028976 0.000000
# 6 0.000000 0.000000 0.000000 0.030409 0.000000 -0.090241
#
#
# Mechanical properties :
#
#
# Convention : Reuss Voigt Hill
#
# Bulk Modulus (GPa) = 26.76729 36.25391 31.51060
# Shear Modulus (GPa) = 96.64486 22.86088 59.75287
#
# Velocity S-wave (km/s) = 6.83077 3.32221 5.37105
# Velocity P-wave (km/s) = 8.66807 5.67619 7.32648
#
# Compressibility (1/GPa) = 0.03735903
#
# Stress axis : x y z
#
# Youngs Moduli (GPa) = 98.00471 56.03947 43.22003
#
# Poissons Ratio (x) = 0.08409 0.20341
# Poissons Ratio (y) = 0.14706 0.03053
# Poissons Ratio (z) = 0.46125 0.03958
#
# Static dielectric constant tensor:
#      x y z
#    x 4.047740 0.000000 0.048690 
#    y 0.000000 3.513710 0.000000 
#    z 0.048690 0.000000 3.853750 
# 
# 
# High freq. dielectric constant tensor:
#      x y z
#    x 1.818410 0.000000 -0.002250 
#    y 0.000000 1.791270 0.000000 
#    z -0.002250 0.000000 1.809350 
# 
# From -- ./inp_files/95917.got.cif
#   From: 2010.06.25/outbox.cif.g09.slc.cpg/sg13_48_cif.got.tgz:95917.got - 2010.06.28 04:50:58.
