data_PCOD8118021
_publ_section_title
;
Structure prediction by ZEFSAII (Michael W. Deem and Ramdas Pophale) SiO2 
 PCOD8118021
Probable space group: P 2/C
;
_chemical_formula_sum "Si O2"
_cell_formula_units_Z 28
_cell_length_a 27.897203
_cell_length_b 9.373909
_cell_length_c 8.519156
_cell_angle_alpha 90.000000
_cell_angle_beta 139.804279
_cell_angle_gamma 90.000000
_cell_volume 1437.829405
_symmetry_space_group_name_H-M "P 2/C"
_symmetry_group_IT_number 13
_symmetry_cell_setting 'monoclinic'
loop_
_space_group_symop_operation_xyz
x,y,z
-x,y,1/2-z
-x,-y,-z
x,-y,1/2+z
loop_
_atom_site_type_symbol
_atom_site_label
_atom_site_fract_x
_atom_site_fract_y
_atom_site_fract_z
Si Si1 0.660739 0.839204 0.965118
Si Si2 0.792446 0.657681 0.796483
Si Si3 0.919437 0.150339 0.482896
Si Si4 0.207778 0.344453 0.835450
Si Si5 0.660930 0.159256 0.837945
Si Si6 0.499900 0.845698 0.567966
Si Si7 0.919404 0.153000 0.113170
O O1 0.718688 0.743032 0.019092
O O2 0.677132 0.837856 0.192274
O O3 0.578500 0.771489 0.718681
O O4 0.667204 0.998835 0.916325
O O5 0.863651 0.726530 0.893053
O O6 0.780870 0.501620 0.700311
O O7 0.719176 0.746309 0.575887
O O8 0.806171 0.652829 0.015133
O O9 0.924170 0.139695 0.309812
O O10 0.890935 0.998159 0.475298
O O11 0.000000 0.189497 0.750000
O O12 0.136736 0.276414 0.574557
O O13 0.578971 0.227621 0.674796
O O14 0.500000 0.870917 0.750000
O O15 0.500000 0.000000 0.500000
O O16 0.000000 0.193571 0.250000
#
# Coordination Sequence:
#
# PCOD8118021 Si02
#       7
#     4   4   4   4   4   4   4
#     4  10  19  35  58  86 115 149 189 235 283 335
#     4  12  25  41  58  82 114 152 192 235 283 338
#     4  11  22  40  64  91 118 149 187 232 279 331
#     4  12  25  41  58  82 114 152 192 235 283 338
#     4  10  19  35  58  86 115 149 189 235 283 335
#     4   8  16  30  53  82 113 144 184 232 282 332
#     4  11  22  40  64  91 118 149 187 232 279 331
#
# _framework density 19.473797999999999
#
# number of rings (size 3 to 8) (size 9 to 14) (size 15 to 20)
#    0.000    1.429    0.000    7.714    0.000    1.714 
#    0.000    3.571    0.000    0.000    0.000    0.000 
#    0.000    0.000    0.000    0.000    0.000    0.000 
#
# Total GULP energy -347085.431517 kJ/mol
# GULP energy per Si atom -12395.908268 kJ/mol
# Density = 1.942948 g / cm^3
# Si number density = 19.473798 Si / 1000 Ang^3
#
#
#
# Elastic Constant Matrix: (Units=GPa)
#
#
# Indices 1 2 3 4 5 6 
#
# 1 110.5555 44.6212 74.5554 0.0000 -9.7885 0.0000
# 2 44.6212 93.1150 37.6882 0.0000 15.9327 0.0000
# 3 74.5554 37.6882 80.9972 0.0000 13.6268 0.0000
# 4 0.0000 0.0000 0.0000 4.7401 0.0000 -21.1807
# 5 -9.7885 15.9327 13.6268 0.0000 39.8997 0.0000
# 6 0.0000 0.0000 0.0000 -21.1807 0.0000 15.5872
#
#
#
# Elastic Compliance Matrix: (Units=1/GPa)
#
#
# Indices 1 2 3 4 5 6 
#
# 1 0.039479 -0.008436 -0.036720 0.000000 0.025595 0.000000
# 2 -0.008436 0.015476 0.002070 0.000000 -0.008957 0.000000
# 3 -0.036720 0.002070 0.049692 0.000000 -0.026806 0.000000
# 4 0.000000 0.000000 0.000000 -0.041595 0.000000 -0.056522
# 5 0.025595 -0.008957 -0.026806 0.000000 0.044073 0.000000
# 6 0.000000 0.000000 0.000000 -0.056522 0.000000 -0.012649
#
#
# Mechanical properties :
#
#
# Convention : Reuss Voigt Hill
#
# Bulk Modulus (GPa) = 54.12135 66.48860 60.30498
# Shear Modulus (GPa) = 26.76571 20.56559 23.66565
#
# Velocity S-wave (km/s) = 3.71138 3.25324 3.48983
# Velocity P-wave (km/s) = 6.79838 6.95184 6.87554
#
# Compressibility (1/GPa) = 0.01847700
#
# Stress axis : x y z
#
# Youngs Moduli (GPa) = 25.32999 64.61478 20.12387
#
# Poissons Ratio (x) = 0.54506 0.73895
# Poissons Ratio (y) = 0.21367 -0.04166
# Poissons Ratio (z) = 0.93012 -0.13377
#
# Static dielectric constant tensor:
#      x y z
#    x 3.870370 0.000000 0.222310 
#    y 0.000000 3.377690 0.000000 
#    z 0.222310 0.000000 3.993150 
# 
# 
# High freq. dielectric constant tensor:
#      x y z
#    x 1.781560 0.000000 0.002970 
#    y 0.000000 1.732180 0.000000 
#    z 0.002970 0.000000 1.782920 
# 
# From -- ./inp_files/24591.got.cif
#   From: 2010.06.25/outbox.cif.g09.slc.cpg/sg13_13_cif.got.tgz:24591.got - 2010.06.28 04:50:58.
