data_PCOD8118359
_publ_section_title
;
Structure prediction by ZEFSAII (Michael W. Deem and Ramdas Pophale) SiO2 
 PCOD8118359
Probable space group: P 2/C
;
_chemical_formula_sum "Si O2"
_cell_formula_units_Z 32
_cell_length_a 13.655240
_cell_length_b 8.301016
_cell_length_c 24.069224
_cell_angle_alpha 90.000000
_cell_angle_beta 31.063562
_cell_angle_gamma 90.000000
_cell_volume 1407.773685
_symmetry_space_group_name_H-M "P 2/C"
_symmetry_group_IT_number 13
_symmetry_cell_setting 'monoclinic'
loop_
_space_group_symop_operation_xyz
x,y,z
-x,y,1/2-z
-x,-y,-z
x,-y,1/2+z
loop_
_atom_site_type_symbol
_atom_site_label
_atom_site_fract_x
_atom_site_fract_y
_atom_site_fract_z
Si Si1 0.955925 0.623141 0.902358
Si Si2 0.809879 0.147979 0.376564
Si Si3 0.571296 0.868888 0.275562
Si Si4 0.265223 0.955305 0.990119
Si Si5 0.562306 0.680736 0.471545
Si Si6 0.926185 0.069462 0.094014
Si Si7 0.354499 0.382664 0.451597
Si Si8 0.705918 0.601681 0.287452
O O1 0.041956 0.737641 0.909522
O O2 0.095930 0.490209 0.808775
O O3 0.867368 0.723248 0.895103
O O4 0.784396 0.513291 0.008810
O O5 0.631063 0.212152 0.427507
O O6 0.000000 0.107596 0.250000
O O7 0.729106 0.985423 0.445678
O O8 0.500000 0.815671 0.250000
O O9 0.690796 0.721448 0.242747
O O10 0.387079 0.902583 0.402453
O O11 0.704634 0.027596 0.207921
O O12 0.340916 0.788260 0.926671
O O13 0.043837 0.973904 0.083237
O O14 0.500000 0.500000 0.500000
O O15 0.695372 0.685824 0.461620
O O16 0.675098 0.709353 0.358611
O O17 0.000000 0.000000 0.000000
O O18 0.562370 0.453907 0.349713
#
# Coordination Sequence:
#
# PCOD8118359 Si02
#       8
#     4   4   4   4   4   4   4   4
#     4  11  23  41  67  97 135 176 224 279 338 402
#     4  11  21  40  67  98 138 185 226 273 334 408
#     4  12  24  45  74  95 131 181 222 288 353 401
#     4  11  24  46  66  96 140 175 228 285 338 410
#     4  10  19  38  64  94 134 180 216 269 335 398
#     4  11  24  46  71  94 127 179 227 280 350 406
#     4  11  23  41  65  98 136 176 221 281 333 406
#     4  11  22  43  65 100 134 171 229 277 331 414
#
# _framework density 22.730924000000002
#
# number of rings (size 3 to 8) (size 9 to 14) (size 15 to 20)
#    0.000    1.000    5.000    3.750    0.000    1.500 
#    9.000    1.250    0.000    0.000    0.000    0.000 
#    0.000    0.000    0.000    0.000    0.000    0.000 
#
# Total GULP energy -396467.115614 kJ/mol
# GULP energy per Si atom -12389.597363 kJ/mol
# Density = 2.267919 g / cm^3
# Si number density = 22.730924 Si / 1000 Ang^3
#
#
#
# Elastic Constant Matrix: (Units=GPa)
#
#
# Indices 1 2 3 4 5 6 
#
# 1 72.1202 20.3371 19.2851 0.0000 -1.0053 0.0000
# 2 20.3371 93.8619 -2.7999 0.0000 2.4430 0.0000
# 3 19.2851 -2.7999 56.4425 0.0000 8.4544 0.0000
# 4 0.0000 0.0000 0.0000 28.8327 0.0000 -4.5964
# 5 -1.0053 2.4430 8.4544 0.0000 30.2231 0.0000
# 6 0.0000 0.0000 0.0000 -4.5964 0.0000 30.8304
#
#
#
# Elastic Compliance Matrix: (Units=1/GPa)
#
#
# Indices 1 2 3 4 5 6 
#
# 1 0.016673 -0.003868 -0.006282 0.000000 0.002624 0.000000
# 2 -0.003868 0.011599 0.002147 0.000000 -0.001667 0.000000
# 3 -0.006282 0.002147 0.020903 0.000000 -0.006230 0.000000
# 4 0.000000 0.000000 0.000000 0.035527 0.000000 0.005297
# 5 0.002624 -0.001667 -0.006230 0.000000 0.035052 0.000000
# 6 0.000000 0.000000 0.000000 0.005297 0.000000 0.033225
#
#
# Mechanical properties :
#
#
# Convention : Reuss Voigt Hill
#
# Bulk Modulus (GPa) = 30.14856 32.89657 31.52257
# Shear Modulus (GPa) = 27.77121 30.35072 29.06097
#
# Velocity S-wave (km/s) = 3.49913 3.65803 3.57946
# Velocity P-wave (km/s) = 5.44217 5.68728 5.56607
#
# Compressibility (1/GPa) = 0.03316908
#
# Stress axis : x y z
#
# Youngs Moduli (GPa) = 59.97769 86.21070 47.83979
#
# Poissons Ratio (x) = 0.33348 0.30052
# Poissons Ratio (y) = 0.23201 -0.10270
# Poissons Ratio (z) = 0.37676 -0.18507
#
# Static dielectric constant tensor:
#      x y z
#    x 3.839340 0.000000 0.585400 
#    y 0.000000 4.402220 0.000000 
#    z 0.585400 0.000000 4.267760 
# 
# 
# High freq. dielectric constant tensor:
#      x y z
#    x 1.887240 0.000000 -0.014180 
#    y 0.000000 1.904260 0.000000 
#    z -0.014180 0.000000 1.887470 
# 
# From -- ./inp_files/92825.got.cif
#   From: 2010.06.25/outbox.cif.g09.slc.cpg/sg13_47_cif.got.tgz:92825.got - 2010.06.28 04:50:58.
