data_PCOD8118533
_publ_section_title
;
Structure prediction by ZEFSAII (Michael W. Deem and Ramdas Pophale) SiO2 
 PCOD8118533
Probable space group: P 2/C
;
_chemical_formula_sum "Si O2"
_cell_formula_units_Z 22
_cell_length_a 28.351152
_cell_length_b 7.651871
_cell_length_c 9.076527
_cell_angle_alpha 90.000000
_cell_angle_beta 29.320289
_cell_angle_gamma 90.000000
_cell_volume 964.229423
_symmetry_space_group_name_H-M "P 2/C"
_symmetry_group_IT_number 13
_symmetry_cell_setting 'monoclinic'
loop_
_space_group_symop_operation_xyz
x,y,z
-x,y,1/2-z
-x,-y,-z
x,-y,1/2+z
loop_
_atom_site_type_symbol
_atom_site_label
_atom_site_fract_x
_atom_site_fract_y
_atom_site_fract_z
Si Si1 0.500000 0.526276 0.250000
Si Si2 0.213153 0.966562 0.027338
Si Si3 0.066380 0.572722 0.692148
Si Si4 0.739306 0.762290 0.327042
Si Si5 0.629857 0.405107 0.647490
Si Si6 0.829002 0.770841 0.627543
O O1 0.431566 0.403070 0.535655
O O2 0.436509 0.646796 0.312223
O O3 0.272139 0.837560 0.975625
O O4 0.146788 0.088772 0.311956
O O5 0.145315 0.849362 0.104203
O O6 0.282796 0.087223 0.734189
O O7 0.150149 0.705061 0.511354
O O8 0.115151 0.403448 0.483781
O O9 0.000000 0.665262 0.750000
O O10 0.000000 0.500000 0.000000
O O11 0.668169 0.600377 0.506152
O O12 0.714102 0.265515 0.437003
#
# Coordination Sequence:
#
# PCOD8118533 Si02
#       6
#     2   4   4   4   4   4
#     4  10  20  32  60  90 108 132 188 238 264 314
#     4  10  20  36  58  83 108 148 186 220 274 333
#     4  11  22  38  58  83 110 145 190 230 266 321
#     4  10  21  38  59  80 111 149 183 223 276 327
#     4  10  20  37  60  83 108 145 186 225 270 326
#     4  10  21  38  59  80 111 149 183 223 276 327
#
# _framework density 22.816147000000001
#
# number of rings (size 3 to 8) (size 9 to 14) (size 15 to 20)
#    0.000    1.818    0.000    4.364    0.000    5.818 
#    0.000   18.182    0.000   76.364    0.000    0.000 
#    0.000    0.000    0.000    0.000    0.000    0.000 
#
# Total GULP energy -272678.576203 kJ/mol
# GULP energy per Si atom -12394.480736 kJ/mol
# Density = 2.276422 g / cm^3
# Si number density = 22.816147 Si / 1000 Ang^3
#
#
#
# Elastic Constant Matrix: (Units=GPa)
#
#
# Indices 1 2 3 4 5 6 
#
# 1 102.5418 9.9520 45.2948 0.0000 20.3338 0.0000
# 2 9.9520 76.6570 12.4254 0.0000 2.0615 0.0000
# 3 45.2948 12.4254 105.5518 0.0000 5.3312 0.0000
# 4 0.0000 0.0000 0.0000 21.8155 0.0000 12.6933
# 5 20.3338 2.0615 5.3312 0.0000 42.3840 0.0000
# 6 0.0000 0.0000 0.0000 12.6933 0.0000 26.5413
#
#
#
# Elastic Compliance Matrix: (Units=1/GPa)
#
#
# Indices 1 2 3 4 5 6 
#
# 1 0.013305 -0.000709 -0.005339 0.000000 -0.005677 0.000000
# 2 -0.000709 0.013345 -0.001259 0.000000 -0.000151 0.000000
# 3 -0.005339 -0.001259 0.011856 0.000000 0.001131 0.000000
# 4 0.000000 0.000000 0.000000 0.063513 0.000000 -0.030375
# 5 -0.005677 -0.000151 0.001131 0.000000 0.026182 0.000000
# 6 0.000000 0.000000 0.000000 -0.030375 0.000000 0.052204
#
#
# Mechanical properties :
#
#
# Convention : Reuss Voigt Hill
#
# Bulk Modulus (GPa) = 41.85567 46.67723 44.26645
# Shear Modulus (GPa) = 24.63238 32.62005 28.62621
#
# Velocity S-wave (km/s) = 3.28930 3.78523 3.54594
# Velocity P-wave (km/s) = 5.72805 6.29336 6.01734
#
# Compressibility (1/GPa) = 0.02389163
#
# Stress axis : x y z
#
# Youngs Moduli (GPa) = 75.15849 74.93258 84.34313
#
# Poissons Ratio (x) = 0.05314 0.45034
# Poissons Ratio (y) = 0.05330 0.10619
# Poissons Ratio (z) = 0.40130 0.09434
#
# Static dielectric constant tensor:
#      x y z
#    x 4.688900 0.000000 0.030560 
#    y 0.000000 4.029980 0.000000 
#    z 0.030560 0.000000 4.048800 
# 
# 
# High freq. dielectric constant tensor:
#      x y z
#    x 1.908540 0.000000 0.027900 
#    y 0.000000 1.889240 0.000000 
#    z 0.027900 0.000000 1.883850 
# 
# From -- ./inp_files/17900.got.cif
#   From: 2010.06.25/outbox.cif.g09.slc.cpg/sg13_9_cif.got.tgz:17900.got - 2010.06.28 04:50:58.
