data_PCOD8118198
_publ_section_title
;
Structure prediction by ZEFSAII (Michael W. Deem and Ramdas Pophale) SiO2 
 PCOD8118198
Probable space group: P 2/C
;
_chemical_formula_sum "Si O2"
_cell_formula_units_Z 28
_cell_length_a 14.423816
_cell_length_b 8.602497
_cell_length_c 13.823946
_cell_angle_alpha 90.000000
_cell_angle_beta 43.785630
_cell_angle_gamma 90.000000
_cell_volume 1186.913474
_symmetry_space_group_name_H-M "P 2/C"
_symmetry_group_IT_number 13
_symmetry_cell_setting 'monoclinic'
loop_
_space_group_symop_operation_xyz
x,y,z
-x,y,1/2-z
-x,-y,-z
x,-y,1/2+z
loop_
_atom_site_type_symbol
_atom_site_label
_atom_site_fract_x
_atom_site_fract_y
_atom_site_fract_z
Si Si1 0.996664 0.250685 0.998327
Si Si2 0.613650 0.086684 0.283135
Si Si3 0.840815 0.004632 0.230346
Si Si4 0.388570 0.442314 0.187462
Si Si5 0.684952 0.908583 0.515623
Si Si6 0.310896 0.556142 0.051872
Si Si7 0.835911 0.517964 0.013974
O O1 0.929112 0.378228 0.980771
O O2 0.057149 0.129996 0.875927
O O3 0.109061 0.321074 0.985066
O O4 0.891917 0.169937 0.150910
O O5 0.602857 0.258524 0.335248
O O6 0.463880 0.018967 0.386905
O O7 0.703089 0.093718 0.117254
O O8 0.694555 0.972860 0.293099
O O9 0.805195 0.006935 0.372663
O O10 0.538664 0.511912 0.079721
O O11 0.317905 0.484848 0.340721
O O12 0.289624 0.519413 0.181217
O O13 0.696540 0.737849 0.462923
O O14 0.188219 0.474624 0.084267
#
# Coordination Sequence:
#
# PCOD8118198 Si02
#       7
#     4   4   4   4   4   4   4
#     4  10  24  39  66  92 138 175 221 261 317 385
#     4  10  20  39  65  94 128 164 215 278 328 395
#     4  11  21  43  61  93 131 175 215 271 315 396
#     4  10  19  36  65  96 128 157 211 275 333 388
#     4  10  20  37  68  96 121 173 219 260 342 399
#     4  10  20  35  66  98 122 167 212 269 338 392
#     4  11  20  43  63  92 129 173 213 271 315 393
#
# _framework density 23.590599999999998
#
# number of rings (size 3 to 8) (size 9 to 14) (size 15 to 20)
#    0.000    1.714    2.857    1.714    0.000    0.000 
#    2.571   15.000    6.286    0.000    0.000    0.000 
#    0.000    0.000    0.000    0.000    0.000    0.000 
#
# Total GULP energy -347006.654167 kJ/mol
# GULP energy per Si atom -12393.094792 kJ/mol
# Density = 2.353691 g / cm^3
# Si number density = 23.590600 Si / 1000 Ang^3
#
#
#
# Elastic Constant Matrix: (Units=GPa)
#
#
# Indices 1 2 3 4 5 6 
#
# 1 102.3663 12.2097 2.5338 0.0000 8.8749 0.0000
# 2 12.2097 33.7920 13.7939 0.0000 3.0372 0.0000
# 3 2.5338 13.7939 96.0239 0.0000 5.0237 0.0000
# 4 0.0000 0.0000 0.0000 27.4633 0.0000 3.1974
# 5 8.8749 3.0372 5.0237 0.0000 29.1703 0.0000
# 6 0.0000 0.0000 0.0000 3.1974 0.0000 26.2296
#
#
#
# Elastic Compliance Matrix: (Units=1/GPa)
#
#
# Indices 1 2 3 4 5 6 
#
# 1 0.010446 -0.003682 0.000403 0.000000 -0.002864 0.000000
# 2 -0.003682 0.032918 -0.004552 0.000000 -0.001523 0.000000
# 3 0.000403 -0.004552 0.011139 0.000000 -0.001567 0.000000
# 4 0.000000 0.000000 0.000000 0.036936 0.000000 -0.004503
# 5 -0.002864 -0.001523 -0.001567 0.000000 0.035581 0.000000
# 6 0.000000 0.000000 0.000000 -0.004503 0.000000 0.038674
#
#
# Mechanical properties :
#
#
# Convention : Reuss Voigt Hill
#
# Bulk Modulus (GPa) = 25.74471 32.13967 28.94219
# Shear Modulus (GPa) = 25.73294 30.14896 27.94095
#
# Velocity S-wave (km/s) = 3.30633 3.57880 3.44526
# Velocity P-wave (km/s) = 5.05100 5.54352 5.30298
#
# Compressibility (1/GPa) = 0.03884294
#
# Stress axis : x y z
#
# Youngs Moduli (GPa) = 95.72757 30.37852 89.77230
#
# Poissons Ratio (x) = 0.11184 -0.03618
# Poissons Ratio (y) = 0.35243 0.40863
# Poissons Ratio (z) = -0.03858 0.13828
#
# Static dielectric constant tensor:
#      x y z
#    x 4.350300 0.000000 -0.047680 
#    y 0.000000 3.860910 0.000000 
#    z -0.047680 0.000000 4.498850 
# 
# 
# High freq. dielectric constant tensor:
#      x y z
#    x 1.938010 0.000000 -0.003480 
#    y 0.000000 1.900320 0.000000 
#    z -0.003480 0.000000 1.940620 
# 
# From -- ./inp_files/52985.got.cif
#   From: 2010.06.25/outbox.cif.g09.slc.cpg/sg13_27_cif.got.tgz:52985.got - 2010.06.28 04:50:58.
