data_PCOD8118610
_publ_section_title
;
Structure prediction by ZEFSAII (Michael W. Deem and Ramdas Pophale) SiO2 
 PCOD8118610
Probable space group: P 2/C
;
_chemical_formula_sum "Si O2"
_cell_formula_units_Z 20
_cell_length_a 10.390804
_cell_length_b 19.080090
_cell_length_c 5.282482
_cell_angle_alpha 90.000000
_cell_angle_beta 93.951044
_cell_angle_gamma 90.000000
_cell_volume 1044.802436
_symmetry_space_group_name_H-M "P 2/C"
_symmetry_group_IT_number 13
_symmetry_cell_setting 'monoclinic'
loop_
_space_group_symop_operation_xyz
x,y,z
-x,y,1/2-z
-x,-y,-z
x,-y,1/2+z
loop_
_atom_site_type_symbol
_atom_site_label
_atom_site_fract_x
_atom_site_fract_y
_atom_site_fract_z
Si Si1 0.856150 0.529905 0.970576
Si Si2 0.149954 0.034582 0.252651
Si Si3 0.245144 0.187993 0.191682
Si Si4 0.354806 0.761554 0.218796
Si Si5 0.868148 0.311421 0.582039
O O1 0.784286 0.502578 0.215089
O O2 0.859490 0.613416 0.948813
O O3 0.000000 0.500000 0.000000
O O4 0.167479 0.117051 0.221027
O O5 0.000000 0.016414 0.250000
O O6 0.213584 0.006520 0.522589
O O7 0.333440 0.201133 0.447847
O O8 0.333520 0.183463 0.949264
O O9 0.142106 0.251700 0.137630
O O10 0.500000 0.731881 0.250000
O O11 0.253107 0.697577 0.240866
O O12 0.000000 0.301512 0.750000
#
# Coordination Sequence:
#
# PCOD8118610 Si02
#       5
#     4   4   4   4   4
#     4  10  20  34  53  80 128 155 177 234 308 354
#     4  10  21  36  57  87 129 160 187 242 312 356
#     4  10  23  36  65  85 121 153 209 244 291 355
#     4  10  23  40  60  85 120 159 202 254 296 345
#     4  10  23  35  62  95 116 153 201 245 296 356
#
# _framework density 19.142375999999999
#
# number of rings (size 3 to 8) (size 9 to 14) (size 15 to 20)
#    1.200    0.800    2.000    1.800    5.600    0.800 
#    0.000    0.000    0.000   13.200    0.000    0.000 
#    0.000    0.000    0.000    0.000    0.000    0.000 
#
# Total GULP energy -247797.959755 kJ/mol
# GULP energy per Si atom -12389.897988 kJ/mol
# Density = 1.909881 g / cm^3
# Si number density = 19.142376 Si / 1000 Ang^3
#
#
#
# Elastic Constant Matrix: (Units=GPa)
#
#
# Indices 1 2 3 4 5 6 
#
# 1 68.0226 20.2310 29.9956 0.0000 0.3571 0.0000
# 2 20.2310 152.1757 59.2714 0.0000 2.1271 0.0000
# 3 29.9956 59.2714 177.8281 0.0000 3.9008 0.0000
# 4 0.0000 0.0000 0.0000 26.3993 0.0000 -7.9491
# 5 0.3571 2.1271 3.9008 0.0000 14.6510 0.0000
# 6 0.0000 0.0000 0.0000 -7.9491 0.0000 5.9771
#
#
#
# Elastic Compliance Matrix: (Units=1/GPa)
#
#
# Indices 1 2 3 4 5 6 
#
# 1 0.016087 -0.001246 -0.002307 0.000000 0.000403 0.000000
# 2 -0.001246 0.007651 -0.002330 0.000000 -0.000460 0.000000
# 3 -0.002307 -0.002330 0.006820 0.000000 -0.001421 0.000000
# 4 0.000000 0.000000 0.000000 0.063180 0.000000 0.084024
# 5 0.000403 -0.000460 -0.001421 0.000000 0.068690 0.000000
# 6 0.000000 0.000000 0.000000 0.084024 0.000000 0.279049
#
#
# Mechanical properties :
#
#
# Convention : Reuss Voigt Hill
#
# Bulk Modulus (GPa) = 53.21259 68.55807 60.88533
# Shear Modulus (GPa) = 10.88122 28.64072 19.76097
#
# Velocity S-wave (km/s) = 2.38678 3.87226 3.21645
# Velocity P-wave (km/s) = 5.95435 7.47564 6.75794
#
# Compressibility (1/GPa) = 0.01879255
#
# Stress axis : x y z
#
# Youngs Moduli (GPa) = 62.16309 130.70425 146.62087
#
# Poissons Ratio (x) = 0.16282 0.33827
# Poissons Ratio (y) = 0.07744 0.34161
# Poissons Ratio (z) = 0.14342 0.30452
#
# Static dielectric constant tensor:
#      x y z
#    x 3.010680 0.000000 -0.197870 
#    y 0.000000 3.326450 0.000000 
#    z -0.197870 0.000000 7.641120 
# 
# 
# High freq. dielectric constant tensor:
#      x y z
#    x 1.691730 0.000000 -0.003590 
#    y 0.000000 1.734570 0.000000 
#    z -0.003590 0.000000 1.771710 
# 
# From -- ./inp_files/3451.got.cif
#   From: 2010.06.25/outbox.cif.g09.slc.cpg/sg13_2_cif.got.tgz:3451.got - 2010.06.28 04:50:58.
