data_PCOD8118287
_publ_section_title
;
Structure prediction by ZEFSAII (Michael W. Deem and Ramdas Pophale) SiO2 
 PCOD8118287
Probable space group: P 2/C
;
_chemical_formula_sum "Si O2"
_cell_formula_units_Z 28
_cell_length_a 23.729385
_cell_length_b 10.805133
_cell_length_c 29.959185
_cell_angle_alpha 90.000000
_cell_angle_beta 10.411124
_cell_angle_gamma 90.000000
_cell_volume 1388.126442
_symmetry_space_group_name_H-M "P 2/C"
_symmetry_group_IT_number 13
_symmetry_cell_setting 'monoclinic'
loop_
_space_group_symop_operation_xyz
x,y,z
-x,y,1/2-z
-x,-y,-z
x,-y,1/2+z
loop_
_atom_site_type_symbol
_atom_site_label
_atom_site_fract_x
_atom_site_fract_y
_atom_site_fract_z
Si Si1 0.852995 0.556955 0.569674
Si Si2 0.210765 0.537938 0.544395
Si Si3 0.747030 0.828117 0.828858
Si Si4 0.832476 0.453736 0.256578
Si Si5 0.197398 0.184002 0.051047
Si Si6 0.890019 0.169002 0.628362
Si Si7 0.164129 0.913148 0.426857
O O1 0.000000 0.500000 0.500000
O O2 0.950324 0.463358 0.455181
O O3 0.965511 0.696880 0.473389
O O4 0.479565 0.551747 0.855015
O O5 0.315283 0.675878 0.448005
O O6 0.000000 0.563959 0.750000
O O7 0.009113 0.476595 0.660528
O O8 0.773751 0.683814 0.817775
O O9 0.984905 0.884071 0.679427
O O10 0.857429 0.865766 0.693103
O O11 0.390609 0.863842 0.118399
O O12 0.500000 0.500000 0.500000
O O13 0.000000 0.172541 0.250000
O O14 0.509753 0.104181 0.803034
O O15 0.794187 0.166446 0.651103
O O16 0.142389 0.060318 0.436540
#
# Coordination Sequence:
#
# PCOD8118287 Si02
#       7
#     4   4   4   4   4   4   4
#     4  12  23  39  64  92 131 168 200 258 325 377
#     4  10  22  37  61  93 125 162 209 259 310 377
#     4  11  21  39  66  92 119 163 209 259 308 367
#     4  11  21  37  63  93 124 159 207 256 316 372
#     4  10  19  37  65  89 120 158 209 265 303 350
#     4  11  24  41  61  90 127 162 206 257 311 376
#     4  11  23  40  62  91 120 163 214 256 306 369
#
# _framework density 20.171073
#
# number of rings (size 3 to 8) (size 9 to 14) (size 15 to 20)
#    0.000    1.143    2.857    4.714    2.000    2.286 
#    0.000    3.571    0.000    0.000    0.000    0.000 
#    0.000    0.000    0.000    0.000    0.000    0.000 
#
# Total GULP energy -346904.238552 kJ/mol
# GULP energy per Si atom -12389.437091 kJ/mol
# Density = 2.012516 g / cm^3
# Si number density = 20.171073 Si / 1000 Ang^3
#
#
#
# Elastic Constant Matrix: (Units=GPa)
#
#
# Indices 1 2 3 4 5 6 
#
# 1 111.7655 10.7736 35.0093 0.0000 -8.6017 0.0000
# 2 10.7736 51.2909 36.9483 0.0000 -12.8774 0.0000
# 3 35.0093 36.9483 104.4534 0.0000 -11.9502 0.0000
# 4 0.0000 0.0000 0.0000 29.9305 0.0000 1.1656
# 5 -8.6017 -12.8774 -11.9502 0.0000 49.2360 0.0000
# 6 0.0000 0.0000 0.0000 1.1656 0.0000 21.8510
#
#
#
# Elastic Compliance Matrix: (Units=1/GPa)
#
#
# Indices 1 2 3 4 5 6 
#
# 1 0.010058 0.000670 -0.003484 0.000000 0.001087 0.000000
# 2 0.000670 0.027324 -0.009317 0.000000 0.005002 0.000000
# 3 -0.003484 -0.009317 0.014080 0.000000 0.000372 0.000000
# 4 0.000000 0.000000 0.000000 0.033480 0.000000 -0.001786
# 5 0.001087 0.005002 0.000372 0.000000 0.021899 0.000000
# 6 0.000000 0.000000 0.000000 -0.001786 0.000000 0.045860
#
#
# Mechanical properties :
#
#
# Convention : Reuss Voigt Hill
#
# Bulk Modulus (GPa) = 36.76690 48.10804 42.43747
# Shear Modulus (GPa) = 26.87762 32.52208 29.69985
#
# Velocity S-wave (km/s) = 3.65428 4.01972 3.84135
# Velocity P-wave (km/s) = 6.00601 6.74136 6.38428
#
# Compressibility (1/GPa) = 0.02719838
#
# Stress axis : x y z
#
# Youngs Moduli (GPa) = 99.42773 36.59816 71.02474
#
# Poissons Ratio (x) = -0.02451 0.24742
# Poissons Ratio (y) = -0.06658 0.66177
# Poissons Ratio (z) = 0.34636 0.34100
#
# Static dielectric constant tensor:
#      x y z
#    x 10.226750 0.000000 -2.666980 
#    y 0.000000 3.518710 0.000000 
#    z -2.666980 0.000000 4.775520 
# 
# 
# High freq. dielectric constant tensor:
#      x y z
#    x 1.799490 0.000000 0.004090 
#    y 0.000000 1.759050 0.000000 
#    z 0.004090 0.000000 1.799540 
# 
# From -- ./inp_files/97702.got.cif
#   From: 2010.06.25/outbox.cif.g09.slc.cpg/sg13_49_cif.got.tgz:97702.got - 2010.06.28 04:50:58.
