data_PCOD8118002
_publ_section_title
;
Structure prediction by ZEFSAII (Michael W. Deem and Ramdas Pophale) SiO2 
 PCOD8118002
Probable space group: P 2/C
;
_chemical_formula_sum "Si O2"
_cell_formula_units_Z 20
_cell_length_a 8.688053
_cell_length_b 23.096550
_cell_length_c 9.765465
_cell_angle_alpha 90.000000
_cell_angle_beta 31.507373
_cell_angle_gamma 90.000000
_cell_volume 1024.091565
_symmetry_space_group_name_H-M "P 2/C"
_symmetry_group_IT_number 13
_symmetry_cell_setting 'monoclinic'
loop_
_space_group_symop_operation_xyz
x,y,z
-x,y,1/2-z
-x,-y,-z
x,-y,1/2+z
loop_
_atom_site_type_symbol
_atom_site_label
_atom_site_fract_x
_atom_site_fract_y
_atom_site_fract_z
Si Si1 0.840452 0.337657 0.226589
Si Si2 0.649542 0.269078 0.782991
Si Si3 0.349224 0.960812 0.002097
Si Si4 0.658304 0.829165 0.490402
Si Si5 0.814897 0.531357 0.751696
O O1 0.512818 0.314660 0.496488
O O2 0.793808 0.403027 0.211332
O O3 0.000000 0.337852 0.250000
O O4 0.021366 0.295615 0.985019
O O5 0.500000 0.260269 0.750000
O O6 0.607339 0.208543 0.893218
O O7 0.440636 0.894657 0.966320
O O8 0.000000 0.969740 0.250000
O O9 0.500000 0.981694 0.750000
O O10 0.500000 0.000000 0.000000
O O11 0.000000 0.827024 0.250000
O O12 0.500000 0.806308 0.750000
O O13 0.000000 0.528730 0.750000
O O14 0.000000 0.500000 0.500000
O O15 0.500000 0.500000 0.000000
#
# Coordination Sequence:
#
# PCOD8118002 Si02
#       5
#     4   4   4   4   4
#     4   9  19  35  56  79 108 143 181 227 278 326
#     4  10  19  35  57  80 103 141 191 227 264 333
#     4  10  21  38  59  84 116 153 192 234 284 340
#     4  10  21  37  55  80 116 149 177 227 295 337
#     4  11  22  39  60  83 113 148 185 231 283 336
#
# _framework density 19.529503999999999
#
# number of rings (size 3 to 8) (size 9 to 14) (size 15 to 20)
#    0.000    2.000    0.000    3.600    0.000    4.000 
#    0.000   13.000    0.000    0.000    0.000    0.000 
#    0.000    0.000    0.000    0.000    0.000    0.000 
#
# Total GULP energy -247826.905011 kJ/mol
# GULP energy per Si atom -12391.345251 kJ/mol
# Density = 1.948505 g / cm^3
# Si number density = 19.529504 Si / 1000 Ang^3
#
#
#
# Elastic Constant Matrix: (Units=GPa)
#
#
# Indices 1 2 3 4 5 6 
#
# 1 72.4613 63.5692 41.9921 0.0000 10.5162 0.0000
# 2 63.5692 130.9038 64.9159 0.0000 20.3103 0.0000
# 3 41.9921 64.9159 166.1577 0.0000 15.7476 0.0000
# 4 0.0000 0.0000 0.0000 48.1279 0.0000 3.9042
# 5 10.5162 20.3103 15.7476 0.0000 27.6667 0.0000
# 6 0.0000 0.0000 0.0000 3.9042 0.0000 32.7336
#
#
#
# Elastic Compliance Matrix: (Units=1/GPa)
#
#
# Indices 1 2 3 4 5 6 
#
# 1 0.024527 -0.010932 -0.001908 0.000000 -0.000212 0.000000
# 2 -0.010932 0.015089 -0.002617 0.000000 -0.005432 0.000000
# 3 -0.001908 -0.002617 0.007687 0.000000 -0.001729 0.000000
# 4 0.000000 0.000000 0.000000 0.020981 0.000000 -0.002502
# 5 -0.000212 -0.005432 -0.001729 0.000000 0.041196 0.000000
# 6 0.000000 0.000000 0.000000 -0.002502 0.000000 0.030848
#
#
# Mechanical properties :
#
#
# Convention : Reuss Voigt Hill
#
# Bulk Modulus (GPa) = 61.01710 78.94193 69.97951
# Shear Modulus (GPa) = 28.29573 34.97534 31.63554
#
# Velocity S-wave (km/s) = 3.81053 4.23649 4.02914
# Velocity P-wave (km/s) = 7.11840 8.02746 7.58656
#
# Compressibility (1/GPa) = 0.01638885
#
# Stress axis : x y z
#
# Youngs Moduli (GPa) = 40.77120 66.27475 130.09153
#
# Poissons Ratio (x) = 0.72452 0.24815
# Poissons Ratio (y) = 0.44571 0.34050
# Poissons Ratio (z) = 0.07777 0.17347
#
# Static dielectric constant tensor:
#      x y z
#    x 3.347570 0.000000 -0.098090 
#    y 0.000000 4.303570 0.000000 
#    z -0.098090 0.000000 3.933720 
# 
# 
# High freq. dielectric constant tensor:
#      x y z
#    x 1.738380 0.000000 -0.000020 
#    y 0.000000 1.769600 0.000000 
#    z -0.000020 0.000000 1.787840 
# 
# From -- ./inp_files/13783.got.cif
#   From: 2010.06.25/outbox.cif.g09.slc.cpg/sg13_7_cif.got.tgz:13783.got - 2010.06.28 04:50:58.
