data_PCOD8118488
_publ_section_title
;
Structure prediction by ZEFSAII (Michael W. Deem and Ramdas Pophale) SiO2 
 PCOD8118488
Probable space group: P 2/C
;
_chemical_formula_sum "Si O2"
_cell_formula_units_Z 32
_cell_length_a 12.586899
_cell_length_b 8.001906
_cell_length_c 16.205272
_cell_angle_alpha 90.000000
_cell_angle_beta 97.744310
_cell_angle_gamma 90.000000
_cell_volume 1617.295085
_symmetry_space_group_name_H-M "P 2/C"
_symmetry_group_IT_number 13
_symmetry_cell_setting 'monoclinic'
loop_
_space_group_symop_operation_xyz
x,y,z
-x,y,1/2-z
-x,-y,-z
x,-y,1/2+z
loop_
_atom_site_type_symbol
_atom_site_label
_atom_site_fract_x
_atom_site_fract_y
_atom_site_fract_z
Si Si1 0.741673 0.734008 0.266969
Si Si2 0.726003 0.415316 0.077503
Si Si3 0.749377 0.890285 0.796234
Si Si4 0.617137 0.725193 0.089349
Si Si5 0.382984 0.722870 0.085822
Si Si6 0.125971 0.412312 0.269402
Si Si7 0.568296 0.727004 0.683822
Si Si8 0.611946 0.099570 0.429598
O O1 0.662039 0.769148 0.183209
O O2 0.675073 0.661094 0.337627
O O3 0.829647 0.591624 0.257725
O O4 0.793791 0.917805 0.292416
O O5 0.697902 0.602579 0.046637
O O6 0.843924 0.389580 0.129339
O O7 0.650040 0.402692 0.151617
O O8 0.700419 0.292478 0.999616
O O9 0.835118 0.750246 0.777809
O O10 0.639333 0.876341 0.731487
O O11 0.718794 0.851139 0.888820
O O12 0.498740 0.636429 0.083651
O O13 0.622963 0.886649 0.029842
O O14 0.416921 0.913502 0.099317
O O15 0.000000 0.420327 0.250000
O O16 0.500000 0.639555 0.750000
O O17 0.490770 0.790185 0.604139
#
# Coordination Sequence:
#
# PCOD8118488 Si02
#       8
#     4   4   4   4   4   4   4   4
#     4  10  23  38  58  85 120 151 188 232 281 338
#     4  10  22  34  53  84 109 149 192 235 283 325
#     4   9  20  37  59  84 112 149 189 230 285 333
#     4  11  21  32  53  86 121 158 189 217 265 335
#     4  11  21  34  54  85 123 155 185 220 272 338
#     4  10  23  43  64  82 104 142 195 247 301 335
#     4   9  17  31  51  80 117 154 187 220 265 335
#     4  10  20  31  54  82 119 157 183 219 272 328
#
# _framework density 19.786123
#
# number of rings (size 3 to 8) (size 9 to 14) (size 15 to 20)
#    0.000    2.000    1.250    1.875    5.250    5.500 
#    0.000    0.625    0.000    1.500    0.000    0.000 
#    0.000    0.000    0.000    0.000    0.000    0.000 
#
# Total GULP energy -396489.295992 kJ/mol
# GULP energy per Si atom -12390.290500 kJ/mol
# Density = 1.974109 g / cm^3
# Si number density = 19.786123 Si / 1000 Ang^3
#
#
#
# Elastic Constant Matrix: (Units=GPa)
#
#
# Indices 1 2 3 4 5 6 
#
# 1 112.8937 33.3597 55.8847 0.0000 11.7169 0.0000
# 2 33.3597 66.4050 13.6049 0.0000 -3.7114 0.0000
# 3 55.8847 13.6049 127.4953 0.0000 0.4774 0.0000
# 4 0.0000 0.0000 0.0000 23.4917 0.0000 -5.2495
# 5 11.7169 -3.7114 0.4774 0.0000 19.7899 0.0000
# 6 0.0000 0.0000 0.0000 -5.2495 0.0000 19.9993
#
#
#
# Elastic Compliance Matrix: (Units=1/GPa)
#
#
# Indices 1 2 3 4 5 6 
#
# 1 0.014688 -0.006765 -0.005680 0.000000 -0.009828 0.000000
# 2 -0.006765 0.018683 0.000943 0.000000 0.007486 0.000000
# 3 -0.005680 0.000943 0.010220 0.000000 0.003293 0.000000
# 4 0.000000 0.000000 0.000000 0.045221 0.000000 0.011870
# 5 -0.009828 0.007486 0.003293 0.000000 0.057674 0.000000
# 6 0.000000 0.000000 0.000000 0.011870 0.000000 0.053117
#
#
# Mechanical properties :
#
#
# Convention : Reuss Voigt Hill
#
# Bulk Modulus (GPa) = 48.56895 56.94361 52.75628
# Shear Modulus (GPa) = 21.78956 26.25250 24.02103
#
# Velocity S-wave (km/s) = 3.32212 3.64650 3.48808
# Velocity P-wave (km/s) = 6.27021 6.82432 6.55312
#
# Compressibility (1/GPa) = 0.02058929
#
# Stress axis : x y z
#
# Youngs Moduli (GPa) = 68.08101 53.52598 97.84759
#
# Poissons Ratio (x) = 0.36208 0.55574
# Poissons Ratio (y) = 0.46054 -0.09232
# Poissons Ratio (z) = 0.38668 -0.05050
#
# Static dielectric constant tensor:
#      x y z
#    x 3.240070 0.000000 -0.045540 
#    y 0.000000 3.573530 0.000000 
#    z -0.045540 0.000000 3.719030 
# 
# 
# High freq. dielectric constant tensor:
#      x y z
#    x 1.718000 0.000000 -0.003440 
#    y 0.000000 1.778700 0.000000 
#    z -0.003440 0.000000 1.781910 
# 
# From -- ./inp_files/50369.got.cif
#   From: 2010.06.25/outbox.cif.g09.slc.cpg/sg13_26_cif.got.tgz:50369.got - 2010.06.28 04:50:58.
