data_PCOD8118341
_publ_section_title
;
Structure prediction by ZEFSAII (Michael W. Deem and Ramdas Pophale) SiO2 
 PCOD8118341
Probable space group: P 2/C
;
_chemical_formula_sum "Si O2"
_cell_formula_units_Z 16
_cell_length_a 8.322965
_cell_length_b 5.285116
_cell_length_c 19.907284
_cell_angle_alpha 90.000000
_cell_angle_beta 54.781763
_cell_angle_gamma 90.000000
_cell_volume 715.395381
_symmetry_space_group_name_H-M "P 2/C"
_symmetry_group_IT_number 13
_symmetry_cell_setting 'monoclinic'
loop_
_space_group_symop_operation_xyz
x,y,z
-x,y,1/2-z
-x,-y,-z
x,-y,1/2+z
loop_
_atom_site_type_symbol
_atom_site_label
_atom_site_fract_x
_atom_site_fract_y
_atom_site_fract_z
Si Si1 0.701101 0.503686 0.993361
Si Si2 0.568363 0.003677 0.060401
Si Si3 0.685416 0.992572 0.752292
Si Si4 0.929304 0.502268 0.191920
O O1 0.885720 0.513337 0.900924
O O2 0.500000 0.500000 0.000000
O O3 0.703934 0.252391 0.039474
O O4 0.697797 0.750850 0.042542
O O5 0.379308 0.010287 0.154153
O O6 0.500000 0.000000 0.000000
O O7 0.500000 0.037333 0.750000
O O8 0.832802 0.224186 0.705432
O O9 0.782933 0.726290 0.708895
O O10 0.000000 0.461134 0.250000
#
# Coordination Sequence:
#
# PCOD8118341 Si02
#       4
#     4   4   4   4
#     4  10  20  36  61  93 122 158 215 273 309 364
#     4  10  19  38  62  87 122 169 211 257 313 382
#     4  12  26  44  65  99 139 171 211 277 338 382
#     4  12  23  42  70  99 127 176 228 265 318 400
#
# _framework density 22.365257
#
# number of rings (size 3 to 8) (size 9 to 14) (size 15 to 20)
#    0.000    1.000    0.000   10.500    0.000    0.000 
#    0.000    7.500    0.000    0.000    0.000    0.000 
#    0.000    0.000    0.000    0.000    0.000    0.000 
#
# Total GULP energy -198380.139727 kJ/mol
# GULP energy per Si atom -12398.758733 kJ/mol
# Density = 2.231435 g / cm^3
# Si number density = 22.365257 Si / 1000 Ang^3
#
#
#
# Elastic Constant Matrix: (Units=GPa)
#
#
# Indices 1 2 3 4 5 6 
#
# 1 52.4338 -2.3385 18.4439 0.0000 -5.1332 0.0000
# 2 -2.3385 217.1779 64.2887 0.0000 -13.4986 0.0000
# 3 18.4439 64.2887 166.8269 0.0000 -33.7678 0.0000
# 4 0.0000 0.0000 0.0000 40.6762 0.0000 -11.0868
# 5 -5.1332 -13.4986 -33.7678 0.0000 23.1710 0.0000
# 6 0.0000 0.0000 0.0000 -11.0868 0.0000 21.3787
#
#
#
# Elastic Compliance Matrix: (Units=1/GPa)
#
#
# Indices 1 2 3 4 5 6 
#
# 1 0.020078 0.000990 -0.002247 0.000000 0.001750 0.000000
# 2 0.000990 0.005247 -0.002083 0.000000 0.000241 0.000000
# 3 -0.002247 -0.002083 0.009502 0.000000 0.012136 0.000000
# 4 0.000000 0.000000 0.000000 0.028631 0.000000 0.014848
# 5 0.001750 0.000241 0.012136 0.000000 0.061372 0.000000
# 6 0.000000 0.000000 0.000000 0.014848 0.000000 0.054476
#
#
# Mechanical properties :
#
#
# Convention : Reuss Voigt Hill
#
# Bulk Modulus (GPa) = 35.52789 66.35853 50.94321
# Shear Modulus (GPa) = 25.59302 40.78148 33.18725
#
# Velocity S-wave (km/s) = 3.38645 4.27480 3.85629
# Velocity P-wave (km/s) = 5.58664 7.35527 6.53110
#
# Compressibility (1/GPa) = 0.02814690
#
# Stress axis : x y z
#
# Youngs Moduli (GPa) = 49.80685 190.59859 105.24445
#
# Poissons Ratio (x) = -0.18872 0.23649
# Poissons Ratio (y) = -0.04932 0.21918
# Poissons Ratio (z) = 0.11192 0.39693
#
# Static dielectric constant tensor:
#      x y z
#    x 3.353570 0.000000 -0.121310 
#    y 0.000000 14.257590 0.000000 
#    z -0.121310 0.000000 4.112910 
# 
# 
# High freq. dielectric constant tensor:
#      x y z
#    x 1.834900 0.000000 -0.009390 
#    y 0.000000 1.924690 0.000000 
#    z -0.009390 0.000000 1.896850 
# 
# From -- ./inp_files/45158.got.cif
#   From: 2010.06.25/outbox.cif.g09.slc.cpg/sg13_23_cif.got.tgz:45158.got - 2010.06.28 04:50:58.
