data_PCOD8118162
_publ_section_title
;
Structure prediction by ZEFSAII (Michael W. Deem and Ramdas Pophale) SiO2 
 PCOD8118162
Probable space group: P 2/C
;
_chemical_formula_sum "Si O2"
_cell_formula_units_Z 26
_cell_length_a 9.135206
_cell_length_b 13.831707
_cell_length_c 11.001578
_cell_angle_alpha 90.000000
_cell_angle_beta 75.876459
_cell_angle_gamma 90.000000
_cell_volume 1348.089348
_symmetry_space_group_name_H-M "P 2/C"
_symmetry_group_IT_number 13
_symmetry_cell_setting 'monoclinic'
loop_
_space_group_symop_operation_xyz
x,y,z
-x,y,1/2-z
-x,-y,-z
x,-y,1/2+z
loop_
_atom_site_type_symbol
_atom_site_label
_atom_site_fract_x
_atom_site_fract_y
_atom_site_fract_z
Si Si1 0.378826 0.923211 0.873169
Si Si2 0.766155 0.415049 0.760054
Si Si3 0.851282 0.621771 0.711382
Si Si4 0.820681 0.829348 0.774491
Si Si5 0.957760 0.400340 0.946912
Si Si6 0.500000 0.719334 0.250000
Si Si7 0.593201 0.129345 0.532851
O O1 0.500000 0.891271 0.750000
O O2 0.225343 0.879441 0.845606
O O3 0.370887 0.038486 0.887857
O O4 0.432833 0.879833 0.992825
O O5 0.740421 0.528350 0.726217
O O6 0.815874 0.413932 0.888872
O O7 0.617724 0.352610 0.786318
O O8 0.893266 0.361722 0.651475
O O9 0.777979 0.714912 0.789456
O O10 0.901723 0.665922 0.569693
O O11 0.000000 0.581640 0.750000
O O12 0.000000 0.845675 0.750000
O O13 0.732220 0.869639 0.909667
O O14 0.000000 0.500000 0.000000
O O15 0.420965 0.780684 0.372926
#
# Coordination Sequence:
#
# PCOD8118162 Si02
#       7
#     4   4   4   4   4   2   4
#     4   9  19  43  68  85 115 161 199 243 313 371
#     4  10  21  37  56  87 121 165 199 247 289 346
#     4  10  19  36  61  84 119 162 199 237 296 353
#     4  10  23  37  66  96 115 150 208 253 295 355
#     4   9  17  37  62  76 113 167 210 232 292 349
#     4  12  26  36  58  94 128 156 204 248 302 348
#     4  10  22  42  63  85 121 163 197 243 309 374
#
# _framework density 19.286556000000001
#
# number of rings (size 3 to 8) (size 9 to 14) (size 15 to 20)
#    0.000    2.154    3.846    0.000    6.462    0.615 
#    4.154    3.846    3.385    0.000    0.000    0.000 
#    0.000    0.000    0.000    0.000    0.000    0.000 
#
# Total GULP energy -322105.082684 kJ/mol
# GULP energy per Si atom -12388.657026 kJ/mol
# Density = 1.924266 g / cm^3
# Si number density = 19.286556 Si / 1000 Ang^3
#
#
#
# Elastic Constant Matrix: (Units=GPa)
#
#
# Indices 1 2 3 4 5 6 
#
# 1 110.1763 50.8468 37.2673 0.0000 15.0389 0.0000
# 2 50.8468 94.3134 16.1937 0.0000 14.1097 0.0000
# 3 37.2673 16.1937 86.8565 0.0000 15.4187 0.0000
# 4 0.0000 0.0000 0.0000 23.0111 0.0000 -3.5746
# 5 15.0389 14.1097 15.4187 0.0000 22.2479 0.0000
# 6 0.0000 0.0000 0.0000 -3.5746 0.0000 15.9381
#
#
#
# Elastic Compliance Matrix: (Units=1/GPa)
#
#
# Indices 1 2 3 4 5 6 
#
# 1 0.013779 -0.006343 -0.004322 0.000000 -0.002296 0.000000
# 2 -0.006343 0.014709 0.000997 0.000000 -0.005732 0.000000
# 3 -0.004322 0.000997 0.014568 0.000000 -0.007807 0.000000
# 4 0.000000 0.000000 0.000000 0.045026 0.000000 0.010098
# 5 -0.002296 -0.005732 -0.007807 0.000000 0.055546 0.000000
# 6 0.000000 0.000000 0.000000 0.010098 0.000000 0.065008
#
#
# Mechanical properties :
#
#
# Convention : Reuss Voigt Hill
#
# Bulk Modulus (GPa) = 42.16012 55.55130 48.85571
# Shear Modulus (GPa) = 21.19743 24.70864 22.95303
#
# Velocity S-wave (km/s) = 3.31883 3.58317 3.45353
# Velocity P-wave (km/s) = 6.04926 6.78119 6.42565
#
# Compressibility (1/GPa) = 0.02371910
#
# Stress axis : x y z
#
# Youngs Moduli (GPa) = 72.57419 67.98571 68.64537
#
# Poissons Ratio (x) = 0.43124 0.29668
# Poissons Ratio (y) = 0.46034 -0.06842
# Poissons Ratio (z) = 0.31366 -0.06776
#
# Static dielectric constant tensor:
#      x y z
#    x 3.516510 0.000000 -0.208040 
#    y 0.000000 3.434230 0.000000 
#    z -0.208040 0.000000 0.669340 
# 
# 
# High freq. dielectric constant tensor:
#      x y z
#    x 1.728040 0.000000 0.016430 
#    y 0.000000 1.738840 0.000000 
#    z 0.016430 0.000000 1.765320 
# 
# From -- ./inp_files/29886.got.cif
#   From: 2010.06.25/outbox.cif.g09.slc.cpg/sg13_15_cif.got.tgz:29886.got - 2010.06.28 04:50:58.
