data_PCOD8118216
_publ_section_title
;
Structure prediction by ZEFSAII (Michael W. Deem and Ramdas Pophale) SiO2 
 PCOD8118216
Probable space group: P 2/C
;
_chemical_formula_sum "Si O2"
_cell_formula_units_Z 18
_cell_length_a 21.501101
_cell_length_b 8.280162
_cell_length_c 15.298887
_cell_angle_alpha 90.000000
_cell_angle_beta 20.508796
_cell_angle_gamma 90.000000
_cell_volume 954.251711
_symmetry_space_group_name_H-M "P 2/C"
_symmetry_group_IT_number 13
_symmetry_cell_setting 'monoclinic'
loop_
_space_group_symop_operation_xyz
x,y,z
-x,y,1/2-z
-x,-y,-z
x,-y,1/2+z
loop_
_atom_site_type_symbol
_atom_site_label
_atom_site_fract_x
_atom_site_fract_y
_atom_site_fract_z
Si Si1 0.795373 0.613700 0.688531
Si Si2 0.500000 0.112093 0.250000
Si Si3 0.510351 0.803976 0.333721
Si Si4 0.203231 0.573975 0.487458
Si Si5 0.200423 0.370492 0.661665
O O1 0.746792 0.542452 0.658096
O O2 0.762629 0.469207 0.799304
O O3 0.994784 0.683104 0.429512
O O4 0.667922 0.763205 0.878041
O O5 0.323662 0.214142 0.498691
O O6 0.528877 0.998102 0.297866
O O7 0.500000 0.724573 0.250000
O O8 0.677329 0.734875 0.168193
O O9 0.247046 0.477363 0.517069
O O10 0.000000 0.631379 0.750000
#
# Coordination Sequence:
#
# PCOD8118216 Si02
#       5
#     4   2   4   4   4
#     4  10  20  35  64  83 110 151 203 240 278 330
#     4  10  22  36  60  80 126 158 176 234 302 350
#     4  10  20  37  56  83 117 156 183 230 292 343
#     4  10  20  37  62  87 111 148 201 244 276 328
#     4  10  19  37  57  88 113 150 192 241 284 338
#
# _framework density 18.862946999999998
#
# number of rings (size 3 to 8) (size 9 to 14) (size 15 to 20)
#    0.667    1.333    2.222    2.000    0.000    0.889 
#    0.000    7.778    0.000    0.000    0.000    0.000 
#    0.000    0.000    0.000    0.000    0.000    0.000 
#
# Total GULP energy -223161.157235 kJ/mol
# GULP energy per Si atom -12397.842069 kJ/mol
# Density = 1.882001 g / cm^3
# Si number density = 18.862947 Si / 1000 Ang^3
#
#
#
# Elastic Constant Matrix: (Units=GPa)
#
#
# Indices 1 2 3 4 5 6 
#
# 1 42.7943 11.8290 38.9245 0.0000 -0.7111 0.0000
# 2 11.8290 106.3235 80.8509 0.0000 -15.4962 0.0000
# 3 38.9245 80.8509 138.0800 0.0000 -4.9424 0.0000
# 4 0.0000 0.0000 0.0000 23.3170 0.0000 -0.2222
# 5 -0.7111 -15.4962 -4.9424 0.0000 22.9280 0.0000
# 6 0.0000 0.0000 0.0000 -0.2222 0.0000 18.8954
#
#
#
# Elastic Compliance Matrix: (Units=1/GPa)
#
#
# Indices 1 2 3 4 5 6 
#
# 1 0.033731 0.006866 -0.013429 0.000000 0.002792 0.000000
# 2 0.006866 0.020628 -0.013612 0.000000 0.011220 0.000000
# 3 -0.013429 -0.013612 0.018799 0.000000 -0.005564 0.000000
# 4 0.000000 0.000000 0.000000 0.042892 0.000000 0.000504
# 5 0.002792 0.011220 -0.005564 0.000000 0.050085 0.000000
# 6 0.000000 0.000000 0.000000 0.000504 0.000000 0.052929
#
#
# Mechanical properties :
#
#
# Convention : Reuss Voigt Hill
#
# Bulk Modulus (GPa) = 30.48135 61.15630 45.81882
# Shear Modulus (GPa) = 18.49460 23.40098 20.94779
#
# Velocity S-wave (km/s) = 3.13465 3.52601 3.33607
# Velocity P-wave (km/s) = 5.41256 7.00491 6.25957
#
# Compressibility (1/GPa) = 0.03280695
#
# Stress axis : x y z
#
# Youngs Moduli (GPa) = 29.64667 48.47864 53.19450
#
# Poissons Ratio (x) = -0.33284 0.71434
# Poissons Ratio (y) = -0.20355 0.72409
# Poissons Ratio (z) = 0.39812 0.65989
#
# Static dielectric constant tensor:
#      x y z
#    x 3.495780 0.000000 0.033210 
#    y 0.000000 3.082860 0.000000 
#    z 0.033210 0.000000 3.671070 
# 
# 
# High freq. dielectric constant tensor:
#      x y z
#    x 1.733680 0.000000 0.001150 
#    y 0.000000 1.702620 0.000000 
#    z 0.001150 0.000000 1.750600 
# 
# From -- ./inp_files/57006.got.cif
#   From: 2010.06.25/outbox.cif.g09.slc.cpg/sg13_29_cif.got.tgz:57006.got - 2010.06.28 04:50:58.
