data_PCOD8118751
_publ_section_title
;
Structure prediction by ZEFSAII (Michael W. Deem and Ramdas Pophale) SiO2 
 PCOD8118751
Probable space group: P 2/C
;
_chemical_formula_sum "Si O2"
_cell_formula_units_Z 24
_cell_length_a 5.807605
_cell_length_b 19.649974
_cell_length_c 10.334209
_cell_angle_alpha 90.000000
_cell_angle_beta 70.983978
_cell_angle_gamma 90.000000
_cell_volume 1114.973436
_symmetry_space_group_name_H-M "P 2/C"
_symmetry_group_IT_number 13
_symmetry_cell_setting 'monoclinic'
loop_
_space_group_symop_operation_xyz
x,y,z
-x,y,1/2-z
-x,-y,-z
x,-y,1/2+z
loop_
_atom_site_type_symbol
_atom_site_label
_atom_site_fract_x
_atom_site_fract_y
_atom_site_fract_z
Si Si1 0.500000 0.520623 0.250000
Si Si2 0.232121 0.620576 0.459606
Si Si3 0.000000 0.932076 0.750000
Si Si4 0.539827 0.750700 0.387755
Si Si5 0.000000 0.332333 0.750000
Si Si6 0.565378 0.888382 0.966857
Si Si7 0.710606 0.001162 0.608781
Si Si8 0.000000 0.555964 0.750000
O O1 0.445548 0.566142 0.388667
O O2 0.250143 0.481069 0.253423
O O3 0.335517 0.695902 0.464911
O O4 0.081860 0.619309 0.352355
O O5 0.073194 0.601254 0.612835
O O6 0.760417 0.885138 0.811968
O O7 0.967931 0.982269 0.630626
O O8 0.500000 0.777725 0.250000
O O9 0.531428 0.813242 0.488344
O O10 0.799480 0.715900 0.350462
O O11 0.344806 0.941497 0.986225
O O12 0.717365 0.921095 0.057963
O O13 0.500000 0.994319 0.750000
#
# Coordination Sequence:
#
# PCOD8118751 Si02
#       8
#     2   4   2   4   2   4   4   2
#     4  12  24  46  74 106 146 186 232 282 352 422
#     4  11  24  45  68 102 139 178 228 286 335 415
#     4  10  20  35  57  81 121 162 198 270 338 382
#     4  10  22  40  66  89 124 173 218 269 332 409
#     4  10  21  44  71  88 138 180 220 276 344 403
#     4  10  20  36  57  87 120 160 212 263 328 393
#     4   9  19  35  55  84 120 154 210 273 320 391
#     4  12  29  41  76 113 139 184 236 288 354 411
#
# _framework density 21.525175000000001
#
# number of rings (size 3 to 8) (size 9 to 14) (size 15 to 20)
#    0.000    1.667    2.500    2.500    2.333    3.333 
#    0.000   14.167    0.000    0.000    0.000    0.000 
#    0.000    0.000    0.000    0.000    0.000    0.000 
#
# Total GULP energy -297316.399491 kJ/mol
# GULP energy per Si atom -12388.183312 kJ/mol
# Density = 2.147618 g / cm^3
# Si number density = 21.525175 Si / 1000 Ang^3
#
#
#
# Elastic Constant Matrix: (Units=GPa)
#
#
# Indices 1 2 3 4 5 6 
#
# 1 99.6467 34.4814 30.1408 0.0000 -3.7491 0.0000
# 2 34.4814 116.3198 59.1697 0.0000 -0.3863 0.0000
# 3 30.1408 59.1697 112.8133 0.0000 -8.9231 0.0000
# 4 0.0000 0.0000 0.0000 30.8822 0.0000 9.0868
# 5 -3.7491 -0.3863 -8.9231 0.0000 31.1081 0.0000
# 6 0.0000 0.0000 0.0000 9.0868 0.0000 -2.1099
#
#
#
# Elastic Compliance Matrix: (Units=1/GPa)
#
#
# Indices 1 2 3 4 5 6 
#
# 1 0.011451 -0.002551 -0.001652 0.000000 0.000874 0.000000
# 2 -0.002551 0.012378 -0.005958 0.000000 -0.001863 0.000000
# 3 -0.001652 -0.005958 0.012697 0.000000 0.003369 0.000000
# 4 0.000000 0.000000 0.000000 0.014282 0.000000 0.061510
# 5 0.000874 -0.001863 0.003369 0.000000 0.033195 0.000000
# 6 0.000000 0.000000 0.000000 0.061510 0.000000 -0.209047
#
#
# Mechanical properties :
#
#
# Convention : Reuss Voigt Hill
#
# Bulk Modulus (GPa) = 61.71557 64.04039 62.87798
# Shear Modulus (GPa) = -50.34165 25.64193 -12.34986
#
# Velocity S-wave (km/s) = -4.84129 3.45520 -2.39789
# Velocity P-wave (km/s) = 1.58658 6.76268 4.64847
#
# Compressibility (1/GPa) = 0.01620337
#
# Stress axis : x y z
#
# Youngs Moduli (GPa) = 87.32949 80.79100 78.75968
#
# Poissons Ratio (x) = 0.20611 0.13013
# Poissons Ratio (y) = 0.22279 0.46923
# Poissons Ratio (z) = 0.14428 0.48133
#
# Static dielectric constant tensor:
#      x y z
#    x 4.426700 0.000000 -0.029530 
#    y 0.000000 3.595760 0.000000 
#    z -0.029530 0.000000 4.018470 
# 
# 
# High freq. dielectric constant tensor:
#      x y z
#    x 1.857120 0.000000 -0.013090 
#    y 0.000000 1.824040 0.000000 
#    z -0.013090 0.000000 1.853020 
# 
# From -- ./inp_files/26512.got.cif
#   From: 2010.06.25/outbox.cif.g09.slc.cpg/sg13_14_cif.got.tgz:26512.got - 2010.06.28 04:50:58.
