data_PCOD8118214
_publ_section_title
;
Structure prediction by ZEFSAII (Michael W. Deem and Ramdas Pophale) SiO2 
 PCOD8118214
Probable space group: P 2/C
;
_chemical_formula_sum "Si O2"
_cell_formula_units_Z 30
_cell_length_a 11.920026
_cell_length_b 5.916476
_cell_length_c 22.329728
_cell_angle_alpha 90.000000
_cell_angle_beta 77.829877
_cell_angle_gamma 90.000000
_cell_volume 1539.401981
_symmetry_space_group_name_H-M "P 2/C"
_symmetry_group_IT_number 13
_symmetry_cell_setting 'monoclinic'
loop_
_space_group_symop_operation_xyz
x,y,z
-x,y,1/2-z
-x,-y,-z
x,-y,1/2+z
loop_
_atom_site_type_symbol
_atom_site_label
_atom_site_fract_x
_atom_site_fract_y
_atom_site_fract_z
Si Si1 0.500000 0.378174 0.250000
Si Si2 0.308328 0.060023 0.316505
Si Si3 0.860565 0.677308 0.744330
Si Si4 0.867936 0.895232 0.080829
Si Si5 0.178609 0.960055 0.154555
Si Si6 0.009878 0.578743 0.142024
Si Si7 0.093780 0.195621 0.055868
Si Si8 0.677083 0.306857 0.779540
O O1 0.432716 0.526350 0.207226
O O2 0.417721 0.226326 0.301572
O O3 0.257741 0.999166 0.388063
O O4 0.341050 0.829249 0.279609
O O5 0.200090 0.174454 0.298626
O O6 0.790715 0.454656 0.768175
O O7 0.978797 0.595779 0.699294
O O8 0.875103 0.838382 0.799990
O O9 0.898380 0.695977 0.124681
O O10 0.854964 0.790572 0.016291
O O11 0.968467 0.080808 0.070588
O O12 0.088529 0.758425 0.166005
O O13 0.302683 0.869574 0.166826
O O14 0.186067 0.055685 0.085912
O O15 0.080389 0.449887 0.082040
#
# Coordination Sequence:
#
# PCOD8118214 Si02
#       8
#     2   4   4   4   4   4   4   4
#     4  10  22  36  60  86 110 142 192 248 308 348
#     4  10  19  37  57  83 110 146 189 243 297 345
#     4  10  20  34  52  77 115 148 186 232 289 343
#     4  10  20  36  56  79 116 157 201 239 280 341
#     4  10  23  34  51  81 118 157 190 232 287 350
#     4  11  20  35  52  81 117 159 195 230 284 346
#     4  10  21  35  52  81 117 162 202 232 271 345
#     4  10  20  37  55  81 112 148 184 240 299 358
#
# _framework density 19.488087
#
# number of rings (size 3 to 8) (size 9 to 14) (size 15 to 20)
#    0.000    1.867    2.667    1.600    0.000    3.200 
#    2.400    0.000    0.000    0.800    0.000   17.733 
#    0.000    0.000    0.000    0.000    0.000    0.000 
#
# Total GULP energy -371747.717018 kJ/mol
# GULP energy per Si atom -12391.590567 kJ/mol
# Density = 1.944373 g / cm^3
# Si number density = 19.488087 Si / 1000 Ang^3
#
#
#
# Elastic Constant Matrix: (Units=GPa)
#
#
# Indices 1 2 3 4 5 6 
#
# 1 88.0297 40.1661 43.9706 0.0000 0.5423 0.0000
# 2 40.1661 97.0917 32.8119 0.0000 2.8106 0.0000
# 3 43.9706 32.8119 109.6657 0.0000 8.6094 0.0000
# 4 0.0000 0.0000 0.0000 22.6145 0.0000 8.2232
# 5 0.5423 2.8106 8.6094 0.0000 20.6827 0.0000
# 6 0.0000 0.0000 0.0000 8.2232 0.0000 43.5569
#
#
#
# Elastic Compliance Matrix: (Units=1/GPa)
#
#
# Indices 1 2 3 4 5 6 
#
# 1 0.016235 -0.005031 -0.005194 0.000000 0.002420 0.000000
# 2 -0.005031 0.013017 -0.001808 0.000000 -0.000884 0.000000
# 3 -0.005194 -0.001808 0.012108 0.000000 -0.004658 0.000000
# 4 0.000000 0.000000 0.000000 0.047479 0.000000 -0.008964
# 5 0.002420 -0.000884 -0.004658 0.000000 0.050345 0.000000
# 6 0.000000 0.000000 0.000000 -0.008964 0.000000 0.024651
#
#
# Mechanical properties :
#
#
# Convention : Reuss Voigt Hill
#
# Bulk Modulus (GPa) = 57.82464 58.74271 58.28368
# Shear Modulus (GPa) = 25.81760 29.22672 27.52216
#
# Velocity S-wave (km/s) = 3.64371 3.87683 3.76208
# Velocity P-wave (km/s) = 6.88755 7.08858 6.98879
#
# Compressibility (1/GPa) = 0.01729367
#
# Stress axis : x y z
#
# Youngs Moduli (GPa) = 61.59586 76.81975 82.59047
#
# Poissons Ratio (x) = 0.38648 0.42899
# Poissons Ratio (y) = 0.30989 0.14934
# Poissons Ratio (z) = 0.31994 0.13891
#
# Static dielectric constant tensor:
#      x y z
#    x 3.437540 0.000000 0.228490 
#    y 0.000000 3.962990 0.000000 
#    z 0.228490 0.000000 3.458800 
# 
# 
# High freq. dielectric constant tensor:
#      x y z
#    x 1.733000 0.000000 0.023140 
#    y 0.000000 1.787920 0.000000 
#    z 0.023140 0.000000 1.728610 
# 
# From -- ./inp_files/85812.got.cif
#   From: 2010.06.25/outbox.cif.g09.slc.cpg/sg13_43_cif.got.tgz:85812.got - 2010.06.28 04:50:58.
