data_PCOD8118043
_publ_section_title
;
Structure prediction by ZEFSAII (Michael W. Deem and Ramdas Pophale) SiO2 
 PCOD8118043
Probable space group: P 2/C
;
_chemical_formula_sum "Si O2"
_cell_formula_units_Z 28
_cell_length_a 9.246664
_cell_length_b 8.595226
_cell_length_c 29.878866
_cell_angle_alpha 90.000000
_cell_angle_beta 34.059587
_cell_angle_gamma 90.000000
_cell_volume 1329.955178
_symmetry_space_group_name_H-M "P 2/C"
_symmetry_group_IT_number 13
_symmetry_cell_setting 'monoclinic'
loop_
_space_group_symop_operation_xyz
x,y,z
-x,y,1/2-z
-x,-y,-z
x,-y,1/2+z
loop_
_atom_site_type_symbol
_atom_site_label
_atom_site_fract_x
_atom_site_fract_y
_atom_site_fract_z
Si Si1 0.796730 0.840781 0.461373
Si Si2 0.647446 0.191404 0.842463
Si Si3 0.991997 0.937077 0.181427
Si Si4 0.192752 0.639919 0.959318
Si Si5 0.124474 0.829189 0.519938
Si Si6 0.748755 0.539905 0.837183
Si Si7 0.775822 0.237716 0.408715
O O1 0.959381 0.827120 0.374049
O O2 0.857961 0.694228 0.476862
O O3 0.493639 0.854512 0.527704
O O4 0.893314 0.991666 0.463337
O O5 0.768710 0.068589 0.845667
O O6 0.769684 0.355151 0.826712
O O7 0.729951 0.130163 0.771711
O O8 0.340864 0.198189 0.926095
O O9 0.993273 0.120034 0.166469
O O10 0.492056 0.595375 0.877263
O O11 0.140192 0.773323 0.935635
O O12 0.000000 0.500000 0.000000
O O13 0.183957 0.724783 0.548921
O O14 0.761372 0.599507 0.885483
O O15 0.000000 0.616871 0.750000
#
# Coordination Sequence:
#
# PCOD8118043 Si02
#       7
#     4   4   4   4   4   4   4
#     4  10  20  38  61  91 123 162 210 252 308 366
#     4  11  20  34  62  90 124 154 207 253 310 356
#     4  10  19  35  59  95 116 157 207 262 295 355
#     4  11  24  39  62  90 125 164 204 253 313 372
#     4  11  20  40  62  93 122 162 206 257 304 368
#     4  11  24  40  60  92 124 164 205 251 313 371
#     4  10  21  36  63  93 122 158 210 255 300 370
#
# _framework density 21.053341
#
# number of rings (size 3 to 8) (size 9 to 14) (size 15 to 20)
#    0.000    1.429    5.714    1.286    2.000    1.714 
#    0.000    1.429    0.000    3.429    0.000    0.000 
#    0.000    0.000    0.000    0.000    0.000    0.000 
#
# Total GULP energy -347032.181035 kJ/mol
# GULP energy per Si atom -12394.006466 kJ/mol
# Density = 2.100542 g / cm^3
# Si number density = 21.053341 Si / 1000 Ang^3
#
#
#
# Elastic Constant Matrix: (Units=GPa)
#
#
# Indices 1 2 3 4 5 6 
#
# 1 86.1126 11.1073 52.4499 0.0000 3.8382 0.0000
# 2 11.1073 53.4952 45.3045 0.0000 9.1173 0.0000
# 3 52.4499 45.3045 144.7494 0.0000 12.9832 0.0000
# 4 0.0000 0.0000 0.0000 20.3283 0.0000 2.3776
# 5 3.8382 9.1173 12.9832 0.0000 32.7566 0.0000
# 6 0.0000 0.0000 0.0000 2.3776 0.0000 29.1680
#
#
#
# Elastic Compliance Matrix: (Units=1/GPa)
#
#
# Indices 1 2 3 4 5 6 
#
# 1 0.015063 0.002022 -0.006099 0.000000 0.000089 0.000000
# 2 0.002022 0.026241 -0.008574 0.000000 -0.004142 0.000000
# 3 -0.006099 -0.008574 0.011949 0.000000 -0.001635 0.000000
# 4 0.000000 0.000000 0.000000 0.049666 0.000000 -0.004048
# 5 0.000089 -0.004142 -0.001635 0.000000 0.032319 0.000000
# 6 0.000000 0.000000 0.000000 -0.004048 0.000000 0.034614
#
#
# Mechanical properties :
#
#
# Convention : Reuss Voigt Hill
#
# Bulk Modulus (GPa) = 35.77756 55.78674 45.78215
# Shear Modulus (GPa) = 24.45354 28.15028 26.30191
#
# Velocity S-wave (km/s) = 3.41178 3.66060 3.53838
# Velocity P-wave (km/s) = 5.70535 6.66498 6.20375
#
# Compressibility (1/GPa) = 0.02795048
#
# Stress axis : x y z
#
# Youngs Moduli (GPa) = 66.38947 38.10860 83.69119
#
# Poissons Ratio (x) = -0.07707 0.51043
# Poissons Ratio (y) = -0.13427 0.71759
# Poissons Ratio (z) = 0.40491 0.32675
#
# Static dielectric constant tensor:
#      x y z
#    x 3.781680 0.000000 0.189010 
#    y 0.000000 3.671180 0.000000 
#    z 0.189010 0.000000 3.918500 
# 
# 
# High freq. dielectric constant tensor:
#      x y z
#    x 1.810790 0.000000 0.013060 
#    y 0.000000 1.821510 0.000000 
#    z 0.013060 0.000000 1.817600 
# 
# From -- ./inp_files/91384.got.cif
#   From: 2010.06.25/outbox.cif.g09.slc.cpg/sg13_46_cif.got.tgz:91384.got - 2010.06.28 04:50:58.
