data_PCOD8118145
_publ_section_title
;
Structure prediction by ZEFSAII (Michael W. Deem and Ramdas Pophale) SiO2 
 PCOD8118145
Probable space group: P 2/C
;
_chemical_formula_sum "Si O2"
_cell_formula_units_Z 28
_cell_length_a 8.421540
_cell_length_b 6.750697
_cell_length_c 27.147649
_cell_angle_alpha 90.000000
_cell_angle_beta 113.606305
_cell_angle_gamma 90.000000
_cell_volume 1414.226241
_symmetry_space_group_name_H-M "P 2/C"
_symmetry_group_IT_number 13
_symmetry_cell_setting 'monoclinic'
loop_
_space_group_symop_operation_xyz
x,y,z
-x,y,1/2-z
-x,-y,-z
x,-y,1/2+z
loop_
_atom_site_type_symbol
_atom_site_label
_atom_site_fract_x
_atom_site_fract_y
_atom_site_fract_z
Si Si1 0.000000 0.717640 0.250000
Si Si2 0.483113 0.625697 0.641972
Si Si3 0.761856 0.354070 0.941208
Si Si4 0.160021 0.950298 0.707549
Si Si5 0.500000 0.290091 0.250000
Si Si6 0.131322 0.379493 0.335837
Si Si7 0.196976 0.947488 0.600339
Si Si8 0.936917 0.386412 0.060324
O O1 0.095062 0.582079 0.302011
O O2 0.137303 0.857732 0.239032
O O3 0.420314 0.438547 0.601822
O O4 0.460018 0.573421 0.697459
O O5 0.677159 0.690777 0.653898
O O6 0.364989 0.812454 0.615364
O O7 0.921508 0.445585 0.931283
O O8 0.770912 0.121105 0.934058
O O9 0.779524 0.401390 0.001676
O O10 0.337360 0.844959 0.745065
O O11 0.173416 0.025072 0.653099
O O12 0.003495 0.792808 0.695458
O O13 0.132208 0.423817 0.393806
O O14 0.024447 0.828249 0.564226
#
# Coordination Sequence:
#
# PCOD8118145 Si02
#       8
#     2   4   4   4   2   4   4   4
#     4  12  22  36  60  82 108 148 182 220 276 334
#     4  10  22  35  55  81 114 148 180 228 279 328
#     4  10  19  36  60  84 108 147 196 228 269 330
#     4  10  22  37  56  81 109 144 185 225 274 333
#     4  10  20  40  58  78 114 144 178 232 276 320
#     4  11  23  39  55  83 120 146 178 229 284 330
#     4   9  19  37  57  80 108 144 188 231 273 324
#     4   9  20  37  58  82 113 147 184 235 279 321
#
# _framework density 19.798811000000001
#
# number of rings (size 3 to 8) (size 9 to 14) (size 15 to 20)
#    0.000    2.000    0.000    4.286    0.000    5.143 
#    0.000    2.143    0.000    0.000    0.000    0.000 
#    0.000    0.000    0.000    0.000    0.000    0.000 
#
# Total GULP energy -347206.539740 kJ/mol
# GULP energy per Si atom -12400.233562 kJ/mol
# Density = 1.975375 g / cm^3
# Si number density = 19.798811 Si / 1000 Ang^3
#
#
#
# Elastic Constant Matrix: (Units=GPa)
#
#
# Indices 1 2 3 4 5 6 
#
# 1 102.3984 32.8432 45.6927 0.0000 3.1728 0.0000
# 2 32.8432 87.1435 45.9289 0.0000 -5.9013 0.0000
# 3 45.6927 45.9289 127.9488 0.0000 -5.8341 0.0000
# 4 0.0000 0.0000 0.0000 25.3610 0.0000 -10.1901
# 5 3.1728 -5.9013 -5.8341 0.0000 32.5736 0.0000
# 6 0.0000 0.0000 0.0000 -10.1901 0.0000 18.9494
#
#
#
# Elastic Compliance Matrix: (Units=1/GPa)
#
#
# Indices 1 2 3 4 5 6 
#
# 1 0.012334 -0.002997 -0.003436 0.000000 -0.002360 0.000000
# 2 -0.002997 0.014972 -0.004201 0.000000 0.002252 0.000000
# 3 -0.003436 -0.004201 0.010618 0.000000 0.001475 0.000000
# 4 0.000000 0.000000 0.000000 0.050299 0.000000 0.027048
# 5 -0.002360 0.002252 0.001475 0.000000 0.031602 0.000000
# 6 0.000000 0.000000 0.000000 0.027048 0.000000 0.067317
#
#
# Mechanical properties :
#
#
# Convention : Reuss Voigt Hill
#
# Bulk Modulus (GPa) = 60.04531 62.93558 61.49044
# Shear Modulus (GPa) = 23.36865 28.24518 25.80692
#
# Velocity S-wave (km/s) = 3.43929 3.78115 3.61426
# Velocity P-wave (km/s) = 6.79449 7.13578 6.96723
#
# Compressibility (1/GPa) = 0.01665409
#
# Stress axis : x y z
#
# Youngs Moduli (GPa) = 81.07990 66.79287 94.17826
#
# Poissons Ratio (x) = 0.20018 0.32362
# Poissons Ratio (y) = 0.24300 0.39567
# Poissons Ratio (z) = 0.27861 0.28062
#
# Static dielectric constant tensor:
#      x y z
#    x 3.501430 0.000000 -0.028750 
#    y 0.000000 3.417770 0.000000 
#    z -0.028750 0.000000 3.853430 
# 
# 
# High freq. dielectric constant tensor:
#      x y z
#    x 1.762350 0.000000 -0.004570 
#    y 0.000000 1.759780 0.000000 
#    z -0.004570 0.000000 1.788000 
# 
# From -- ./inp_files/95556.got.cif
#   From: 2010.06.25/outbox.cif.g09.slc.cpg/sg13_48_cif.got.tgz:95556.got - 2010.06.28 04:50:58.
