data_PCOD8118199
_publ_section_title
;
Structure prediction by ZEFSAII (Michael W. Deem and Ramdas Pophale) SiO2 
 PCOD8118199
Probable space group: P 2/C
;
_chemical_formula_sum "Si O2"
_cell_formula_units_Z 32
_cell_length_a 14.690252
_cell_length_b 8.641273
_cell_length_c 15.927058
_cell_angle_alpha 90.000000
_cell_angle_beta 127.484781
_cell_angle_gamma 90.000000
_cell_volume 1604.344689
_symmetry_space_group_name_H-M "P 2/C"
_symmetry_group_IT_number 13
_symmetry_cell_setting 'monoclinic'
loop_
_space_group_symop_operation_xyz
x,y,z
-x,y,1/2-z
-x,-y,-z
x,-y,1/2+z
loop_
_atom_site_type_symbol
_atom_site_label
_atom_site_fract_x
_atom_site_fract_y
_atom_site_fract_z
Si Si1 0.534985 0.325043 0.024636
Si Si2 0.161493 0.112701 0.010531
Si Si3 0.529964 0.836952 0.176397
Si Si4 0.791426 0.103189 0.813017
Si Si5 0.268205 0.879285 0.861496
Si Si6 0.073988 0.152481 0.372243
Si Si7 0.387670 0.893615 0.539512
Si Si8 0.980656 0.317247 0.988405
O O1 0.661988 0.273451 0.131898
O O2 0.443724 0.262240 0.039291
O O3 0.500000 0.500000 0.000000
O O4 0.532699 0.263058 0.928786
O O5 0.272481 0.165299 0.021253
O O6 0.203498 0.978829 0.095394
O O7 0.103668 0.253256 0.027089
O O8 0.064571 0.026404 0.898569
O O9 0.500000 0.762887 0.250000
O O10 0.664898 0.828912 0.232097
O O11 0.477120 0.011249 0.147509
O O12 0.883470 0.246634 0.869714
O O13 0.812961 0.968133 0.753375
O O14 0.203052 0.827540 0.909722
O O15 0.362264 0.006374 0.941519
O O16 0.044870 0.271655 0.429853
O O17 0.000000 0.190856 0.250000
O O18 0.000000 0.500000 0.000000
#
# Coordination Sequence:
#
# PCOD8118199 Si02
#       8
#     4   4   4   4   4   4   4   4
#     4  11  23  39  56  93 139 162 196 258 328 387
#     4  10  21  37  63  87 116 161 212 263 306 363
#     4  11  20  39  66  92 118 164 216 260 315 374
#     4  11  19  39  67  87 120 159 217 263 305 370
#     4  10  19  36  66  87 114 163 213 259 301 371
#     4  10  20  39  64  89 113 158 219 262 303 365
#     4  10  19  37  60  88 119 159 209 262 301 370
#     4  11  25  42  57  91 135 167 202 266 329 382
#
# _framework density 19.945837000000001
#
# number of rings (size 3 to 8) (size 9 to 14) (size 15 to 20)
#    0.000    1.500    3.750    3.750    1.750    1.000 
#    4.500    3.750    0.000    0.000    0.000    0.000 
#    0.000    0.000    0.000    0.000    0.000    0.000 
#
# Total GULP energy -396436.656527 kJ/mol
# GULP energy per Si atom -12388.645516 kJ/mol
# Density = 1.990044 g / cm^3
# Si number density = 19.945837 Si / 1000 Ang^3
#
#
#
# Elastic Constant Matrix: (Units=GPa)
#
#
# Indices 1 2 3 4 5 6 
#
# 1 104.1776 68.7004 34.5075 0.0000 -13.8037 0.0000
# 2 68.7004 139.7459 39.3426 0.0000 -1.1172 0.0000
# 3 34.5075 39.3426 91.1709 0.0000 -2.8858 0.0000
# 4 0.0000 0.0000 0.0000 23.8010 0.0000 5.6484
# 5 -13.8037 -1.1172 -2.8858 0.0000 32.6874 0.0000
# 6 0.0000 0.0000 0.0000 5.6484 0.0000 19.5943
#
#
#
# Elastic Compliance Matrix: (Units=1/GPa)
#
#
# Indices 1 2 3 4 5 6 
#
# 1 0.015992 -0.007016 -0.002827 0.000000 0.006264 0.000000
# 2 -0.007016 0.011223 -0.002276 0.000000 -0.002780 0.000000
# 3 -0.002827 -0.002276 0.013017 0.000000 -0.000122 0.000000
# 4 0.000000 0.000000 0.000000 0.045100 0.000000 -0.013001
# 5 0.006264 -0.002780 -0.000122 0.000000 0.033132 0.000000
# 6 0.000000 0.000000 0.000000 -0.013001 0.000000 0.054783
#
#
# Mechanical properties :
#
#
# Convention : Reuss Voigt Hill
#
# Bulk Modulus (GPa) = 62.52071 68.91060 65.71565
# Shear Modulus (GPa) = 24.65279 28.05279 26.35279
#
# Velocity S-wave (km/s) = 3.51947 3.75433 3.63880
# Velocity P-wave (km/s) = 6.92307 7.30871 7.11850
#
# Compressibility (1/GPa) = 0.01599470
#
# Stress axis : x y z
#
# Youngs Moduli (GPa) = 62.53097 89.09986 76.82506
#
# Poissons Ratio (x) = 0.62511 0.21719
# Poissons Ratio (y) = 0.43871 0.17483
# Poissons Ratio (z) = 0.17678 0.20277
#
# Static dielectric constant tensor:
#      x y z
#    x 3.961340 0.000000 0.077680 
#    y 0.000000 3.309940 0.000000 
#    z 0.077680 0.000000 3.906780 
# 
# 
# High freq. dielectric constant tensor:
#      x y z
#    x 1.799880 0.000000 -0.001390 
#    y 0.000000 1.732310 0.000000 
#    z -0.001390 0.000000 1.781850 
# 
# From -- ./inp_files/53087.got.cif
#   From: 2010.06.25/outbox.cif.g09.slc.cpg/sg13_27_cif.got.tgz:53087.got - 2010.06.28 04:50:58.
