data_PCOD8118435
_publ_section_title
;
Structure prediction by ZEFSAII (Michael W. Deem and Ramdas Pophale) SiO2 
 PCOD8118435
Probable space group: P 2/C
;
_chemical_formula_sum "Si O2"
_cell_formula_units_Z 32
_cell_length_a 9.685501
_cell_length_b 19.190348
_cell_length_c 12.835037
_cell_angle_alpha 90.000000
_cell_angle_beta 137.326460
_cell_angle_gamma 90.000000
_cell_volume 1617.024407
_symmetry_space_group_name_H-M "P 2/C"
_symmetry_group_IT_number 13
_symmetry_cell_setting 'monoclinic'
loop_
_space_group_symop_operation_xyz
x,y,z
-x,y,1/2-z
-x,-y,-z
x,-y,1/2+z
loop_
_atom_site_type_symbol
_atom_site_label
_atom_site_fract_x
_atom_site_fract_y
_atom_site_fract_z
Si Si1 0.926810 0.791197 0.443527
Si Si2 0.836370 0.057979 0.933005
Si Si3 0.296062 0.713446 0.573588
Si Si4 0.949039 0.425111 0.602730
Si Si5 0.479785 0.938181 0.070252
Si Si6 0.264742 0.560701 0.102307
Si Si7 0.339626 0.699802 0.070161
Si Si8 0.391472 0.786213 0.416475
O O1 0.962342 0.871636 0.486832
O O2 0.807847 0.761181 0.476282
O O3 0.803776 0.781057 0.267397
O O4 0.142075 0.753155 0.563716
O O5 0.740995 0.055236 0.996442
O O6 0.654070 0.052409 0.751226
O O7 0.000000 0.000000 0.000000
O O8 0.500000 0.697665 0.750000
O O9 0.199291 0.641069 0.483737
O O10 0.326532 0.767442 0.496246
O O11 0.834539 0.492114 0.497307
O O12 0.000000 0.438827 0.750000
O O13 0.154576 0.414336 0.648747
O O14 0.506227 0.862784 0.030209
O O15 0.500000 0.000000 0.000000
O O16 0.500000 0.542624 0.250000
O O17 0.233580 0.623789 0.000157
O O18 0.500000 0.685623 0.250000
O O19 0.445590 0.726515 0.024146
#
# Coordination Sequence:
#
# PCOD8118435 Si02
#       8
#     4   4   4   4   4   4   4   4
#     4  10  19  40  66  87 118 155 211 248 306 368
#     4  10  22  39  62  89 122 163 203 254 301 364
#     4  12  26  41  59  92 128 160 198 260 310 358
#     4  11  24  43  65  92 127 167 206 248 304 370
#     4  10  22  40  61  89 123 160 207 250 303 367
#     4  10  22  41  65  95 125 159 206 258 303 356
#     4   9  17  36  66  92 110 151 202 255 299 357
#     4  10  21  40  66  90 115 160 208 252 305 370
#
# _framework density 19.789435999999998
#
# number of rings (size 3 to 8) (size 9 to 14) (size 15 to 20)
#    0.000    1.750    2.500    1.500    5.250    2.000 
#    4.500    0.625    0.000    0.000    0.000    0.000 
#    0.000    0.000    0.000    0.000    0.000    0.000 
#
# Total GULP energy -396730.346314 kJ/mol
# GULP energy per Si atom -12397.823322 kJ/mol
# Density = 1.974439 g / cm^3
# Si number density = 19.789436 Si / 1000 Ang^3
#
#
#
# Elastic Constant Matrix: (Units=GPa)
#
#
# Indices 1 2 3 4 5 6 
#
# 1 85.5769 41.8417 31.6541 0.0000 5.3210 0.0000
# 2 41.8417 132.8884 17.3293 0.0000 1.8254 0.0000
# 3 31.6541 17.3293 44.5219 0.0000 3.2955 0.0000
# 4 0.0000 0.0000 0.0000 25.6128 0.0000 1.7605
# 5 5.3210 1.8254 3.2955 0.0000 24.9680 0.0000
# 6 0.0000 0.0000 0.0000 1.7605 0.0000 39.7481
#
#
#
# Elastic Compliance Matrix: (Units=1/GPa)
#
#
# Indices 1 2 3 4 5 6 
#
# 1 0.017910 -0.004183 -0.010953 0.000000 -0.002065 0.000000
# 2 -0.004183 0.008905 -0.000515 0.000000 0.000308 0.000000
# 3 -0.010953 -0.000515 0.030572 0.000000 -0.001663 0.000000
# 4 0.000000 0.000000 0.000000 0.039162 0.000000 -0.001735
# 5 -0.002065 0.000308 -0.001663 0.000000 0.040688 0.000000
# 6 0.000000 0.000000 0.000000 -0.001735 0.000000 0.025235
#
#
# Mechanical properties :
#
#
# Convention : Reuss Voigt Hill
#
# Bulk Modulus (GPa) = 38.33527 49.40415 43.86971
# Shear Modulus (GPa) = 24.69508 29.54326 27.11917
#
# Velocity S-wave (km/s) = 3.53638 3.86797 3.70589
# Velocity P-wave (km/s) = 6.00736 6.70577 6.36615
#
# Compressibility (1/GPa) = 0.02608564
#
# Stress axis : x y z
#
# Youngs Moduli (GPa) = 55.83401 112.29632 32.70989
#
# Poissons Ratio (x) = 0.46969 0.35827
# Poissons Ratio (y) = 0.23353 0.01685
# Poissons Ratio (z) = 0.61154 0.05785
#
# Static dielectric constant tensor:
#      x y z
#    x 3.816100 0.000000 0.137010 
#    y 0.000000 3.217020 0.000000 
#    z 0.137010 0.000000 3.279830 
# 
# 
# High freq. dielectric constant tensor:
#      x y z
#    x 1.787940 0.000000 0.008410 
#    y 0.000000 1.794620 0.000000 
#    z 0.008410 0.000000 1.736140 
# 
# From -- ./inp_files/30810.got.cif
#   From: 2010.06.25/outbox.cif.g09.slc.cpg/sg13_16_cif.got.tgz:30810.got - 2010.06.28 04:50:58.
