data_PCOD8118850
_publ_section_title
;
Structure prediction by ZEFSAII (Michael W. Deem and Ramdas Pophale) SiO2 
 PCOD8118850
Probable space group: P 2/C
;
_chemical_formula_sum "Si O2"
_cell_formula_units_Z 28
_cell_length_a 18.462713
_cell_length_b 12.054655
_cell_length_c 22.262769
_cell_angle_alpha 90.000000
_cell_angle_beta 162.711016
_cell_angle_gamma 90.000000
_cell_volume 1472.534835
_symmetry_space_group_name_H-M "P 2/C"
_symmetry_group_IT_number 13
_symmetry_cell_setting 'monoclinic'
loop_
_space_group_symop_operation_xyz
x,y,z
-x,y,1/2-z
-x,-y,-z
x,-y,1/2+z
loop_
_atom_site_type_symbol
_atom_site_label
_atom_site_fract_x
_atom_site_fract_y
_atom_site_fract_z
Si Si1 0.965282 0.600948 0.626059
Si Si2 0.682578 0.582520 0.841316
Si Si3 0.863707 0.189667 0.431892
Si Si4 0.583230 0.178316 0.651753
Si Si5 0.857399 0.178336 0.288873
Si Si6 0.684902 0.969604 0.342423
Si Si7 0.391746 0.399020 0.552505
O O1 0.907069 0.490509 0.543038
O O2 0.736426 0.635829 0.486424
O O3 0.020961 0.702372 0.626171
O O4 0.197377 0.569443 0.848713
O O5 0.500000 0.616729 0.750000
O O6 0.788082 0.690187 0.894029
O O7 0.549226 0.509452 0.685185
O O8 0.778978 0.173538 0.296064
O O9 0.152769 0.173463 0.669866
O O10 0.726290 0.099214 0.363130
O O11 0.374683 0.156288 0.437317
O O12 0.566064 0.084914 0.689209
O O13 0.558253 0.297580 0.663467
O O14 0.058770 0.084962 0.435629
O O15 0.500000 0.954806 0.250000
#
# Coordination Sequence:
#
# PCOD8118850 Si02
#       7
#     4   4   4   4   4   4   4
#     4   9  18  33  55  82 108 139 183 229 271 317
#     4  10  20  36  55  76 111 152 183 219 268 321
#     4  11  24  37  53  81 114 149 184 216 264 333
#     4  10  21  38  60  84 110 140 179 231 282 321
#     4  10  21  38  60  84 110 140 179 231 282 321
#     4  11  23  39  59  82 108 141 184 228 270 324
#     4   9  18  33  55  82 108 139 183 229 271 317
#
# _framework density 19.01483
#
# number of rings (size 3 to 8) (size 9 to 14) (size 15 to 20)
#    0.000    2.000    0.000    4.714    0.000    8.571 
#    0.000    2.857    0.000    5.143    0.000    0.000 
#    0.000    0.000    0.000    0.000    0.000    0.000 
#
# Total GULP energy -347270.796239 kJ/mol
# GULP energy per Si atom -12402.528437 kJ/mol
# Density = 1.897155 g / cm^3
# Si number density = 19.014830 Si / 1000 Ang^3
#
#
#
# Elastic Constant Matrix: (Units=GPa)
#
#
# Indices 1 2 3 4 5 6 
#
# 1 67.4600 38.1903 38.5569 0.0000 3.4368 0.0000
# 2 38.1903 109.9938 40.1975 0.0000 -0.7691 0.0000
# 3 38.5569 40.1975 107.4381 0.0000 -18.7765 0.0000
# 4 0.0000 0.0000 0.0000 -2.7571 0.0000 10.1684
# 5 3.4368 -0.7691 -18.7765 0.0000 18.4625 0.0000
# 6 0.0000 0.0000 0.0000 10.1684 0.0000 23.7816
#
#
#
# Elastic Compliance Matrix: (Units=1/GPa)
#
#
# Indices 1 2 3 4 5 6 
#
# 1 0.023443 -0.004967 -0.008943 0.000000 -0.013666 0.000000
# 2 -0.004967 0.011878 -0.002935 0.000000 -0.001566 0.000000
# 3 -0.008943 -0.002935 0.016886 0.000000 0.018716 0.000000
# 4 0.000000 0.000000 0.000000 -0.140749 0.000000 0.060181
# 5 -0.013666 -0.001566 0.018716 0.000000 0.075677 0.000000
# 6 0.000000 0.000000 0.000000 0.060181 0.000000 0.016317
#
#
# Mechanical properties :
#
#
# Convention : Reuss Voigt Hill
#
# Bulk Modulus (GPa) = 54.00527 57.64235 55.82381
# Shear Modulus (GPa) = 115.43499 19.09391 67.26445
#
# Velocity S-wave (km/s) = 7.79998 3.17228 5.95412
# Velocity P-wave (km/s) = 10.46818 6.61801 8.75731
#
# Compressibility (1/GPa) = 0.01851671
#
# Stress axis : x y z
#
# Youngs Moduli (GPa) = 42.65636 84.19199 59.21964
#
# Poissons Ratio (x) = 0.41816 0.52962
# Poissons Ratio (y) = 0.21186 0.17382
# Poissons Ratio (z) = 0.38149 0.24711
#
# Static dielectric constant tensor:
#      x y z
#    x 3.545620 0.000000 -0.060320 
#    y 0.000000 3.429800 0.000000 
#    z -0.060320 0.000000 3.700550 
# 
# 
# High freq. dielectric constant tensor:
#      x y z
#    x 1.737750 0.000000 -0.003890 
#    y 0.000000 1.741590 0.000000 
#    z -0.003890 0.000000 1.747780 
# 
# From -- ./inp_files/81058.got.cif
#   From: 2010.06.25/outbox.cif.g09.slc.cpg/sg13_41_cif.got.tgz:81058.got - 2010.06.28 04:50:58.
