data_PCOD8118880
_publ_section_title
;
Structure prediction by ZEFSAII (Michael W. Deem and Ramdas Pophale) SiO2 
 PCOD8118880
Probable space group: P 2/C
;
_chemical_formula_sum "Si O2"
_cell_formula_units_Z 18
_cell_length_a 10.407611
_cell_length_b 8.586674
_cell_length_c 21.748992
_cell_angle_alpha 90.000000
_cell_angle_beta 27.456183
_cell_angle_gamma 90.000000
_cell_volume 896.152980
_symmetry_space_group_name_H-M "P 2/C"
_symmetry_group_IT_number 13
_symmetry_cell_setting 'monoclinic'
loop_
_space_group_symop_operation_xyz
x,y,z
-x,y,1/2-z
-x,-y,-z
x,-y,1/2+z
loop_
_atom_site_type_symbol
_atom_site_label
_atom_site_fract_x
_atom_site_fract_y
_atom_site_fract_z
Si Si1 0.338289 0.619647 0.937478
Si Si2 0.788227 0.960542 0.207466
Si Si3 0.591492 0.075624 0.024826
Si Si4 0.500000 0.190046 0.250000
Si Si5 0.702382 0.394645 0.719771
O O1 0.410773 0.734314 0.964859
O O2 0.361132 0.713720 0.863872
O O3 0.565326 0.478854 0.838229
O O4 0.024260 0.548932 0.075693
O O5 0.704678 0.789178 0.222561
O O6 0.604620 0.999080 0.343057
O O7 0.747139 0.080230 0.169282
O O8 0.100857 0.982401 0.094775
O O9 0.500000 0.000000 0.000000
O O10 0.500000 0.446986 0.750000
#
# Coordination Sequence:
#
# PCOD8118880 Si02
#       5
#     4   4   4   2   4
#     4  10  23  35  59  86 123 154 196 236 296 358
#     4  10  22  35  63  86 120 151 200 246 300 349
#     4  10  22  41  60  84 113 159 206 249 285 343
#     4  10  20  36  56  94 116 154 198 240 304 354
#     4  11  21  35  55  90 125 156 183 240 304 360
#
# _framework density 20.085858999999999
#
# number of rings (size 3 to 8) (size 9 to 14) (size 15 to 20)
#    0.000    1.778    2.222    1.333    3.111    4.444 
#    0.000    1.111    0.000    8.000    0.000    0.000 
#    0.000    0.000    0.000    0.000    0.000    0.000 
#
# Total GULP energy -223027.182234 kJ/mol
# GULP energy per Si atom -12390.399013 kJ/mol
# Density = 2.004014 g / cm^3
# Si number density = 20.085859 Si / 1000 Ang^3
#
#
#
# Elastic Constant Matrix: (Units=GPa)
#
#
# Indices 1 2 3 4 5 6 
#
# 1 88.5073 28.2804 26.1693 0.0000 -12.8129 0.0000
# 2 28.2804 70.6592 42.2141 0.0000 -12.9167 0.0000
# 3 26.1693 42.2141 156.8889 0.0000 -19.9900 0.0000
# 4 0.0000 0.0000 0.0000 30.6240 0.0000 1.6230
# 5 -12.8129 -12.9167 -19.9900 0.0000 25.3292 0.0000
# 6 0.0000 0.0000 0.0000 1.6230 0.0000 17.7492
#
#
#
# Elastic Compliance Matrix: (Units=1/GPa)
#
#
# Indices 1 2 3 4 5 6 
#
# 1 0.013435 -0.004282 -0.000557 0.000000 0.004173 0.000000
# 2 -0.004282 0.018968 -0.003817 0.000000 0.004495 0.000000
# 3 -0.000557 -0.003817 0.008016 0.000000 0.004098 0.000000
# 4 0.000000 0.000000 0.000000 0.032813 0.000000 -0.003001
# 5 0.004173 0.004495 0.004098 0.000000 0.047117 0.000000
# 6 0.000000 0.000000 0.000000 -0.003001 0.000000 0.056615
#
#
# Mechanical properties :
#
#
# Convention : Reuss Voigt Hill
#
# Bulk Modulus (GPa) = 43.27481 56.59809 49.93645
# Shear Modulus (GPa) = 24.75501 29.36658 27.06079
#
# Velocity S-wave (km/s) = 3.51445 3.82783 3.67448
# Velocity P-wave (km/s) = 6.16929 6.91199 6.55117
#
# Compressibility (1/GPa) = 0.02310813
#
# Stress axis : x y z
#
# Youngs Moduli (GPa) = 74.42974 52.72021 124.74972
#
# Poissons Ratio (x) = 0.22572 0.06952
# Poissons Ratio (y) = 0.31868 0.47615
# Poissons Ratio (z) = 0.04148 0.20123
#
# Static dielectric constant tensor:
#      x y z
#    x 3.627150 0.000000 0.014410 
#    y 0.000000 3.956630 0.000000 
#    z 0.014410 0.000000 4.008400 
# 
# 
# High freq. dielectric constant tensor:
#      x y z
#    x 1.752410 0.000000 -0.002330 
#    y 0.000000 1.793810 0.000000 
#    z -0.002330 0.000000 1.805420 
# 
# From -- ./inp_files/14499.got.cif
#   From: 2010.06.25/outbox.cif.g09.slc.cpg/sg13_8_cif.got.tgz:14499.got - 2010.06.28 04:50:58.
