data_PCOD8118968
_publ_section_title
;
Structure prediction by ZEFSAII (Michael W. Deem and Ramdas Pophale) SiO2 
 PCOD8118968
Probable space group: P 2/C
;
_chemical_formula_sum "Si O2"
_cell_formula_units_Z 18
_cell_length_a 7.235355
_cell_length_b 8.921037
_cell_length_c 18.304003
_cell_angle_alpha 90.000000
_cell_angle_beta 46.923796
_cell_angle_gamma 90.000000
_cell_volume 862.997172
_symmetry_space_group_name_H-M "P 2/C"
_symmetry_group_IT_number 13
_symmetry_cell_setting 'monoclinic'
loop_
_space_group_symop_operation_xyz
x,y,z
-x,y,1/2-z
-x,-y,-z
x,-y,1/2+z
loop_
_atom_site_type_symbol
_atom_site_label
_atom_site_fract_x
_atom_site_fract_y
_atom_site_fract_z
Si Si1 0.470269 0.335709 0.427305
Si Si2 0.002981 0.826037 0.482636
Si Si3 0.757574 0.660279 0.217223
Si Si4 0.000000 0.424073 0.250000
Si Si5 0.453139 0.314788 0.932499
O O1 0.432863 0.276848 0.519757
O O2 0.403843 0.508981 0.435880
O O3 0.763131 0.314353 0.326158
O O4 0.280604 0.237602 0.429270
O O5 0.106616 0.776727 0.374289
O O6 0.180670 0.759504 0.497180
O O7 0.000000 0.000000 0.500000
O O8 0.500000 0.592274 0.250000
O O9 0.659270 0.744135 0.317537
O O10 0.950532 0.528198 0.190938
#
# Coordination Sequence:
#
# PCOD8118968 Si02
#       5
#     4   4   4   2   4
#     4  10  20  36  60  89 116 149 198 248 293 342
#     4  11  22  36  57  88 124 159 193 234 293 360
#     4   9  18  34  57  84 114 151 192 238 295 347
#     4  10  20  36  60  90 116 148 200 256 294 332
#     4   9  19  37  62  85 112 151 200 248 293 345
#
# _framework density 20.857543
#
# number of rings (size 3 to 8) (size 9 to 14) (size 15 to 20)
#    0.000    2.222    0.000    4.667    0.000    4.444 
#    0.000    6.667    0.000    1.333    0.000    0.000 
#    0.000    0.000    0.000    0.000    0.000    0.000 
#
# Total GULP energy -223043.688236 kJ/mol
# GULP energy per Si atom -12391.316013 kJ/mol
# Density = 2.081007 g / cm^3
# Si number density = 20.857543 Si / 1000 Ang^3
#
#
#
# Elastic Constant Matrix: (Units=GPa)
#
#
# Indices 1 2 3 4 5 6 
#
# 1 71.5596 42.9502 27.6330 0.0000 -26.5265 0.0000
# 2 42.9502 76.9705 34.4610 0.0000 -14.9959 0.0000
# 3 27.6330 34.4610 93.8460 0.0000 -15.7885 0.0000
# 4 0.0000 0.0000 0.0000 19.5952 0.0000 6.5529
# 5 -26.5265 -14.9959 -15.7885 0.0000 47.3938 0.0000
# 6 0.0000 0.0000 0.0000 6.5529 0.0000 8.1077
#
#
#
# Elastic Compliance Matrix: (Units=1/GPa)
#
#
# Indices 1 2 3 4 5 6 
#
# 1 0.025069 -0.011367 -0.001538 0.000000 0.009922 0.000000
# 2 -0.011367 0.021173 -0.004631 0.000000 -0.001205 0.000000
# 3 -0.001538 -0.004631 0.013155 0.000000 0.002056 0.000000
# 4 0.000000 0.000000 0.000000 0.069936 0.000000 -0.056525
# 5 0.009922 -0.001205 0.002056 0.000000 0.026957 0.000000
# 6 0.000000 0.000000 0.000000 -0.056525 0.000000 0.169025
#
#
# Mechanical properties :
#
#
# Convention : Reuss Voigt Hill
#
# Bulk Modulus (GPa) = 41.10932 50.27381 45.69157
# Shear Modulus (GPa) = 13.56871 24.17478 18.87175
#
# Velocity S-wave (km/s) = 2.55334 3.40816 3.01124
# Velocity P-wave (km/s) = 5.33339 6.29628 5.83474
#
# Compressibility (1/GPa) = 0.02432538
#
# Stress axis : x y z
#
# Youngs Moduli (GPa) = 39.89035 47.22947 76.01617
#
# Poissons Ratio (x) = 0.53685 0.11693
# Poissons Ratio (y) = 0.45342 0.35202
# Poissons Ratio (z) = 0.06136 0.21871
#
# Static dielectric constant tensor:
#      x y z
#    x 4.222440 0.000000 -0.020330 
#    y 0.000000 3.172220 0.000000 
#    z -0.020330 0.000000 4.080090 
# 
# 
# High freq. dielectric constant tensor:
#      x y z
#    x 1.846230 0.000000 -0.010790 
#    y 0.000000 1.748540 0.000000 
#    z -0.010790 0.000000 1.821120 
# 
# From -- ./inp_files/74871.got.cif
#   From: 2010.06.25/outbox.cif.g09.slc.cpg/sg13_38_cif.got.tgz:74871.got - 2010.06.28 04:50:58.
