data_PCOD8118990
_publ_section_title
;
Structure prediction by ZEFSAII (Michael W. Deem and Ramdas Pophale) SiO2 
 PCOD8118990
Probable space group: P 2/C
;
_chemical_formula_sum "Si O2"
_cell_formula_units_Z 18
_cell_length_a 13.483554
_cell_length_b 7.542661
_cell_length_c 19.342264
_cell_angle_alpha 90.000000
_cell_angle_beta 155.614311
_cell_angle_gamma 90.000000
_cell_volume 812.188646
_symmetry_space_group_name_H-M "P 2/C"
_symmetry_group_IT_number 13
_symmetry_cell_setting 'monoclinic'
loop_
_space_group_symop_operation_xyz
x,y,z
-x,y,1/2-z
-x,-y,-z
x,-y,1/2+z
loop_
_atom_site_type_symbol
_atom_site_label
_atom_site_fract_x
_atom_site_fract_y
_atom_site_fract_z
Si Si1 0.968219 0.174598 0.526953
Si Si2 0.870351 0.061191 0.733315
Si Si3 0.424483 0.732434 0.935944
Si Si4 0.500000 0.609452 0.750000
Si Si5 0.423076 0.421111 0.834312
O O1 0.939792 0.120277 0.588859
O O2 0.198069 0.304257 0.664164
O O3 0.718490 0.277010 0.355668
O O4 0.000000 0.000000 0.500000
O O5 0.708929 0.228334 0.606131
O O6 0.000000 0.978353 0.750000
O O7 0.714433 0.910130 0.671190
O O8 0.329526 0.582534 0.823682
O O9 0.395334 0.686052 0.999664
O O10 0.572390 0.486420 0.861714
#
# Coordination Sequence:
#
# PCOD8118990 Si02
#       5
#     4   4   4   2   4
#     4  11  25  41  60  89 127 162 201 252 306 368
#     4  10  20  36  61  88 115 155 200 245 303 362
#     4   9  20  39  60  86 119 151 196 256 303 351
#     4  12  24  40  64  88 120 164 204 246 304 370
#     4  10  22  40  61  87 120 157 202 254 305 361
#
# _framework density 22.162338999999999
#
# number of rings (size 3 to 8) (size 9 to 14) (size 15 to 20)
#    0.000    1.778    0.000    3.333    0.000    8.000 
#    0.000    2.222    0.000    0.000    0.000    0.000 
#    0.000    0.000    0.000    0.000    0.000    0.000 
#
# Total GULP energy -223043.828468 kJ/mol
# GULP energy per Si atom -12391.323804 kJ/mol
# Density = 2.211190 g / cm^3
# Si number density = 22.162339 Si / 1000 Ang^3
#
#
#
# Elastic Constant Matrix: (Units=GPa)
#
#
# Indices 1 2 3 4 5 6 
#
# 1 117.6945 32.6342 27.6555 0.0000 -15.9168 0.0000
# 2 32.6342 113.3419 33.8727 0.0000 -4.2314 0.0000
# 3 27.6555 33.8727 65.6349 0.0000 -9.1013 0.0000
# 4 0.0000 0.0000 0.0000 34.6364 0.0000 -8.9253
# 5 -15.9168 -4.2314 -9.1013 0.0000 23.3155 0.0000
# 6 0.0000 0.0000 0.0000 -8.9253 0.0000 41.2137
#
#
#
# Elastic Compliance Matrix: (Units=1/GPa)
#
#
# Indices 1 2 3 4 5 6 
#
# 1 0.010438 -0.002027 -0.002553 0.000000 0.005761 0.000000
# 2 -0.002027 0.010827 -0.004919 0.000000 -0.001339 0.000000
# 3 -0.002553 -0.004919 0.019542 0.000000 0.004993 0.000000
# 4 0.000000 0.000000 0.000000 0.030578 0.000000 0.006622
# 5 0.005761 -0.001339 0.004993 0.000000 0.048529 0.000000
# 6 0.000000 0.000000 0.000000 0.006622 0.000000 0.025698
#
#
# Mechanical properties :
#
#
# Convention : Reuss Voigt Hill
#
# Bulk Modulus (GPa) = 45.85349 53.88846 49.87098
# Shear Modulus (GPa) = 29.09031 33.33372 31.21201
#
# Velocity S-wave (km/s) = 3.62691 3.88244 3.75685
# Velocity P-wave (km/s) = 6.18660 6.66828 6.43195
#
# Compressibility (1/GPa) = 0.02180859
#
# Stress axis : x y z
#
# Youngs Moduli (GPa) = 95.80673 92.36517 51.17101
#
# Poissons Ratio (x) = 0.18725 0.13063
# Poissons Ratio (y) = 0.19423 0.25170
# Poissons Ratio (z) = 0.24458 0.45433
#
# Static dielectric constant tensor:
#      x y z
#    x 3.795650 0.000000 -0.313410 
#    y 0.000000 4.130400 0.000000 
#    z -0.313410 0.000000 3.877690 
# 
# 
# High freq. dielectric constant tensor:
#      x y z
#    x 1.862960 0.000000 -0.028700 
#    y 0.000000 1.885990 0.000000 
#    z -0.028700 0.000000 1.859400 
# 
# From -- ./inp_files/28104.got.cif
#   From: 2010.06.25/outbox.cif.g09.slc.cpg/sg13_15_cif.got.tgz:28104.got - 2010.06.28 04:50:58.
