data_PCOD8118725
_publ_section_title
;
Structure prediction by ZEFSAII (Michael W. Deem and Ramdas Pophale) SiO2 
 PCOD8118725
Probable space group: P 2/C
;
_chemical_formula_sum "Si O2"
_cell_formula_units_Z 32
_cell_length_a 12.677351
_cell_length_b 14.589569
_cell_length_c 9.174349
_cell_angle_alpha 90.000000
_cell_angle_beta 121.473985
_cell_angle_gamma 90.000000
_cell_volume 1447.214142
_symmetry_space_group_name_H-M "P 2/C"
_symmetry_group_IT_number 13
_symmetry_cell_setting 'monoclinic'
loop_
_space_group_symop_operation_xyz
x,y,z
-x,y,1/2-z
-x,-y,-z
x,-y,1/2+z
loop_
_atom_site_type_symbol
_atom_site_label
_atom_site_fract_x
_atom_site_fract_y
_atom_site_fract_z
Si Si1 0.857340 0.123126 0.942091
Si Si2 0.616407 0.245646 0.738553
Si Si3 0.452722 0.719567 0.860132
Si Si4 0.774826 0.415268 0.918940
Si Si5 0.629952 0.914808 0.783676
Si Si6 0.999396 0.299475 0.422220
Si Si7 0.217830 0.000052 0.358657
Si Si8 0.763683 0.403339 0.235890
O O1 0.723132 0.170451 0.829207
O O2 0.875102 0.051486 0.821279
O O3 0.969125 0.195780 0.005218
O O4 0.857300 0.078058 0.104590
O O5 0.500000 0.212866 0.750000
O O6 0.571008 0.251228 0.539808
O O7 0.661167 0.345350 0.822614
O O8 0.500000 0.666725 0.750000
O O9 0.377366 0.807385 0.750771
O O10 0.362349 0.652276 0.880773
O O11 0.740190 0.509644 0.818689
O O12 0.897324 0.368687 0.938515
O O13 0.805077 0.438557 0.108220
O O14 0.500000 0.955323 0.750000
O O15 0.670468 0.960764 0.660238
O O16 0.730097 0.930711 0.982732
O O17 0.000000 0.299926 0.250000
O O18 0.866382 0.335343 0.381831
#
# Coordination Sequence:
#
# PCOD8118725 Si02
#       8
#     4   4   4   4   4   4   4   4
#     4  10  21  39  65  92 127 168 212 264 312 377
#     4  11  21  39  60  91 132 174 213 250 317 380
#     4  11  24  38  60  93 132 171 203 256 314 377
#     4  10  23  40  67  94 122 161 211 263 312 375
#     4  10  20  35  55  87 125 167 213 255 302 367
#     4   9  21  42  69  90 119 165 213 255 319 378
#     4  10  21  35  61  91 125 161 215 264 316 361
#     4  11  23  43  67  92 125 163 209 261 315 380
#
# _framework density 22.111447999999999
#
# number of rings (size 3 to 8) (size 9 to 14) (size 15 to 20)
#    0.000    1.750    1.250    3.000    5.250    4.000 
#    0.000    0.625    0.000    0.000    0.000    0.000 
#    0.000    0.000    0.000    0.000    0.000    0.000 
#
# Total GULP energy -396727.583329 kJ/mol
# GULP energy per Si atom -12397.736979 kJ/mol
# Density = 2.206112 g / cm^3
# Si number density = 22.111448 Si / 1000 Ang^3
#
#
#
# Elastic Constant Matrix: (Units=GPa)
#
#
# Indices 1 2 3 4 5 6 
#
# 1 38.2571 28.7335 24.4997 0.0000 -7.2523 0.0000
# 2 28.7335 110.1964 36.7812 0.0000 -5.6738 0.0000
# 3 24.4997 36.7812 94.0440 0.0000 -21.4700 0.0000
# 4 0.0000 0.0000 0.0000 28.1599 0.0000 -0.0472
# 5 -7.2523 -5.6738 -21.4700 0.0000 27.5092 0.0000
# 6 0.0000 0.0000 0.0000 -0.0472 0.0000 22.1794
#
#
#
# Elastic Compliance Matrix: (Units=1/GPa)
#
#
# Indices 1 2 3 4 5 6 
#
# 1 0.035931 -0.007282 -0.005710 0.000000 0.003514 0.000000
# 2 -0.007282 0.011949 -0.003227 0.000000 -0.001974 0.000000
# 3 -0.005710 -0.003227 0.015681 0.000000 0.010068 0.000000
# 4 0.000000 0.000000 0.000000 0.035512 0.000000 0.000076
# 5 0.003514 -0.001974 0.010068 0.000000 0.044728 0.000000
# 6 0.000000 0.000000 0.000000 0.000076 0.000000 0.045087
#
#
# Mechanical properties :
#
#
# Convention : Reuss Voigt Hill
#
# Bulk Modulus (GPa) = 32.13030 46.94737 39.53884
# Shear Modulus (GPa) = 21.57949 25.73523 23.65736
#
# Velocity S-wave (km/s) = 3.12740 3.41528 3.27450
# Velocity P-wave (km/s) = 5.25390 6.06881 5.67600
#
# Compressibility (1/GPa) = 0.03112327
#
# Stress axis : x y z
#
# Youngs Moduli (GPa) = 27.83094 83.68950 63.76976
#
# Poissons Ratio (x) = 0.60944 0.36414
# Poissons Ratio (y) = 0.20267 0.20577
# Poissons Ratio (z) = 0.15892 0.27005
#
# Static dielectric constant tensor:
#      x y z
#    x 4.114350 0.000000 0.033040 
#    y 0.000000 3.913700 0.000000 
#    z 0.033040 0.000000 4.068970 
# 
# 
# High freq. dielectric constant tensor:
#      x y z
#    x 1.856180 0.000000 0.001720 
#    y 0.000000 1.866910 0.000000 
#    z 0.001720 0.000000 1.876070 
# 
# From -- ./inp_files/19650.got.cif
#   From: 2010.06.25/outbox.cif.g09.slc.cpg/sg13_10_cif.got.tgz:19650.got - 2010.06.28 04:50:58.
