data_PCOD8118236
_publ_section_title
;
Structure prediction by ZEFSAII (Michael W. Deem and Ramdas Pophale) SiO2 
 PCOD8118236
Probable space group: P 2/C
;
_chemical_formula_sum "Si O2"
_cell_formula_units_Z 28
_cell_length_a 26.089142
_cell_length_b 9.292207
_cell_length_c 8.680579
_cell_angle_alpha 90.000000
_cell_angle_beta 139.230309
_cell_angle_gamma 90.000000
_cell_volume 1374.212499
_symmetry_space_group_name_H-M "P 2/C"
_symmetry_group_IT_number 13
_symmetry_cell_setting 'monoclinic'
loop_
_space_group_symop_operation_xyz
x,y,z
-x,y,1/2-z
-x,-y,-z
x,-y,1/2+z
loop_
_atom_site_type_symbol
_atom_site_label
_atom_site_fract_x
_atom_site_fract_y
_atom_site_fract_z
Si Si1 0.702000 0.335354 0.982949
Si Si2 0.519955 0.650107 0.119851
Si Si3 0.846383 0.867280 0.502691
Si Si4 0.698889 0.937459 0.644351
Si Si5 0.737212 0.375140 0.709075
Si Si6 0.055802 0.933874 0.500554
Si Si7 0.622680 0.173155 0.278756
O O1 0.737027 0.182111 0.117252
O O2 0.745744 0.458798 0.181197
O O3 0.610347 0.315752 0.805805
O O4 0.713561 0.364848 0.831750
O O5 0.500000 0.632758 0.250000
O O6 0.500000 0.500000 0.000000
O O7 0.468604 0.781334 0.931873
O O8 0.818746 0.712938 0.371916
O O9 0.901285 0.940013 0.498963
O O10 0.770285 0.964467 0.364394
O O11 0.885103 0.839094 0.760608
O O12 0.656115 0.859372 0.686678
O O13 0.633376 0.034636 0.411029
O O14 0.669376 0.310675 0.448392
O O15 0.000000 0.000000 0.500000
O O16 0.000000 0.846941 0.250000
#
# Coordination Sequence:
#
# PCOD8118236 Si02
#       7
#     4   4   4   4   4   4   4
#     4  12  23  39  59  86 117 162 217 266 314 380
#     4  12  24  42  61  81 114 163 216 266 336 370
#     4  10  19  37  60  91 126 161 193 249 308 359
#     4  11  22  39  61  88 125 156 210 264 319 374
#     4  11  23  38  61  87 118 162 213 256 311 368
#     4   9  18  33  60  98 130 156 191 235 294 367
#     4  11  23  41  59  85 116 159 207 273 322 379
#
# _framework density 20.375306999999999
#
# number of rings (size 3 to 8) (size 9 to 14) (size 15 to 20)
#    0.000    1.143    2.857    6.000    0.000    0.571 
#    0.000    0.000    0.000    0.000    0.000   63.000 
#    0.000    0.000    0.000    0.000    0.000    0.000 
#
# Total GULP energy -347069.752735 kJ/mol
# GULP energy per Si atom -12395.348312 kJ/mol
# Density = 2.032893 g / cm^3
# Si number density = 20.375307 Si / 1000 Ang^3
#
#
#
# Elastic Constant Matrix: (Units=GPa)
#
#
# Indices 1 2 3 4 5 6 
#
# 1 87.1806 11.4464 25.6197 0.0000 -8.8633 0.0000
# 2 11.4464 108.2360 49.6787 0.0000 -2.2682 0.0000
# 3 25.6197 49.6787 133.9780 0.0000 -10.1633 0.0000
# 4 0.0000 0.0000 0.0000 43.6807 0.0000 -8.3953
# 5 -8.8633 -2.2682 -10.1633 0.0000 34.9711 0.0000
# 6 0.0000 0.0000 0.0000 -8.3953 0.0000 22.1833
#
#
#
# Elastic Compliance Matrix: (Units=1/GPa)
#
#
# Indices 1 2 3 4 5 6 
#
# 1 0.012372 -0.000310 -0.002060 0.000000 0.002517 0.000000
# 2 -0.000310 0.011150 -0.004117 0.000000 -0.000552 0.000000
# 3 -0.002060 -0.004117 0.009535 0.000000 0.001982 0.000000
# 4 0.000000 0.000000 0.000000 0.024689 0.000000 0.009344
# 5 0.002517 -0.000552 0.001982 0.000000 0.029773 0.000000
# 6 0.000000 0.000000 0.000000 0.009344 0.000000 0.048615
#
#
# Mechanical properties :
#
#
# Convention : Reuss Voigt Hill
#
# Bulk Modulus (GPa) = 49.79353 55.87602 52.83478
# Shear Modulus (GPa) = 32.09181 36.34367 34.21774
#
# Velocity S-wave (km/s) = 3.97298 4.22798 4.10246
# Velocity P-wave (km/s) = 6.74813 7.16362 6.95897
#
# Compressibility (1/GPa) = 0.02008293
#
# Stress axis : x y z
#
# Youngs Moduli (GPa) = 80.82500 89.68680 104.88008
#
# Poissons Ratio (x) = 0.02782 0.21605
# Poissons Ratio (y) = 0.02507 0.43178
# Poissons Ratio (z) = 0.16649 0.36923
#
# Static dielectric constant tensor:
#      x y z
#    x 3.664760 0.000000 -0.089460 
#    y 0.000000 -3.069880 0.000000 
#    z -0.089460 0.000000 4.664690 
# 
# 
# High freq. dielectric constant tensor:
#      x y z
#    x 1.798930 0.000000 -0.018850 
#    y 0.000000 1.780520 0.000000 
#    z -0.018850 0.000000 1.811590 
# 
# From -- ./inp_files/24548.got.cif
#   From: 2010.06.25/outbox.cif.g09.slc.cpg/sg13_13_cif.got.tgz:24548.got - 2010.06.28 04:50:58.
