data_PCOD8118436
_publ_section_title
;
Structure prediction by ZEFSAII (Michael W. Deem and Ramdas Pophale) SiO2 
 PCOD8118436
Probable space group: P 2/C
;
_chemical_formula_sum "Si O2"
_cell_formula_units_Z 30
_cell_length_a 10.999091
_cell_length_b 12.000892
_cell_length_c 14.085410
_cell_angle_alpha 90.000000
_cell_angle_beta 50.956303
_cell_angle_gamma 90.000000
_cell_volume 1444.022586
_symmetry_space_group_name_H-M "P 2/C"
_symmetry_group_IT_number 13
_symmetry_cell_setting 'monoclinic'
loop_
_space_group_symop_operation_xyz
x,y,z
-x,y,1/2-z
-x,-y,-z
x,-y,1/2+z
loop_
_atom_site_type_symbol
_atom_site_label
_atom_site_fract_x
_atom_site_fract_y
_atom_site_fract_z
Si Si1 0.308590 0.034480 0.206858
Si Si2 0.500000 0.442422 0.750000
Si Si3 0.942270 0.131195 0.675629
Si Si4 0.945555 0.499803 0.678503
Si Si5 0.543189 0.853667 0.488509
Si Si6 0.213814 0.400863 0.419790
Si Si7 0.298999 0.683520 0.201101
Si Si8 0.739364 0.146192 0.074468
O O1 0.327038 0.072830 0.306387
O O2 0.132087 0.992413 0.275703
O O3 0.425990 0.933441 0.117815
O O4 0.360942 0.137487 0.111712
O O5 0.638943 0.517391 0.638855
O O6 0.573156 0.358724 0.788931
O O7 0.810203 0.217300 0.702761
O O8 0.000000 0.174333 0.750000
O O9 0.077184 0.123104 0.531567
O O10 0.871631 0.587106 0.640837
O O11 0.811566 0.415189 0.779138
O O12 0.000000 0.559800 0.750000
O O13 0.086699 0.429383 0.562526
O O14 0.596557 0.728357 0.438351
O O15 0.645992 0.893605 0.528119
O O16 0.281118 0.276993 0.394459
#
# Coordination Sequence:
#
# PCOD8118436 Si02
#       8
#     4   2   4   4   4   4   4   4
#     4  10  23  39  59  97 125 157 213 269 317 370
#     4  10  24  42  58 100 138 162 212 274 314 380
#     4  11  20  41  69  93 123 168 222 260 311 392
#     4  10  19  40  66  91 126 169 215 264 307 379
#     4  10  22  42  63  93 126 164 217 258 323 390
#     4  10  23  38  65  96 128 164 217 261 320 380
#     4  10  19  40  67  90 125 172 214 250 319 383
#     4  12  21  40  69  89 127 171 214 263 324 383
#
# _framework density 20.775297999999999
#
# number of rings (size 3 to 8) (size 9 to 14) (size 15 to 20)
#    0.000    1.600    4.000    2.000    1.867    0.000 
#   16.800    2.667    0.000    0.000    0.000    0.000 
#    0.000    0.000    0.000    0.000    0.000    0.000 
#
# Total GULP energy -371736.575972 kJ/mol
# GULP energy per Si atom -12391.219199 kJ/mol
# Density = 2.072801 g / cm^3
# Si number density = 20.775298 Si / 1000 Ang^3
#
#
#
# Elastic Constant Matrix: (Units=GPa)
#
#
# Indices 1 2 3 4 5 6 
#
# 1 113.5484 48.9336 51.7729 0.0000 4.7406 0.0000
# 2 48.9336 71.7559 48.2040 0.0000 4.9050 0.0000
# 3 51.7729 48.2040 121.8805 0.0000 6.5877 0.0000
# 4 0.0000 0.0000 0.0000 41.1011 0.0000 -2.0283
# 5 4.7406 4.9050 6.5877 0.0000 29.9810 0.0000
# 6 0.0000 0.0000 0.0000 -2.0283 0.0000 26.9796
#
#
#
# Elastic Compliance Matrix: (Units=1/GPa)
#
#
# Indices 1 2 3 4 5 6 
#
# 1 0.013128 -0.007077 -0.002761 0.000000 -0.000311 0.000000
# 2 -0.007077 0.022858 -0.005963 0.000000 -0.001310 0.000000
# 3 -0.002761 -0.005963 0.011800 0.000000 -0.001181 0.000000
# 4 0.000000 0.000000 0.000000 0.024421 0.000000 0.001836
# 5 -0.000311 -0.001310 -0.001181 0.000000 0.033877 0.000000
# 6 0.000000 0.000000 0.000000 0.001836 0.000000 0.037203
#
#
# Mechanical properties :
#
#
# Convention : Reuss Voigt Hill
#
# Bulk Modulus (GPa) = 61.79037 67.22287 64.50662
# Shear Modulus (GPa) = 27.73394 30.16397 28.94896
#
# Velocity S-wave (km/s) = 3.65766 3.81453 3.73692
# Velocity P-wave (km/s) = 6.90252 7.19918 7.05241
#
# Compressibility (1/GPa) = 0.01618375
#
# Stress axis : x y z
#
# Youngs Moduli (GPa) = 76.17026 43.74884 84.74623
#
# Poissons Ratio (x) = 0.30960 0.23399
# Poissons Ratio (y) = 0.53904 0.50537
# Poissons Ratio (z) = 0.21031 0.26089
#
# Static dielectric constant tensor:
#      x y z
#    x 3.814080 0.000000 -0.174460 
#    y 0.000000 3.720660 0.000000 
#    z -0.174460 0.000000 4.075230 
# 
# 
# High freq. dielectric constant tensor:
#      x y z
#    x 1.802200 0.000000 -0.011240 
#    y 0.000000 1.794510 0.000000 
#    z -0.011240 0.000000 1.827520 
# 
# From -- ./inp_files/51158.got.cif
#   From: 2010.06.25/outbox.cif.g09.slc.cpg/sg13_26_cif.got.tgz:51158.got - 2010.06.28 04:50:58.
