data_PCOD8118936
_publ_section_title
;
Structure prediction by ZEFSAII (Michael W. Deem and Ramdas Pophale) SiO2 
 PCOD8118936
Probable space group: P 2/C
;
_chemical_formula_sum "Si O2"
_cell_formula_units_Z 28
_cell_length_a 13.393592
_cell_length_b 9.071300
_cell_length_c 12.174090
_cell_angle_alpha 90.000000
_cell_angle_beta 116.311180
_cell_angle_gamma 90.000000
_cell_volume 1325.882170
_symmetry_space_group_name_H-M "P 2/C"
_symmetry_group_IT_number 13
_symmetry_cell_setting 'monoclinic'
loop_
_space_group_symop_operation_xyz
x,y,z
-x,y,1/2-z
-x,-y,-z
x,-y,1/2+z
loop_
_atom_site_type_symbol
_atom_site_label
_atom_site_fract_x
_atom_site_fract_y
_atom_site_fract_z
Si Si1 0.263487 0.035885 0.107022
Si Si2 0.500000 0.608299 0.750000
Si Si3 0.603940 0.636944 0.174826
Si Si4 0.895329 0.786334 0.552609
Si Si5 0.693757 0.692583 0.982034
Si Si6 0.187952 0.479558 0.603738
Si Si7 0.856683 0.764890 0.783296
Si Si8 0.500000 0.887025 0.250000
O O1 0.250259 0.145212 0.994514
O O2 0.234301 0.129357 0.203367
O O3 0.391146 0.982702 0.171199
O O4 0.174675 0.906509 0.048807
O O5 0.470999 0.507532 0.842156
O O6 0.602184 0.707119 0.839137
O O7 0.709689 0.622549 0.306517
O O8 0.531079 0.782223 0.162694
O O9 0.642506 0.647393 0.070444
O O10 0.903404 0.637504 0.482209
O O11 0.836581 0.761066 0.642464
O O12 0.022723 0.834874 0.630615
O O13 0.781268 0.568003 0.991682
O O14 0.149544 0.594287 0.678792
#
# Coordination Sequence:
#
# PCOD8118936 Si02
#       8
#     4   2   4   4   4   4   4   2
#     4  11  24  41  59  90 131 164 206 254 306 375
#     4   9  19  36  54  84 122 162 208 262 296 352
#     4  10  20  36  59  87 121 162 208 251 304 367
#     4  11  22  42  68  92 124 166 205 261 321 364
#     4  10  21  36  57  87 119 165 208 248 306 368
#     4  10  20  40  63  91 124 152 204 267 308 367
#     4  10  24  42  66  95 123 162 212 258 314 374
#     4  11  23  40  56  88 126 164 206 248 304 372
#
# _framework density 21.118016000000001
#
# number of rings (size 3 to 8) (size 9 to 14) (size 15 to 20)
#    0.000    1.714    1.429    2.571    2.000    0.571 
#    7.714    0.000    0.000    6.857    0.000    0.000 
#    0.000    0.000    0.000    0.000    0.000    0.000 
#
# Total GULP energy -347040.900503 kJ/mol
# GULP energy per Si atom -12394.317875 kJ/mol
# Density = 2.106995 g / cm^3
# Si number density = 21.118016 Si / 1000 Ang^3
#
#
#
# Elastic Constant Matrix: (Units=GPa)
#
#
# Indices 1 2 3 4 5 6 
#
# 1 78.9818 27.9935 12.8075 0.0000 -6.7455 0.0000
# 2 27.9935 110.2807 36.5437 0.0000 -3.9470 0.0000
# 3 12.8075 36.5437 45.5259 0.0000 -15.5224 0.0000
# 4 0.0000 0.0000 0.0000 12.8168 0.0000 4.4849
# 5 -6.7455 -3.9470 -15.5224 0.0000 46.7781 0.0000
# 6 0.0000 0.0000 0.0000 4.4849 0.0000 -2.6739
#
#
#
# Elastic Compliance Matrix: (Units=1/GPa)
#
#
# Indices 1 2 3 4 5 6 
#
# 1 0.014073 -0.003234 -0.000862 0.000000 0.001471 0.000000
# 2 -0.003234 0.013369 -0.010820 0.000000 -0.002929 0.000000
# 3 -0.000862 -0.010820 0.034436 0.000000 0.010390 0.000000
# 4 0.000000 0.000000 0.000000 0.049166 0.000000 0.082466
# 5 0.001471 -0.002929 0.010390 0.000000 0.024790 0.000000
# 6 0.000000 0.000000 0.000000 0.082466 0.000000 -0.235667
#
#
# Mechanical properties :
#
#
# Convention : Reuss Voigt Hill
#
# Bulk Modulus (GPa) = 31.20533 43.27530 37.24032
# Shear Modulus (GPa) = -84.28926 21.88045 -31.20441
#
# Velocity S-wave (km/s) = -6.32456 3.22235 -3.84815
# Velocity P-wave (km/s) = 6.20683 5.86356 1.43934
#
# Compressibility (1/GPa) = 0.03204581
#
# Stress axis : x y z
#
# Youngs Moduli (GPa) = 71.05962 74.79753 29.03946
#
# Poissons Ratio (x) = 0.24190 0.02502
# Poissons Ratio (y) = 0.22981 0.31422
# Poissons Ratio (z) = 0.06123 0.80934
#
# Static dielectric constant tensor:
#      x y z
#    x 4.067170 0.000000 -0.095630 
#    y 0.000000 3.912270 0.000000 
#    z -0.095630 0.000000 3.524320 
# 
# 
# High freq. dielectric constant tensor:
#      x y z
#    x 1.835140 0.000000 -0.004740 
#    y 0.000000 1.838150 0.000000 
#    z -0.004740 0.000000 1.804910 
# 
# From -- ./inp_files/36264.got.cif
#   From: 2010.06.25/outbox.cif.g09.slc.cpg/sg13_19_cif.got.tgz:36264.got - 2010.06.28 04:50:58.
