data_PCOD8118527
_publ_section_title
;
Structure prediction by ZEFSAII (Michael W. Deem and Ramdas Pophale) SiO2 
 PCOD8118527
Probable space group: P 2/C
;
_chemical_formula_sum "Si O2"
_cell_formula_units_Z 28
_cell_length_a 32.453211
_cell_length_b 8.076122
_cell_length_c 31.974503
_cell_angle_alpha 90.000000
_cell_angle_beta 171.246206
_cell_angle_gamma 90.000000
_cell_volume 1275.402118
_symmetry_space_group_name_H-M "P 2/C"
_symmetry_group_IT_number 13
_symmetry_cell_setting 'monoclinic'
loop_
_space_group_symop_operation_xyz
x,y,z
-x,y,1/2-z
-x,-y,-z
x,-y,1/2+z
loop_
_atom_site_type_symbol
_atom_site_label
_atom_site_fract_x
_atom_site_fract_y
_atom_site_fract_z
Si Si1 0.753832 0.995172 0.283865
Si Si2 0.093392 0.763621 0.992673
Si Si3 0.416831 0.091228 0.556473
Si Si4 0.833526 0.570062 0.205740
Si Si5 0.337330 0.770124 0.732244
Si Si6 0.767024 0.392827 0.545538
Si Si7 0.764062 0.017367 0.541064
O O1 0.772106 0.824102 0.328825
O O2 0.731487 0.156219 0.291307
O O3 0.000000 0.000000 0.500000
O O4 0.500000 0.000000 0.000000
O O5 0.839797 0.887276 0.731460
O O6 0.969942 0.580554 0.868303
O O7 0.339604 0.776614 0.205920
O O8 0.541624 0.909653 0.676582
O O9 0.293772 0.107963 0.479176
O O10 0.755046 0.517616 0.079224
O O11 0.058540 0.713283 0.431395
O O12 0.563005 0.624112 0.959749
O O13 0.842581 0.203379 0.633553
O O14 0.000000 0.470291 0.750000
O O15 0.500000 0.415072 0.250000
O O16 0.000000 0.935578 0.750000
O O17 0.500000 0.035639 0.250000
#
# Coordination Sequence:
#
# PCOD8118527 Si02
#       7
#     4   4   4   4   4   4   4
#     4  11  23  44  68  95 128 167 211 261 330 406
#     4  11  25  41  66  94 132 167 207 267 334 385
#     4  11  21  41  62  92 123 169 216 259 315 387
#     4  12  23  42  64  99 130 167 221 269 312 387
#     4  11  23  39  70  94 123 170 219 257 313 392
#     4  10  21  35  58  91 124 166 210 262 311 359
#     4  10  20  32  57  91 118 153 213 273 304 352
#
# _framework density 21.953861
#
# number of rings (size 3 to 8) (size 9 to 14) (size 15 to 20)
#    0.000    1.143    1.429    6.857    4.000    0.000 
#    0.000    7.143    0.000    0.000    0.000    0.000 
#    0.000    0.000    0.000    0.000    0.000    0.000 
#
# Total GULP energy -347091.187563 kJ/mol
# GULP energy per Si atom -12396.113842 kJ/mol
# Density = 2.190389 g / cm^3
# Si number density = 21.953861 Si / 1000 Ang^3
#
#
#
# Elastic Constant Matrix: (Units=GPa)
#
#
# Indices 1 2 3 4 5 6 
#
# 1 141.5254 50.9031 64.1538 0.0000 14.0169 0.0000
# 2 50.9031 59.8673 23.2349 0.0000 -2.4614 0.0000
# 3 64.1538 23.2349 147.0138 0.0000 6.4620 0.0000
# 4 0.0000 0.0000 0.0000 39.2817 0.0000 -0.1940
# 5 14.0169 -2.4614 6.4620 0.0000 52.5753 0.0000
# 6 0.0000 0.0000 0.0000 -0.1940 0.0000 19.7727
#
#
#
# Elastic Compliance Matrix: (Units=1/GPa)
#
#
# Indices 1 2 3 4 5 6 
#
# 1 0.012447 -0.009232 -0.003828 0.000000 -0.003280 0.000000
# 2 -0.009232 0.024717 -0.000037 0.000000 0.003623 0.000000
# 3 -0.003828 -0.000037 0.008479 0.000000 -0.000023 0.000000
# 4 0.000000 0.000000 0.000000 0.025458 0.000000 0.000250
# 5 -0.003280 0.003623 -0.000023 0.000000 0.020067 0.000000
# 6 0.000000 0.000000 0.000000 0.000250 0.000000 0.050577
#
#
# Mechanical properties :
#
#
# Convention : Reuss Voigt Hill
#
# Bulk Modulus (GPa) = 51.41819 69.44334 60.43076
# Shear Modulus (GPa) = 28.66603 36.33358 32.49981
#
# Velocity S-wave (km/s) = 3.61742 4.07258 3.85173
# Velocity P-wave (km/s) = 6.39684 7.33585 6.88238
#
# Compressibility (1/GPa) = 0.01944837
#
# Stress axis : x y z
#
# Youngs Moduli (GPa) = 80.34347 40.45873 117.93171
#
# Poissons Ratio (x) = 0.37351 0.45146
# Poissons Ratio (y) = 0.74173 0.00436
# Poissons Ratio (z) = 0.30757 0.00149
#
# Static dielectric constant tensor:
#      x y z
#    x 4.035270 0.000000 0.186700 
#    y 0.000000 3.761300 0.000000 
#    z 0.186700 0.000000 4.290670 
# 
# 
# High freq. dielectric constant tensor:
#      x y z
#    x 1.854580 0.000000 0.008870 
#    y 0.000000 1.834520 0.000000 
#    z 0.008870 0.000000 1.894940 
# 
# From -- ./inp_files/98092.got.cif
#   From: 2010.06.25/outbox.cif.g09.slc.cpg/sg13_50_cif.got.tgz:98092.got - 2010.06.28 04:50:58.
