data_PCOD8118738
_publ_section_title
;
Structure prediction by ZEFSAII (Michael W. Deem and Ramdas Pophale) SiO2 
 PCOD8118738
Probable space group: P 2/C
;
_chemical_formula_sum "Si O2"
_cell_formula_units_Z 22
_cell_length_a 9.503711
_cell_length_b 21.403171
_cell_length_c 5.163588
_cell_angle_alpha 90.000000
_cell_angle_beta 80.631571
_cell_angle_gamma 90.000000
_cell_volume 1036.313918
_symmetry_space_group_name_H-M "P 2/C"
_symmetry_group_IT_number 13
_symmetry_cell_setting 'monoclinic'
loop_
_space_group_symop_operation_xyz
x,y,z
-x,y,1/2-z
-x,-y,-z
x,-y,1/2+z
loop_
_atom_site_type_symbol
_atom_site_label
_atom_site_fract_x
_atom_site_fract_y
_atom_site_fract_z
Si Si1 0.000000 0.748439 0.750000
Si Si2 0.652646 0.238159 0.792864
Si Si3 0.336366 0.460648 0.793466
Si Si4 0.333731 0.038641 0.304889
Si Si5 0.147606 0.342527 0.838090
Si Si6 0.749158 0.825433 0.738846
O O1 0.901901 0.794794 0.605451
O O2 0.112279 0.701991 0.586548
O O3 0.500000 0.264060 0.750000
O O4 0.746330 0.298287 0.857997
O O5 0.715752 0.196047 0.541454
O O6 0.634900 0.195835 0.054949
O O7 0.500000 0.437585 0.750000
O O8 0.304961 0.486292 0.515985
O O9 0.230510 0.404568 0.895641
O O10 0.500000 0.056880 0.250000
O O11 0.240667 0.099940 0.273811
O O12 0.294493 0.012026 0.598114
O O13 0.000000 0.362263 0.750000
#
# Coordination Sequence:
#
# PCOD8118738 Si02
#       6
#     2   4   4   4   4   4
#     4  10  24  42  60  92 126 166 204 254 306 376
#     4  11  22  37  62  91 118 159 208 257 312 364
#     4  10  24  44  66  93 125 163 206 254 303 358
#     4  10  20  35  56  84 116 153 201 254 304 359
#     4  11  23  41  63  90 128 162 205 252 308 363
#     4  11  22  39  61  86 125 160 201 256 311 368
#
# _framework density 21.229088000000001
#
# number of rings (size 3 to 8) (size 9 to 14) (size 15 to 20)
#    0.000    1.455    1.818    3.273    2.545    2.182 
#    0.000    4.545    0.000    0.000    0.000    0.000 
#    0.000    0.000    0.000    0.000    0.000    0.000 
#
# Total GULP energy -272662.288572 kJ/mol
# GULP energy per Si atom -12393.740390 kJ/mol
# Density = 2.118077 g / cm^3
# Si number density = 21.229088 Si / 1000 Ang^3
#
#
#
# Elastic Constant Matrix: (Units=GPa)
#
#
# Indices 1 2 3 4 5 6 
#
# 1 107.1820 71.4017 20.6827 0.0000 2.4637 0.0000
# 2 71.4017 137.4507 26.1403 0.0000 -1.4483 0.0000
# 3 20.6827 26.1403 85.0477 0.0000 13.0491 0.0000
# 4 0.0000 0.0000 0.0000 21.0399 0.0000 -29.9912
# 5 2.4637 -1.4483 13.0491 0.0000 26.9066 0.0000
# 6 0.0000 0.0000 0.0000 -29.9912 0.0000 -161.8900
#
#
#
# Elastic Compliance Matrix: (Units=1/GPa)
#
#
# Indices 1 2 3 4 5 6 
#
# 1 0.014431 -0.007303 -0.001082 0.000000 -0.001190 0.000000
# 2 -0.007303 0.011495 -0.002112 0.000000 0.002312 0.000000
# 3 -0.001082 -0.002112 0.013691 0.000000 -0.006655 0.000000
# 4 0.000000 0.000000 0.000000 0.037600 0.000000 -0.006966
# 5 -0.001190 0.002312 -0.006655 0.000000 0.040626 0.000000
# 6 0.000000 0.000000 0.000000 -0.006966 0.000000 -0.004887
#
#
# Mechanical properties :
#
#
# Convention : Reuss Voigt Hill
#
# Bulk Modulus (GPa) = 53.69642 62.90329 58.29985
# Shear Modulus (GPa) = 35.67351 -8.69165 13.49093
#
# Velocity S-wave (km/s) = 4.10372 -2.02561 2.52363
# Velocity P-wave (km/s) = 6.91396 4.92181 6.00112
#
# Compressibility (1/GPa) = 0.01862322
#
# Stress axis : x y z
#
# Youngs Moduli (GPa) = 69.29303 86.99258 73.03859
#
# Poissons Ratio (x) = 0.63535 0.07905
# Poissons Ratio (y) = 0.50608 0.15424
# Poissons Ratio (z) = 0.07499 0.18371
#
# Static dielectric constant tensor:
#      x y z
#    x 4.155150 0.000000 -0.109030 
#    y 0.000000 3.675350 0.000000 
#    z -0.109030 0.000000 3.793830 
# 
# 
# High freq. dielectric constant tensor:
#      x y z
#    x 1.831240 0.000000 0.007810 
#    y 0.000000 1.831510 0.000000 
#    z 0.007810 0.000000 1.826190 
# 
# From -- ./inp_files/2104.got.cif
#   From: 2010.06.25/outbox.cif.g09.slc.cpg/sg13_2_cif.got.tgz:2104.got - 2010.06.28 04:50:58.
