data_PCOD8118438
_publ_section_title
;
Structure prediction by ZEFSAII (Michael W. Deem and Ramdas Pophale) SiO2 
 PCOD8118438
Probable space group: P 2/C
;
_chemical_formula_sum "Si O2"
_cell_formula_units_Z 20
_cell_length_a 7.244426
_cell_length_b 12.349886
_cell_length_c 11.532857
_cell_angle_alpha 90.000000
_cell_angle_beta 48.518145
_cell_angle_gamma 90.000000
_cell_volume 773.003788
_symmetry_space_group_name_H-M "P 2/C"
_symmetry_group_IT_number 13
_symmetry_cell_setting 'monoclinic'
loop_
_space_group_symop_operation_xyz
x,y,z
-x,y,1/2-z
-x,-y,-z
x,-y,1/2+z
loop_
_atom_site_type_symbol
_atom_site_label
_atom_site_fract_x
_atom_site_fract_y
_atom_site_fract_z
Si Si1 0.739623 0.869588 0.072225
Si Si2 0.169256 0.909005 0.068898
Si Si3 0.948322 0.339321 0.416792
Si Si4 0.543530 0.268188 0.366279
Si Si5 0.147209 0.419793 0.579442
O O1 0.500000 0.882803 0.250000
O O2 0.002164 0.871346 0.029879
O O3 0.732993 0.752893 0.009272
O O4 0.738231 0.967975 0.982327
O O5 0.000000 0.897788 0.250000
O O6 0.416089 0.835855 0.981314
O O7 0.163878 0.290831 0.241760
O O8 0.031832 0.367625 0.512169
O O9 0.841951 0.451259 0.413556
O O10 0.500000 0.248997 0.250000
O O11 0.426241 0.378176 0.465668
O O12 0.000000 0.370889 0.750000
#
# Coordination Sequence:
#
# PCOD8118438 Si02
#       5
#     4   4   4   4   4
#     4  11  25  43  66  95 132 168 214 276 315 379
#     4  11  24  44  68  95 126 174 221 256 329 389
#     4  10  23  41  63  93 133 167 213 269 322 376
#     4  10  19  40  67  86 125 175 208 260 322 381
#     4  10  21  39  62  94 124 171 216 261 318 384
#
# _framework density 25.873096
#
# number of rings (size 3 to 8) (size 9 to 14) (size 15 to 20)
#    0.000    1.600    4.000    1.200    2.800    6.400 
#    3.600    0.000    0.000    0.000    0.000    0.000 
#    0.000    0.000    0.000    0.000    0.000    0.000 
#
# Total GULP energy -247967.331217 kJ/mol
# GULP energy per Si atom -12398.366561 kJ/mol
# Density = 2.581421 g / cm^3
# Si number density = 25.873096 Si / 1000 Ang^3
#
#
#
# Elastic Constant Matrix: (Units=GPa)
#
#
# Indices 1 2 3 4 5 6 
#
# 1 63.4043 41.0778 30.3919 0.0000 -23.3394 0.0000
# 2 41.0778 229.6803 85.2844 0.0000 -15.9437 0.0000
# 3 30.3919 85.2844 184.9371 0.0000 -1.7124 0.0000
# 4 0.0000 0.0000 0.0000 50.9068 0.0000 -3.4817
# 5 -23.3394 -15.9437 -1.7124 0.0000 34.7288 0.0000
# 6 0.0000 0.0000 0.0000 -3.4817 0.0000 26.9303
#
#
#
# Elastic Compliance Matrix: (Units=1/GPa)
#
#
# Indices 1 2 3 4 5 6 
#
# 1 0.024084 -0.002228 -0.002791 0.000000 0.015025 0.000000
# 2 -0.002228 0.005649 -0.002230 0.000000 0.000986 0.000000
# 3 -0.002791 -0.002230 0.006870 0.000000 -0.002561 0.000000
# 4 0.000000 0.000000 0.000000 0.019819 0.000000 0.002562
# 5 0.015025 0.000986 -0.002561 0.000000 0.039219 0.000000
# 6 0.000000 0.000000 0.000000 0.002562 0.000000 0.037464
#
#
# Mechanical properties :
#
#
# Convention : Reuss Voigt Hill
#
# Bulk Modulus (GPa) = 45.23794 87.94777 66.59286
# Shear Modulus (GPa) = 32.26407 43.93103 38.09755
#
# Velocity S-wave (km/s) = 3.53514 4.12508 3.84145
# Velocity P-wave (km/s) = 5.84683 7.53354 6.74313
#
# Compressibility (1/GPa) = 0.02210534
#
# Stress axis : x y z
#
# Youngs Moduli (GPa) = 41.52137 177.03204 145.55039
#
# Poissons Ratio (x) = 0.39441 0.40628
# Poissons Ratio (y) = 0.09250 0.32453
# Poissons Ratio (z) = 0.11590 0.39472
#
# Static dielectric constant tensor:
#      x y z
#    x 4.938490 0.000000 -0.024480 
#    y 0.000000 4.866890 0.000000 
#    z -0.024480 0.000000 4.937650 
# 
# 
# High freq. dielectric constant tensor:
#      x y z
#    x 2.044650 0.000000 0.011630 
#    y 0.000000 2.049610 0.000000 
#    z 0.011630 0.000000 2.053510 
# 
# From -- ./inp_files/51048.got.cif
#   From: 2010.06.25/outbox.cif.g09.slc.cpg/sg13_26_cif.got.tgz:51048.got - 2010.06.28 04:50:58.
