data_PCOD8118137
_publ_section_title
;
Structure prediction by ZEFSAII (Michael W. Deem and Ramdas Pophale) SiO2 
 PCOD8118137
Probable space group: P 2/C
;
_chemical_formula_sum "Si O2"
_cell_formula_units_Z 24
_cell_length_a 26.399492
_cell_length_b 6.799685
_cell_length_c 18.116544
_cell_angle_alpha 90.000000
_cell_angle_beta 22.592057
_cell_angle_gamma 90.000000
_cell_volume 1249.338575
_symmetry_space_group_name_H-M "P 2/C"
_symmetry_group_IT_number 13
_symmetry_cell_setting 'monoclinic'
loop_
_space_group_symop_operation_xyz
x,y,z
-x,y,1/2-z
-x,-y,-z
x,-y,1/2+z
loop_
_atom_site_type_symbol
_atom_site_label
_atom_site_fract_x
_atom_site_fract_y
_atom_site_fract_z
Si Si1 0.634855 0.879245 0.817892
Si Si2 0.804821 0.497161 0.825029
Si Si3 0.020862 0.782035 0.500913
Si Si4 0.767341 0.266736 0.660284
Si Si5 0.305505 0.535438 0.867605
Si Si6 0.600934 0.454292 0.476143
O O1 0.659747 0.749759 0.711473
O O2 0.651053 0.744148 0.868823
O O3 0.749077 0.040528 0.663773
O O4 0.500000 0.000000 0.000000
O O5 0.905812 0.329009 0.663916
O O6 0.667671 0.511150 0.965351
O O7 0.875485 0.705046 0.715975
O O8 0.774838 0.445203 0.949380
O O9 0.103893 0.736509 0.462709
O O10 0.000000 0.000000 0.500000
O O11 0.786097 0.402907 0.562826
O O12 0.638341 0.356959 0.875283
O O13 0.444875 0.429455 0.695270
#
# Coordination Sequence:
#
# PCOD8118137 Si02
#       6
#     4   4   4   4   4   4
#     4  11  18  34  59  88 117 150 186 227 291 355
#     4  10  23  39  59  82 116 153 195 242 291 346
#     4  10  22  43  60  78 111 160 204 237 288 347
#     4  10  20  36  60  84 116 152 192 235 287 350
#     4  11  21  35  58  91 118 146 189 242 295 347
#     4  10  19  36  59  85 117 153 181 232 298 354
#
# _framework density 19.210165
#
# number of rings (size 3 to 8) (size 9 to 14) (size 15 to 20)
#    0.000    1.667    3.333    2.500    0.000    3.333 
#    0.000    0.000    0.000    0.000    0.000    0.000 
#    0.000    0.000    0.000    0.000    0.000    0.000 
#
# Total GULP energy -297520.439356 kJ/mol
# GULP energy per Si atom -12396.684973 kJ/mol
# Density = 1.916644 g / cm^3
# Si number density = 19.210165 Si / 1000 Ang^3
#
#
#
# Elastic Constant Matrix: (Units=GPa)
#
#
# Indices 1 2 3 4 5 6 
#
# 1 122.7241 50.4346 57.1778 0.0000 24.2007 0.0000
# 2 50.4346 135.7559 34.6186 0.0000 11.4230 0.0000
# 3 57.1778 34.6186 74.3283 0.0000 13.5005 0.0000
# 4 0.0000 0.0000 0.0000 16.5465 0.0000 -6.8541
# 5 24.2007 11.4230 13.5005 0.0000 30.1082 0.0000
# 6 0.0000 0.0000 0.0000 -6.8541 0.0000 29.9337
#
#
#
# Elastic Compliance Matrix: (Units=1/GPa)
#
#
# Indices 1 2 3 4 5 6 
#
# 1 0.014698 -0.002630 -0.008837 0.000000 -0.006854 0.000000
# 2 -0.002630 0.008897 -0.002059 0.000000 -0.000338 0.000000
# 3 -0.008837 -0.002059 0.021532 0.000000 -0.001771 0.000000
# 4 0.000000 0.000000 0.000000 0.066769 0.000000 0.015288
# 5 -0.006854 -0.000338 -0.001771 0.000000 0.039645 0.000000
# 6 0.000000 0.000000 0.000000 0.015288 0.000000 0.036908
#
#
# Mechanical properties :
#
#
# Convention : Reuss Voigt Hill
#
# Bulk Modulus (GPa) = 55.32450 68.58560 61.95505
# Shear Modulus (GPa) = 22.57087 28.02285 25.29686
#
# Velocity S-wave (km/s) = 3.43146 3.82350 3.63278
# Velocity P-wave (km/s) = 6.67548 7.43455 7.06522
#
# Compressibility (1/GPa) = 0.01807517
#
# Stress axis : x y z
#
# Youngs Moduli (GPa) = 68.03726 112.39959 46.44246
#
# Poissons Ratio (x) = 0.29565 0.41039
# Poissons Ratio (y) = 0.17896 0.09562
# Poissons Ratio (z) = 0.60121 0.23142
#
# Static dielectric constant tensor:
#      x y z
#    x 3.624770 0.000000 -0.169930 
#    y 0.000000 3.745800 0.000000 
#    z -0.169930 0.000000 3.333710 
# 
# 
# High freq. dielectric constant tensor:
#      x y z
#    x 1.752410 0.000000 -0.012050 
#    y 0.000000 1.753170 0.000000 
#    z -0.012050 0.000000 1.730750 
# 
# From -- ./inp_files/82646.got.cif
#   From: 2010.06.25/outbox.cif.g09.slc.cpg/sg13_42_cif.got.tgz:82646.got - 2010.06.28 04:50:58.
