data_PCOD8118912
_publ_section_title
;
Structure prediction by ZEFSAII (Michael W. Deem and Ramdas Pophale) SiO2 
 PCOD8118912
Probable space group: P 2/C
;
_chemical_formula_sum "Si O2"
_cell_formula_units_Z 32
_cell_length_a 11.652586
_cell_length_b 12.023220
_cell_length_c 11.916774
_cell_angle_alpha 90.000000
_cell_angle_beta 68.146379
_cell_angle_gamma 90.000000
_cell_volume 1549.581088
_symmetry_space_group_name_H-M "P 2/C"
_symmetry_group_IT_number 13
_symmetry_cell_setting 'monoclinic'
loop_
_space_group_symop_operation_xyz
x,y,z
-x,y,1/2-z
-x,-y,-z
x,-y,1/2+z
loop_
_atom_site_type_symbol
_atom_site_label
_atom_site_fract_x
_atom_site_fract_y
_atom_site_fract_z
Si Si1 0.119940 0.169574 0.143785
Si Si2 0.243230 0.814697 0.916163
Si Si3 0.642533 0.714653 0.981131
Si Si4 0.355014 0.373933 0.784847
Si Si5 0.977120 0.123836 0.548600
Si Si6 0.782981 0.985484 0.249005
Si Si7 0.632213 0.618500 0.758683
Si Si8 0.382090 0.190995 0.596889
O O1 0.246245 0.230097 0.128609
O O2 0.000000 0.219548 0.250000
O O3 0.145116 0.043069 0.173973
O O4 0.097879 0.185081 0.021357
O O5 0.272756 0.710264 0.825308
O O6 0.249413 0.928513 0.839967
O O7 0.105291 0.809278 0.021577
O O8 0.338812 0.810646 0.983839
O O9 0.601277 0.624273 0.903805
O O10 0.698275 0.667470 0.076672
O O11 0.531074 0.801278 0.045460
O O12 0.500000 0.381286 0.750000
O O13 0.304414 0.498002 0.781836
O O14 0.324405 0.293335 0.690729
O O15 0.880222 0.114473 0.685561
O O16 0.000000 0.000000 0.500000
O O17 0.656006 0.926302 0.332824
O O18 0.500000 0.632719 0.750000
#
# Coordination Sequence:
#
# PCOD8118912 Si02
#       8
#     4   4   4   4   4   4   4   4
#     4  12  21  38  62  85 121 170 216 247 298 379
#     4  11  22  38  63  97 125 166 209 267 308 367
#     4  11  23  42  63  95 127 161 201 267 321 367
#     4   9  23  40  65  92 122 169 206 254 313 383
#     4  10  20  36  58  85 117 165 218 249 290 360
#     4  11  22  38  61  93 124 174 212 248 310 377
#     4  11  21  40  66  95 125 161 213 254 319 382
#     4  11  24  40  62  96 133 158 207 261 326 367
#
# _framework density 20.650742999999999
#
# number of rings (size 3 to 8) (size 9 to 14) (size 15 to 20)
#    0.000    1.250    5.000    2.250    1.750    2.000 
#    0.000    5.625    0.000    6.750    0.000    0.000 
#    0.000    0.000    0.000    0.000    0.000    0.000 
#
# Total GULP energy -396433.918943 kJ/mol
# GULP energy per Si atom -12388.559967 kJ/mol
# Density = 2.060374 g / cm^3
# Si number density = 20.650743 Si / 1000 Ang^3
#
#
#
# Elastic Constant Matrix: (Units=GPa)
#
#
# Indices 1 2 3 4 5 6 
#
# 1 83.5436 37.6242 39.5518 0.0000 -15.0354 0.0000
# 2 37.6242 82.7454 44.6956 0.0000 -12.7375 0.0000
# 3 39.5518 44.6956 97.2479 0.0000 -10.9273 0.0000
# 4 0.0000 0.0000 0.0000 19.2335 0.0000 -3.6243
# 5 -15.0354 -12.7375 -10.9273 0.0000 31.6422 0.0000
# 6 0.0000 0.0000 0.0000 -3.6243 0.0000 20.1631
#
#
#
# Elastic Compliance Matrix: (Units=1/GPa)
#
#
# Indices 1 2 3 4 5 6 
#
# 1 0.016918 -0.004706 -0.004190 0.000000 0.004698 0.000000
# 2 -0.004706 0.017908 -0.005990 0.000000 0.002904 0.000000
# 3 -0.004190 -0.005990 0.014821 0.000000 0.000716 0.000000
# 4 0.000000 0.000000 0.000000 0.053815 0.000000 0.009673
# 5 0.004698 0.002904 0.000716 0.000000 0.035252 0.000000
# 6 0.000000 0.000000 0.000000 0.009673 0.000000 0.051334
#
#
# Mechanical properties :
#
#
# Convention : Reuss Voigt Hill
#
# Bulk Modulus (GPa) = 50.31710 56.36442 53.34076
# Shear Modulus (GPa) = 22.08034 23.65212 22.86623
#
# Velocity S-wave (km/s) = 3.27345 3.38796 3.33120
# Velocity P-wave (km/s) = 6.22141 6.53129 6.37823
#
# Compressibility (1/GPa) = 0.01987396
#
# Stress axis : x y z
#
# Youngs Moduli (GPa) = 59.10716 55.84141 67.47346
#
# Poissons Ratio (x) = 0.26281 0.28271
# Poissons Ratio (y) = 0.27818 0.40417
# Poissons Ratio (z) = 0.24766 0.33450
#
# Static dielectric constant tensor:
#      x y z
#    x 3.650150 0.000000 0.073470 
#    y 0.000000 3.700610 0.000000 
#    z 0.073470 0.000000 4.124880 
# 
# 
# High freq. dielectric constant tensor:
#      x y z
#    x 1.799450 0.000000 0.006510 
#    y 0.000000 1.776280 0.000000 
#    z 0.006510 0.000000 1.827610 
# 
# From -- ./inp_files/34149.got.cif
#   From: 2010.06.25/outbox.cif.g09.slc.cpg/sg13_18_cif.got.tgz:34149.got - 2010.06.28 04:50:58.
