data_PCOD8118561
_publ_section_title
;
Structure prediction by ZEFSAII (Michael W. Deem and Ramdas Pophale) SiO2 
 PCOD8118561
Probable space group: P 2/C
;
_chemical_formula_sum "Si O2"
_cell_formula_units_Z 28
_cell_length_a 14.659159
_cell_length_b 10.146751
_cell_length_c 9.322587
_cell_angle_alpha 90.000000
_cell_angle_beta 107.711057
_cell_angle_gamma 90.000000
_cell_volume 1320.943837
_symmetry_space_group_name_H-M "P 2/C"
_symmetry_group_IT_number 13
_symmetry_cell_setting 'monoclinic'
loop_
_space_group_symop_operation_xyz
x,y,z
-x,y,1/2-z
-x,-y,-z
x,-y,1/2+z
loop_
_atom_site_type_symbol
_atom_site_label
_atom_site_fract_x
_atom_site_fract_y
_atom_site_fract_z
Si Si1 0.136047 0.552833 0.933927
Si Si2 0.207374 0.979052 0.411599
Si Si3 0.545636 0.819475 0.627441
Si Si4 0.932220 0.363871 0.395776
Si Si5 0.910404 0.065976 0.384216
Si Si6 0.695891 0.247496 0.984492
Si Si7 0.383329 0.889368 0.332227
O O1 0.111554 0.549492 0.754949
O O2 0.237799 0.624748 0.015178
O O3 0.045782 0.614900 0.978566
O O4 0.133852 0.402754 0.997355
O O5 0.114346 0.976267 0.264626
O O6 0.234753 0.131015 0.436909
O O7 0.181287 0.926514 0.555216
O O8 0.289378 0.887395 0.385864
O O9 0.500000 0.754097 0.750000
O O10 0.626752 0.728240 0.590206
O O11 0.467128 0.829344 0.466251
O O12 0.589041 0.960934 0.698313
O O13 0.927493 0.213951 0.344428
O O14 0.000000 0.000000 0.500000
O O15 0.633642 0.200949 0.816419
#
# Coordination Sequence:
#
# PCOD8118561 Si02
#       7
#     4   4   4   4   4   4   4
#     4  10  22  42  64  86 120 173 220 270 300 377
#     4  11  22  35  56  89 128 166 204 255 326 394
#     4  10  20  33  55  88 131 164 202 265 328 397
#     4  10  23  42  63  87 127 170 225 262 318 369
#     4  12  24  39  58  92 131 172 206 268 331 384
#     4  11  20  36  59  86 125 163 207 260 323 380
#     4  10  20  33  54  88 130 168 209 251 331 406
#
# _framework density 21.196964999999999
#
# number of rings (size 3 to 8) (size 9 to 14) (size 15 to 20)
#    0.000    1.429    2.857    4.286    4.000    1.143 
#    7.714    0.000    0.000    0.000    0.000   14.000 
#    0.000    0.000    0.000    0.000    0.000    0.000 
#
# Total GULP energy -346989.398348 kJ/mol
# GULP energy per Si atom -12392.478512 kJ/mol
# Density = 2.114872 g / cm^3
# Si number density = 21.196965 Si / 1000 Ang^3
#
#
#
# Elastic Constant Matrix: (Units=GPa)
#
#
# Indices 1 2 3 4 5 6 
#
# 1 106.4921 28.2276 31.3269 0.0000 -11.4672 0.0000
# 2 28.2276 41.4464 14.4381 0.0000 -2.6818 0.0000
# 3 31.3269 14.4381 96.5794 0.0000 -2.2555 0.0000
# 4 0.0000 0.0000 0.0000 18.9630 0.0000 1.4501
# 5 -11.4672 -2.6818 -2.2555 0.0000 43.6533 0.0000
# 6 0.0000 0.0000 0.0000 1.4501 0.0000 26.1067
#
#
#
# Elastic Compliance Matrix: (Units=1/GPa)
#
#
# Indices 1 2 3 4 5 6 
#
# 1 0.012466 -0.007311 -0.002888 0.000000 0.002676 0.000000
# 2 -0.007311 0.029823 -0.002092 0.000000 -0.000196 0.000000
# 3 -0.002888 -0.002092 0.011597 0.000000 -0.000288 0.000000
# 4 0.000000 0.000000 0.000000 0.052959 0.000000 -0.002942
# 5 0.002676 -0.000196 -0.000288 0.000000 0.023584 0.000000
# 6 0.000000 0.000000 0.000000 -0.002942 0.000000 0.038468
#
#
# Mechanical properties :
#
#
# Convention : Reuss Voigt Hill
#
# Bulk Modulus (GPa) = 34.12442 43.61146 38.86794
# Shear Modulus (GPa) = 24.60077 29.11294 26.85686
#
# Velocity S-wave (km/s) = 3.41042 3.71003 3.56338
# Velocity P-wave (km/s) = 5.62509 6.24271 5.94193
#
# Compressibility (1/GPa) = 0.02930453
#
# Stress axis : x y z
#
# Youngs Moduli (GPa) = 80.21793 33.53164 86.22979
#
# Poissons Ratio (x) = 0.24515 0.24904
# Poissons Ratio (y) = 0.58646 0.18035
# Poissons Ratio (z) = 0.23168 0.07013
#
# Static dielectric constant tensor:
#      x y z
#    x 4.221760 0.000000 -0.155520 
#    y 0.000000 3.384350 0.000000 
#    z -0.155520 0.000000 4.073500 
# 
# 
# High freq. dielectric constant tensor:
#      x y z
#    x 1.845670 0.000000 -0.003290 
#    y 0.000000 1.767960 0.000000 
#    z -0.003290 0.000000 1.847160 
# 
# From -- ./inp_files/18852.got.cif
#   From: 2010.06.25/outbox.cif.g09.slc.cpg/sg13_10_cif.got.tgz:18852.got - 2010.06.28 04:50:58.
