data_PCOD8118967
_publ_section_title
;
Structure prediction by ZEFSAII (Michael W. Deem and Ramdas Pophale) SiO2 
 PCOD8118967
Probable space group: P 2/C
;
_chemical_formula_sum "Si O2"
_cell_formula_units_Z 22
_cell_length_a 8.111474
_cell_length_b 9.451555
_cell_length_c 19.841973
_cell_angle_alpha 90.000000
_cell_angle_beta 137.476768
_cell_angle_gamma 90.000000
_cell_volume 1028.166248
_symmetry_space_group_name_H-M "P 2/C"
_symmetry_group_IT_number 13
_symmetry_cell_setting 'monoclinic'
loop_
_space_group_symop_operation_xyz
x,y,z
-x,y,1/2-z
-x,-y,-z
x,-y,1/2+z
loop_
_atom_site_type_symbol
_atom_site_label
_atom_site_fract_x
_atom_site_fract_y
_atom_site_fract_z
Si Si1 0.000000 0.974495 0.750000
Si Si2 0.779469 0.593662 0.276617
Si Si3 0.477273 0.103084 0.140617
Si Si4 0.707066 0.109676 0.552685
Si Si5 0.500000 0.651899 0.750000
Si Si6 0.500000 0.850600 0.250000
Si Si7 0.662279 0.398890 0.592536
O O1 0.754908 0.886378 0.693709
O O2 0.952192 0.069654 0.668355
O O3 0.725358 0.454214 0.304468
O O4 0.720548 0.742590 0.296881
O O5 0.623810 0.579694 0.160646
O O6 0.060498 0.586720 0.346099
O O7 0.432423 0.245046 0.168705
O O8 0.435026 0.955711 0.168219
O O9 0.264073 0.117145 0.019659
O O10 0.579571 0.243796 0.547780
O O11 0.500000 0.000000 0.500000
O O12 0.500000 0.500000 0.500000
#
# Coordination Sequence:
#
# PCOD8118967 Si02
#       7
#     2   4   4   4   2   2   4
#     4  10  20  38  64  88 114 156 200 246 294 352
#     4  10  22  41  61  83 122 163 198 241 296 359
#     4  10  21  38  61  90 121 152 198 248 296 349
#     4  10  20  36  60  89 114 145 197 248 291 345
#     4  10  22  40  58  88 128 160 190 244 306 350
#     4  10  20  40  62  86 126 164 190 240 306 364
#     4  11  22  39  63  88 114 158 209 248 289 349
#
# _framework density 21.397317999999999
#
# number of rings (size 3 to 8) (size 9 to 14) (size 15 to 20)
#    0.000    1.818    0.000    5.455    0.000    4.364 
#    0.000   20.000    0.000    0.000    0.000    0.000 
#    0.000    0.000    0.000    0.000    0.000    0.000 
#
# Total GULP energy -272541.174217 kJ/mol
# GULP energy per Si atom -12388.235192 kJ/mol
# Density = 2.134862 g / cm^3
# Si number density = 21.397318 Si / 1000 Ang^3
#
#
#
# Elastic Constant Matrix: (Units=GPa)
#
#
# Indices 1 2 3 4 5 6 
#
# 1 99.8634 47.6135 40.0684 0.0000 -19.4060 0.0000
# 2 47.6135 162.1874 51.4128 0.0000 -11.0634 0.0000
# 3 40.0684 51.4128 141.4829 0.0000 -27.0286 0.0000
# 4 0.0000 0.0000 0.0000 23.8742 0.0000 -8.6300
# 5 -19.4060 -11.0634 -27.0286 0.0000 26.5835 0.0000
# 6 0.0000 0.0000 0.0000 -8.6300 0.0000 37.4603
#
#
#
# Elastic Compliance Matrix: (Units=1/GPa)
#
#
# Indices 1 2 3 4 5 6 
#
# 1 0.013376 -0.003019 -0.001323 0.000000 0.007163 0.000000
# 2 -0.003019 0.007653 -0.002158 0.000000 -0.001213 0.000000
# 3 -0.001323 -0.002158 0.009768 0.000000 0.008068 0.000000
# 4 0.000000 0.000000 0.000000 0.045691 0.000000 0.010526
# 5 0.007163 -0.001213 0.008068 0.000000 0.050545 0.000000
# 6 0.000000 0.000000 0.000000 0.010526 0.000000 0.029120
#
#
# Mechanical properties :
#
#
# Convention : Reuss Voigt Hill
#
# Bulk Modulus (GPa) = 56.18466 75.74702 65.96584
# Shear Modulus (GPa) = 28.55771 35.21287 31.88529
#
# Velocity S-wave (km/s) = 3.65724 4.06108 3.86444
# Velocity P-wave (km/s) = 6.64444 7.58070 7.12796
#
# Compressibility (1/GPa) = 0.01779845
#
# Stress axis : x y z
#
# Youngs Moduli (GPa) = 74.76257 130.66362 102.37558
#
# Poissons Ratio (x) = 0.39445 0.13540
# Poissons Ratio (y) = 0.22570 0.22090
# Poissons Ratio (z) = 0.09888 0.28194
#
# Static dielectric constant tensor:
#      x y z
#    x 3.888570 0.000000 -0.734070 
#    y 0.000000 4.091890 0.000000 
#    z -0.734070 0.000000 6.970590 
# 
# 
# High freq. dielectric constant tensor:
#      x y z
#    x 1.839380 0.000000 -0.021310 
#    y 0.000000 1.854020 0.000000 
#    z -0.021310 0.000000 1.833000 
# 
# From -- ./inp_files/46053.got.cif
#   From: 2010.06.25/outbox.cif.g09.slc.cpg/sg13_24_cif.got.tgz:46053.got - 2010.06.28 04:50:58.
