data_PCOD8118467
_publ_section_title
;
Structure prediction by ZEFSAII (Michael W. Deem and Ramdas Pophale) SiO2 
 PCOD8118467
Probable space group: P 2/C
;
_chemical_formula_sum "Si O2"
_cell_formula_units_Z 22
_cell_length_a 5.320243
_cell_length_b 13.111186
_cell_length_c 13.777425
_cell_angle_alpha 90.000000
_cell_angle_beta 83.063479
_cell_angle_gamma 90.000000
_cell_volume 954.005814
_symmetry_space_group_name_H-M "P 2/C"
_symmetry_group_IT_number 13
_symmetry_cell_setting 'monoclinic'
loop_
_space_group_symop_operation_xyz
x,y,z
-x,y,1/2-z
-x,-y,-z
x,-y,1/2+z
loop_
_atom_site_type_symbol
_atom_site_label
_atom_site_fract_x
_atom_site_fract_y
_atom_site_fract_z
Si Si1 0.490240 0.770337 0.412652
Si Si2 0.500000 0.936708 0.250000
Si Si3 0.194104 0.768662 0.611365
Si Si4 0.004296 0.347741 0.864517
Si Si5 0.927524 0.571041 0.640190
Si Si6 0.500000 0.661245 0.750000
Si Si7 0.000000 0.068908 0.250000
O O1 0.404030 0.803720 0.524291
O O2 0.761231 0.715008 0.412054
O O3 0.273940 0.699977 0.377125
O O4 0.515019 0.869647 0.346131
O O5 0.753569 0.002309 0.239566
O O6 0.304027 0.737175 0.710110
O O7 0.024545 0.865494 0.648856
O O8 0.047200 0.667660 0.575684
O O9 0.000000 0.356022 0.750000
O O10 0.994535 0.462752 0.910426
O O11 0.623552 0.589921 0.659411
O O12 0.000000 0.574677 0.750000
#
# Coordination Sequence:
#
# PCOD8118467 Si02
#       7
#     4   2   4   4   4   2   2
#     4  12  27  45  71 103 141 182 230 281 345 416
#     4  12  27  49  70 100 134 178 239 295 350 418
#     4  11  25  43  71 104 138 179 229 288 347 411
#     4  11  23  43  70  99 143 193 222 268 340 406
#     4   9  21  37  67 101 138 186 230 270 328 414
#     4  10  19  43  64  98 146 182 229 279 326 398
#     4  12  26  48  76  94 134 180 232 304 358 394
#
# _framework density 23.060654
#
# number of rings (size 3 to 8) (size 9 to 14) (size 15 to 20)
#    0.000    1.091    4.545    1.636   10.182    2.909 
#    0.000    0.000    0.000    0.000    0.000    0.000 
#    0.000    0.000    0.000    0.000    0.000    0.000 
#
# Total GULP energy -272659.319123 kJ/mol
# GULP energy per Si atom -12393.605415 kJ/mol
# Density = 2.300817 g / cm^3
# Si number density = 23.060654 Si / 1000 Ang^3
#
#
#
# Elastic Constant Matrix: (Units=GPa)
#
#
# Indices 1 2 3 4 5 6 
#
# 1 127.7223 65.9523 12.9046 0.0000 -19.1455 0.0000
# 2 65.9523 169.4902 52.6968 0.0000 -24.4654 0.0000
# 3 12.9046 52.6968 65.2143 0.0000 -32.3466 0.0000
# 4 0.0000 0.0000 0.0000 3.7697 0.0000 -2.4757
# 5 -19.1455 -24.4654 -32.3466 0.0000 41.3660 0.0000
# 6 0.0000 0.0000 0.0000 -2.4757 0.0000 40.5809
#
#
#
# Elastic Compliance Matrix: (Units=1/GPa)
#
#
# Indices 1 2 3 4 5 6 
#
# 1 0.010673 -0.004744 0.004542 0.000000 0.005685 0.000000
# 2 -0.004744 0.009996 -0.008650 0.000000 -0.003048 0.000000
# 3 0.004542 -0.008650 0.032558 0.000000 0.022445 0.000000
# 4 0.000000 0.000000 0.000000 0.276342 0.000000 0.016859
# 5 0.005685 -0.003048 0.022445 0.000000 0.042554 0.000000
# 6 0.000000 0.000000 0.000000 0.016859 0.000000 0.025671
#
#
# Mechanical properties :
#
#
# Convention : Reuss Voigt Hill
#
# Bulk Modulus (GPa) = 28.15271 69.50378 48.82825
# Shear Modulus (GPa) = 11.70032 32.53488 22.11760
#
# Velocity S-wave (km/s) = 2.25493 3.76019 3.10030
# Velocity P-wave (km/s) = 4.36053 7.00407 5.83401
#
# Compressibility (1/GPa) = 0.03552056
#
# Stress axis : x y z
#
# Youngs Moduli (GPa) = 93.69721 100.04361 30.71444
#
# Poissons Ratio (x) = 0.47465 -0.13949
# Poissons Ratio (y) = 0.44454 0.26568
# Poissons Ratio (z) = -0.42554 0.86539
#
# Static dielectric constant tensor:
#      x y z
#    x 5.112340 0.000000 -0.449860 
#    y 0.000000 4.423290 0.000000 
#    z -0.449860 0.000000 4.133150 
# 
# 
# High freq. dielectric constant tensor:
#      x y z
#    x 1.921090 0.000000 -0.013650 
#    y 0.000000 1.910640 0.000000 
#    z -0.013650 0.000000 1.913950 
# 
# From -- ./inp_files/43656.got.cif
#   From: 2010.06.25/outbox.cif.g09.slc.cpg/sg13_22_cif.got.tgz:43656.got - 2010.06.28 04:50:58.
