data_PCOD8118323
_publ_section_title
;
Structure prediction by ZEFSAII (Michael W. Deem and Ramdas Pophale) SiO2 
 PCOD8118323
Probable space group: P 2/C
;
_chemical_formula_sum "Si O2"
_cell_formula_units_Z 28
_cell_length_a 26.440926
_cell_length_b 9.335911
_cell_length_c 8.524641
_cell_angle_alpha 90.000000
_cell_angle_beta 39.882294
_cell_angle_gamma 90.000000
_cell_volume 1349.309131
_symmetry_space_group_name_H-M "P 2/C"
_symmetry_group_IT_number 13
_symmetry_cell_setting 'monoclinic'
loop_
_space_group_symop_operation_xyz
x,y,z
-x,y,1/2-z
-x,-y,-z
x,-y,1/2+z
loop_
_atom_site_type_symbol
_atom_site_label
_atom_site_fract_x
_atom_site_fract_y
_atom_site_fract_z
Si Si1 0.979904 0.153812 0.981813
Si Si2 0.343745 0.370214 0.024052
Si Si3 0.239129 0.873425 0.817126
Si Si4 0.804370 0.436146 0.615921
Si Si5 0.204609 0.165718 0.042828
Si Si6 0.117768 0.674000 0.259237
Si Si7 0.443856 0.427592 0.509385
O O1 0.000000 0.164851 0.750000
O O2 0.026443 0.278413 0.967004
O O3 0.889256 0.177584 0.235289
O O4 0.000000 0.000000 0.000000
O O5 0.386039 0.332391 0.756006
O O6 0.316180 0.223030 0.176458
O O7 0.267294 0.464327 0.156220
O O8 0.397472 0.451280 0.021885
O O9 0.234654 0.857333 0.643450
O O10 0.162842 0.812684 0.085616
O O11 0.244048 0.040311 0.845244
O O12 0.765090 0.316274 0.597931
O O13 0.869097 0.532666 0.374690
O O14 0.851146 0.355816 0.641505
O O15 0.500000 0.500000 0.500000
O O16 0.500000 0.341267 0.250000
#
# Coordination Sequence:
#
# PCOD8118323 Si02
#       7
#     4   4   4   4   4   4   4
#     4  12  25  42  62  80 114 163 215 270 337 376
#     4  10  19  38  60  92 128 160 196 251 306 363
#     4  11  22  38  61  86 119 162 214 256 310 373
#     4  11  24  39  62  89 124 159 209 269 321 371
#     4  12  23  40  59  86 117 162 218 266 316 385
#     4  11  23  41  59  85 117 159 209 272 325 381
#     4   9  18  33  61  99 131 158 191 236 297 368
#
# _framework density 20.751360999999999
#
# number of rings (size 3 to 8) (size 9 to 14) (size 15 to 20)
#    0.000    1.143    2.857    5.143    2.000    0.571 
#    0.000    0.000    0.000    0.000    0.000   63.000 
#    0.000    0.000    0.000    0.000    0.000    0.000 
#
# Total GULP energy -347026.548853 kJ/mol
# GULP energy per Si atom -12393.805316 kJ/mol
# Density = 2.070413 g / cm^3
# Si number density = 20.751361 Si / 1000 Ang^3
#
#
#
# Elastic Constant Matrix: (Units=GPa)
#
#
# Indices 1 2 3 4 5 6 
#
# 1 99.2315 15.0711 11.6286 0.0000 7.7778 0.0000
# 2 15.0711 108.7894 29.9361 0.0000 -0.4612 0.0000
# 3 11.6286 29.9361 95.4847 0.0000 3.5193 0.0000
# 4 0.0000 0.0000 0.0000 47.3042 0.0000 22.7851
# 5 7.7778 -0.4612 3.5193 0.0000 30.9805 0.0000
# 6 0.0000 0.0000 0.0000 22.7851 0.0000 29.3282
#
#
#
# Elastic Compliance Matrix: (Units=1/GPa)
#
#
# Indices 1 2 3 4 5 6 
#
# 1 0.010564 -0.001255 -0.000798 0.000000 -0.002580 0.000000
# 2 -0.001255 0.010217 -0.003081 0.000000 0.000817 0.000000
# 3 -0.000798 -0.003081 0.011579 0.000000 -0.001161 0.000000
# 4 0.000000 0.000000 0.000000 0.033781 0.000000 -0.026245
# 5 -0.002580 0.000817 -0.001161 0.000000 0.033070 0.000000
# 6 0.000000 0.000000 0.000000 -0.026245 0.000000 0.054486
#
#
# Mechanical properties :
#
#
# Convention : Reuss Voigt Hill
#
# Bulk Modulus (GPa) = 45.26361 46.30860 45.78611
# Shear Modulus (GPa) = 29.18378 37.98056 33.58217
#
# Velocity S-wave (km/s) = 3.75421 4.28280 4.02719
# Velocity P-wave (km/s) = 6.37588 6.84258 6.61335
#
# Compressibility (1/GPa) = 0.02209280
#
# Stress axis : x y z
#
# Youngs Moduli (GPa) = 94.66315 97.87560 86.36588
#
# Poissons Ratio (x) = 0.12281 0.06892
# Poissons Ratio (y) = 0.11878 0.26605
# Poissons Ratio (z) = 0.07554 0.30151
#
# Static dielectric constant tensor:
#      x y z
#    x 3.836260 0.000000 0.042500 
#    y 0.000000 3.776740 0.000000 
#    z 0.042500 0.000000 4.279570 
# 
# 
# High freq. dielectric constant tensor:
#      x y z
#    x 1.818710 0.000000 0.013020 
#    y 0.000000 1.795380 0.000000 
#    z 0.013020 0.000000 1.817930 
# 
# From -- ./inp_files/24534.got.cif
#   From: 2010.06.25/outbox.cif.g09.slc.cpg/sg13_13_cif.got.tgz:24534.got - 2010.06.28 04:50:58.
