data_PCOD8118604
_publ_section_title
;
Structure prediction by ZEFSAII (Michael W. Deem and Ramdas Pophale) SiO2 
 PCOD8118604
Probable space group: P 2/C
;
_chemical_formula_sum "Si O2"
_cell_formula_units_Z 32
_cell_length_a 13.831895
_cell_length_b 14.046163
_cell_length_c 16.562364
_cell_angle_alpha 90.000000
_cell_angle_beta 33.369567
_cell_angle_gamma 90.000000
_cell_volume 1769.920654
_symmetry_space_group_name_H-M "P 2/C"
_symmetry_group_IT_number 13
_symmetry_cell_setting 'monoclinic'
loop_
_space_group_symop_operation_xyz
x,y,z
-x,y,1/2-z
-x,-y,-z
x,-y,1/2+z
loop_
_atom_site_type_symbol
_atom_site_label
_atom_site_fract_x
_atom_site_fract_y
_atom_site_fract_z
Si Si1 0.178548 0.245758 0.170645
Si Si2 0.813125 0.892521 0.170042
Si Si3 0.846792 0.107479 0.170042
Si Si4 0.019839 0.745758 0.329355
Si Si5 0.653208 0.392521 0.329958
Si Si6 0.321452 0.745758 0.829355
Si Si7 0.686875 0.607479 0.329958
Si Si8 0.519839 0.754242 0.329355
O O1 0.158991 0.149733 0.236182
O O2 0.218616 0.334653 0.200499
O O3 0.000000 0.270705 0.250000
O O4 0.329769 0.229030 0.000000
O O5 0.880385 0.834653 0.200500
O O6 0.631355 0.850267 0.263818
O O7 0.777450 0.000000 0.222550
O O8 0.953219 0.887684 0.000000
O O9 0.718616 0.165347 0.200499
O O10 0.131355 0.649733 0.263818
O O11 0.000000 0.770705 0.250000
O O12 0.829769 0.729030 0.500000
O O13 0.658991 0.350267 0.236182
O O14 0.722550 0.500000 0.277450
O O15 0.453219 0.387684 0.500000
O O16 0.500000 0.770705 0.750000
O O17 0.619615 0.665347 0.299501
O O18 0.500000 0.729295 0.250000
#
# Coordination Sequence:
#
# PCOD8118604 Si02
#       8
#     4   4   4   4   4   4   4   4
#     4  10  20  34  53  76 104 136 170 210 254 303
#     4   9  19  36  55  76 103 134 170 212 256 302
#     4   9  19  36  55  76 103 134 170 212 256 302
#     4  10  20  34  53  76 104 136 170 210 254 303
#     4   9  19  36  55  76 103 134 170 212 256 302
#     4  10  20  34  53  76 104 136 170 210 254 303
#     4   9  19  36  55  76 103 134 170 212 256 302
#     4  10  20  34  53  76 104 136 170 210 254 303
#
# _framework density 18.079908
#
# number of rings (size 3 to 8) (size 9 to 14) (size 15 to 20)
#    0.000    2.500    0.000    1.500    0.000    5.000 
#    0.000    5.000    0.000    0.000    0.000    0.000 
#    0.000    0.000    0.000    0.000    0.000    0.000 
#
# Total GULP energy -396950.899870 kJ/mol
# GULP energy per Si atom -12404.715621 kJ/mol
# Density = 1.803876 g / cm^3
# Si number density = 18.079908 Si / 1000 Ang^3
#
#
#
# Elastic Constant Matrix: (Units=GPa)
#
#
# Indices 1 2 3 4 5 6 
#
# 1 97.0850 33.0173 54.8495 0.0000 1.0601 0.0000
# 2 33.0173 130.5905 41.6522 0.0000 0.2694 0.0000
# 3 54.8495 41.6522 91.4453 0.0000 -1.2361 0.0000
# 4 0.0000 0.0000 0.0000 27.8821 0.0000 0.4695
# 5 1.0601 0.2694 -1.2361 0.0000 38.0353 0.0000
# 6 0.0000 0.0000 0.0000 0.4695 0.0000 12.8333
#
#
#
# Elastic Compliance Matrix: (Units=1/GPa)
#
#
# Indices 1 2 3 4 5 6 
#
# 1 0.015741 -0.001128 -0.008938 0.000000 -0.000721 0.000000
# 2 -0.001128 0.009041 -0.003444 0.000000 -0.000145 0.000000
# 3 -0.008938 -0.003444 0.017877 0.000000 0.000854 0.000000
# 4 0.000000 0.000000 0.000000 0.035887 0.000000 -0.001313
# 5 -0.000721 -0.000145 0.000854 0.000000 0.026340 0.000000
# 6 0.000000 0.000000 0.000000 -0.001313 0.000000 0.077970
#
#
# Mechanical properties :
#
#
# Convention : Reuss Voigt Hill
#
# Bulk Modulus (GPa) = 63.93595 64.23987 64.08791
# Shear Modulus (GPa) = 23.24618 28.39025 25.81821
#
# Velocity S-wave (km/s) = 3.58962 3.96696 3.78300
# Velocity P-wave (km/s) = 7.25398 7.52267 7.38955
#
# Compressibility (1/GPa) = 0.01564065
#
# Stress axis : x y z
#
# Youngs Moduli (GPa) = 63.52778 110.60315 55.93906
#
# Poissons Ratio (x) = 0.12472 0.49997
# Poissons Ratio (y) = 0.07164 0.19264
# Poissons Ratio (z) = 0.56780 0.38090
#
# Static dielectric constant tensor:
#      x y z
#    x 3.276320 0.000000 0.004070 
#    y 0.000000 3.366750 0.000000 
#    z 0.004070 0.000000 3.406680 
# 
# 
# High freq. dielectric constant tensor:
#      x y z
#    x 1.700990 0.000000 0.000200 
#    y 0.000000 1.700050 0.000000 
#    z 0.000200 0.000000 1.707350 
# 
# From -- ./inp_files/68746.got.cif
#   From: 2010.06.25/outbox.cif.g09.slc.cpg/sg13_35_cif.got.tgz:68746.got - 2010.06.28 04:50:58.
