data_PCOD8118175
_publ_section_title
;
Structure prediction by ZEFSAII (Michael W. Deem and Ramdas Pophale) SiO2 
 PCOD8118175
Probable space group: P 2/C
;
_chemical_formula_sum "Si O2"
_cell_formula_units_Z 26
_cell_length_a 11.563333
_cell_length_b 9.303490
_cell_length_c 13.327566
_cell_angle_alpha 90.000000
_cell_angle_beta 59.351676
_cell_angle_gamma 90.000000
_cell_volume 1233.490891
_symmetry_space_group_name_H-M "P 2/C"
_symmetry_group_IT_number 13
_symmetry_cell_setting 'monoclinic'
loop_
_space_group_symop_operation_xyz
x,y,z
-x,y,1/2-z
-x,-y,-z
x,-y,1/2+z
loop_
_atom_site_type_symbol
_atom_site_label
_atom_site_fract_x
_atom_site_fract_y
_atom_site_fract_z
Si Si1 0.500000 0.200420 0.750000
Si Si2 0.112264 0.710155 0.488448
Si Si3 0.161152 0.570277 0.670379
Si Si4 0.853381 0.057428 0.804308
Si Si5 0.166860 0.205099 0.322836
Si Si6 0.266782 0.320243 0.736792
Si Si7 0.267849 0.988437 0.431529
O O1 0.416998 0.310525 0.715283
O O2 0.591283 0.096298 0.640219
O O3 0.188672 0.637643 0.549162
O O4 0.161753 0.623085 0.368496
O O5 0.952117 0.713569 0.565107
O O6 0.150851 0.876887 0.456251
O O7 0.231099 0.670823 0.724908
O O8 0.242007 0.419848 0.649786
O O9 0.000000 0.552459 0.750000
O O10 0.762556 0.154622 0.773934
O O11 0.000000 0.132739 0.750000
O O12 0.888404 0.907973 0.734237
O O13 0.762950 0.041729 0.943301
O O14 0.266189 0.127131 0.357404
#
# Coordination Sequence:
#
# PCOD8118175 Si02
#       7
#     2   4   4   4   4   4   4
#     4  10  24  44  58  84 128 174 208 248 296 344
#     4  10  19  36  62  87 128 155 192 264 318 356
#     4  10  22  38  60  93 127 156 198 253 322 371
#     4  12  20  34  66  98 117 153 204 257 321 364
#     4  11  19  36  62  96 121 154 198 256 322 362
#     4  11  24  40  59  87 128 166 209 244 299 374
#     4  11  21  37  62  92 123 162 206 255 297 360
#
# _framework density 21.078385999999998
#
# number of rings (size 3 to 8) (size 9 to 14) (size 15 to 20)
#    0.000    1.231    6.154    2.308    0.000    4.308 
#    0.000    3.846    0.000    0.000    0.000    0.000 
#    0.000    0.000    0.000    0.000    0.000    0.000 
#
# Total GULP energy -322159.996795 kJ/mol
# GULP energy per Si atom -12390.769108 kJ/mol
# Density = 2.103041 g / cm^3
# Si number density = 21.078386 Si / 1000 Ang^3
#
#
#
# Elastic Constant Matrix: (Units=GPa)
#
#
# Indices 1 2 3 4 5 6 
#
# 1 68.8167 33.3137 9.6845 0.0000 6.3645 0.0000
# 2 33.3137 66.8325 17.8717 0.0000 1.1541 0.0000
# 3 9.6845 17.8717 86.9010 0.0000 12.8568 0.0000
# 4 0.0000 0.0000 0.0000 19.6418 0.0000 11.8958
# 5 6.3645 1.1541 12.8568 0.0000 22.4659 0.0000
# 6 0.0000 0.0000 0.0000 11.8958 0.0000 37.4353
#
#
#
# Elastic Compliance Matrix: (Units=1/GPa)
#
#
# Indices 1 2 3 4 5 6 
#
# 1 0.019748 -0.009923 0.000647 0.000000 -0.005455 0.000000
# 2 -0.009923 0.020846 -0.003757 0.000000 0.003890 0.000000
# 3 0.000647 -0.003757 0.013336 0.000000 -0.007622 0.000000
# 4 0.000000 0.000000 0.000000 0.063045 0.000000 -0.020034
# 5 -0.005455 0.003890 -0.007622 0.000000 0.050219 0.000000
# 6 0.000000 0.000000 0.000000 -0.020034 0.000000 0.033079
#
#
# Mechanical properties :
#
#
# Convention : Reuss Voigt Hill
#
# Bulk Modulus (GPa) = 35.88745 38.25445 37.07095
# Shear Modulus (GPa) = 21.21998 26.68729 23.95363
#
# Velocity S-wave (km/s) = 3.17632 3.56209 3.37472
# Velocity P-wave (km/s) = 5.52401 5.92503 5.72803
#
# Compressibility (1/GPa) = 0.02786490
#
# Stress axis : x y z
#
# Youngs Moduli (GPa) = 50.63719 47.97002 74.98770
#
# Poissons Ratio (x) = 0.47599 -0.04851
# Poissons Ratio (y) = 0.50246 0.28172
# Poissons Ratio (z) = -0.03276 0.18022
#
# Static dielectric constant tensor:
#      x y z
#    x 3.446540 0.000000 0.246260 
#    y 0.000000 3.675810 0.000000 
#    z 0.246260 0.000000 4.252650 
# 
# 
# High freq. dielectric constant tensor:
#      x y z
#    x 1.794930 0.000000 0.025560 
#    y 0.000000 1.820030 0.000000 
#    z 0.025560 0.000000 1.825760 
# 
# From -- ./inp_files/49892.got.cif
#   From: 2010.06.25/outbox.cif.g09.slc.cpg/sg13_25_cif.got.tgz:49892.got - 2010.06.28 04:50:58.
