data_PCOD8118700
_publ_section_title
;
Structure prediction by ZEFSAII (Michael W. Deem and Ramdas Pophale) SiO2 
 PCOD8118700
Probable space group: P 2/C
;
_chemical_formula_sum "Si O2"
_cell_formula_units_Z 30
_cell_length_a 6.217426
_cell_length_b 12.119304
_cell_length_c 24.354312
_cell_angle_alpha 90.000000
_cell_angle_beta 72.000739
_cell_angle_gamma 90.000000
_cell_volume 1745.308949
_symmetry_space_group_name_H-M "P 2/C"
_symmetry_group_IT_number 13
_symmetry_cell_setting 'monoclinic'
loop_
_space_group_symop_operation_xyz
x,y,z
-x,y,1/2-z
-x,-y,-z
x,-y,1/2+z
loop_
_atom_site_type_symbol
_atom_site_label
_atom_site_fract_x
_atom_site_fract_y
_atom_site_fract_z
Si Si1 0.418929 0.884291 0.573079
Si Si2 0.814032 0.958283 0.806128
Si Si3 0.500000 0.935216 0.250000
Si Si4 0.568070 0.665311 0.520510
Si Si5 0.946661 0.817691 0.195309
Si Si6 0.219806 0.068278 0.971429
Si Si7 0.026388 0.726582 0.420741
Si Si8 0.760836 0.449019 0.534072
O O1 0.237278 0.882811 0.636971
O O2 0.537569 0.765058 0.565761
O O3 0.304132 0.884813 0.522573
O O4 0.588081 0.987565 0.568995
O O5 0.000000 0.903844 0.750000
O O6 0.586290 0.982983 0.790626
O O7 0.903282 0.073429 0.822456
O O8 0.687587 0.853822 0.210770
O O9 0.783257 0.699919 0.466402
O O10 0.601725 0.555153 0.554879
O O11 0.346977 0.636956 0.501484
O O12 0.000000 0.760142 0.250000
O O13 0.012804 0.736455 0.141084
O O14 0.149926 0.164648 0.935008
O O15 0.000000 0.000000 0.000000
O O16 0.198216 0.623935 0.414902
O O17 0.000000 0.500000 0.500000
#
# Coordination Sequence:
#
# PCOD8118700 Si02
#       8
#     4   4   2   4   4   4   4   4
#     4  11  21  32  51  78 111 141 172 215 265 323
#     4   9  19  33  46  70 105 143 180 211 250 312
#     4   8  16  34  48  68 100 148 180 202 252 308
#     4  10  20  35  52  78 104 134 175 220 267 318
#     4   9  19  31  48  73 105 141 176 208 251 314
#     4  11  21  30  46  83 114 141 164 207 273 326
#     4  11  19  33  53  77 111 139 168 219 267 323
#     4   9  20  36  52  73 102 135 180 214 269 314
#
# _framework density 17.188932999999999
#
# number of rings (size 3 to 8) (size 9 to 14) (size 15 to 20)
#    0.000    2.400    2.667    1.600    1.867    3.200 
#    0.000    0.000    0.000    0.000    0.000   22.400 
#    0.000    0.000    0.000    0.000    0.000    0.000 
#
# Total GULP energy -371668.853196 kJ/mol
# GULP energy per Si atom -12388.961773 kJ/mol
# Density = 1.714981 g / cm^3
# Si number density = 17.188933 Si / 1000 Ang^3
#
#
#
# Elastic Constant Matrix: (Units=GPa)
#
#
# Indices 1 2 3 4 5 6 
#
# 1 90.3007 31.0197 33.3858 0.0000 5.8582 0.0000
# 2 31.0197 97.5513 55.5787 0.0000 4.0015 0.0000
# 3 33.3858 55.5787 120.9751 0.0000 -1.1048 0.0000
# 4 0.0000 0.0000 0.0000 19.4811 0.0000 4.1758
# 5 5.8582 4.0015 -1.1048 0.0000 17.1079 0.0000
# 6 0.0000 0.0000 0.0000 4.1758 0.0000 30.1007
#
#
#
# Elastic Compliance Matrix: (Units=1/GPa)
#
#
# Indices 1 2 3 4 5 6 
#
# 1 0.013145 -0.002609 -0.002466 0.000000 -0.004050 0.000000
# 2 -0.002609 0.014636 -0.006031 0.000000 -0.002920 0.000000
# 3 -0.002466 -0.006031 0.011745 0.000000 0.003014 0.000000
# 4 0.000000 0.000000 0.000000 0.052905 0.000000 -0.007339
# 5 -0.004050 -0.002920 0.003014 0.000000 0.060717 0.000000
# 6 0.000000 0.000000 0.000000 -0.007339 0.000000 0.034240
#
#
# Mechanical properties :
#
#
# Convention : Reuss Voigt Hill
#
# Bulk Modulus (GPa) = 57.75465 60.97727 59.36596
# Shear Modulus (GPa) = 23.21573 25.92746 24.57159
#
# Velocity S-wave (km/s) = 3.67907 3.88800 3.78498
# Velocity P-wave (km/s) = 7.19168 7.46372 7.32896
#
# Compressibility (1/GPa) = 0.01731462
#
# Stress axis : x y z
#
# Youngs Moduli (GPa) = 76.07607 68.32279 85.14211
#
# Poissons Ratio (x) = 0.17823 0.20997
# Poissons Ratio (y) = 0.19845 0.51350
# Poissons Ratio (z) = 0.18761 0.41206
#
# Static dielectric constant tensor:
#      x y z
#    x 3.366730 0.000000 0.053310 
#    y 0.000000 3.511150 0.000000 
#    z 0.053310 0.000000 3.007200 
# 
# 
# High freq. dielectric constant tensor:
#      x y z
#    x 1.684550 0.000000 0.007690 
#    y 0.000000 1.645610 0.000000 
#    z 0.007690 0.000000 1.637290 
# 
# From -- ./inp_files/83680.got.cif
#   From: 2010.06.25/outbox.cif.g09.slc.cpg/sg13_42_cif.got.tgz:83680.got - 2010.06.28 04:50:58.
