data_PCOD8118639
_publ_section_title
;
Structure prediction by ZEFSAII (Michael W. Deem and Ramdas Pophale) SiO2 
 PCOD8118639
Probable space group: P 2/C
;
_chemical_formula_sum "Si O2"
_cell_formula_units_Z 30
_cell_length_a 13.749220
_cell_length_b 17.621145
_cell_length_c 8.514885
_cell_angle_alpha 90.000000
_cell_angle_beta 45.397343
_cell_angle_gamma 90.000000
_cell_volume 1468.814638
_symmetry_space_group_name_H-M "P 2/C"
_symmetry_group_IT_number 13
_symmetry_cell_setting 'monoclinic'
loop_
_space_group_symop_operation_xyz
x,y,z
-x,y,1/2-z
-x,-y,-z
x,-y,1/2+z
loop_
_atom_site_type_symbol
_atom_site_label
_atom_site_fract_x
_atom_site_fract_y
_atom_site_fract_z
Si Si1 0.871969 0.093828 0.695066
Si Si2 0.511915 0.265580 0.418093
Si Si3 0.352607 0.163420 0.001721
Si Si4 0.215337 0.239005 0.878210
Si Si5 0.855577 0.595898 0.119145
Si Si6 0.182026 0.945061 0.897590
Si Si7 0.456607 0.572758 0.964704
Si Si8 0.000000 0.523505 0.250000
O O1 0.850247 0.180103 0.668572
O O2 0.033318 0.084431 0.520385
O O3 0.811545 0.036432 0.631783
O O4 0.793534 0.076546 0.948206
O O5 0.500000 0.243138 0.250000
O O6 0.629352 0.219837 0.371866
O O7 0.369399 0.251702 0.659118
O O8 0.547278 0.353869 0.406085
O O9 0.500000 0.146978 0.750000
O O10 0.232207 0.201071 0.031774
O O11 0.294697 0.087731 0.149305
O O12 0.126391 0.317580 0.969920
O O13 0.701483 0.590507 0.346627
O O14 0.946001 0.578367 0.172120
O O15 0.885386 0.533703 0.950103
O O16 0.500000 0.544991 0.750000
O O17 0.500000 0.500000 0.000000
#
# Coordination Sequence:
#
# PCOD8118639 Si02
#       8
#     4   4   4   4   4   4   4   2
#     4  10  21  38  60  85 113 150 189 235 280 333
#     4   9  19  36  55  79 112 146 184 233 283 338
#     4  10  21  37  58  85 115 149 188 234 286 339
#     4  10  21  37  57  84 115 147 190 234 283 339
#     4  10  22  39  58  83 115 153 192 238 289 341
#     4  10  21  38  60  84 115 150 190 233 283 337
#     4  10  20  34  56  81 107 142 185 233 287 344
#     4  10  22  40  58  80 116 154 194 238 286 344
#
# _framework density 20.424634000000001
#
# number of rings (size 3 to 8) (size 9 to 14) (size 15 to 20)
#    0.000    2.133    0.000    2.400    0.000    7.467 
#    0.000   12.000    0.000    0.000    0.000    0.000 
#    0.000    0.000    0.000    0.000    0.000    0.000 
#
# Total GULP energy -371656.359421 kJ/mol
# GULP energy per Si atom -12388.545314 kJ/mol
# Density = 2.037815 g / cm^3
# Si number density = 20.424634 Si / 1000 Ang^3
#
#
#
# Elastic Constant Matrix: (Units=GPa)
#
#
# Indices 1 2 3 4 5 6 
#
# 1 61.2330 48.9597 15.0270 0.0000 9.3404 0.0000
# 2 48.9597 119.6868 26.2429 0.0000 22.7667 0.0000
# 3 15.0270 26.2429 84.9172 0.0000 14.3482 0.0000
# 4 0.0000 0.0000 0.0000 34.3836 0.0000 4.3176
# 5 9.3404 22.7667 14.3482 0.0000 1.4016 0.0000
# 6 0.0000 0.0000 0.0000 4.3176 0.0000 41.1403
#
#
#
# Elastic Compliance Matrix: (Units=1/GPa)
#
#
# Indices 1 2 3 4 5 6 
#
# 1 0.024373 -0.009204 -0.000979 0.000000 -0.002899 0.000000
# 2 -0.009204 0.005747 -0.007213 0.000000 0.041816 0.000000
# 3 -0.000979 -0.007213 0.009209 0.000000 0.029409 0.000000
# 4 0.000000 0.000000 0.000000 0.029472 0.000000 -0.003093
# 5 -0.002899 0.041816 0.029409 0.000000 -0.247498 0.000000
# 6 0.000000 0.000000 0.000000 -0.003093 0.000000 0.024632
#
#
# Mechanical properties :
#
#
# Convention : Reuss Voigt Hill
#
# Bulk Modulus (GPa) = 220.36100 49.58846 134.97473
# Shear Modulus (GPa) = -42.45913 27.09226 -7.68344
#
# Velocity S-wave (km/s) = -4.56435 3.64600 -1.94165
# Velocity P-wave (km/s) = 8.96361 6.48505 7.82311
#
# Compressibility (1/GPa) = 0.00453801
#
# Stress axis : x y z
#
# Youngs Moduli (GPa) = 41.02968 173.98967 108.58517
#
# Poissons Ratio (x) = 1.60139 0.10628
# Poissons Ratio (y) = 0.37763 0.78323
# Poissons Ratio (z) = 0.04016 1.25499
#
# Static dielectric constant tensor:
#      x y z
#    x 3.486050 0.000000 0.106030 
#    y 0.000000 4.014550 0.000000 
#    z 0.106030 0.000000 3.782660 
# 
# 
# High freq. dielectric constant tensor:
#      x y z
#    x 1.785130 0.000000 0.013610 
#    y 0.000000 1.809350 0.000000 
#    z 0.013610 0.000000 1.805380 
# 
# From -- ./inp_files/19619.got.cif
#   From: 2010.06.25/outbox.cif.g09.slc.cpg/sg13_10_cif.got.tgz:19619.got - 2010.06.28 04:50:58.
