data_PCOD8118594
_publ_section_title
;
Structure prediction by ZEFSAII (Michael W. Deem and Ramdas Pophale) SiO2 
 PCOD8118594
Probable space group: P 2/C
;
_chemical_formula_sum "Si O2"
_cell_formula_units_Z 30
_cell_length_a 20.004762
_cell_length_b 8.678733
_cell_length_c 16.271267
_cell_angle_alpha 90.000000
_cell_angle_beta 143.538636
_cell_angle_gamma 90.000000
_cell_volume 1678.814201
_symmetry_space_group_name_H-M "P 2/C"
_symmetry_group_IT_number 13
_symmetry_cell_setting 'monoclinic'
loop_
_space_group_symop_operation_xyz
x,y,z
-x,y,1/2-z
-x,-y,-z
x,-y,1/2+z
loop_
_atom_site_type_symbol
_atom_site_label
_atom_site_fract_x
_atom_site_fract_y
_atom_site_fract_z
Si Si1 0.667473 0.595694 0.108327
Si Si2 0.000000 0.047955 0.250000
Si Si3 0.490054 0.177808 0.508620
Si Si4 0.744842 0.699986 0.759045
Si Si5 0.905719 0.230177 0.565350
Si Si6 0.130439 0.619723 0.300049
Si Si7 0.422967 0.336836 0.596585
Si Si8 0.176447 0.727957 0.841061
O O1 0.730832 0.486163 0.238067
O O2 0.762912 0.675688 0.147270
O O3 0.597649 0.729584 0.081777
O O4 0.589095 0.488060 0.973056
O O5 0.097463 0.146844 0.304275
O O6 0.061323 0.945517 0.380219
O O7 0.379339 0.233231 0.352021
O O8 0.480734 0.204967 0.597671
O O9 0.500000 0.000000 0.500000
O O10 0.804883 0.766306 0.736650
O O11 0.814469 0.759147 0.904652
O O12 0.854349 0.311438 0.594468
O O13 0.017724 0.317298 0.645785
O O14 0.117508 0.436586 0.292736
O O15 0.500000 0.377165 0.750000
O O16 0.300206 0.279328 0.506017
#
# Coordination Sequence:
#
# PCOD8118594 Si02
#       8
#     4   2   4   4   4   4   4   4
#     4   9  19  35  56  77 102 139 175 214 260 304
#     4  10  20  34  52  74 108 140 168 214 270 312
#     4  10  21  36  54  78 110 139 168 213 266 318
#     4   9  20  37  54  74 102 137 177 213 254 308
#     4  10  20  34  53  77 103 133 172 218 259 308
#     4   8  18  34  53  76 102 133 175 215 254 304
#     4   9  19  36  56  78 104 138 180 218 255 305
#     4   9  19  35  53  74 104 140 171 210 261 313
#
# _framework density 17.869755000000001
#
# number of rings (size 3 to 8) (size 9 to 14) (size 15 to 20)
#    0.000    3.467    0.000    2.400    0.000   12.267 
#    0.000    3.333    0.000    0.000    0.000    0.000 
#    0.000    0.000    0.000    0.000    0.000    0.000 
#
# Total GULP energy -371827.943703 kJ/mol
# GULP energy per Si atom -12394.264790 kJ/mol
# Density = 1.782908 g / cm^3
# Si number density = 17.869755 Si / 1000 Ang^3
#
#
#
# Elastic Constant Matrix: (Units=GPa)
#
#
# Indices 1 2 3 4 5 6 
#
# 1 83.7208 53.0112 38.2509 0.0000 28.4395 0.0000
# 2 53.0112 106.1402 30.0718 0.0000 20.4570 0.0000
# 3 38.2509 30.0718 107.3001 0.0000 -4.6615 0.0000
# 4 0.0000 0.0000 0.0000 13.7909 0.0000 1.4191
# 5 28.4395 20.4570 -4.6615 0.0000 30.4792 0.0000
# 6 0.0000 0.0000 0.0000 1.4191 0.0000 13.1388
#
#
#
# Elastic Compliance Matrix: (Units=1/GPa)
#
#
# Indices 1 2 3 4 5 6 
#
# 1 0.028604 -0.007199 -0.009190 0.000000 -0.023264 0.000000
# 2 -0.007199 0.013997 -0.001483 0.000000 -0.002904 0.000000
# 3 -0.009190 -0.001483 0.013517 0.000000 0.011637 0.000000
# 4 0.000000 0.000000 0.000000 0.073327 0.000000 -0.007920
# 5 -0.023264 -0.002904 0.011637 0.000000 0.058245 0.000000
# 6 0.000000 0.000000 0.000000 -0.007920 0.000000 0.076966
#
#
# Mechanical properties :
#
#
# Convention : Reuss Voigt Hill
#
# Bulk Modulus (GPa) = 49.08030 59.98100 54.53065
# Shear Modulus (GPa) = 16.27662 23.20357 19.74010
#
# Velocity S-wave (km/s) = 3.02130 3.60736 3.32726
# Velocity P-wave (km/s) = 6.30049 7.14067 6.73370
#
# Compressibility (1/GPa) = 0.02037478
#
# Stress axis : x y z
#
# Youngs Moduli (GPa) = 34.96027 71.44585 73.98163
#
# Poissons Ratio (x) = 0.51431 0.67989
# Poissons Ratio (y) = 0.25167 0.10969
# Poissons Ratio (z) = 0.32129 0.10593
#
# Static dielectric constant tensor:
#      x y z
#    x 3.352570 0.000000 0.193680 
#    y 0.000000 3.209220 0.000000 
#    z 0.193680 0.000000 3.193840 
# 
# 
# High freq. dielectric constant tensor:
#      x y z
#    x 1.697530 0.000000 0.018340 
#    y 0.000000 1.682610 0.000000 
#    z 0.018340 0.000000 1.681920 
# 
# From -- ./inp_files/70605.got.cif
#   From: 2010.06.25/outbox.cif.g09.slc.cpg/sg13_36_cif.got.tgz:70605.got - 2010.06.28 04:50:58.
