data_PCOD8118400
_publ_section_title
;
Structure prediction by ZEFSAII (Michael W. Deem and Ramdas Pophale) SiO2 
 PCOD8118400
Probable space group: P 2/C
;
_chemical_formula_sum "Si O2"
_cell_formula_units_Z 32
_cell_length_a 21.702970
_cell_length_b 9.049023
_cell_length_c 27.271686
_cell_angle_alpha 90.000000
_cell_angle_beta 163.349448
_cell_angle_gamma 90.000000
_cell_volume 1534.647668
_symmetry_space_group_name_H-M "P 2/C"
_symmetry_group_IT_number 13
_symmetry_cell_setting 'monoclinic'
loop_
_space_group_symop_operation_xyz
x,y,z
-x,y,1/2-z
-x,-y,-z
x,-y,1/2+z
loop_
_atom_site_type_symbol
_atom_site_label
_atom_site_fract_x
_atom_site_fract_y
_atom_site_fract_z
Si Si1 0.009975 0.852476 0.538528
Si Si2 0.433166 0.670942 0.865082
Si Si3 0.890144 0.814968 0.213681
Si Si4 0.974578 0.086780 0.339898
Si Si5 0.000774 0.501394 0.306817
Si Si6 0.336090 0.725458 0.080975
Si Si7 0.628944 0.649574 0.215506
Si Si8 0.630300 0.336609 0.072224
O O1 0.250653 0.792888 0.719274
O O2 0.941028 0.903758 0.540217
O O3 0.858628 0.718749 0.404333
O O4 0.000000 0.000000 0.500000
O O5 0.379930 0.530383 0.789228
O O6 0.439736 0.614109 0.926703
O O7 0.653670 0.753864 0.019619
O O8 0.000000 0.892133 0.250000
O O9 0.041087 0.675662 0.342502
O O10 0.893496 0.924846 0.262325
O O11 0.172577 0.135649 0.455946
O O12 0.768638 0.189135 0.177828
O O13 0.191289 0.419934 0.481104
O O14 0.000000 0.446911 0.250000
O O15 0.766845 0.468261 0.151367
O O16 0.500000 0.739351 0.250000
O O17 0.452927 0.717644 0.118046
O O18 0.574529 0.698677 0.118381
#
# Coordination Sequence:
#
# PCOD8118400 Si02
#       8
#     4   4   4   4   4   4   4   4
#     4  11  27  44  63  94 139 175 212 260 330 405
#     4  11  25  45  66  99 128 168 219 276 328 383
#     4  11  24  41  67  96 131 165 223 279 323 381
#     4  10  25  42  62  99 128 174 217 261 321 399
#     4  10  19  39  63  98 126 162 220 272 319 375
#     4  11  22  42  65  92 134 168 217 265 321 391
#     4  12  22  42  70  95 126 173 215 270 325 387
#     4  10  22  38  70  95 127 166 221 269 321 382
#
# _framework density 20.851692
#
# number of rings (size 3 to 8) (size 9 to 14) (size 15 to 20)
#    0.000    1.250    3.750    1.500    5.250    1.000 
#    2.250    0.625    0.000    0.000    0.000    0.000 
#    0.000    0.000    0.000    0.000    0.000    0.000 
#
# Total GULP energy -396815.660320 kJ/mol
# GULP energy per Si atom -12400.489385 kJ/mol
# Density = 2.080423 g / cm^3
# Si number density = 20.851692 Si / 1000 Ang^3
#
#
#
# Elastic Constant Matrix: (Units=GPa)
#
#
# Indices 1 2 3 4 5 6 
#
# 1 103.2946 40.7089 32.7799 0.0000 6.9304 0.0000
# 2 40.7089 107.2941 42.6549 0.0000 -7.2274 0.0000
# 3 32.7799 42.6549 99.8086 0.0000 2.0002 0.0000
# 4 0.0000 0.0000 0.0000 28.7379 0.0000 -8.4198
# 5 6.9304 -7.2274 2.0002 0.0000 35.9560 0.0000
# 6 0.0000 0.0000 0.0000 -8.4198 0.0000 32.7109
#
#
#
# Elastic Compliance Matrix: (Units=1/GPa)
#
#
# Indices 1 2 3 4 5 6 
#
# 1 0.012140 -0.003912 -0.002255 0.000000 -0.003001 0.000000
# 2 -0.003912 0.012722 -0.004223 0.000000 0.003546 0.000000
# 3 -0.002255 -0.004223 0.012587 0.000000 -0.001114 0.000000
# 4 0.000000 0.000000 0.000000 0.037635 0.000000 0.009687
# 5 -0.003001 0.003546 -0.001114 0.000000 0.029165 0.000000
# 6 0.000000 0.000000 0.000000 0.009687 0.000000 0.033064
#
#
# Mechanical properties :
#
#
# Convention : Reuss Voigt Hill
#
# Bulk Modulus (GPa) = 59.99309 60.29834 60.14571
# Shear Modulus (GPa) = 30.55297 32.43120 31.49208
#
# Velocity S-wave (km/s) = 3.83201 3.94804 3.89046
# Velocity P-wave (km/s) = 6.95794 7.05430 7.00629
#
# Compressibility (1/GPa) = 0.01666859
#
# Stress axis : x y z
#
# Youngs Moduli (GPa) = 82.37511 78.60295 79.44613
#
# Poissons Ratio (x) = 0.30746 0.17917
# Poissons Ratio (y) = 0.32221 0.33554
# Poissons Ratio (z) = 0.18577 0.33198
#
# Static dielectric constant tensor:
#      x y z
#    x 3.947450 0.000000 0.069930 
#    y 0.000000 3.694530 0.000000 
#    z 0.069930 0.000000 3.829630 
# 
# 
# High freq. dielectric constant tensor:
#      x y z
#    x 1.819270 0.000000 0.010070 
#    y 0.000000 1.816040 0.000000 
#    z 0.010070 0.000000 1.818770 
# 
# From -- ./inp_files/93594.got.cif
#   From: 2010.06.25/outbox.cif.g09.slc.cpg/sg13_47_cif.got.tgz:93594.got - 2010.06.28 04:50:58.
