data_PCOD8118183
_publ_section_title
;
Structure prediction by ZEFSAII (Michael W. Deem and Ramdas Pophale) SiO2 
 PCOD8118183
Probable space group: P 2/C
;
_chemical_formula_sum "Si O2"
_cell_formula_units_Z 28
_cell_length_a 8.147228
_cell_length_b 15.568000
_cell_length_c 18.721657
_cell_angle_alpha 90.000000
_cell_angle_beta 144.413276
_cell_angle_gamma 90.000000
_cell_volume 1381.850693
_symmetry_space_group_name_H-M "P 2/C"
_symmetry_group_IT_number 13
_symmetry_cell_setting 'monoclinic'
loop_
_space_group_symop_operation_xyz
x,y,z
-x,y,1/2-z
-x,-y,-z
x,-y,1/2+z
loop_
_atom_site_type_symbol
_atom_site_label
_atom_site_fract_x
_atom_site_fract_y
_atom_site_fract_z
Si Si1 0.000000 0.531296 0.250000
Si Si2 0.513087 0.641605 0.109601
Si Si3 0.318901 0.112327 0.360504
Si Si4 0.338606 0.014111 0.617294
Si Si5 0.907211 0.576095 0.856092
Si Si6 0.350662 0.172565 0.526638
Si Si7 0.500000 0.557139 0.250000
Si Si8 0.264132 0.763371 0.719289
O O1 0.734358 0.592660 0.136911
O O2 0.926714 0.469882 0.288029
O O3 0.540506 0.742830 0.104781
O O4 0.587315 0.620646 0.217561
O O5 0.205793 0.604085 0.990173
O O6 0.434177 0.127697 0.481238
O O7 0.313411 0.203931 0.317478
O O8 0.000000 0.073625 0.250000
O O9 0.531370 0.050080 0.394867
O O10 0.500000 0.001909 0.750000
O O11 0.404543 0.109445 0.611961
O O12 0.000000 0.000000 0.500000
O O13 0.759785 0.508805 0.858566
O O14 0.719502 0.660673 0.775973
O O15 0.026247 0.199344 0.412876
O O16 0.500000 0.801979 0.750000
#
# Coordination Sequence:
#
# PCOD8118183 Si02
#       8
#     2   4   4   4   4   4   2   4
#     4  10  22  38  56  82 122 158 206 252 312 366
#     4  10  22  39  56  84 123 159 208 251 309 369
#     4  10  21  41  66  95 128 162 210 268 316 379
#     4  12  25  45  70  99 131 169 214 262 325 388
#     4  10  20  35  60  86 114 161 208 259 312 360
#     4  10  23  39  62  91 127 165 203 255 319 383
#     4  10  20  38  58  84 118 160 204 256 316 364
#     4  10  19  36  62  94 123 155 213 264 318 366
#
# _framework density 20.262682999999999
#
# number of rings (size 3 to 8) (size 9 to 14) (size 15 to 20)
#    0.000    1.714    0.714    4.286    6.000    0.000 
#    3.857    2.857    0.000    0.000    0.000    0.000 
#    0.000    0.000    0.000    0.000    0.000    0.000 
#
# Total GULP energy -347114.330622 kJ/mol
# GULP energy per Si atom -12396.940379 kJ/mol
# Density = 2.021656 g / cm^3
# Si number density = 20.262683 Si / 1000 Ang^3
#
#
#
# Elastic Constant Matrix: (Units=GPa)
#
#
# Indices 1 2 3 4 5 6 
#
# 1 106.7955 45.7076 33.7193 0.0000 10.7059 0.0000
# 2 45.7076 118.6382 39.2200 0.0000 -1.7242 0.0000
# 3 33.7193 39.2200 66.6718 0.0000 -0.5161 0.0000
# 4 0.0000 0.0000 0.0000 34.5234 0.0000 1.1782
# 5 10.7059 -1.7242 -0.5161 0.0000 27.6005 0.0000
# 6 0.0000 0.0000 0.0000 1.1782 0.0000 30.1569
#
#
#
# Elastic Compliance Matrix: (Units=1/GPa)
#
#
# Indices 1 2 3 4 5 6 
#
# 1 0.012810 -0.003546 -0.004433 0.000000 -0.005273 0.000000
# 2 -0.003546 0.011454 -0.004929 0.000000 0.001999 0.000000
# 3 -0.004433 -0.004929 0.020154 0.000000 0.001789 0.000000
# 4 0.000000 0.000000 0.000000 0.029005 0.000000 -0.001133
# 5 -0.005273 0.001999 0.001789 0.000000 0.038435 0.000000
# 6 0.000000 0.000000 0.000000 -0.001133 0.000000 0.033204
#
#
# Mechanical properties :
#
#
# Convention : Reuss Voigt Hill
#
# Bulk Modulus (GPa) = 53.76005 58.82213 56.29109
# Shear Modulus (GPa) = 28.23615 30.02009 29.12812
#
# Velocity S-wave (km/s) = 3.73702 3.85326 3.79558
# Velocity P-wave (km/s) = 6.72381 6.99211 6.85927
#
# Compressibility (1/GPa) = 0.01860117
#
# Stress axis : x y z
#
# Youngs Moduli (GPa) = 78.06495 87.30841 49.61771
#
# Poissons Ratio (x) = 0.30962 0.21997
# Poissons Ratio (y) = 0.27684 0.24455
# Poissons Ratio (z) = 0.34608 0.43031
#
# Static dielectric constant tensor:
#      x y z
#    x 3.883100 0.000000 0.191220 
#    y 0.000000 3.902820 0.000000 
#    z 0.191220 0.000000 3.752460 
# 
# 
# High freq. dielectric constant tensor:
#      x y z
#    x 1.804160 0.000000 0.009430 
#    y 0.000000 1.801850 0.000000 
#    z 0.009430 0.000000 1.771970 
# 
# From -- ./inp_files/76781.got.cif
#   From: 2010.06.25/outbox.cif.g09.slc.cpg/sg13_39_cif.got.tgz:76781.got - 2010.06.28 04:50:58.
