data_PCOD8118921
_publ_section_title
;
Structure prediction by ZEFSAII (Michael W. Deem and Ramdas Pophale) SiO2 
 PCOD8118921
Probable space group: P 2/C
;
_chemical_formula_sum "Si O2"
_cell_formula_units_Z 28
_cell_length_a 8.450938
_cell_length_b 20.767976
_cell_length_c 15.076827
_cell_angle_alpha 90.000000
_cell_angle_beta 31.628384
_cell_angle_gamma 90.000000
_cell_volume 1387.644339
_symmetry_space_group_name_H-M "P 2/C"
_symmetry_group_IT_number 13
_symmetry_cell_setting 'monoclinic'
loop_
_space_group_symop_operation_xyz
x,y,z
-x,y,1/2-z
-x,-y,-z
x,-y,1/2+z
loop_
_atom_site_type_symbol
_atom_site_label
_atom_site_fract_x
_atom_site_fract_y
_atom_site_fract_z
Si Si1 0.897108 0.640036 0.391766
Si Si2 0.227090 0.475751 0.820222
Si Si3 0.130889 0.924923 0.277597
Si Si4 0.848984 0.841219 0.067143
Si Si5 0.145606 0.292635 0.412361
Si Si6 0.779106 0.607235 0.771608
Si Si7 0.155456 0.939156 0.583076
O O1 0.986844 0.685692 0.430035
O O2 0.539533 0.636105 0.549177
O O3 0.000000 0.670791 0.250000
O O4 0.076726 0.573761 0.323551
O O5 0.500000 0.447111 0.750000
O O6 0.316597 0.537698 0.719914
O O7 0.000000 0.500000 0.000000
O O8 0.041230 0.871829 0.393031
O O9 0.000000 0.895973 0.250000
O O10 0.481508 0.939930 0.091223
O O11 0.965004 0.990550 0.384936
O O12 0.500000 0.828467 0.250000
O O13 0.943386 0.889900 0.945057
O O14 0.000809 0.775767 0.961749
O O15 0.500000 0.284629 0.250000
O O16 0.064006 0.346474 0.377017
O O17 0.000000 0.601505 0.750000
O O18 0.000000 0.917497 0.750000
#
# Coordination Sequence:
#
# PCOD8118921 Si02
#       7
#     4   4   4   4   4   4   4
#     4  11  25  41  62  91 118 153 200 241 297 354
#     4  12  22  40  66  90 124 155 191 245 298 352
#     4  10  20  36  58  87 120 151 190 239 288 343
#     4  10  23  39  59  85 116 154 198 239 288 346
#     4  10  23  44  60  81 118 157 196 246 289 345
#     4  11  24  42  62  88 120 155 196 243 295 355
#     4  10  20  36  58  87 120 151 191 238 289 345
#
# _framework density 20.178080999999999
#
# number of rings (size 3 to 8) (size 9 to 14) (size 15 to 20)
#    0.000    1.429    2.857    3.000    2.000    6.286 
#    0.000    5.714    0.000    0.000    0.000    0.000 
#    0.000    0.000    0.000    0.000    0.000    0.000 
#
# Total GULP energy -347025.600919 kJ/mol
# GULP energy per Si atom -12393.771461 kJ/mol
# Density = 2.013216 g / cm^3
# Si number density = 20.178081 Si / 1000 Ang^3
#
#
#
# Elastic Constant Matrix: (Units=GPa)
#
#
# Indices 1 2 3 4 5 6 
#
# 1 130.3598 43.8642 31.5107 0.0000 11.7980 0.0000
# 2 43.8642 87.6339 13.8962 0.0000 13.5407 0.0000
# 3 31.5107 13.8962 78.0007 0.0000 16.4628 0.0000
# 4 0.0000 0.0000 0.0000 28.4449 0.0000 -8.5852
# 5 11.7980 13.5407 16.4628 0.0000 33.9418 0.0000
# 6 0.0000 0.0000 0.0000 -8.5852 0.0000 51.9426
#
#
#
# Elastic Compliance Matrix: (Units=1/GPa)
#
#
# Indices 1 2 3 4 5 6 
#
# 1 0.009956 -0.004456 -0.003201 0.000000 -0.000131 0.000000
# 2 -0.004456 0.014269 0.000148 0.000000 -0.004215 0.000000
# 3 -0.003201 0.000148 0.015446 0.000000 -0.006438 0.000000
# 4 0.000000 0.000000 0.000000 0.037001 0.000000 0.006116
# 5 -0.000131 -0.004215 -0.006438 0.000000 0.034312 0.000000
# 6 0.000000 0.000000 0.000000 0.006116 0.000000 0.020263
#
#
# Mechanical properties :
#
#
# Convention : Reuss Voigt Hill
#
# Bulk Modulus (GPa) = 40.56185 52.72628 46.64406
# Shear Modulus (GPa) = 32.36618 36.64743 34.50681
#
# Velocity S-wave (km/s) = 4.00938 4.26631 4.13984
# Velocity P-wave (km/s) = 6.44818 7.10322 6.78361
#
# Compressibility (1/GPa) = 0.02465371
#
# Stress axis : x y z
#
# Youngs Moduli (GPa) = 100.44421 70.08097 64.74209
#
# Poissons Ratio (x) = 0.31225 0.20721
# Poissons Ratio (y) = 0.44753 -0.00955
# Poissons Ratio (z) = 0.32148 -0.01034
#
# Static dielectric constant tensor:
#      x y z
#    x 3.714160 0.000000 0.125760 
#    y 0.000000 3.445880 0.000000 
#    z 0.125760 0.000000 3.745420 
# 
# 
# High freq. dielectric constant tensor:
#      x y z
#    x 1.797650 0.000000 0.005110 
#    y 0.000000 1.775930 0.000000 
#    z 0.005110 0.000000 1.800110 
# 
# From -- ./inp_files/48213.got.cif
#   From: 2010.06.25/outbox.cif.g09.slc.cpg/sg13_25_cif.got.tgz:48213.got - 2010.06.28 04:50:58.
