data_PCOD8118884
_publ_section_title
;
Structure prediction by ZEFSAII (Michael W. Deem and Ramdas Pophale) SiO2 
 PCOD8118884
Probable space group: P 2/C
;
_chemical_formula_sum "Si O2"
_cell_formula_units_Z 24
_cell_length_a 11.481235
_cell_length_b 12.552680
_cell_length_c 22.716769
_cell_angle_alpha 90.000000
_cell_angle_beta 157.001178
_cell_angle_gamma 90.000000
_cell_volume 1279.170989
_symmetry_space_group_name_H-M "P 2/C"
_symmetry_group_IT_number 13
_symmetry_cell_setting 'monoclinic'
loop_
_space_group_symop_operation_xyz
x,y,z
-x,y,1/2-z
-x,-y,-z
x,-y,1/2+z
loop_
_atom_site_type_symbol
_atom_site_label
_atom_site_fract_x
_atom_site_fract_y
_atom_site_fract_z
Si Si1 0.656120 0.610682 0.083347
Si Si2 0.400574 0.700132 0.318360
Si Si3 0.699420 0.484282 0.894560
Si Si4 0.283115 0.328620 0.013688
Si Si5 0.610766 0.123208 0.367354
Si Si6 0.696352 0.916105 0.283471
O O1 0.531268 0.675036 0.081471
O O2 0.607361 0.682402 0.002591
O O3 0.000000 0.583312 0.250000
O O4 0.500000 0.500000 0.000000
O O5 0.637643 0.637128 0.387499
O O6 0.411549 0.826426 0.312742
O O7 0.072498 0.665301 0.146115
O O8 0.500000 0.524685 0.750000
O O9 0.621162 0.559272 0.913663
O O10 0.000000 0.500000 0.000000
O O11 0.438267 0.229835 0.118258
O O12 0.500000 0.149187 0.250000
O O13 0.957249 0.088022 0.535929
O O14 0.392759 0.028486 0.288825
O O15 0.500000 0.903139 0.250000
#
# Coordination Sequence:
#
# PCOD8118884 Si02
#       6
#     4   4   4   4   4   4
#     4  10  20  38  57  78 108 151 190 226 272 326
#     4  10  21  37  57  80 112 149 184 227 282 328
#     4  12  22  34  53  84 114 145 180 226 283 339
#     4  10  21  37  57  80 113 148 185 228 276 334
#     4  10  20  37  56  84 111 144 184 227 281 330
#     4  10  20  36  57  81 113 145 182 228 279 333
#
# _framework density 18.762150999999999
#
# number of rings (size 3 to 8) (size 9 to 14) (size 15 to 20)
#    0.000    1.667    3.333    3.000    2.333    0.000 
#    3.000    0.833    0.000    0.000    0.000    0.000 
#    0.000    0.000    0.000    0.000    0.000    0.000 
#
# Total GULP energy -297339.045324 kJ/mol
# GULP energy per Si atom -12389.126888 kJ/mol
# Density = 1.871945 g / cm^3
# Si number density = 18.762151 Si / 1000 Ang^3
#
#
#
# Elastic Constant Matrix: (Units=GPa)
#
#
# Indices 1 2 3 4 5 6 
#
# 1 100.7099 51.6299 43.2942 0.0000 -16.7415 0.0000
# 2 51.6299 133.3059 47.6224 0.0000 -20.8263 0.0000
# 3 43.2942 47.6224 89.9068 0.0000 -10.7902 0.0000
# 4 0.0000 0.0000 0.0000 35.6501 0.0000 -8.5115
# 5 -16.7415 -20.8263 -10.7902 0.0000 29.5324 0.0000
# 6 0.0000 0.0000 0.0000 -8.5115 0.0000 26.1236
#
#
#
# Elastic Compliance Matrix: (Units=1/GPa)
#
#
# Indices 1 2 3 4 5 6 
#
# 1 0.014271 -0.003214 -0.004676 0.000000 0.004115 0.000000
# 2 -0.003214 0.010724 -0.003602 0.000000 0.004425 0.000000
# 3 -0.004676 -0.003602 0.015331 0.000000 0.000411 0.000000
# 4 0.000000 0.000000 0.000000 0.030417 0.000000 0.009910
# 5 0.004115 0.004425 0.000411 0.000000 0.039465 0.000000
# 6 0.000000 0.000000 0.000000 0.009910 0.000000 0.041508
#
#
# Mechanical properties :
#
#
# Convention : Reuss Voigt Hill
#
# Bulk Modulus (GPa) = 57.65812 67.66839 62.66326
# Shear Modulus (GPa) = 27.70363 30.35297 29.02830
#
# Velocity S-wave (km/s) = 3.84679 4.02652 3.93768
# Velocity P-wave (km/s) = 7.10831 7.60013 7.35833
#
# Compressibility (1/GPa) = 0.01734361
#
# Stress axis : x y z
#
# Youngs Moduli (GPa) = 70.06978 93.24584 65.22523
#
# Poissons Ratio (x) = 0.29969 0.30500
# Poissons Ratio (y) = 0.22520 0.23493
# Poissons Ratio (z) = 0.32765 0.33585
#
# Static dielectric constant tensor:
#      x y z
#    x 3.641770 0.000000 -0.162870 
#    y 0.000000 3.717710 0.000000 
#    z -0.162870 0.000000 3.518600 
# 
# 
# High freq. dielectric constant tensor:
#      x y z
#    x 1.719110 0.000000 -0.010090 
#    y 0.000000 1.728960 0.000000 
#    z -0.010090 0.000000 1.733000 
# 
# From -- ./inp_files/86627.got.cif
#   From: 2010.06.25/outbox.cif.g09.slc.cpg/sg13_44_cif.got.tgz:86627.got - 2010.06.28 04:50:58.
