data_PCOD8118616
_publ_section_title
;
Structure prediction by ZEFSAII (Michael W. Deem and Ramdas Pophale) SiO2 
 PCOD8118616
Probable space group: P 2/C
;
_chemical_formula_sum "Si O2"
_cell_formula_units_Z 28
_cell_length_a 23.118818
_cell_length_b 8.324383
_cell_length_c 12.165048
_cell_angle_alpha 90.000000
_cell_angle_beta 37.880091
_cell_angle_gamma 90.000000
_cell_volume 1437.499293
_symmetry_space_group_name_H-M "P 2/C"
_symmetry_group_IT_number 13
_symmetry_cell_setting 'monoclinic'
loop_
_space_group_symop_operation_xyz
x,y,z
-x,y,1/2-z
-x,-y,-z
x,-y,1/2+z
loop_
_atom_site_type_symbol
_atom_site_label
_atom_site_fract_x
_atom_site_fract_y
_atom_site_fract_z
Si Si1 0.609743 0.702108 0.457206
Si Si2 0.170481 0.328151 0.877594
Si Si3 0.609743 0.797892 0.213565
Si Si4 0.500000 0.049580 0.250000
Si Si5 0.500000 0.450419 0.750000
Si Si6 0.068778 0.376746 0.452411
Si Si7 0.068779 0.123254 0.841254
Si Si8 0.829518 0.828151 0.889038
O O1 0.718634 0.660362 0.305954
O O2 0.581783 0.750000 0.377326
O O3 0.586389 0.847672 0.573601
O O4 0.544438 0.552237 0.584983
O O5 0.135075 0.514800 0.931305
O O6 0.128093 0.219932 0.843969
O O7 0.142937 0.250000 0.035595
O O8 0.586388 0.652329 0.167233
O O9 0.544438 0.947763 0.281703
O O10 0.718634 0.839637 0.038143
O O11 0.128093 0.280068 0.271753
O O12 0.000000 0.500000 0.500000
O O13 0.999999 0.250000 0.620002
O O14 0.135075 0.014801 0.663471
O O15 0.000000 0.000000 0.000000
#
# Coordination Sequence:
#
# PCOD8118616 Si02
#       8
#     4   4   4   2   2   4   4   4
#     4  10  20  34  54  79 107 142 180 218 265 319
#     4  10  20  36  56  78 108 143 178 223 272 318
#     4  10  20  34  54  79 107 142 180 218 265 319
#     4  10  20  34  54  78 110 142 176 222 266 310
#     4  10  20  34  54  78 110 142 176 222 266 310
#     4   9  19  35  54  78 105 135 178 223 266 322
#     4   9  19  35  54  78 105 135 178 223 266 322
#     4  10  20  36  56  78 108 143 178 223 272 318
#
# _framework density 19.478270999999999
#
# number of rings (size 3 to 8) (size 9 to 14) (size 15 to 20)
#    0.000    2.286    0.000    2.571    0.000    5.143 
#    0.000   10.000    0.000   24.000    0.000    0.000 
#    0.000    0.000    0.000    0.000    0.000    0.000 
#
# Total GULP energy -346988.137467 kJ/mol
# GULP energy per Si atom -12392.433481 kJ/mol
# Density = 1.943394 g / cm^3
# Si number density = 19.478271 Si / 1000 Ang^3
#
#
#
# Elastic Constant Matrix: (Units=GPa)
#
#
# Indices 1 2 3 4 5 6 
#
# 1 97.8928 59.5486 49.1283 0.0000 -4.6535 0.0000
# 2 59.5486 146.2826 61.5520 0.0000 -6.7004 0.0000
# 3 49.1283 61.5520 100.6972 0.0000 -4.7307 0.0000
# 4 0.0000 0.0000 0.0000 42.9261 0.0000 -12.3279
# 5 -4.6535 -6.7004 -4.7307 0.0000 25.3381 0.0000
# 6 0.0000 0.0000 0.0000 -12.3279 0.0000 39.2419
#
#
#
# Elastic Compliance Matrix: (Units=1/GPa)
#
#
# Indices 1 2 3 4 5 6 
#
# 1 0.015189 -0.004098 -0.004868 0.000000 0.000797 0.000000
# 2 -0.004098 0.010358 -0.004276 0.000000 0.001188 0.000000
# 3 -0.004868 -0.004276 0.014956 0.000000 0.000767 0.000000
# 4 0.000000 0.000000 0.000000 0.025606 0.000000 0.008044
# 5 0.000797 0.001188 0.000767 0.000000 0.040070 0.000000
# 6 0.000000 0.000000 0.000000 0.008044 0.000000 0.028010
#
#
# Mechanical properties :
#
#
# Convention : Reuss Voigt Hill
#
# Bulk Modulus (GPa) = 71.33667 76.14781 73.74224
# Shear Modulus (GPa) = 30.23947 33.14415 31.69181
#
# Velocity S-wave (km/s) = 3.94442 4.12952 4.03803
# Velocity P-wave (km/s) = 7.57943 7.86866 7.72540
#
# Compressibility (1/GPa) = 0.01401804
#
# Stress axis : x y z
#
# Youngs Moduli (GPa) = 65.83616 96.54206 66.86444
#
# Poissons Ratio (x) = 0.39567 0.32549
# Poissons Ratio (y) = 0.26982 0.28592
# Poissons Ratio (z) = 0.32049 0.41283
#
# Static dielectric constant tensor:
#      x y z
#    x 3.604510 0.000000 -0.210640 
#    y 0.000000 4.338350 0.000000 
#    z -0.210640 0.000000 3.667470 
# 
# 
# High freq. dielectric constant tensor:
#      x y z
#    x 1.753600 0.000000 -0.016670 
#    y 0.000000 1.775890 0.000000 
#    z -0.016670 0.000000 1.758580 
# 
# From -- ./inp_files/41516.got.cif
#   From: 2010.06.25/outbox.cif.g09.slc.cpg/sg13_21_cif.got.tgz:41516.got - 2010.06.28 04:50:58.
