data_PCOD8118077
_publ_section_title
;
Structure prediction by ZEFSAII (Michael W. Deem and Ramdas Pophale) SiO2 
 PCOD8118077
Probable space group: P 2/C
;
_chemical_formula_sum "Si O2"
_cell_formula_units_Z 24
_cell_length_a 16.574063
_cell_length_b 8.764560
_cell_length_c 17.337968
_cell_angle_alpha 90.000000
_cell_angle_beta 28.598623
_cell_angle_gamma 90.000000
_cell_volume 1205.574899
_symmetry_space_group_name_H-M "P 2/C"
_symmetry_group_IT_number 13
_symmetry_cell_setting 'monoclinic'
loop_
_space_group_symop_operation_xyz
x,y,z
-x,y,1/2-z
-x,-y,-z
x,-y,1/2+z
loop_
_atom_site_type_symbol
_atom_site_label
_atom_site_fract_x
_atom_site_fract_y
_atom_site_fract_z
Si Si1 0.112767 0.657411 0.326038
Si Si2 0.986112 0.376321 0.351171
Si Si3 0.836479 0.208944 0.165658
Si Si4 0.384171 0.464027 0.168909
Si Si5 0.381574 0.705285 0.281436
Si Si6 0.340679 0.910312 0.167780
O O1 0.196480 0.539023 0.316209
O O2 0.262906 0.778000 0.175793
O O3 0.031267 0.557404 0.325522
O O4 0.974938 0.756788 0.485409
O O5 0.802050 0.329381 0.532586
O O6 0.000000 0.337979 0.250000
O O7 0.117790 0.271963 0.287666
O O8 0.655629 0.284524 0.291169
O O9 0.809815 0.029104 0.191414
O O10 0.459472 0.545344 0.181924
O O11 0.500000 0.500000 0.000000
O O12 0.500000 0.765154 0.250000
O O13 0.385261 0.833296 0.212048
O O14 0.500000 0.000000 0.000000
#
# Coordination Sequence:
#
# PCOD8118077 Si02
#       6
#     4   4   4   4   4   4
#     4  10  20  40  61  89 121 158 214 255 296 373
#     4  11  23  39  64  95 120 161 211 267 318 359
#     4  11  19  40  65  87 119 166 216 254 298 375
#     4  10  19  35  63  90 118 159 206 254 304 366
#     4  11  24  42  59  94 132 157 206 266 323 372
#     4  11  24  40  64  94 125 171 211 251 317 385
#
# _framework density 19.907516000000001
#
# number of rings (size 3 to 8) (size 9 to 14) (size 15 to 20)
#    0.000    1.333    5.000    3.500    7.000    0.000 
#    0.000    3.333    0.000    0.000    0.000    0.000 
#    0.000    0.000    0.000    0.000    0.000    0.000 
#
# Total GULP energy -297372.472271 kJ/mol
# GULP energy per Si atom -12390.519678 kJ/mol
# Density = 1.986221 g / cm^3
# Si number density = 19.907516 Si / 1000 Ang^3
#
#
#
# Elastic Constant Matrix: (Units=GPa)
#
#
# Indices 1 2 3 4 5 6 
#
# 1 105.6515 54.3243 39.0168 0.0000 10.5884 0.0000
# 2 54.3243 106.9497 22.2270 0.0000 -3.6969 0.0000
# 3 39.0168 22.2270 92.9609 0.0000 3.8991 0.0000
# 4 0.0000 0.0000 0.0000 38.0743 0.0000 -5.2555
# 5 10.5884 -3.6969 3.8991 0.0000 29.5820 0.0000
# 6 0.0000 0.0000 0.0000 -5.2555 0.0000 24.6207
#
#
#
# Elastic Compliance Matrix: (Units=1/GPa)
#
#
# Indices 1 2 3 4 5 6 
#
# 1 0.015335 -0.007052 -0.004508 0.000000 -0.005776 0.000000
# 2 -0.007052 0.013153 -0.000362 0.000000 0.004216 0.000000
# 3 -0.004508 -0.000362 0.012740 0.000000 -0.000111 0.000000
# 4 0.000000 0.000000 0.000000 0.027062 0.000000 0.005777
# 5 -0.005776 0.004216 -0.000111 0.000000 0.036413 0.000000
# 6 0.000000 0.000000 0.000000 0.005777 0.000000 0.041849
#
#
# Mechanical properties :
#
#
# Convention : Reuss Voigt Hill
#
# Bulk Modulus (GPa) = 57.52137 59.63315 58.57726
# Shear Modulus (GPa) = 28.37839 31.12168 29.75003
#
# Velocity S-wave (km/s) = 3.77969 3.95816 3.86996
# Velocity P-wave (km/s) = 6.92857 7.13509 7.03259
#
# Compressibility (1/GPa) = 0.01738484
#
# Stress axis : x y z
#
# Youngs Moduli (GPa) = 65.21187 76.02770 78.49066
#
# Poissons Ratio (x) = 0.53614 0.35382
# Poissons Ratio (y) = 0.45987 0.02841
# Poissons Ratio (z) = 0.29396 0.02752
#
# Static dielectric constant tensor:
#      x y z
#    x 3.759160 0.000000 -0.123460 
#    y 0.000000 4.007670 0.000000 
#    z -0.123460 0.000000 3.720680 
# 
# 
# High freq. dielectric constant tensor:
#      x y z
#    x 1.739360 0.000000 -0.014110 
#    y 0.000000 1.783210 0.000000 
#    z -0.014110 0.000000 1.791380 
# 
# From -- ./inp_files/69413.got.cif
#   From: 2010.06.25/outbox.cif.g09.slc.cpg/sg13_35_cif.got.tgz:69413.got - 2010.06.28 04:50:58.
