data_PCOD8118377
_publ_section_title
;
Structure prediction by ZEFSAII (Michael W. Deem and Ramdas Pophale) SiO2 
 PCOD8118377
Probable space group: P 2/C
;
_chemical_formula_sum "Si O2"
_cell_formula_units_Z 32
_cell_length_a 19.951109
_cell_length_b 9.119281
_cell_length_c 24.871297
_cell_angle_alpha 90.000000
_cell_angle_beta 158.999002
_cell_angle_gamma 90.000000
_cell_volume 1621.716522
_symmetry_space_group_name_H-M "P 2/C"
_symmetry_group_IT_number 13
_symmetry_cell_setting 'monoclinic'
loop_
_space_group_symop_operation_xyz
x,y,z
-x,y,1/2-z
-x,-y,-z
x,-y,1/2+z
loop_
_atom_site_type_symbol
_atom_site_label
_atom_site_fract_x
_atom_site_fract_y
_atom_site_fract_z
Si Si1 0.693056 0.619253 0.706220
Si Si2 0.895858 0.286280 0.458410
Si Si3 0.685702 0.744952 0.363092
Si Si4 0.031003 0.508944 0.902117
Si Si5 0.414076 0.161521 0.941344
Si Si6 0.984858 0.227902 0.802372
Si Si7 0.325200 0.309455 0.769233
Si Si8 0.287858 0.082693 0.099224
O O1 0.838523 0.702632 0.853773
O O2 0.536139 0.731695 0.570437
O O3 0.611151 0.479772 0.677431
O O4 0.813983 0.552292 0.748165
O O5 0.858706 0.434405 0.464743
O O6 0.788292 0.147317 0.401865
O O7 0.115440 0.269287 0.628663
O O8 0.500000 0.680466 0.250000
O O9 0.853231 0.657445 0.517501
O O10 0.648553 0.740710 0.271712
O O11 0.724682 0.909754 0.408956
O O12 0.023869 0.398338 0.846468
O O13 0.437301 0.217860 0.897678
O O14 0.206926 0.166767 0.813490
O O15 0.500000 0.000000 0.000000
O O16 0.000000 0.211108 0.750000
O O17 0.158589 0.134341 0.953689
O O18 0.500000 0.138047 0.250000
#
# Coordination Sequence:
#
# PCOD8118377 Si02
#       8
#     4   4   4   4   4   4   4   4
#     4  11  21  39  68  94 131 167 216 276 323 378
#     4  10  19  38  70  92 119 170 220 269 315 383
#     4  11  24  39  66 100 133 160 218 280 334 381
#     4  10  20  42  65  98 123 168 221 272 326 382
#     4  12  28  41  64 101 132 178 223 261 327 400
#     4  11  26  47  67  94 139 175 220 264 320 403
#     4  11  21  43  64  94 131 166 216 276 323 376
#     4  10  24  42  64  97 132 170 216 269 330 387
#
# _framework density 19.73218
#
# number of rings (size 3 to 8) (size 9 to 14) (size 15 to 20)
#    0.000    1.250    6.250    1.125    5.250    4.500 
#    0.000    0.625    0.000    0.000    0.000    0.000 
#    0.000    0.000    0.000    0.000    0.000    0.000 
#
# Total GULP energy -396542.571533 kJ/mol
# GULP energy per Si atom -12391.955360 kJ/mol
# Density = 1.968727 g / cm^3
# Si number density = 19.732180 Si / 1000 Ang^3
#
#
#
# Elastic Constant Matrix: (Units=GPa)
#
#
# Indices 1 2 3 4 5 6 
#
# 1 99.3609 41.3493 34.6710 0.0000 -8.0253 0.0000
# 2 41.3493 79.1007 53.8115 0.0000 -3.8892 0.0000
# 3 34.6710 53.8115 106.5556 0.0000 -7.9818 0.0000
# 4 0.0000 0.0000 0.0000 40.9550 0.0000 2.2358
# 5 -8.0253 -3.8892 -7.9818 0.0000 31.9977 0.0000
# 6 0.0000 0.0000 0.0000 2.2358 0.0000 16.8416
#
#
#
# Elastic Compliance Matrix: (Units=1/GPa)
#
#
# Indices 1 2 3 4 5 6 
#
# 1 0.013128 -0.006034 -0.001053 0.000000 0.002297 0.000000
# 2 -0.006034 0.022032 -0.009249 0.000000 -0.001142 0.000000
# 3 -0.001053 -0.009249 0.014566 0.000000 0.002245 0.000000
# 4 0.000000 0.000000 0.000000 0.024595 0.000000 -0.003265
# 5 0.002297 -0.001142 0.002245 0.000000 0.032250 0.000000
# 6 0.000000 0.000000 0.000000 -0.003265 0.000000 0.059810
#
#
# Mechanical properties :
#
#
# Convention : Reuss Voigt Hill
#
# Bulk Modulus (GPa) = 58.62922 60.52007 59.57465
# Shear Modulus (GPa) = 24.42175 28.30456 26.36316
#
# Velocity S-wave (km/s) = 3.52186 3.79150 3.65917
# Velocity P-wave (km/s) = 6.80551 7.06432 6.93612
#
# Compressibility (1/GPa) = 0.01705634
#
# Stress axis : x y z
#
# Youngs Moduli (GPa) = 76.17316 45.38922 68.65293
#
# Poissons Ratio (x) = 0.27386 0.07226
# Poissons Ratio (y) = 0.45960 0.63494
# Poissons Ratio (z) = 0.08017 0.41978
#
# Static dielectric constant tensor:
#      x y z
#    x 3.381460 0.000000 0.090930 
#    y 0.000000 3.654160 0.000000 
#    z 0.090930 0.000000 3.631080 
# 
# 
# High freq. dielectric constant tensor:
#      x y z
#    x 1.761120 0.000000 -0.004440 
#    y 0.000000 1.775030 0.000000 
#    z -0.004440 0.000000 1.772220 
# 
# From -- ./inp_files/93598.got.cif
#   From: 2010.06.25/outbox.cif.g09.slc.cpg/sg13_47_cif.got.tgz:93598.got - 2010.06.28 04:50:58.
