data_PCOD8118380
_publ_section_title
;
Structure prediction by ZEFSAII (Michael W. Deem and Ramdas Pophale) SiO2 
 PCOD8118380
Probable space group: P 2/C
;
_chemical_formula_sum "Si O2"
_cell_formula_units_Z 26
_cell_length_a 30.684297
_cell_length_b 6.674968
_cell_length_c 21.069046
_cell_angle_alpha 90.000000
_cell_angle_beta 17.505371
_cell_angle_gamma 90.000000
_cell_volume 1298.019271
_symmetry_space_group_name_H-M "P 2/C"
_symmetry_group_IT_number 13
_symmetry_cell_setting 'monoclinic'
loop_
_space_group_symop_operation_xyz
x,y,z
-x,y,1/2-z
-x,-y,-z
x,-y,1/2+z
loop_
_atom_site_type_symbol
_atom_site_label
_atom_site_fract_x
_atom_site_fract_y
_atom_site_fract_z
Si Si1 0.847929 0.772294 0.983140
Si Si2 0.293707 0.187206 0.132838
Si Si3 0.377693 0.822705 0.309110
Si Si4 0.065949 0.086636 0.545964
Si Si5 0.220893 0.080044 0.622609
Si Si6 0.337229 0.496788 0.465557
Si Si7 0.000000 0.621355 0.250000
O O1 0.711817 0.845501 0.131326
O O2 0.863071 0.528904 0.956519
O O3 0.000000 0.871358 0.750000
O O4 0.840451 0.889925 0.060878
O O5 0.178756 0.218587 0.348579
O O6 0.253186 0.989148 0.149298
O O7 0.452955 0.170594 0.942551
O O8 0.285695 0.372752 0.096408
O O9 0.329752 0.619132 0.410480
O O10 0.345191 0.003584 0.402235
O O11 0.936289 0.003292 0.682028
O O12 0.990172 0.234316 0.702771
O O13 0.223327 0.319181 0.617996
O O14 0.500000 0.416723 0.250000
#
# Coordination Sequence:
#
# PCOD8118380 Si02
#       7
#     4   4   4   4   4   4   2
#     4  10  21  38  60  80 101 146 193 226 264 325
#     4  10  24  35  54  86 118 140 177 233 279 318
#     4  10  19  39  58  82 111 145 185 227 267 326
#     4  12  22  38  56  85 113 141 187 230 272 327
#     4  11  19  36  61  81 112 152 182 216 272 332
#     4   9  19  35  56  84 111 144 183 219 272 331
#     4  10  20  38  58  80 104 148 188 226 276 318
#
# _framework density 20.030518000000001
#
# number of rings (size 3 to 8) (size 9 to 14) (size 15 to 20)
#    0.462    1.231    2.308    3.692    0.000    2.462 
#    0.000    0.769    0.000    0.000    0.000    0.000 
#    0.000    0.000    0.000    0.000    0.000    0.000 
#
# Total GULP energy -322168.743702 kJ/mol
# GULP energy per Si atom -12391.105527 kJ/mol
# Density = 1.998493 g / cm^3
# Si number density = 20.030518 Si / 1000 Ang^3
#
#
#
# Elastic Constant Matrix: (Units=GPa)
#
#
# Indices 1 2 3 4 5 6 
#
# 1 94.5239 34.0738 38.5756 0.0000 -26.6036 0.0000
# 2 34.0738 97.5977 27.5185 0.0000 -4.9735 0.0000
# 3 38.5756 27.5185 77.7464 0.0000 -3.3602 0.0000
# 4 0.0000 0.0000 0.0000 18.0127 0.0000 -4.7135
# 5 -26.6036 -4.9735 -3.3602 0.0000 31.9872 0.0000
# 6 0.0000 0.0000 0.0000 -4.7135 0.0000 9.1194
#
#
#
# Elastic Compliance Matrix: (Units=1/GPa)
#
#
# Indices 1 2 3 4 5 6 
#
# 1 0.019095 -0.003814 -0.007498 0.000000 0.014501 0.000000
# 2 -0.003814 0.012202 -0.002493 0.000000 -0.001536 0.000000
# 3 -0.007498 -0.002493 0.017257 0.000000 -0.004811 0.000000
# 4 0.000000 0.000000 0.000000 0.064199 0.000000 0.033183
# 5 0.014501 -0.001536 -0.004811 0.000000 0.042579 0.000000
# 6 0.000000 0.000000 0.000000 0.033183 0.000000 0.126807
#
#
# Mechanical properties :
#
#
# Convention : Reuss Voigt Hill
#
# Bulk Modulus (GPa) = 47.74383 52.24487 49.99435
# Shear Modulus (GPa) = 15.78627 23.13722 19.46175
#
# Velocity S-wave (km/s) = 2.81038 3.40236 3.12044
# Velocity P-wave (km/s) = 5.86671 6.44779 6.16410
#
# Compressibility (1/GPa) = 0.02094512
#
# Stress axis : x y z
#
# Youngs Moduli (GPa) = 52.36915 81.95221 57.94691
#
# Poissons Ratio (x) = 0.31253 0.43449
# Poissons Ratio (y) = 0.19971 0.14447
# Poissons Ratio (z) = 0.39266 0.20433
#
# Static dielectric constant tensor:
#      x y z
#    x 3.592740 0.000000 -0.059370 
#    y 0.000000 3.507710 0.000000 
#    z -0.059370 0.000000 3.379330 
# 
# 
# High freq. dielectric constant tensor:
#      x y z
#    x 1.778970 0.000000 -0.013740 
#    y 0.000000 1.779000 0.000000 
#    z -0.013740 0.000000 1.761840 
# 
# From -- ./inp_files/82666.got.cif
#   From: 2010.06.25/outbox.cif.g09.slc.cpg/sg13_42_cif.got.tgz:82666.got - 2010.06.28 04:50:58.
