data_PCOD8118356
_publ_section_title
;
Structure prediction by ZEFSAII (Michael W. Deem and Ramdas Pophale) SiO2 
 PCOD8118356
Probable space group: P 2/C
;
_chemical_formula_sum "Si O2"
_cell_formula_units_Z 20
_cell_length_a 8.674952
_cell_length_b 12.516493
_cell_length_c 10.095928
_cell_angle_alpha 90.000000
_cell_angle_beta 106.003244
_cell_angle_gamma 90.000000
_cell_volume 1053.732976
_symmetry_space_group_name_H-M "P 2/C"
_symmetry_group_IT_number 13
_symmetry_cell_setting 'monoclinic'
loop_
_space_group_symop_operation_xyz
x,y,z
-x,y,1/2-z
-x,-y,-z
x,-y,1/2+z
loop_
_atom_site_type_symbol
_atom_site_label
_atom_site_fract_x
_atom_site_fract_y
_atom_site_fract_z
Si Si1 0.617864 0.387993 0.396253
Si Si2 0.610390 0.000178 0.899338
Si Si3 0.190888 0.802039 0.645008
Si Si4 0.818101 0.812139 0.546301
Si Si5 0.595835 0.368486 0.902645
O O1 0.500000 0.360492 0.250000
O O2 0.773128 0.315169 0.406458
O O3 0.533722 0.356949 0.512509
O O4 0.667174 0.512140 0.407398
O O5 0.500000 0.031800 0.750000
O O6 0.695330 0.886228 0.901666
O O7 0.500000 0.000000 0.000000
O O8 0.746764 0.087972 0.951276
O O9 0.226689 0.811223 0.809518
O O10 0.006674 0.822077 0.568975
O O11 0.749647 0.705091 0.463367
O O12 0.500000 0.332937 0.750000
#
# Coordination Sequence:
#
# PCOD8118356 Si02
#       5
#     4   4   4   4   4
#     4  10  19  38  64  87 118 159 203 240 289 353
#     4  12  23  41  65  89 117 157 204 246 291 355
#     4  11  23  40  62  88 124 159 194 243 305 360
#     4  11  23  40  61  90 123 157 196 245 303 353
#     4  10  21  37  62  92 118 154 202 249 287 345
#
# _framework density 18.980142000000001
#
# number of rings (size 3 to 8) (size 9 to 14) (size 15 to 20)
#    0.000    1.200    4.000    3.000    0.000    0.800 
#    0.000    3.000    0.000    0.000    0.000    0.000 
#    0.000    0.000    0.000    0.000    0.000    0.000 
#
# Total GULP energy -248061.071954 kJ/mol
# GULP energy per Si atom -12403.053598 kJ/mol
# Density = 1.893694 g / cm^3
# Si number density = 18.980142 Si / 1000 Ang^3
#
#
#
# Elastic Constant Matrix: (Units=GPa)
#
#
# Indices 1 2 3 4 5 6 
#
# 1 111.5567 68.4368 63.5569 0.0000 2.8147 0.0000
# 2 68.4368 120.4745 47.8252 0.0000 11.0748 0.0000
# 3 63.5569 47.8252 141.0104 0.0000 5.3226 0.0000
# 4 0.0000 0.0000 0.0000 26.1196 0.0000 -6.7578
# 5 2.8147 11.0748 5.3226 0.0000 30.4292 0.0000
# 6 0.0000 0.0000 0.0000 -6.7578 0.0000 27.6262
#
#
#
# Elastic Compliance Matrix: (Units=1/GPa)
#
#
# Indices 1 2 3 4 5 6 
#
# 1 0.016300 -0.007515 -0.004877 0.000000 0.002080 0.000000
# 2 -0.007515 0.013325 -0.000982 0.000000 -0.003983 0.000000
# 3 -0.004877 -0.000982 0.009656 0.000000 -0.000881 0.000000
# 4 0.000000 0.000000 0.000000 0.040872 0.000000 0.009998
# 5 0.002080 -0.003983 -0.000881 0.000000 0.034274 0.000000
# 6 0.000000 0.000000 0.000000 0.009998 0.000000 0.038643
#
#
# Mechanical properties :
#
#
# Convention : Reuss Voigt Hill
#
# Bulk Modulus (GPa) = 79.77947 81.40881 80.59414
# Shear Modulus (GPa) = 27.17453 29.71651 28.44552
#
# Velocity S-wave (km/s) = 3.78793 3.96114 3.87550
# Velocity P-wave (km/s) = 7.82660 7.99409 7.91079
#
# Compressibility (1/GPa) = 0.01253455
#
# Stress axis : x y z
#
# Youngs Moduli (GPa) = 61.34983 75.04525 103.56271
#
# Poissons Ratio (x) = 0.56394 0.50504
# Poissons Ratio (y) = 0.46103 0.10170
# Poissons Ratio (z) = 0.29918 0.07370
#
# Static dielectric constant tensor:
#      x y z
#    x 3.300790 0.000000 0.025060 
#    y 0.000000 3.693720 0.000000 
#    z 0.025060 0.000000 3.723420 
# 
# 
# High freq. dielectric constant tensor:
#      x y z
#    x 1.730250 0.000000 -0.001170 
#    y 0.000000 1.751160 0.000000 
#    z -0.001170 0.000000 1.749310 
# 
# From -- ./inp_files/11671.got.cif
#   From: 2010.06.25/outbox.cif.g09.slc.cpg/sg13_6_cif.got.tgz:11671.got - 2010.06.28 04:50:58.
