data_PCOD8118637
_publ_section_title
;
Structure prediction by ZEFSAII (Michael W. Deem and Ramdas Pophale) SiO2 
 PCOD8118637
Probable space group: P 2/C
;
_chemical_formula_sum "Si O2"
_cell_formula_units_Z 32
_cell_length_a 21.696827
_cell_length_b 13.741621
_cell_length_c 9.700455
_cell_angle_alpha 90.000000
_cell_angle_beta 141.737009
_cell_angle_gamma 90.000000
_cell_volume 1791.050111
_symmetry_space_group_name_H-M "P 2/C"
_symmetry_group_IT_number 13
_symmetry_cell_setting 'monoclinic'
loop_
_space_group_symop_operation_xyz
x,y,z
-x,y,1/2-z
-x,-y,-z
x,-y,1/2+z
loop_
_atom_site_type_symbol
_atom_site_label
_atom_site_fract_x
_atom_site_fract_y
_atom_site_fract_z
Si Si1 0.397172 0.090853 0.152656
Si Si2 0.281270 0.637226 0.098531
Si Si3 0.931472 0.393995 0.751853
Si Si4 0.382175 0.298978 0.041267
Si Si5 0.707997 0.591119 0.881406
Si Si6 0.384824 0.707605 0.012204
Si Si7 0.057028 0.625209 0.719330
Si Si8 0.602371 0.079596 0.017509
O O1 0.500000 0.103943 0.250000
O O2 0.347667 0.197354 0.052484
O O3 0.410223 0.061481 0.338320
O O4 0.337646 0.007742 0.957670
O O5 0.345409 0.699253 0.319314
O O6 0.293636 0.523220 0.148963
O O7 0.318833 0.660455 0.013484
O O8 0.166573 0.671021 0.903602
O O9 0.816386 0.362756 0.538009
O O10 0.932798 0.509617 0.765805
O O11 0.000000 0.356164 0.750000
O O12 0.983592 0.340950 0.970497
O O13 0.500000 0.317183 0.250000
O O14 0.324500 0.385865 0.019015
O O15 0.626322 0.641889 0.642293
O O16 0.500000 0.708227 0.250000
O O17 0.344985 0.816697 0.911670
O O18 0.000000 0.665866 0.750000
O O19 0.500000 0.081373 0.750000
#
# Coordination Sequence:
#
# PCOD8118637 Si02
#       8
#     4   4   4   4   4   4   4   4
#     4  10  20  34  56  77 100 132 176 224 275 309
#     4  11  23  33  53  73 107 149 182 215 251 309
#     4   9  17  30  53  70  96 127 169 226 275 309
#     4  11  23  35  50  74 108 147 183 214 251 301
#     4  11  21  37  49  75 107 145 184 216 254 303
#     4  11  23  35  50  74 110 145 183 215 246 303
#     4   9  17  32  49  74  94 127 173 223 276 304
#     4  10  20  34  56  77 100 133 173 227 273 309
#
# _framework density 17.866613999999998
#
# number of rings (size 3 to 8) (size 9 to 14) (size 15 to 20)
#    0.000    1.750    1.250    4.500    7.000    7.000 
#    0.000    0.000    0.000    0.000    0.000    0.000 
#    0.000   20.000    0.000    0.000    0.000    0.000 
#
# Total GULP energy -396506.567689 kJ/mol
# GULP energy per Si atom -12390.830240 kJ/mol
# Density = 1.782595 g / cm^3
# Si number density = 17.866614 Si / 1000 Ang^3
#
#
#
# Elastic Constant Matrix: (Units=GPa)
#
#
# Indices 1 2 3 4 5 6 
#
# 1 95.7149 19.7529 36.2587 0.0000 -4.7737 0.0000
# 2 19.7529 71.0801 26.4539 0.0000 -2.3996 0.0000
# 3 36.2587 26.4539 82.2835 0.0000 -10.6453 0.0000
# 4 0.0000 0.0000 0.0000 10.1479 0.0000 -8.0722
# 5 -4.7737 -2.3996 -10.6453 0.0000 39.9580 0.0000
# 6 0.0000 0.0000 0.0000 -8.0722 0.0000 7.5005
#
#
#
# Elastic Compliance Matrix: (Units=1/GPa)
#
#
# Indices 1 2 3 4 5 6 
#
# 1 0.012708 -0.001645 -0.005062 0.000000 0.000071 0.000000
# 2 -0.001645 0.016201 -0.004539 0.000000 -0.000433 0.000000
# 3 -0.005062 -0.004539 0.016291 0.000000 0.003463 0.000000
# 4 0.000000 0.000000 0.000000 0.684744 0.000000 0.736935
# 5 0.000071 -0.000433 0.003463 0.000000 0.025931 0.000000
# 6 0.000000 0.000000 0.000000 0.736935 0.000000 0.926428
#
#
# Mechanical properties :
#
#
# Convention : Reuss Voigt Hill
#
# Bulk Modulus (GPa) = 44.03972 46.00103 45.02037
# Shear Modulus (GPa) = 2.91994 22.62883 12.77438
#
# Velocity S-wave (km/s) = 1.27978 3.56271 2.67682
# Velocity P-wave (km/s) = 5.18522 6.53657 5.89971
#
# Compressibility (1/GPa) = 0.02270678
#
# Stress axis : x y z
#
# Youngs Moduli (GPa) = 78.68868 61.72571 61.38338
#
# Poissons Ratio (x) = 0.10156 0.31071
# Poissons Ratio (y) = 0.12947 0.27865
# Poissons Ratio (z) = 0.39831 0.28020
#
# Static dielectric constant tensor:
#      x y z
#    x 2.381350 0.000000 -0.174570 
#    y 0.000000 3.740130 0.000000 
#    z -0.174570 0.000000 3.325390 
# 
# 
# High freq. dielectric constant tensor:
#      x y z
#    x 1.693400 0.000000 -0.026370 
#    y 0.000000 1.666860 0.000000 
#    z -0.026370 0.000000 1.685280 
# 
# From -- ./inp_files/19353.got.cif
#   From: 2010.06.25/outbox.cif.g09.slc.cpg/sg13_10_cif.got.tgz:19353.got - 2010.06.28 04:50:58.
