data_PCOD8118769
_publ_section_title
;
Structure prediction by ZEFSAII (Michael W. Deem and Ramdas Pophale) SiO2 
 PCOD8118769
Probable space group: P 2/C
;
_chemical_formula_sum "Si O2"
_cell_formula_units_Z 24
_cell_length_a 12.761662
_cell_length_b 6.663767
_cell_length_c 19.484042
_cell_angle_alpha 90.000000
_cell_angle_beta 134.692068
_cell_angle_gamma 90.000000
_cell_volume 1177.911563
_symmetry_space_group_name_H-M "P 2/C"
_symmetry_group_IT_number 13
_symmetry_cell_setting 'monoclinic'
loop_
_space_group_symop_operation_xyz
x,y,z
-x,y,1/2-z
-x,-y,-z
x,-y,1/2+z
loop_
_atom_site_type_symbol
_atom_site_label
_atom_site_fract_x
_atom_site_fract_y
_atom_site_fract_z
Si Si1 0.438989 0.469900 0.572693
Si Si2 0.331019 0.346117 0.152960
Si Si3 0.878106 0.036768 0.386773
Si Si4 0.406716 0.804646 0.941215
Si Si5 0.750432 0.369849 0.770117
Si Si6 0.885242 0.279406 0.258866
O O1 0.322102 0.560338 0.572875
O O2 0.485327 0.660568 0.550131
O O3 0.355400 0.306063 0.487706
O O4 0.578815 0.352869 0.669853
O O5 0.500000 0.319610 0.250000
O O6 0.240444 0.499603 0.157318
O O7 0.256212 0.130523 0.130808
O O8 0.823603 0.840728 0.321275
O O9 0.942629 0.180677 0.356256
O O10 0.000000 0.000000 0.500000
O O11 0.260473 0.848724 0.829756
O O12 0.500000 0.000000 0.000000
O O13 0.841017 0.487287 0.751989
O O14 0.000000 0.268097 0.250000
#
# Coordination Sequence:
#
# PCOD8118769 Si02
#       6
#     4   4   4   4   4   4
#     4   9  19  35  57  86 112 146 192 240 297 350
#     4   9  20  37  58  85 114 148 195 243 291 352
#     4  11  24  39  59  88 121 158 199 245 297 356
#     4  10  20  35  58  84 114 148 191 245 293 349
#     4   9  20  39  57  80 117 152 189 242 297 349
#     4  10  23  40  57  83 118 156 199 244 295 359
#
# _framework density 20.375045
#
# number of rings (size 3 to 8) (size 9 to 14) (size 15 to 20)
#    0.000    2.333    0.000    2.000    0.000   10.667 
#    0.000    0.000    0.000    0.000    0.000    0.000 
#    0.000    0.000    0.000    0.000    0.000    0.000 
#
# Total GULP energy -297456.888218 kJ/mol
# GULP energy per Si atom -12394.037009 kJ/mol
# Density = 2.032867 g / cm^3
# Si number density = 20.375045 Si / 1000 Ang^3
#
#
#
# Elastic Constant Matrix: (Units=GPa)
#
#
# Indices 1 2 3 4 5 6 
#
# 1 119.1749 41.4275 30.5038 0.0000 -21.1291 0.0000
# 2 41.4275 85.0978 40.6092 0.0000 -2.4467 0.0000
# 3 30.5038 40.6092 93.5964 0.0000 -21.2052 0.0000
# 4 0.0000 0.0000 0.0000 36.4680 0.0000 -8.0274
# 5 -21.1291 -2.4467 -21.2052 0.0000 24.8727 0.0000
# 6 0.0000 0.0000 0.0000 -8.0274 0.0000 25.5500
#
#
#
# Elastic Compliance Matrix: (Units=1/GPa)
#
#
# Indices 1 2 3 4 5 6 
#
# 1 0.012124 -0.006132 0.001123 0.000000 0.010653 0.000000
# 2 -0.006132 0.018437 -0.008391 0.000000 -0.010549 0.000000
# 3 0.001123 -0.008391 0.017337 0.000000 0.014909 0.000000
# 4 0.000000 0.000000 0.000000 0.029459 0.000000 0.009255
# 5 0.010653 -0.010549 0.014909 0.000000 0.060927 0.000000
# 6 0.000000 0.000000 0.000000 0.009255 0.000000 0.042047
#
#
# Mechanical properties :
#
#
# Convention : Reuss Voigt Hill
#
# Bulk Modulus (GPa) = 47.39865 58.10559 52.75212
# Shear Modulus (GPa) = 23.34671 29.73337 26.54004
#
# Velocity S-wave (km/s) = 3.38871 3.82423 3.61304
# Velocity P-wave (km/s) = 6.21488 6.93394 6.58423
#
# Compressibility (1/GPa) = 0.02109765
#
# Stress axis : x y z
#
# Youngs Moduli (GPa) = 82.48180 54.23827 57.68117
#
# Poissons Ratio (x) = 0.33257 -0.06476
# Poissons Ratio (y) = 0.50575 0.48401
# Poissons Ratio (z) = -0.09260 0.45512
#
# Static dielectric constant tensor:
#      x y z
#    x 3.701070 0.000000 -0.357560 
#    y 0.000000 3.681740 0.000000 
#    z -0.357560 0.000000 3.938960 
# 
# 
# High freq. dielectric constant tensor:
#      x y z
#    x 1.786770 0.000000 -0.020630 
#    y 0.000000 1.792430 0.000000 
#    z -0.020630 0.000000 1.799170 
# 
# From -- ./inp_files/79116.got.cif
#   From: 2010.06.25/outbox.cif.g09.slc.cpg/sg13_40_cif.got.tgz:79116.got - 2010.06.28 04:50:58.
