data_PCOD8118625
_publ_section_title
;
Structure prediction by ZEFSAII (Michael W. Deem and Ramdas Pophale) SiO2 
 PCOD8118625
Probable space group: P 2/C
;
_chemical_formula_sum "Si O2"
_cell_formula_units_Z 22
_cell_length_a 13.129560
_cell_length_b 8.340712
_cell_length_c 12.149531
_cell_angle_alpha 90.000000
_cell_angle_beta 122.851451
_cell_angle_gamma 90.000000
_cell_volume 1117.720874
_symmetry_space_group_name_H-M "P 2/C"
_symmetry_group_IT_number 13
_symmetry_cell_setting 'monoclinic'
loop_
_space_group_symop_operation_xyz
x,y,z
-x,y,1/2-z
-x,-y,-z
x,-y,1/2+z
loop_
_atom_site_type_symbol
_atom_site_label
_atom_site_fract_x
_atom_site_fract_y
_atom_site_fract_z
Si Si1 0.000000 0.954115 0.250000
Si Si2 0.293243 0.554562 0.879149
Si Si3 0.381436 0.939846 0.487077
Si Si4 0.199211 0.176664 0.473791
Si Si5 0.508598 0.367378 0.374020
Si Si6 0.808516 0.232281 0.771834
O O1 0.933521 0.836592 0.296785
O O2 0.913252 0.067338 0.127708
O O3 0.204855 0.664106 0.901220
O O4 0.368606 0.656874 0.832857
O O5 0.210442 0.416750 0.776011
O O6 0.407949 0.489525 0.012084
O O7 0.419301 0.799348 0.591921
O O8 0.297131 0.878174 0.338560
O O9 0.500000 0.000000 0.500000
O O10 0.321926 0.077142 0.526539
O O11 0.187757 0.225481 0.594043
O O12 0.500000 0.445748 0.250000
#
# Coordination Sequence:
#
# PCOD8118625 Si02
#       6
#     2   4   4   4   4   4
#     4  10  24  44  62  90 118 148 220 258 292 374
#     4  10  21  38  56  89 124 154 205 241 293 374
#     4  10  21  36  56  93 123 151 200 241 284 370
#     4  11  22  40  66  87 120 164 201 251 312 345
#     4  10  20  34  54  85 128 160 188 237 292 355
#     4  10  23  41  62  86 123 161 197 256 307 350
#
# _framework density 19.682911000000001
#
# number of rings (size 3 to 8) (size 9 to 14) (size 15 to 20)
#    0.000    1.818    1.818    1.636    2.545    0.727 
#    0.000    7.273    0.000    0.000    0.000    0.000 
#    0.000    0.000    0.000    0.000    0.000    0.000 
#
# Total GULP energy -272690.465341 kJ/mol
# GULP energy per Si atom -12395.021152 kJ/mol
# Density = 1.963811 g / cm^3
# Si number density = 19.682911 Si / 1000 Ang^3
#
#
#
# Elastic Constant Matrix: (Units=GPa)
#
#
# Indices 1 2 3 4 5 6 
#
# 1 147.2589 67.1425 65.8731 0.0000 -11.6790 0.0000
# 2 67.1425 120.9617 49.9556 0.0000 -8.4817 0.0000
# 3 65.8731 49.9556 102.5237 0.0000 -24.8108 0.0000
# 4 0.0000 0.0000 0.0000 -4.4575 0.0000 2.1539
# 5 -11.6790 -8.4817 -24.8108 0.0000 34.2753 0.0000
# 6 0.0000 0.0000 0.0000 2.1539 0.0000 41.1611
#
#
#
# Elastic Compliance Matrix: (Units=1/GPa)
#
#
# Indices 1 2 3 4 5 6 
#
# 1 0.010880 -0.003904 -0.005365 0.000000 -0.001142 0.000000
# 2 -0.003904 0.011800 -0.003463 0.000000 -0.000917 0.000000
# 3 -0.005365 -0.003463 0.017263 0.000000 0.009811 0.000000
# 4 0.000000 0.000000 0.000000 -0.218809 0.000000 0.011450
# 5 -0.001142 -0.000917 0.009811 0.000000 0.035661 0.000000
# 6 0.000000 0.000000 0.000000 0.011450 0.000000 0.023696
#
#
# Mechanical properties :
#
#
# Convention : Reuss Voigt Hill
#
# Bulk Modulus (GPa) = 69.06716 81.85405 75.46060
# Shear Modulus (GPa) = -56.04154 26.71398 -14.66378
#
# Velocity S-wave (km/s) = -5.34172 3.68804 -2.73243
# Velocity P-wave (km/s) = 1.69683 7.73383 5.33540
#
# Compressibility (1/GPa) = 0.01447866
#
# Stress axis : x y z
#
# Youngs Moduli (GPa) = 91.91299 84.74644 57.92849
#
# Poissons Ratio (x) = 0.33082 0.31078
# Poissons Ratio (y) = 0.35879 0.20063
# Poissons Ratio (z) = 0.49310 0.29352
#
# Static dielectric constant tensor:
#      x y z
#    x 3.578540 0.000000 -0.073880 
#    y 0.000000 17.802170 0.000000 
#    z -0.073880 0.000000 3.623050 
# 
# 
# High freq. dielectric constant tensor:
#      x y z
#    x 1.772870 0.000000 -0.004450 
#    y 0.000000 1.774050 0.000000 
#    z -0.004450 0.000000 1.760680 
# 
# From -- ./inp_files/32148.got.cif
#   From: 2010.06.25/outbox.cif.g09.slc.cpg/sg13_17_cif.got.tgz:32148.got - 2010.06.28 04:50:58.
