data_PCOD8118854
_publ_section_title
;
Structure prediction by ZEFSAII (Michael W. Deem and Ramdas Pophale) SiO2 
 PCOD8118854
Probable space group: P 2/C
;
_chemical_formula_sum "Si O2"
_cell_formula_units_Z 30
_cell_length_a 7.395981
_cell_length_b 12.057553
_cell_length_c 25.728904
_cell_angle_alpha 90.000000
_cell_angle_beta 37.052099
_cell_angle_gamma 90.000000
_cell_volume 1382.492669
_symmetry_space_group_name_H-M "P 2/C"
_symmetry_group_IT_number 13
_symmetry_cell_setting 'monoclinic'
loop_
_space_group_symop_operation_xyz
x,y,z
-x,y,1/2-z
-x,-y,-z
x,-y,1/2+z
loop_
_atom_site_type_symbol
_atom_site_label
_atom_site_fract_x
_atom_site_fract_y
_atom_site_fract_z
Si Si1 0.658172 0.277427 0.765060
Si Si2 0.128111 0.783575 0.453301
Si Si3 0.517156 0.036868 0.576177
Si Si4 0.643643 0.171150 0.986638
Si Si5 0.000000 0.877560 0.250000
Si Si6 0.244383 0.408863 0.427689
Si Si7 0.805777 0.477083 0.242370
Si Si8 0.361059 0.397681 0.063554
O O1 0.500000 0.230953 0.750000
O O2 0.445294 0.273639 0.865502
O O3 0.782483 0.399188 0.726068
O O4 0.942366 0.199324 0.712416
O O5 0.182463 0.899114 0.472242
O O6 0.970803 0.791398 0.432131
O O7 0.939479 0.705724 0.536215
O O8 0.361788 0.095756 0.562590
O O9 0.282572 0.042920 0.676939
O O10 0.553629 0.907075 0.556479
O O11 0.429021 0.276649 0.023450
O O12 0.458846 0.433661 0.328388
O O13 0.487287 0.396377 0.416005
O O14 0.000000 0.500000 0.500000
O O15 0.000000 0.476469 0.250000
O O16 0.999347 0.410774 0.153995
O O17 0.500000 0.500000 0.000000
#
# Coordination Sequence:
#
# PCOD8118854 Si02
#       8
#     4   4   4   4   2   4   4   4
#     4  11  21  32  57  89 121 154 202 254 298 356
#     4  10  21  37  61  89 117 160 203 254 301 362
#     4  10  22  40  66  85 119 159 202 256 303 361
#     4  10  22  42  61  90 118 155 209 248 305 367
#     4  10  22  38  58  90 116 156 204 254 300 354
#     4  10  20  36  55  87 121 161 200 244 304 367
#     4  10  21  37  54  84 124 164 198 245 304 369
#     4  10  24  36  61  88 120 163 196 250 307 366
#
# _framework density 21.699935
#
# number of rings (size 3 to 8) (size 9 to 14) (size 15 to 20)
#    0.000    1.867    2.000    1.200    7.467    0.000 
#    6.000    0.000    0.000    0.000    0.000    0.000 
#    0.000    0.000    0.000    0.000    0.000    0.000 
#
# Total GULP energy -371660.510469 kJ/mol
# GULP energy per Si atom -12388.683682 kJ/mol
# Density = 2.165055 g / cm^3
# Si number density = 21.699935 Si / 1000 Ang^3
#
#
#
# Elastic Constant Matrix: (Units=GPa)
#
#
# Indices 1 2 3 4 5 6 
#
# 1 54.0741 2.3486 -9.0658 0.0000 -12.1343 0.0000
# 2 2.3486 116.1709 39.8726 0.0000 -7.6582 0.0000
# 3 -9.0658 39.8726 112.5054 0.0000 -21.0283 0.0000
# 4 0.0000 0.0000 0.0000 15.0799 0.0000 -1.7394
# 5 -12.1343 -7.6582 -21.0283 0.0000 22.7355 0.0000
# 6 0.0000 0.0000 0.0000 -1.7394 0.0000 28.0072
#
#
#
# Elastic Compliance Matrix: (Units=1/GPa)
#
#
# Indices 1 2 3 4 5 6 
#
# 1 0.023317 -0.001236 0.005519 0.000000 0.017133 0.000000
# 2 -0.001236 0.009866 -0.003746 0.000000 -0.000801 0.000000
# 3 0.005519 -0.003746 0.013270 0.000000 0.013957 0.000000
# 4 0.000000 0.000000 0.000000 0.066792 0.000000 0.004148
# 5 0.017133 -0.000801 0.013957 0.000000 0.065768 0.000000
# 6 0.000000 0.000000 0.000000 0.004148 0.000000 0.035963
#
#
# Mechanical properties :
#
#
# Convention : Reuss Voigt Hill
#
# Bulk Modulus (GPa) = 21.04083 38.78457 29.91270
# Shear Modulus (GPa) = 21.76351 29.80420 25.78386
#
# Velocity S-wave (km/s) = 3.17034 3.71006 3.45077
# Velocity P-wave (km/s) = 4.80820 6.02201 5.44901
#
# Compressibility (1/GPa) = 0.04752665
#
# Stress axis : x y z
#
# Youngs Moduli (GPa) = 42.88728 101.35956 75.36066
#
# Poissons Ratio (x) = 0.12531 -0.41595
# Poissons Ratio (y) = 0.05302 0.28229
# Poissons Ratio (z) = -0.23671 0.37968
#
# Static dielectric constant tensor:
#      x y z
#    x 3.888620 0.000000 -0.250760 
#    y 0.000000 3.910120 0.000000 
#    z -0.250760 0.000000 4.116440 
# 
# 
# High freq. dielectric constant tensor:
#      x y z
#    x 1.855290 0.000000 -0.013100 
#    y 0.000000 1.836940 0.000000 
#    z -0.013100 0.000000 1.849660 
# 
# From -- ./inp_files/96069.got.cif
#   From: 2010.06.25/outbox.cif.g09.slc.cpg/sg13_49_cif.got.tgz:96069.got - 2010.06.28 04:50:58.
