data_PCOD8118877
_publ_section_title
;
Structure prediction by ZEFSAII (Michael W. Deem and Ramdas Pophale) SiO2 
 PCOD8118877
Probable space group: P 2/C
;
_chemical_formula_sum "Si O2"
_cell_formula_units_Z 28
_cell_length_a 12.605886
_cell_length_b 13.554721
_cell_length_c 9.712697
_cell_angle_alpha 90.000000
_cell_angle_beta 58.981667
_cell_angle_gamma 90.000000
_cell_volume 1422.282502
_symmetry_space_group_name_H-M "P 2/C"
_symmetry_group_IT_number 13
_symmetry_cell_setting 'monoclinic'
loop_
_space_group_symop_operation_xyz
x,y,z
-x,y,1/2-z
-x,-y,-z
x,-y,1/2+z
loop_
_atom_site_type_symbol
_atom_site_label
_atom_site_fract_x
_atom_site_fract_y
_atom_site_fract_z
Si Si1 0.386987 0.537726 0.222492
Si Si2 0.237027 0.117205 0.806629
Si Si3 0.748064 0.303259 0.542946
Si Si4 0.969231 0.114073 0.007850
Si Si5 0.000000 0.230527 0.250000
Si Si6 0.436815 0.656667 0.569016
Si Si7 0.500000 0.812198 0.750000
Si Si8 0.734725 0.068300 0.019182
O O1 0.500000 0.531558 0.250000
O O2 0.267288 0.590931 0.370382
O O3 0.351537 0.425928 0.203429
O O4 0.436805 0.602243 0.061543
O O5 0.299137 0.217735 0.819433
O O6 0.287169 0.068167 0.631933
O O7 0.248188 0.040307 0.926538
O O8 0.098162 0.157565 0.867737
O O9 0.647771 0.294924 0.489994
O O10 0.889067 0.294892 0.391981
O O11 0.856606 0.132200 0.977543
O O12 0.935485 0.161093 0.178649
O O13 0.000000 0.000000 0.000000
O O14 0.486203 0.745186 0.626778
O O15 0.382523 0.882432 0.834079
#
# Coordination Sequence:
#
# PCOD8118877 Si02
#       8
#     4   4   4   4   2   4   2   4
#     4   9  18  37  60  88 108 146 202 250 298 355
#     4  10  23  39  60  85 119 157 208 240 295 348
#     4  10  21  38  61  84 121 154 193 255 300 358
#     4   9  20  33  63  80 115 151 213 248 281 330
#     4  10  20  36  56  92 118 158 198 246 308 358
#     4  10  20  36  62  86 111 150 199 251 299 357
#     4  12  24  36  56  84 130 150 200 242 306 358
#     4  11  24  38  56  87 120 165 197 248 288 357
#
# _framework density 19.686665999999999
#
# number of rings (size 3 to 8) (size 9 to 14) (size 15 to 20)
#    0.000    2.000    0.714    2.143   14.000    0.571 
#    3.857    0.714    0.000    0.000    0.000    0.000 
#    0.000    0.000    0.000    0.000    0.000    0.000 
#
# Total GULP energy -346904.227557 kJ/mol
# GULP energy per Si atom -12389.436698 kJ/mol
# Density = 1.964186 g / cm^3
# Si number density = 19.686666 Si / 1000 Ang^3
#
#
#
# Elastic Constant Matrix: (Units=GPa)
#
#
# Indices 1 2 3 4 5 6 
#
# 1 78.4987 45.7821 22.1242 0.0000 -1.2073 0.0000
# 2 45.7821 69.6714 26.7728 0.0000 0.6295 0.0000
# 3 22.1242 26.7728 76.9767 0.0000 3.8924 0.0000
# 4 0.0000 0.0000 0.0000 37.6945 0.0000 7.0552
# 5 -1.2073 0.6295 3.8924 0.0000 31.3095 0.0000
# 6 0.0000 0.0000 0.0000 7.0552 0.0000 25.9939
#
#
#
# Elastic Compliance Matrix: (Units=1/GPa)
#
#
# Indices 1 2 3 4 5 6 
#
# 1 0.020836 -0.013132 -0.001484 0.000000 0.001252 0.000000
# 2 -0.013132 0.024849 -0.004848 0.000000 -0.000403 0.000000
# 3 -0.001484 -0.004848 0.015197 0.000000 -0.001849 0.000000
# 4 0.000000 0.000000 0.000000 0.027949 0.000000 -0.007586
# 5 0.001252 -0.000403 -0.001849 0.000000 0.032225 0.000000
# 6 0.000000 0.000000 0.000000 -0.007586 0.000000 0.040530
#
#
# Mechanical properties :
#
#
# Convention : Reuss Voigt Hill
#
# Bulk Modulus (GPa) = 45.55185 46.05611 45.80398
# Shear Modulus (GPa) = 24.05784 27.69743 25.87763
#
# Velocity S-wave (km/s) = 3.49956 3.75495 3.62950
# Velocity P-wave (km/s) = 6.28632 6.49961 6.39386
#
# Compressibility (1/GPa) = 0.02195301
#
# Stress axis : x y z
#
# Youngs Moduli (GPa) = 47.99447 40.24290 65.80191
#
# Poissons Ratio (x) = 0.52849 0.09767
# Poissons Ratio (y) = 0.63028 0.31899
# Poissons Ratio (z) = 0.07124 0.19509
#
# Static dielectric constant tensor:
#      x y z
#    x 6.013670 0.000000 0.063880 
#    y 0.000000 3.263330 0.000000 
#    z 0.063880 0.000000 3.808490 
# 
# 
# High freq. dielectric constant tensor:
#      x y z
#    x 1.757720 0.000000 0.013130 
#    y 0.000000 1.755240 0.000000 
#    z 0.013130 0.000000 1.770720 
# 
# From -- ./inp_files/16716.got.cif
#   From: 2010.06.25/outbox.cif.g09.slc.cpg/sg13_9_cif.got.tgz:16716.got - 2010.06.28 04:50:58.
