data_PCOD8118873
_publ_section_title
;
Structure prediction by ZEFSAII (Michael W. Deem and Ramdas Pophale) SiO2 
 PCOD8118873
Probable space group: P 2/C
;
_chemical_formula_sum "Si O2"
_cell_formula_units_Z 24
_cell_length_a 4.848736
_cell_length_b 10.784976
_cell_length_c 19.911241
_cell_angle_alpha 90.000000
_cell_angle_beta 64.169945
_cell_angle_gamma 90.000000
_cell_volume 937.199726
_symmetry_space_group_name_H-M "P 2/C"
_symmetry_group_IT_number 13
_symmetry_cell_setting 'monoclinic'
loop_
_space_group_symop_operation_xyz
x,y,z
-x,y,1/2-z
-x,-y,-z
x,-y,1/2+z
loop_
_atom_site_type_symbol
_atom_site_label
_atom_site_fract_x
_atom_site_fract_y
_atom_site_fract_z
Si Si1 0.331274 0.611608 0.198578
Si Si2 0.759358 0.750000 0.445537
Si Si3 0.668726 0.111608 0.801422
Si Si4 0.926625 0.750000 0.947946
Si Si5 0.913386 0.006304 0.586387
Si Si6 0.086614 0.493696 0.913613
O O1 0.500000 0.631827 0.250000
O O2 0.295127 0.750000 0.167462
O O3 0.546131 0.522714 0.131002
O O4 0.000000 0.550659 0.250000
O O5 0.394544 0.750000 0.478081
O O6 0.826231 0.750000 0.518033
O O7 0.907920 0.877279 0.396968
O O8 0.907920 0.622721 0.396968
O O9 0.500000 0.131827 0.750000
O O10 0.453869 0.022714 0.868998
O O11 0.000000 0.050659 0.750000
O O12 0.979049 0.627602 0.895720
O O13 0.979049 0.872398 0.895720
O O14 0.000000 0.000000 0.500000
O O15 0.000000 0.500000 0.000000
#
# Coordination Sequence:
#
# PCOD8118873 Si02
#       6
#     4   4   4   4   4   4
#     4  10  22  40  62  89 121 161 205 252 302 360
#     4  10  20  36  56  86 120 154 197 250 293 350
#     4  10  22  40  62  89 121 161 205 252 302 360
#     4  10  22  34  56  88 120 152 195 248 307 346
#     4  10  21  40  62  92 122 162 205 254 301 363
#     4  10  21  40  62  92 122 162 205 254 301 363
#
# _framework density 25.608204000000001
#
# number of rings (size 3 to 8) (size 9 to 14) (size 15 to 20)
#    0.000    2.000    1.667    1.000    0.000   10.667 
#    0.000    1.667    0.000    0.000    0.000    0.000 
#    0.000    0.000    0.000    0.000    0.000    0.000 
#
# Total GULP energy -297556.144969 kJ/mol
# GULP energy per Si atom -12398.172707 kJ/mol
# Density = 2.554992 g / cm^3
# Si number density = 25.608204 Si / 1000 Ang^3
#
#
#
# Elastic Constant Matrix: (Units=GPa)
#
#
# Indices 1 2 3 4 5 6 
#
# 1 59.7946 43.7326 39.4597 0.0000 -37.2124 0.0000
# 2 43.7326 253.7045 84.0280 0.0000 -33.8696 0.0000
# 3 39.4597 84.0280 202.7803 0.0000 -65.4336 0.0000
# 4 0.0000 0.0000 0.0000 91.3832 0.0000 7.1437
# 5 -37.2124 -33.8696 -65.4336 0.0000 49.2577 0.0000
# 6 0.0000 0.0000 0.0000 7.1437 0.0000 34.1451
#
#
#
# Elastic Compliance Matrix: (Units=1/GPa)
#
#
# Indices 1 2 3 4 5 6 
#
# 1 0.034850 -0.003450 0.004162 0.000000 0.029485 0.000000
# 2 -0.003450 0.004944 -0.001963 0.000000 -0.001814 0.000000
# 3 0.004162 -0.001963 0.009651 0.000000 0.014615 0.000000
# 4 0.000000 0.000000 0.000000 0.011125 0.000000 -0.002328
# 5 0.029485 -0.001814 0.014615 0.000000 0.060743 0.000000
# 6 0.000000 0.000000 0.000000 -0.002328 0.000000 0.029774
#
#
# Mechanical properties :
#
#
# Convention : Reuss Voigt Hill
#
# Bulk Modulus (GPa) = 21.30198 94.52447 57.91322
# Shear Modulus (GPa) = 29.54481 58.22780 43.88631
#
# Velocity S-wave (km/s) = 3.40034 4.77361 4.14425
# Velocity P-wave (km/s) = 4.87369 8.20823 6.75011
#
# Compressibility (1/GPa) = 0.04694399
#
# Stress axis : x y z
#
# Youngs Moduli (GPa) = 28.69481 202.25912 103.61857
#
# Poissons Ratio (x) = 0.69770 -0.43127
# Poissons Ratio (y) = 0.09898 0.20338
# Poissons Ratio (z) = -0.11943 0.39698
#
# Static dielectric constant tensor:
#      x y z
#    x 9.633050 0.000000 0.165840 
#    y 0.000000 7.773740 0.000000 
#    z 0.165840 0.000000 4.935400 
# 
# 
# High freq. dielectric constant tensor:
#      x y z
#    x 2.040290 0.000000 -0.009570 
#    y 0.000000 2.014270 0.000000 
#    z -0.009570 0.000000 2.016900 
# 
# From -- ./inp_files/95189.got.cif
#   From: 2010.06.25/outbox.cif.g09.slc.cpg/sg13_48_cif.got.tgz:95189.got - 2010.06.28 04:50:58.
