data_PCOD8118602
_publ_section_title
;
Structure prediction by ZEFSAII (Michael W. Deem and Ramdas Pophale) SiO2 
 PCOD8118602
Probable space group: P 2/C
;
_chemical_formula_sum "Si O2"
_cell_formula_units_Z 26
_cell_length_a 14.592543
_cell_length_b 11.066887
_cell_length_c 8.983689
_cell_angle_alpha 90.000000
_cell_angle_beta 62.823677
_cell_angle_gamma 90.000000
_cell_volume 1290.649965
_symmetry_space_group_name_H-M "P 2/C"
_symmetry_group_IT_number 13
_symmetry_cell_setting 'monoclinic'
loop_
_space_group_symop_operation_xyz
x,y,z
-x,y,1/2-z
-x,-y,-z
x,-y,1/2+z
loop_
_atom_site_type_symbol
_atom_site_label
_atom_site_fract_x
_atom_site_fract_y
_atom_site_fract_z
Si Si1 0.016447 0.359972 0.009279
Si Si2 0.225740 0.369607 0.980019
Si Si3 0.000000 0.786947 0.250000
Si Si4 0.213302 0.622473 0.819157
Si Si5 0.205895 0.859476 0.968358
Si Si6 0.614010 0.833474 0.166192
Si Si7 0.310752 0.001990 0.145319
O O1 0.900474 0.319841 0.131480
O O2 0.104570 0.328870 0.065884
O O3 0.000000 0.500000 0.000000
O O4 0.057213 0.300014 0.826070
O O5 0.228273 0.494080 0.886319
O O6 0.301016 0.268434 0.855039
O O7 0.265339 0.389699 0.118927
O O8 0.914417 0.865932 0.397330
O O9 0.256448 0.727430 0.894757
O O10 0.217994 0.943605 0.813979
O O11 0.269044 0.904042 0.062438
O O12 0.500000 0.775003 0.250000
O O13 0.612473 0.936311 0.295743
O O14 0.635528 0.890376 0.987202
#
# Coordination Sequence:
#
# PCOD8118602 Si02
#       7
#     4   4   2   4   4   4   4
#     4   9  20  30  56  85 119 161 203 233 284 352
#     4  11  22  37  61  87 122 160 197 248 302 355
#     4  10  20  34  52  88 128 158 200 244 288 360
#     4  10  22  36  60  88 126 157 198 239 297 370
#     4  10  21  39  60  89 121 160 200 245 298 361
#     4  11  23  42  66  90 116 153 208 258 309 357
#     4  10  22  41  66  84 116 159 203 257 302 351
#
# _framework density 20.144888000000002
#
# number of rings (size 3 to 8) (size 9 to 14) (size 15 to 20)
#    0.000    1.846    1.538    1.846   15.077    0.615 
#    0.000    2.308    0.000    0.000    0.000    0.000 
#    0.000    0.000    0.000    0.000    0.000    0.000 
#
# Total GULP energy -322092.788250 kJ/mol
# GULP energy per Si atom -12388.184163 kJ/mol
# Density = 2.009904 g / cm^3
# Si number density = 20.144888 Si / 1000 Ang^3
#
#
#
# Elastic Constant Matrix: (Units=GPa)
#
#
# Indices 1 2 3 4 5 6 
#
# 1 74.7847 43.3155 41.8658 0.0000 -9.4789 0.0000
# 2 43.3155 91.9190 39.0194 0.0000 -1.3196 0.0000
# 3 41.8658 39.0194 109.7114 0.0000 14.9016 0.0000
# 4 0.0000 0.0000 0.0000 35.4775 0.0000 6.2266
# 5 -9.4789 -1.3196 14.9016 0.0000 30.4750 0.0000
# 6 0.0000 0.0000 0.0000 6.2266 0.0000 27.8803
#
#
#
# Elastic Compliance Matrix: (Units=1/GPa)
#
#
# Indices 1 2 3 4 5 6 
#
# 1 0.023462 -0.007636 -0.007695 0.000000 0.010730 0.000000
# 2 -0.007636 0.015557 -0.002558 0.000000 -0.000451 0.000000
# 3 -0.007695 -0.002558 0.014247 0.000000 -0.009471 0.000000
# 4 0.000000 0.000000 0.000000 0.029337 0.000000 -0.006552
# 5 0.010730 -0.000451 -0.009471 0.000000 0.040762 0.000000
# 6 0.000000 0.000000 0.000000 -0.006552 0.000000 0.037331
#
#
# Mechanical properties :
#
#
# Convention : Reuss Voigt Hill
#
# Bulk Modulus (GPa) = 57.17771 58.31294 57.74532
# Shear Modulus (GPa) = 24.71550 28.91419 26.81484
#
# Velocity S-wave (km/s) = 3.50649 3.79266 3.65238
# Velocity P-wave (km/s) = 6.69618 6.94180 6.82010
#
# Compressibility (1/GPa) = 0.01748933
#
# Stress axis : x y z
#
# Youngs Moduli (GPa) = 42.62224 64.28115 70.18923
#
# Poissons Ratio (x) = 0.49083 0.54009
# Poissons Ratio (y) = 0.32545 0.17953
# Poissons Ratio (z) = 0.32797 0.16442
#
# Static dielectric constant tensor:
#      x y z
#    x 3.067120 0.000000 0.188630 
#    y 0.000000 3.562920 0.000000 
#    z 0.188630 0.000000 3.810300 
# 
# 
# High freq. dielectric constant tensor:
#      x y z
#    x 1.756550 0.000000 0.020610 
#    y 0.000000 1.780210 0.000000 
#    z 0.020610 0.000000 1.797350 
# 
# From -- ./inp_files/18683.got.cif
#   From: 2010.06.25/outbox.cif.g09.slc.cpg/sg13_10_cif.got.tgz:18683.got - 2010.06.28 04:50:58.
