data_PCOD8118530
_publ_section_title
;
Structure prediction by ZEFSAII (Michael W. Deem and Ramdas Pophale) SiO2 
 PCOD8118530
Probable space group: P 2/C
;
_chemical_formula_sum "Si O2"
_cell_formula_units_Z 20
_cell_length_a 8.853240
_cell_length_b 8.414995
_cell_length_c 14.068822
_cell_angle_alpha 90.000000
_cell_angle_beta 106.494255
_cell_angle_gamma 90.000000
_cell_volume 1004.994525
_symmetry_space_group_name_H-M "P 2/C"
_symmetry_group_IT_number 13
_symmetry_cell_setting 'monoclinic'
loop_
_space_group_symop_operation_xyz
x,y,z
-x,y,1/2-z
-x,-y,-z
x,-y,1/2+z
loop_
_atom_site_type_symbol
_atom_site_label
_atom_site_fract_x
_atom_site_fract_y
_atom_site_fract_z
Si Si1 0.500000 0.519805 0.750000
Si Si2 0.796904 0.729184 0.815614
Si Si3 0.327815 0.129032 0.035653
Si Si4 0.689726 0.308376 0.648187
Si Si5 0.000000 0.498026 0.750000
Si Si6 0.668082 0.039637 0.145531
O O1 0.642304 0.626983 0.811493
O O2 0.553554 0.413214 0.670517
O O3 0.811915 0.841256 0.912002
O O4 0.943424 0.611143 0.826978
O O5 0.779900 0.832961 0.716308
O O6 0.487314 0.095266 0.122776
O O7 0.348685 0.283480 0.970682
O O8 0.287174 0.977613 0.959609
O O9 0.691868 0.133750 0.698964
O O10 0.859476 0.389680 0.687711
#
# Coordination Sequence:
#
# PCOD8118530 Si02
#       6
#     2   4   4   4   2   4
#     4  10  20  32  58  90 114 162 186 252 304 330
#     4  11  20  39  61  86 124 156 198 247 300 354
#     4   9  19  36  64  91 115 149 211 250 290 342
#     4   9  21  37  59  87 120 158 200 239 295 358
#     4  10  24  40  54  86 130 168 186 234 310 362
#     4   9  19  36  63  90 114 148 205 253 285 347
#
# _framework density 19.900604999999999
#
# number of rings (size 3 to 8) (size 9 to 14) (size 15 to 20)
#    1.200    1.200    2.000    0.000    2.800    2.400 
#    0.000    1.000    0.000    0.000    0.000    0.000 
#    0.000    0.000    0.000    0.000    0.000    0.000 
#
# Total GULP energy -247769.923692 kJ/mol
# GULP energy per Si atom -12388.496185 kJ/mol
# Density = 1.985531 g / cm^3
# Si number density = 19.900605 Si / 1000 Ang^3
#
#
#
# Elastic Constant Matrix: (Units=GPa)
#
#
# Indices 1 2 3 4 5 6 
#
# 1 106.6638 53.6683 35.3603 0.0000 -7.3825 0.0000
# 2 53.6683 108.5075 41.1978 0.0000 1.3909 0.0000
# 3 35.3603 41.1978 71.2332 0.0000 -18.3807 0.0000
# 4 0.0000 0.0000 0.0000 28.1184 0.0000 -6.8869
# 5 -7.3825 1.3909 -18.3807 0.0000 20.1505 0.0000
# 6 0.0000 0.0000 0.0000 -6.8869 0.0000 20.4769
#
#
#
# Elastic Compliance Matrix: (Units=1/GPa)
#
#
# Indices 1 2 3 4 5 6 
#
# 1 0.013256 -0.005609 -0.002594 0.000000 0.002877 0.000000
# 2 -0.005609 0.015653 -0.009257 0.000000 -0.011579 0.000000
# 3 -0.002594 -0.009257 0.026940 0.000000 0.024263 0.000000
# 4 0.000000 0.000000 0.000000 0.038757 0.000000 0.013035
# 5 0.002877 -0.011579 0.024263 0.000000 0.073612 0.000000
# 6 0.000000 0.000000 0.000000 0.013035 0.000000 0.053220
#
#
# Mechanical properties :
#
#
# Convention : Reuss Voigt Hill
#
# Bulk Modulus (GPa) = 47.77617 60.76193 54.26905
# Shear Modulus (GPa) = 18.98731 24.16101 21.57416
#
# Velocity S-wave (km/s) = 3.09221 3.48815 3.29613
# Velocity P-wave (km/s) = 6.06701 6.84265 6.46647
#
# Compressibility (1/GPa) = 0.02093094
#
# Stress axis : x y z
#
# Youngs Moduli (GPa) = 75.43510 63.88602 37.11891
#
# Poissons Ratio (x) = 0.35831 0.09630
# Poissons Ratio (y) = 0.42308 0.34359
# Poissons Ratio (z) = 0.19570 0.59136
#
# Static dielectric constant tensor:
#      x y z
#    x 3.481410 0.000000 -0.194520 
#    y 0.000000 3.763400 0.000000 
#    z -0.194520 0.000000 3.313340 
# 
# 
# High freq. dielectric constant tensor:
#      x y z
#    x 1.761340 0.000000 -0.016710 
#    y 0.000000 1.783240 0.000000 
#    z -0.016710 0.000000 1.749980 
# 
# From -- ./inp_files/63533.got.cif
#   From: 2010.06.25/outbox.cif.g09.slc.cpg/sg13_32_cif.got.tgz:63533.got - 2010.06.28 04:50:58.
