data_PCOD8118996
_publ_section_title
;
Structure prediction by ZEFSAII (Michael W. Deem and Ramdas Pophale) SiO2 
 PCOD8118996
Probable space group: P 2/C
;
_chemical_formula_sum "Si O2"
_cell_formula_units_Z 28
_cell_length_a 23.799908
_cell_length_b 9.399669
_cell_length_c 8.755156
_cell_angle_alpha 90.000000
_cell_angle_beta 41.597792
_cell_angle_gamma 90.000000
_cell_volume 1300.327334
_symmetry_space_group_name_H-M "P 2/C"
_symmetry_group_IT_number 13
_symmetry_cell_setting 'monoclinic'
loop_
_space_group_symop_operation_xyz
x,y,z
-x,y,1/2-z
-x,-y,-z
x,-y,1/2+z
loop_
_atom_site_type_symbol
_atom_site_label
_atom_site_fract_x
_atom_site_fract_y
_atom_site_fract_z
Si Si1 0.943820 0.905560 0.722681
Si Si2 0.786338 0.904437 0.534193
Si Si3 0.564054 0.677990 0.397327
Si Si4 0.296537 0.141999 0.982871
Si Si5 0.798437 0.633580 0.325359
Si Si6 0.393484 0.400114 0.352500
Si Si7 0.166739 0.342579 0.097661
O O1 0.911968 0.762278 0.701129
O O2 0.000000 0.857931 0.750000
O O3 0.000000 0.000000 0.500000
O O4 0.861955 0.996313 0.943999
O O5 0.726659 0.853442 0.792397
O O6 0.827318 0.769765 0.364921
O O7 0.727703 0.989365 0.534765
O O8 0.577334 0.561342 0.237830
O O9 0.610152 0.624920 0.459012
O O10 0.464134 0.703385 0.631788
O O11 0.604434 0.825223 0.251083
O O12 0.251454 0.273450 0.990567
O O13 0.696955 0.627789 0.539779
O O14 0.844081 0.496998 0.306451
O O15 0.831272 0.646916 0.088169
#
# Coordination Sequence:
#
# PCOD8118996 Si02
#       7
#     4   4   4   4   4   4   4
#     4  11  23  46  68  92 126 167 207 264 329 402
#     4  11  25  39  68  92 127 171 218 263 331 391
#     4  10  21  36  60  92 130 169 225 264 325 373
#     4  11  21  41  59  93 125 174 223 265 313 396
#     4  12  21  40  63 100 130 169 214 271 316 380
#     4  10  20  36  61  93 129 170 209 277 322 360
#     4  11  23  38  67  97 127 165 216 263 320 388
#
# _framework density 21.533038999999999
#
# number of rings (size 3 to 8) (size 9 to 14) (size 15 to 20)
#    0.000    1.143    2.857    5.143    2.000    0.000 
#    0.000    4.286    0.000    0.000    0.000    0.000 
#    0.000    0.000    0.000    0.000    0.000    0.000 
#
# Total GULP energy -347236.274609 kJ/mol
# GULP energy per Si atom -12401.295522 kJ/mol
# Density = 2.148403 g / cm^3
# Si number density = 21.533039 Si / 1000 Ang^3
#
#
#
# Elastic Constant Matrix: (Units=GPa)
#
#
# Indices 1 2 3 4 5 6 
#
# 1 62.8240 27.5370 17.8142 0.0000 0.4988 0.0000
# 2 27.5370 132.4248 36.4261 0.0000 4.4667 0.0000
# 3 17.8142 36.4261 99.3854 0.0000 12.5951 0.0000
# 4 0.0000 0.0000 0.0000 26.7642 0.0000 6.9736
# 5 0.4988 4.4667 12.5951 0.0000 45.0085 0.0000
# 6 0.0000 0.0000 0.0000 6.9736 0.0000 33.2224
#
#
#
# Elastic Compliance Matrix: (Units=1/GPa)
#
#
# Indices 1 2 3 4 5 6 
#
# 1 0.017903 -0.003158 -0.002142 0.000000 0.000714 0.000000
# 2 -0.003158 0.008955 -0.002704 0.000000 -0.000097 0.000000
# 3 -0.002142 -0.002704 0.011819 0.000000 -0.003015 0.000000
# 4 0.000000 0.000000 0.000000 0.039525 0.000000 -0.008297
# 5 0.000714 -0.000097 -0.003015 0.000000 0.023064 0.000000
# 6 0.000000 0.000000 0.000000 -0.008297 0.000000 0.031842
#
#
# Mechanical properties :
#
#
# Convention : Reuss Voigt Hill
#
# Bulk Modulus (GPa) = 44.11169 50.90988 47.51079
# Shear Modulus (GPa) = 31.91377 35.18946 33.55162
#
# Velocity S-wave (km/s) = 3.85396 4.04692 3.95162
# Velocity P-wave (km/s) = 6.35091 6.74765 6.55228
#
# Compressibility (1/GPa) = 0.02266973
#
# Stress axis : x y z
#
# Youngs Moduli (GPa) = 55.85540 111.66798 84.60981
#
# Poissons Ratio (x) = 0.35262 0.18126
# Poissons Ratio (y) = 0.17638 0.22877
# Poissons Ratio (z) = 0.11966 0.30194
#
# Static dielectric constant tensor:
#      x y z
#    x 3.665380 0.000000 -0.194300 
#    y 0.000000 4.346140 0.000000 
#    z -0.194300 0.000000 3.852330 
# 
# 
# High freq. dielectric constant tensor:
#      x y z
#    x 1.839320 0.000000 0.005940 
#    y 0.000000 1.836870 0.000000 
#    z 0.005940 0.000000 1.847990 
# 
# From -- ./inp_files/24522.got.cif
#   From: 2010.06.25/outbox.cif.g09.slc.cpg/sg13_13_cif.got.tgz:24522.got - 2010.06.28 04:50:58.
