data_PCOD8118524
_publ_section_title
;
Structure prediction by ZEFSAII (Michael W. Deem and Ramdas Pophale) SiO2 
 PCOD8118524
Probable space group: P 2/C
;
_chemical_formula_sum "Si O2"
_cell_formula_units_Z 26
_cell_length_a 15.211484
_cell_length_b 9.793270
_cell_length_c 15.221010
_cell_angle_alpha 90.000000
_cell_angle_beta 37.678014
_cell_angle_gamma 90.000000
_cell_volume 1385.934618
_symmetry_space_group_name_H-M "P 2/C"
_symmetry_group_IT_number 13
_symmetry_cell_setting 'monoclinic'
loop_
_space_group_symop_operation_xyz
x,y,z
-x,y,1/2-z
-x,-y,-z
x,-y,1/2+z
loop_
_atom_site_type_symbol
_atom_site_label
_atom_site_fract_x
_atom_site_fract_y
_atom_site_fract_z
Si Si1 0.112894 0.834866 0.334709
Si Si2 0.390332 0.341667 0.160364
Si Si3 0.000000 0.104465 0.750000
Si Si4 0.617849 0.654931 0.332887
Si Si5 0.278352 0.989046 0.942209
Si Si6 0.500000 0.777322 0.250000
Si Si7 0.169465 0.115586 0.346427
Si Si8 0.500000 0.770957 0.750000
O O1 0.237408 0.740039 0.271951
O O2 0.053040 0.793369 0.285782
O O3 0.987124 0.825839 0.506268
O O4 0.158660 0.994166 0.283678
O O5 0.339323 0.496981 0.191318
O O6 0.259970 0.241688 0.237873
O O7 0.435007 0.324087 0.226149
O O8 0.516396 0.303353 0.993680
O O9 0.130607 0.008072 0.613785
O O10 0.540550 0.683133 0.301033
O O11 0.247273 0.960753 0.865110
O O12 0.380788 0.865137 0.892828
O O13 0.362302 0.131573 0.886221
#
# Coordination Sequence:
#
# PCOD8118524 Si02
#       8
#     4   4   2   4   4   2   4   2
#     4  10  20  36  58  83 110 143 186 235 280 328
#     4  10  22  37  56  83 114 152 189 229 274 338
#     4  10  20  32  56  84 110 140 182 242 280 326
#     4  11  23  37  56  83 118 150 190 227 276 332
#     4   9  18  33  54  85 109 139 186 229 279 331
#     4  11  21  36  54  82 116 150 180 230 278 332
#     4   9  19  37  56  80 111 141 183 233 280 328
#     4   9  17  36  58  78 112 150 186 226 282 332
#
# _framework density 18.759903000000001
#
# number of rings (size 3 to 8) (size 9 to 14) (size 15 to 20)
#    0.000    2.154    1.538    1.385    2.154    1.231 
#    0.000    0.000    0.000    0.923    0.000    0.000 
#    0.000    0.000    0.000    0.000    0.000    0.000 
#
# Total GULP energy -322348.824534 kJ/mol
# GULP energy per Si atom -12398.031713 kJ/mol
# Density = 1.871720 g / cm^3
# Si number density = 18.759903 Si / 1000 Ang^3
#
#
#
# Elastic Constant Matrix: (Units=GPa)
#
#
# Indices 1 2 3 4 5 6 
#
# 1 84.1125 30.5801 28.0840 0.0000 -5.9352 0.0000
# 2 30.5801 84.3944 44.4932 0.0000 -15.0794 0.0000
# 3 28.0840 44.4932 79.2965 0.0000 -19.0318 0.0000
# 4 0.0000 0.0000 0.0000 22.3137 0.0000 -4.4170
# 5 -5.9352 -15.0794 -19.0318 0.0000 33.1176 0.0000
# 6 0.0000 0.0000 0.0000 -4.4170 0.0000 14.3740
#
#
#
# Elastic Compliance Matrix: (Units=1/GPa)
#
#
# Indices 1 2 3 4 5 6 
#
# 1 0.014216 -0.003617 -0.003236 0.000000 -0.000958 0.000000
# 2 -0.003617 0.017941 -0.008098 0.000000 0.002867 0.000000
# 3 -0.003236 -0.008098 0.020040 0.000000 0.007250 0.000000
# 4 0.000000 0.000000 0.000000 0.047718 0.000000 0.014663
# 5 -0.000958 0.002867 0.007250 0.000000 0.035495 0.000000
# 6 0.000000 0.000000 0.000000 0.014663 0.000000 0.074076
#
#
# Mechanical properties :
#
#
# Convention : Reuss Voigt Hill
#
# Bulk Modulus (GPa) = 44.84708 50.45755 47.65231
# Shear Modulus (GPa) = 20.25767 23.60414 21.93091
#
# Velocity S-wave (km/s) = 3.28966 3.55099 3.42282
# Velocity P-wave (km/s) = 6.19571 6.61571 6.40915
#
# Compressibility (1/GPa) = 0.02229800
#
# Stress axis : x y z
#
# Youngs Moduli (GPa) = 70.34109 55.73800 49.89917
#
# Poissons Ratio (x) = 0.20159 0.16146
# Poissons Ratio (y) = 0.25440 0.40406
# Poissons Ratio (z) = 0.22760 0.45134
#
# Static dielectric constant tensor:
#      x y z
#    x 3.616930 0.000000 -0.126990 
#    y 0.000000 3.253120 0.000000 
#    z -0.126990 0.000000 3.423220 
# 
# 
# High freq. dielectric constant tensor:
#      x y z
#    x 1.739000 0.000000 -0.005680 
#    y 0.000000 1.706240 0.000000 
#    z -0.005680 0.000000 1.729890 
# 
# From -- ./inp_files/49802.got.cif
#   From: 2010.06.25/outbox.cif.g09.slc.cpg/sg13_25_cif.got.tgz:49802.got - 2010.06.28 04:50:58.
