data_PCOD8118767
_publ_section_title
;
Structure prediction by ZEFSAII (Michael W. Deem and Ramdas Pophale) SiO2 
 PCOD8118767
Probable space group: P 2/C
;
_chemical_formula_sum "Si O2"
_cell_formula_units_Z 30
_cell_length_a 12.288230
_cell_length_b 5.162544
_cell_length_c 28.413563
_cell_angle_alpha 90.000000
_cell_angle_beta 118.764771
_cell_angle_gamma 90.000000
_cell_volume 1580.089225
_symmetry_space_group_name_H-M "P 2/C"
_symmetry_group_IT_number 13
_symmetry_cell_setting 'monoclinic'
loop_
_space_group_symop_operation_xyz
x,y,z
-x,y,1/2-z
-x,-y,-z
x,-y,1/2+z
loop_
_atom_site_type_symbol
_atom_site_label
_atom_site_fract_x
_atom_site_fract_y
_atom_site_fract_z
Si Si1 0.167419 0.055355 0.776042
Si Si2 0.577433 0.191425 0.176917
Si Si3 0.282406 0.563773 0.232425
Si Si4 0.079355 0.234920 0.857812
Si Si5 0.648600 0.725721 0.054177
Si Si6 0.480216 0.766875 0.935712
Si Si7 0.500000 0.883539 0.250000
Si Si8 0.933269 0.246974 0.322783
O O1 0.307385 0.977728 0.818883
O O2 0.090495 0.813868 0.737959
O O3 0.175183 0.261057 0.734354
O O4 0.098122 0.168894 0.806607
O O5 0.629314 0.460280 0.207617
O O6 0.488887 0.243927 0.113743
O O7 0.504498 0.053547 0.203906
O O8 0.373845 0.717758 0.216744
O O9 0.205323 0.339308 0.188092
O O10 0.205776 0.215767 0.913503
O O11 0.031609 0.526469 0.852228
O O12 0.986268 0.012887 0.859293
O O13 0.622348 0.451849 0.073993
O O14 0.570663 0.949961 0.062924
O O15 0.606579 0.709220 0.990712
#
# Coordination Sequence:
#
# PCOD8118767 Si02
#       8
#     4   4   4   4   4   4   2   4
#     4  10  21  32  50  76 113 150 188 220 271 338
#     4  10  20  35  58  83 111 152 186 243 286 342
#     4  10  21  38  52  81 115 146 188 235 280 343
#     4  12  22  33  50  78 114 157 185 223 265 339
#     4  10  21  36  55  82 112 156 194 232 277 337
#     4  10  20  37  57  80 114 148 195 240 284 330
#     4  10  22  38  58  84 114 146 196 238 300 336
#     4  11  24  32  50  75 114 152 189 218 273 333
#
# _framework density 18.986270999999999
#
# number of rings (size 3 to 8) (size 9 to 14) (size 15 to 20)
#    0.000    1.600    2.667    2.400    7.467    0.000 
#    0.000    0.000    0.000    0.000    0.000    1.867 
#    0.000    0.533    0.000    0.000    0.000    0.000 
#
# Total GULP energy -371770.865691 kJ/mol
# GULP energy per Si atom -12392.362190 kJ/mol
# Density = 1.894306 g / cm^3
# Si number density = 18.986271 Si / 1000 Ang^3
#
#
#
# Elastic Constant Matrix: (Units=GPa)
#
#
# Indices 1 2 3 4 5 6 
#
# 1 70.2521 29.6384 36.0624 0.0000 5.5858 0.0000
# 2 29.6384 98.1649 28.0510 0.0000 4.3666 0.0000
# 3 36.0624 28.0510 109.4221 0.0000 16.3809 0.0000
# 4 0.0000 0.0000 0.0000 18.4630 0.0000 9.1220
# 5 5.5858 4.3666 16.3809 0.0000 26.0597 0.0000
# 6 0.0000 0.0000 0.0000 9.1220 0.0000 28.4729
#
#
#
# Elastic Compliance Matrix: (Units=1/GPa)
#
#
# Indices 1 2 3 4 5 6 
#
# 1 0.018589 -0.004167 -0.005041 0.000000 -0.000118 0.000000
# 2 -0.004167 0.011926 -0.001676 0.000000 -0.000051 0.000000
# 3 -0.005041 -0.001676 0.012172 0.000000 -0.006290 0.000000
# 4 0.000000 0.000000 0.000000 0.064348 0.000000 -0.020615
# 5 -0.000118 -0.000051 -0.006290 0.000000 0.042361 0.000000
# 6 0.000000 0.000000 0.000000 -0.020615 0.000000 0.041726
#
#
# Mechanical properties :
#
#
# Convention : Reuss Voigt Hill
#
# Bulk Modulus (GPa) = 47.80292 51.70473 49.75383
# Shear Modulus (GPa) = 22.74146 26.87159 24.80652
#
# Velocity S-wave (km/s) = 3.46466 3.76615 3.61855
# Velocity P-wave (km/s) = 6.42164 6.79733 6.61215
#
# Compressibility (1/GPa) = 0.02091923
#
# Stress axis : x y z
#
# Youngs Moduli (GPa) = 53.79435 83.84778 82.15914
#
# Poissons Ratio (x) = 0.34939 0.41413
# Poissons Ratio (y) = 0.22416 0.13773
# Poissons Ratio (z) = 0.27116 0.14056
#
# Static dielectric constant tensor:
#      x y z
#    x 3.407090 0.000000 0.310580 
#    y 0.000000 3.864960 0.000000 
#    z 0.310580 0.000000 3.362040 
# 
# 
# High freq. dielectric constant tensor:
#      x y z
#    x 1.713550 0.000000 0.035800 
#    y 0.000000 1.766200 0.000000 
#    z 0.035800 0.000000 1.698090 
# 
# From -- ./inp_files/85864.got.cif
#   From: 2010.06.25/outbox.cif.g09.slc.cpg/sg13_43_cif.got.tgz:85864.got - 2010.06.28 04:50:58.
