data_PCOD8118210
_publ_section_title
;
Structure prediction by ZEFSAII (Michael W. Deem and Ramdas Pophale) SiO2 
 PCOD8118210
Probable space group: P 2/C
;
_chemical_formula_sum "Si O2"
_cell_formula_units_Z 28
_cell_length_a 6.663873
_cell_length_b 7.580051
_cell_length_c 30.476620
_cell_angle_alpha 90.000000
_cell_angle_beta 60.021001
_cell_angle_gamma 90.000000
_cell_volume 1333.485009
_symmetry_space_group_name_H-M "P 2/C"
_symmetry_group_IT_number 13
_symmetry_cell_setting 'monoclinic'
loop_
_space_group_symop_operation_xyz
x,y,z
-x,y,1/2-z
-x,-y,-z
x,-y,1/2+z
loop_
_atom_site_type_symbol
_atom_site_label
_atom_site_fract_x
_atom_site_fract_y
_atom_site_fract_z
Si Si1 0.873221 0.230852 0.303553
Si Si2 0.388562 0.095345 0.379990
Si Si3 0.386242 0.978731 0.559131
Si Si4 0.628460 0.835093 0.195268
Si Si5 0.009036 0.688945 0.615024
Si Si6 0.766128 0.387342 0.795985
Si Si7 0.889972 0.301751 0.873742
O O1 0.036739 0.270853 0.327986
O O2 0.775498 0.403197 0.290292
O O3 0.000000 0.124561 0.250000
O O4 0.660876 0.117160 0.342688
O O5 0.395908 0.037262 0.430335
O O6 0.314548 0.946120 0.354294
O O7 0.218468 0.261598 0.389283
O O8 0.222377 0.149190 0.584554
O O9 0.500000 0.000000 0.500000
O O10 0.230032 0.801951 0.575103
O O11 0.500000 0.939307 0.250000
O O12 0.457381 0.672726 0.205900
O O13 0.879624 0.757041 0.177979
O O14 0.063420 0.480135 0.602806
O O15 0.718583 0.341775 0.852239
O O16 0.000000 0.302980 0.750000
#
# Coordination Sequence:
#
# PCOD8118210 Si02
#       7
#     4   4   4   4   4   4   4
#     4   9  21  35  57  86 126 171 207 245 301 369
#     4  11  23  40  60  91 130 161 213 267 309 379
#     4  11  25  46  69  90 118 163 216 272 331 376
#     4  12  23  33  61  94 128 172 207 244 307 379
#     4  10  23  42  63  92 126 162 208 262 317 373
#     4  10  19  37  56  85 125 169 210 249 298 370
#     4  11  22  42  64  89 131 165 208 261 314 380
#
# _framework density 20.997612
#
# number of rings (size 3 to 8) (size 9 to 14) (size 15 to 20)
#    0.000    1.429    4.286    0.857    2.000    1.714 
#    0.000    0.714    0.000    0.000    0.000    0.000 
#    0.000    0.000    0.000    0.000    0.000    0.000 
#
# Total GULP energy -346944.926952 kJ/mol
# GULP energy per Si atom -12390.890248 kJ/mol
# Density = 2.094982 g / cm^3
# Si number density = 20.997612 Si / 1000 Ang^3
#
#
#
# Elastic Constant Matrix: (Units=GPa)
#
#
# Indices 1 2 3 4 5 6 
#
# 1 96.4027 19.1913 30.7577 0.0000 11.3542 0.0000
# 2 19.1913 84.5200 32.5748 0.0000 3.3753 0.0000
# 3 30.7577 32.5748 122.5744 0.0000 9.9824 0.0000
# 4 0.0000 0.0000 0.0000 17.4923 0.0000 -0.1338
# 5 11.3542 3.3753 9.9824 0.0000 26.2374 0.0000
# 6 0.0000 0.0000 0.0000 -0.1338 0.0000 31.3269
#
#
#
# Elastic Compliance Matrix: (Units=1/GPa)
#
#
# Indices 1 2 3 4 5 6 
#
# 1 0.011894 -0.001688 -0.002203 0.000000 -0.004092 0.000000
# 2 -0.001688 0.013425 -0.003161 0.000000 0.000206 0.000000
# 3 -0.002203 -0.003161 0.009742 0.000000 -0.002347 0.000000
# 4 0.000000 0.000000 0.000000 0.057170 0.000000 0.000244
# 5 -0.004092 0.000206 -0.002347 0.000000 0.040751 0.000000
# 6 0.000000 0.000000 0.000000 0.000244 0.000000 0.031922
#
#
# Mechanical properties :
#
#
# Convention : Reuss Voigt Hill
#
# Bulk Modulus (GPa) = 47.71605 52.06052 49.88828
# Shear Modulus (GPa) = 26.88269 29.74288 28.31279
#
# Velocity S-wave (km/s) = 3.58197 3.76771 3.67601
# Velocity P-wave (km/s) = 6.31516 6.61626 6.46746
#
# Compressibility (1/GPa) = 0.02095731
#
# Stress axis : x y z
#
# Youngs Moduli (GPa) = 84.07629 74.48860 102.64663
#
# Poissons Ratio (x) = 0.12576 0.22609
# Poissons Ratio (y) = 0.14195 0.32445
# Poissons Ratio (z) = 0.18519 0.23545
#
# Static dielectric constant tensor:
#      x y z
#    x 4.106130 0.000000 0.194110 
#    y 0.000000 3.787370 0.000000 
#    z 0.194110 0.000000 3.897470 
# 
# 
# High freq. dielectric constant tensor:
#      x y z
#    x 1.828460 0.000000 0.007660 
#    y 0.000000 1.817720 0.000000 
#    z 0.007660 0.000000 1.797460 
# 
# From -- ./inp_files/94967.got.cif
#   From: 2010.06.25/outbox.cif.g09.slc.cpg/sg13_48_cif.got.tgz:94967.got - 2010.06.28 04:50:58.
