data_PCOD8118331
_publ_section_title
;
Structure prediction by ZEFSAII (Michael W. Deem and Ramdas Pophale) SiO2 
 PCOD8118331
Probable space group: P 2/C
;
_chemical_formula_sum "Si O2"
_cell_formula_units_Z 32
_cell_length_a 22.592495
_cell_length_b 8.732036
_cell_length_c 11.315886
_cell_angle_alpha 90.000000
_cell_angle_beta 44.136768
_cell_angle_gamma 90.000000
_cell_volume 1554.570802
_symmetry_space_group_name_H-M "P 2/C"
_symmetry_group_IT_number 13
_symmetry_cell_setting 'monoclinic'
loop_
_space_group_symop_operation_xyz
x,y,z
-x,y,1/2-z
-x,-y,-z
x,-y,1/2+z
loop_
_atom_site_type_symbol
_atom_site_label
_atom_site_fract_x
_atom_site_fract_y
_atom_site_fract_z
Si Si1 0.259499 0.566156 0.047462
Si Si2 0.594412 0.332250 0.595534
Si Si3 0.324313 0.911668 0.363942
Si Si4 0.941033 0.452180 0.430914
Si Si5 0.321832 0.218351 0.247081
Si Si6 0.801439 0.071502 0.256476
Si Si7 0.891185 0.353741 0.198425
Si Si8 0.797527 0.234715 0.648066
O O1 0.177733 0.458876 0.130338
O O2 0.239658 0.671491 0.188554
O O3 0.338400 0.460378 0.966808
O O4 0.287009 0.665072 0.895019
O O5 0.500000 0.397530 0.750000
O O6 0.604534 0.185515 0.668600
O O7 0.605519 0.291065 0.440664
O O8 0.262047 0.983777 0.550629
O O9 0.276243 0.799186 0.340594
O O10 0.361650 0.061295 0.244491
O O11 0.884914 0.579061 0.574752
O O12 0.876076 0.323469 0.471942
O O13 0.000000 0.534793 0.250000
O O14 0.009923 0.364057 0.412026
O O15 0.243051 0.180440 0.275327
O O16 0.871231 0.173955 0.223455
O O17 0.838524 0.922525 0.139272
#
# Coordination Sequence:
#
# PCOD8118331 Si02
#       8
#     4   4   4   4   4   4   4   4
#     4  11  22  39  65  89 122 163 201 253 306 367
#     4  11  26  42  63  96 125 156 202 251 304 370
#     4  10  20  41  66  88 121 159 201 251 307 362
#     4  10  22  35  53  86 122 158 204 245 308 356
#     4  10  22  39  65  93 118 162 205 246 303 374
#     4  10  19  38  61  91 116 159 214 248 298 364
#     4  10  21  36  57  86 119 161 198 256 298 364
#     4  10  22  38  62  89 119 164 206 252 301 360
#
# _framework density 20.584458000000001
#
# number of rings (size 3 to 8) (size 9 to 14) (size 15 to 20)
#    0.000    1.750    3.750    0.750    3.500    1.500 
#    0.000    1.250    0.000    0.000    0.000    0.000 
#    0.000    0.000    0.000    0.000    0.000    0.000 
#
# Total GULP energy -396522.965301 kJ/mol
# GULP energy per Si atom -12391.342666 kJ/mol
# Density = 2.053761 g / cm^3
# Si number density = 20.584458 Si / 1000 Ang^3
#
#
#
# Elastic Constant Matrix: (Units=GPa)
#
#
# Indices 1 2 3 4 5 6 
#
# 1 52.5936 22.2015 31.1513 0.0000 9.3795 0.0000
# 2 22.2015 74.2738 40.1165 0.0000 -2.1892 0.0000
# 3 31.1513 40.1165 106.0547 0.0000 0.3714 0.0000
# 4 0.0000 0.0000 0.0000 17.2025 0.0000 9.6845
# 5 9.3795 -2.1892 0.3714 0.0000 32.0341 0.0000
# 6 0.0000 0.0000 0.0000 9.6845 0.0000 24.5748
#
#
#
# Elastic Compliance Matrix: (Units=1/GPa)
#
#
# Indices 1 2 3 4 5 6 
#
# 1 0.025858 -0.004867 -0.005727 0.000000 -0.007837 0.000000
# 2 -0.004867 0.017886 -0.005345 0.000000 0.002709 0.000000
# 3 -0.005727 -0.005345 0.013129 0.000000 0.001159 0.000000
# 4 0.000000 0.000000 0.000000 0.074705 0.000000 -0.029440
# 5 -0.007837 0.002709 0.001159 0.000000 0.033683 0.000000
# 6 0.000000 0.000000 0.000000 -0.029440 0.000000 0.052294
#
#
# Mechanical properties :
#
#
# Convention : Reuss Voigt Hill
#
# Bulk Modulus (GPa) = 40.00935 46.65120 43.33027
# Shear Modulus (GPa) = 19.39757 24.05914 21.72835
#
# Velocity S-wave (km/s) = 3.07309 3.42248 3.25248
# Velocity P-wave (km/s) = 5.66310 6.19115 5.93300
#
# Compressibility (1/GPa) = 0.02499416
#
# Stress axis : x y z
#
# Youngs Moduli (GPa) = 38.67273 55.91118 76.16710
#
# Poissons Ratio (x) = 0.27213 0.43618
# Poissons Ratio (y) = 0.18823 0.40713
# Poissons Ratio (z) = 0.22147 0.29886
#
# Static dielectric constant tensor:
#      x y z
#    x 3.782870 0.000000 0.357590 
#    y 0.000000 3.811250 0.000000 
#    z 0.357590 0.000000 3.802980 
# 
# 
# High freq. dielectric constant tensor:
#      x y z
#    x 1.799690 0.000000 0.026850 
#    y 0.000000 1.804320 0.000000 
#    z 0.026850 0.000000 1.802730 
# 
# From -- ./inp_files/41611.got.cif
#   From: 2010.06.25/outbox.cif.g09.slc.cpg/sg13_21_cif.got.tgz:41611.got - 2010.06.28 04:50:58.
