data_PCOD8118422
_publ_section_title
;
Structure prediction by ZEFSAII (Michael W. Deem and Ramdas Pophale) SiO2 
 PCOD8118422
Probable space group: P 2/C
;
_chemical_formula_sum "Si O2"
_cell_formula_units_Z 32
_cell_length_a 14.254272
_cell_length_b 11.502455
_cell_length_c 16.422814
_cell_angle_alpha 90.000000
_cell_angle_beta 34.226722
_cell_angle_gamma 90.000000
_cell_volume 1514.543648
_symmetry_space_group_name_H-M "P 2/C"
_symmetry_group_IT_number 13
_symmetry_cell_setting 'monoclinic'
loop_
_space_group_symop_operation_xyz
x,y,z
-x,y,1/2-z
-x,-y,-z
x,-y,1/2+z
loop_
_atom_site_type_symbol
_atom_site_label
_atom_site_fract_x
_atom_site_fract_y
_atom_site_fract_z
Si Si1 0.109633 0.247461 0.751114
Si Si2 0.853268 0.526846 0.167585
Si Si3 0.523976 0.771128 0.570958
Si Si4 0.499990 0.510403 0.903411
Si Si5 0.722417 0.854180 0.884569
Si Si6 0.522105 0.988131 0.326780
Si Si7 0.174560 0.386794 0.157889
Si Si8 0.867184 0.966499 0.161619
O O1 0.101788 0.364951 0.808202
O O2 0.290434 0.211604 0.592278
O O3 0.050937 0.143580 0.851752
O O4 0.000000 0.262341 0.750000
O O5 0.675777 0.546977 0.246876
O O6 0.822452 0.415412 0.247723
O O7 0.000000 0.500000 0.000000
O O8 0.504171 0.643715 0.624870
O O9 0.412242 0.784427 0.571411
O O10 0.476630 0.871195 0.669711
O O11 0.500000 0.500000 0.000000
O O12 0.330854 0.444777 0.995874
O O13 0.822554 0.752252 0.858654
O O14 0.847408 0.928497 0.739507
O O15 0.634513 0.940537 0.010589
O O16 0.500000 0.947786 0.250000
O O17 0.691426 0.936655 0.244036
O O18 0.000000 0.436929 0.250000
O O19 0.000000 0.000000 0.000000
#
# Coordination Sequence:
#
# PCOD8118422 Si02
#       8
#     4   4   4   4   4   4   4   4
#     4  12  24  41  71  97 134 180 230 283 337 406
#     4  11  24  42  66  97 134 171 228 281 342 406
#     4  11  19  43  68  92 122 180 225 270 335 408
#     4  10  19  39  69  87 125 172 215 259 343 401
#     4  11  21  44  67  88 131 183 215 270 345 406
#     4  11  25  43  67  97 133 178 233 279 335 414
#     4  11  23  40  65  96 128 170 221 272 335 416
#     4  11  26  41  66  98 137 172 227 281 344 400
#
# _framework density 21.128478000000001
#
# number of rings (size 3 to 8) (size 9 to 14) (size 15 to 20)
#    0.000    1.000    7.500    1.125    3.500    1.500 
#    0.000    0.625    0.000    0.000    0.000    0.000 
#    0.000    0.000    0.000    0.000    0.000    0.000 
#
# Total GULP energy -396724.214485 kJ/mol
# GULP energy per Si atom -12397.631703 kJ/mol
# Density = 2.108039 g / cm^3
# Si number density = 21.128478 Si / 1000 Ang^3
#
#
#
# Elastic Constant Matrix: (Units=GPa)
#
#
# Indices 1 2 3 4 5 6 
#
# 1 73.4037 47.0311 45.2643 0.0000 -6.3245 0.0000
# 2 47.0311 137.8240 43.6517 0.0000 -0.5129 0.0000
# 3 45.2643 43.6517 158.4310 0.0000 -9.1626 0.0000
# 4 0.0000 0.0000 0.0000 21.0660 0.0000 -5.3337
# 5 -6.3245 -0.5129 -9.1626 0.0000 30.7563 0.0000
# 6 0.0000 0.0000 0.0000 -5.3337 0.0000 22.0045
#
#
#
# Elastic Compliance Matrix: (Units=1/GPa)
#
#
# Indices 1 2 3 4 5 6 
#
# 1 0.019851 -0.005498 -0.003995 0.000000 0.002800 0.000000
# 2 -0.005498 0.009481 -0.001117 0.000000 -0.001305 0.000000
# 3 -0.003995 -0.001117 0.007847 0.000000 0.001498 0.000000
# 4 0.000000 0.000000 0.000000 0.050574 0.000000 0.012259
# 5 0.002800 -0.001305 0.001498 0.000000 0.033514 0.000000
# 6 0.000000 0.000000 0.000000 0.012259 0.000000 0.048417
#
#
# Mechanical properties :
#
#
# Convention : Reuss Voigt Hill
#
# Bulk Modulus (GPa) = 62.65803 71.28364 66.97083
# Shear Modulus (GPa) = 25.48134 30.34612 27.91373
#
# Velocity S-wave (km/s) = 3.47655 3.79392 3.63870
# Velocity P-wave (km/s) = 6.77017 7.28033 7.02988
#
# Compressibility (1/GPa) = 0.01595965
#
# Stress axis : x y z
#
# Youngs Moduli (GPa) = 50.37624 105.47738 127.42952
#
# Poissons Ratio (x) = 0.57994 0.50902
# Poissons Ratio (y) = 0.27698 0.14231
# Poissons Ratio (z) = 0.20123 0.11780
#
# Static dielectric constant tensor:
#      x y z
#    x 3.635400 0.000000 -0.375780 
#    y 0.000000 4.004800 0.000000 
#    z -0.375780 0.000000 3.986780 
# 
# 
# High freq. dielectric constant tensor:
#      x y z
#    x 1.804840 0.000000 -0.022530 
#    y 0.000000 1.837910 0.000000 
#    z -0.022530 0.000000 1.828550 
# 
# From -- ./inp_files/68655.got.cif
#   From: 2010.06.25/outbox.cif.g09.slc.cpg/sg13_35_cif.got.tgz:68655.got - 2010.06.28 04:50:58.
