data_PCOD8118477
_publ_section_title
;
Structure prediction by ZEFSAII (Michael W. Deem and Ramdas Pophale) SiO2 
 PCOD8118477
Probable space group: P 2/C
;
_chemical_formula_sum "Si O2"
_cell_formula_units_Z 30
_cell_length_a 14.158327
_cell_length_b 5.123694
_cell_length_c 21.579483
_cell_angle_alpha 90.000000
_cell_angle_beta 90.000158
_cell_angle_gamma 90.000000
_cell_volume 1565.439035
_symmetry_space_group_name_H-M "P 2/C"
_symmetry_group_IT_number 13
_symmetry_cell_setting 'monoclinic'
loop_
_space_group_symop_operation_xyz
x,y,z
-x,y,1/2-z
-x,-y,-z
x,-y,1/2+z
loop_
_atom_site_type_symbol
_atom_site_label
_atom_site_fract_x
_atom_site_fract_y
_atom_site_fract_z
Si Si1 0.780343 0.244480 0.323508
Si Si2 0.894589 0.258212 0.823468
Si Si3 0.415258 0.445216 0.141855
Si Si4 0.500000 0.750000 0.043201
Si Si5 0.894589 0.241775 0.676533
Si Si6 0.219658 0.255533 0.323507
Si Si7 0.415258 0.945214 0.858145
Si Si8 0.500000 0.750002 0.250000
O O1 0.848321 0.474920 0.345982
O O2 0.680599 0.279690 0.357978
O O3 0.765060 0.250006 0.250000
O O4 0.828895 0.978635 0.346745
O O5 0.901992 0.249995 0.750000
O O6 0.000001 0.249999 0.852098
O O7 0.413207 0.681852 0.090894
O O8 0.500001 0.250002 0.123847
O O9 0.430755 0.570123 0.209517
O O10 0.586793 0.818149 0.090894
O O11 0.500000 0.500000 0.000000
O O12 0.500000 0.000000 0.000000
O O13 0.828891 0.478615 0.653256
O O14 0.848325 0.974898 0.654019
O O15 0.319400 0.220310 0.357978
O O16 0.430754 0.070120 0.790483
#
# Coordination Sequence:
#
# PCOD8118477 Si02
#       8
#     4   4   4   4   4   4   4   2
#     4  10  20  30  51  76 110 147 187 220 272 329
#     4   9  18  31  46  69 106 151 188 222 263 320
#     4  11  23  36  57  82 119 152 188 233 277 347
#     4  11  24  43  60  77 108 153 196 244 286 329
#     4   9  18  31  46  69 106 151 188 222 263 320
#     4  10  20  30  51  76 110 147 187 220 272 329
#     4  11  23  36  57  82 119 152 188 233 277 347
#     4  10  22  32  52  82 126 152 188 216 288 328
#
# _framework density 19.163951000000001
#
# number of rings (size 3 to 8) (size 9 to 14) (size 15 to 20)
#    0.000    1.867    1.333    2.800   13.067    3.200 
#    0.000    0.000    0.000    0.000    0.000    0.000 
#    0.000   21.333    0.000    0.000    0.000    0.000 
#
# Total GULP energy -371735.649259 kJ/mol
# GULP energy per Si atom -12391.188309 kJ/mol
# Density = 1.912033 g / cm^3
# Si number density = 19.163951 Si / 1000 Ang^3
#
#
#
# Elastic Constant Matrix: (Units=GPa)
#
#
# Indices 1 2 3 4 5 6 
#
# 1 155.4640 58.8612 27.2321 0.0000 -0.0005 0.0000
# 2 58.8612 135.8154 37.3973 0.0000 -0.0007 0.0000
# 3 27.2321 37.3973 72.3432 0.0000 -0.0003 0.0000
# 4 0.0000 0.0000 0.0000 28.3346 0.0000 -0.0004
# 5 -0.0005 -0.0007 -0.0003 0.0000 3.8306 0.0000
# 6 0.0000 0.0000 0.0000 -0.0004 0.0000 38.6364
#
#
#
# Elastic Compliance Matrix: (Units=1/GPa)
#
#
# Indices 1 2 3 4 5 6 
#
# 1 0.007813 -0.003004 -0.001388 0.000000 0.000000 0.000000
# 2 -0.003004 0.009740 -0.003904 0.000000 0.000001 0.000000
# 3 -0.001388 -0.003904 0.016364 0.000000 0.000000 0.000000
# 4 0.000000 0.000000 0.000000 0.035293 0.000000 0.000000
# 5 0.000000 0.000001 0.000000 0.000000 0.261056 0.000000
# 6 0.000000 0.000000 0.000000 0.000000 0.000000 0.025882
#
#
# Mechanical properties :
#
#
# Convention : Reuss Voigt Hill
#
# Bulk Modulus (GPa) = 57.72315 67.84486 62.78400
# Shear Modulus (GPa) = 13.20955 30.16912 21.68933
#
# Velocity S-wave (km/s) = 2.62828 3.97200 3.36784
# Velocity P-wave (km/s) = 6.27667 7.51764 6.92501
#
# Compressibility (1/GPa) = 0.01732407
#
# Stress axis : x y z
#
# Youngs Moduli (GPa) = 127.99523 102.67176 61.11048
#
# Poissons Ratio (x) = 0.30840 0.08483
# Poissons Ratio (y) = 0.38447 0.23859
# Poissons Ratio (z) = 0.17768 0.40085
#
# Static dielectric constant tensor:
#      x y z
#    x 3.504170 0.000000 0.000000 
#    y 0.000000 3.713290 0.000000 
#    z 0.000000 0.000000 3.298400 
# 
# 
# High freq. dielectric constant tensor:
#      x y z
#    x 1.734760 0.000000 0.000000 
#    y 0.000000 1.772590 0.000000 
#    z 0.000000 0.000000 1.686330 
# 
# From -- ./inp_files/77514.got.cif
#   From: 2010.06.25/outbox.cif.g09.slc.cpg/sg13_39_cif.got.tgz:77514.got - 2010.06.28 04:50:58.
