data_PCOD8118231
_publ_section_title
;
Structure prediction by ZEFSAII (Michael W. Deem and Ramdas Pophale) SiO2 
 PCOD8118231
Probable space group: P 2/C
;
_chemical_formula_sum "Si O2"
_cell_formula_units_Z 20
_cell_length_a 15.278416
_cell_length_b 5.182212
_cell_length_c 13.301355
_cell_angle_alpha 90.000000
_cell_angle_beta 109.922719
_cell_angle_gamma 90.000000
_cell_volume 990.120304
_symmetry_space_group_name_H-M "P 2/C"
_symmetry_group_IT_number 13
_symmetry_cell_setting 'monoclinic'
loop_
_space_group_symop_operation_xyz
x,y,z
-x,y,1/2-z
-x,-y,-z
x,-y,1/2+z
loop_
_atom_site_type_symbol
_atom_site_label
_atom_site_fract_x
_atom_site_fract_y
_atom_site_fract_z
Si Si1 0.914860 0.424555 0.791564
Si Si2 0.147281 0.069102 0.145876
Si Si3 0.692604 0.104884 0.430002
Si Si4 0.609572 0.391200 0.799706
Si Si5 0.729486 0.219951 0.668110
O O1 0.917283 0.188269 0.873600
O O2 0.818468 0.411860 0.690262
O O3 0.000000 0.403843 0.750000
O O4 0.918525 0.689832 0.854847
O O5 0.232564 0.037080 0.259732
O O6 0.197526 0.105052 0.057821
O O7 0.637362 0.330295 0.352384
O O8 0.684353 0.146063 0.545361
O O9 0.647811 0.828591 0.388941
O O10 0.500000 0.369601 0.750000
O O11 0.651314 0.358587 0.704704
#
# Coordination Sequence:
#
# PCOD8118231 Si02
#       5
#     4   4   4   4   4
#     4  10  19  37  60  82 117 152 188 239 287 329
#     4   9  19  37  55  82 117 148 191 235 282 332
#     4  11  21  39  63  82 117 157 190 233 291 342
#     4  11  24  40  59  88 119 148 193 243 284 341
#     4   9  23  37  62  83 119 152 195 231 291 335
#
# _framework density 20.199563999999999
#
# number of rings (size 3 to 8) (size 9 to 14) (size 15 to 20)
#    1.200    0.800    2.000    1.200    2.800    1.600 
#    0.000    2.000    0.000    0.000    0.000    0.000 
#    0.000    0.000    0.000    0.000    0.000    0.000 
#
# Total GULP energy -247875.343950 kJ/mol
# GULP energy per Si atom -12393.767198 kJ/mol
# Density = 2.015359 g / cm^3
# Si number density = 20.199564 Si / 1000 Ang^3
#
#
#
# Elastic Constant Matrix: (Units=GPa)
#
#
# Indices 1 2 3 4 5 6 
#
# 1 134.4629 13.3354 14.8965 0.0000 -18.7648 0.0000
# 2 13.3354 93.1909 -7.6248 0.0000 -0.4641 0.0000
# 3 14.8965 -7.6248 71.4518 0.0000 -22.9741 0.0000
# 4 0.0000 0.0000 0.0000 15.3529 0.0000 -2.1467
# 5 -18.7648 -0.4641 -22.9741 0.0000 14.4945 0.0000
# 6 0.0000 0.0000 0.0000 -2.1467 0.0000 32.4576
#
#
#
# Elastic Compliance Matrix: (Units=1/GPa)
#
#
# Indices 1 2 3 4 5 6 
#
# 1 0.009713 -0.000979 0.003882 0.000000 0.018697 0.000000
# 2 -0.000979 0.011066 0.002226 0.000000 0.002614 0.000000
# 3 0.003882 0.002226 0.030717 0.000000 0.053784 0.000000
# 4 0.000000 0.000000 0.000000 0.065742 0.000000 0.004348
# 5 0.018697 0.002614 0.053784 0.000000 0.178529 0.000000
# 6 0.000000 0.000000 0.000000 0.004348 0.000000 0.031097
#
#
# Mechanical properties :
#
#
# Convention : Reuss Voigt Hill
#
# Bulk Modulus (GPa) = 16.19363 37.81334 27.00348
# Shear Modulus (GPa) = 14.82835 31.02757 22.92796
#
# Velocity S-wave (km/s) = 2.71235 3.92350 3.37274
# Velocity P-wave (km/s) = 4.22414 6.26783 5.34458
#
# Compressibility (1/GPa) = 0.06175269
#
# Stress axis : x y z
#
# Youngs Moduli (GPa) = 102.95250 90.36775 32.55540
#
# Poissons Ratio (x) = 0.08849 -0.12638
# Poissons Ratio (y) = 0.10081 -0.07245
# Poissons Ratio (z) = -0.39967 -0.20112
#
# Static dielectric constant tensor:
#      x y z
#    x 3.568380 0.000000 -0.229790 
#    y 0.000000 3.734730 0.000000 
#    z -0.229790 0.000000 3.298420 
# 
# 
# High freq. dielectric constant tensor:
#      x y z
#    x 1.788650 0.000000 -0.021620 
#    y 0.000000 1.800260 0.000000 
#    z -0.021620 0.000000 1.756280 
# 
# From -- ./inp_files/35300.got.cif
#   From: 2010.06.25/outbox.cif.g09.slc.cpg/sg13_18_cif.got.tgz:35300.got - 2010.06.28 04:50:58.
