data_PCOD8118374
_publ_section_title
;
Structure prediction by ZEFSAII (Michael W. Deem and Ramdas Pophale) SiO2 
 PCOD8118374
Probable space group: P 2/C
;
_chemical_formula_sum "Si O2"
_cell_formula_units_Z 24
_cell_length_a 13.245310
_cell_length_b 15.058171
_cell_length_c 20.149488
_cell_angle_alpha 90.000000
_cell_angle_beta 162.461152
_cell_angle_gamma 90.000000
_cell_volume 1211.080427
_symmetry_space_group_name_H-M "P 2/C"
_symmetry_group_IT_number 13
_symmetry_cell_setting 'monoclinic'
loop_
_space_group_symop_operation_xyz
x,y,z
-x,y,1/2-z
-x,-y,-z
x,-y,1/2+z
loop_
_atom_site_type_symbol
_atom_site_label
_atom_site_fract_x
_atom_site_fract_y
_atom_site_fract_z
Si Si1 0.747354 0.558454 0.530872
Si Si2 0.205576 0.410559 0.204601
Si Si3 0.153565 0.177153 0.003881
Si Si4 0.745834 0.920526 0.143413
Si Si5 0.287734 0.304378 0.683696
Si Si6 0.346708 0.256986 0.990828
O O1 0.511760 0.473580 0.381058
O O2 0.542191 0.651177 0.396203
O O3 0.000000 0.563995 0.750000
O O4 0.964186 0.538391 0.602445
O O5 0.343912 0.321732 0.327629
O O6 0.988207 0.380532 0.004929
O O7 0.928471 0.102006 0.827380
O O8 0.911884 0.222441 0.907944
O O9 0.500000 0.135284 0.250000
O O10 0.294189 0.244645 0.036750
O O11 0.000000 0.961133 0.250000
O O12 0.581737 0.832886 0.006504
O O13 0.500000 0.000000 0.000000
O O14 0.500000 0.275844 0.750000
O O15 0.000000 0.301631 0.750000
#
# Coordination Sequence:
#
# PCOD8118374 Si02
#       6
#     4   4   4   4   4   4
#     4  11  25  36  57  83 125 161 216 255 308 351
#     4  11  22  40  56  86 125 162 212 257 301 358
#     4  10  19  38  68  89 118 164 203 240 308 369
#     4   9  21  43  65  97 125 155 199 245 312 372
#     4  10  23  40  57  90 124 158 212 262 303 347
#     4   9  20  36  64  87 122 157 205 243 303 367
#
# _framework density 19.817017
#
# number of rings (size 3 to 8) (size 9 to 14) (size 15 to 20)
#    0.000    2.333    1.667    1.500    7.000    0.000 
#    6.000    3.333    0.000    0.000    0.000    0.000 
#    0.000    0.000    0.000    0.000    0.000    0.000 
#
# Total GULP energy -297342.137694 kJ/mol
# GULP energy per Si atom -12389.255737 kJ/mol
# Density = 1.977191 g / cm^3
# Si number density = 19.817017 Si / 1000 Ang^3
#
#
#
# Elastic Constant Matrix: (Units=GPa)
#
#
# Indices 1 2 3 4 5 6 
#
# 1 100.1602 60.4702 66.2230 0.0000 1.5795 0.0000
# 2 60.4702 85.1464 66.1378 0.0000 18.2305 0.0000
# 3 66.2230 66.1378 147.1030 0.0000 -0.4251 0.0000
# 4 0.0000 0.0000 0.0000 63.4977 0.0000 15.9238
# 5 1.5795 18.2305 -0.4251 0.0000 35.0318 0.0000
# 6 0.0000 0.0000 0.0000 15.9238 0.0000 17.7308
#
#
#
# Elastic Compliance Matrix: (Units=1/GPa)
#
#
# Indices 1 2 3 4 5 6 
#
# 1 0.019653 -0.012794 -0.003079 0.000000 0.005734 0.000000
# 2 -0.012794 0.030199 -0.007862 0.000000 -0.015234 0.000000
# 3 -0.003079 -0.007862 0.011731 0.000000 0.004373 0.000000
# 4 0.000000 0.000000 0.000000 0.020327 0.000000 -0.018255
# 5 0.005734 -0.015234 0.004373 0.000000 0.036268 0.000000
# 6 0.000000 0.000000 0.000000 -0.018255 0.000000 0.072794
#
#
# Mechanical properties :
#
#
# Convention : Reuss Voigt Hill
#
# Bulk Modulus (GPa) = 70.84976 79.78573 75.31775
# Shear Modulus (GPa) = 20.56369 32.55729 26.56049
#
# Velocity S-wave (km/s) = 3.22480 4.05766 3.66496
# Velocity P-wave (km/s) = 7.04949 7.89313 7.48321
#
# Compressibility (1/GPa) = 0.01411437
#
# Stress axis : x y z
#
# Youngs Moduli (GPa) = 50.88191 33.11329 85.24103
#
# Poissons Ratio (x) = 0.42365 0.26244
# Poissons Ratio (y) = 0.65098 0.67018
# Poissons Ratio (z) = 0.15666 0.26034
#
# Static dielectric constant tensor:
#      x y z
#    x 3.840590 0.000000 -0.099640 
#    y 0.000000 3.212680 0.000000 
#    z -0.099640 0.000000 4.063830 
# 
# 
# High freq. dielectric constant tensor:
#      x y z
#    x 1.774190 0.000000 -0.002280 
#    y 0.000000 1.738700 0.000000 
#    z -0.002280 0.000000 1.796450 
# 
# From -- ./inp_files/66999.got.cif
#   From: 2010.06.25/outbox.cif.g09.slc.cpg/sg13_34_cif.got.tgz:66999.got - 2010.06.28 04:50:58.
