data_PCOD8118063
_publ_section_title
;
Structure prediction by ZEFSAII (Michael W. Deem and Ramdas Pophale) SiO2 
 PCOD8118063
Probable space group: P 2/C
;
_chemical_formula_sum "Si O2"
_cell_formula_units_Z 28
_cell_length_a 8.903416
_cell_length_b 9.119138
_cell_length_c 27.863651
_cell_angle_alpha 90.000000
_cell_angle_beta 35.572060
_cell_angle_gamma 90.000000
_cell_volume 1316.034414
_symmetry_space_group_name_H-M "P 2/C"
_symmetry_group_IT_number 13
_symmetry_cell_setting 'monoclinic'
loop_
_space_group_symop_operation_xyz
x,y,z
-x,y,1/2-z
-x,-y,-z
x,-y,1/2+z
loop_
_atom_site_type_symbol
_atom_site_label
_atom_site_fract_x
_atom_site_fract_y
_atom_site_fract_z
Si Si1 0.026527 0.671221 0.481076
Si Si2 0.748521 0.934847 0.407948
Si Si3 0.203407 0.753019 0.332838
Si Si4 0.869732 0.753800 0.861734
Si Si5 0.506825 0.407820 0.391646
Si Si6 0.612491 0.705643 0.030068
Si Si7 0.694312 0.533862 0.741922
O O1 0.725764 0.713138 0.550994
O O2 0.000000 0.500000 0.500000
O O3 0.190796 0.700096 0.390918
O O4 0.163186 0.754618 0.490335
O O5 0.639422 0.812240 0.399129
O O6 0.976405 0.869932 0.382524
O O7 0.500000 0.000000 0.500000
O O8 0.887005 0.072540 0.346217
O O9 0.500000 0.812561 0.250000
O O10 0.149043 0.614977 0.311290
O O11 0.754024 0.681019 0.844193
O O12 0.146519 0.683324 0.797526
O O13 0.700176 0.719686 0.952588
O O14 0.456927 0.536743 0.442988
O O15 0.550618 0.488509 0.329697
O O16 0.500000 0.562395 0.750000
#
# Coordination Sequence:
#
# PCOD8118063 Si02
#       7
#     4   4   4   4   4   4   4
#     4  10  19  35  61  92 116 149 200 253 302 355
#     4  10  23  41  60  86 124 167 207 247 305 374
#     4  11  22  41  65  91 121 159 207 261 311 367
#     4  11  22  38  57  86 121 158 198 248 302 359
#     4  11  21  37  61  90 118 156 202 251 305 365
#     4  10  19  37  62  86 114 156 200 247 299 363
#     4  11  22  39  61  91 122 155 201 259 314 367
#
# _framework density 21.276038
#
# number of rings (size 3 to 8) (size 9 to 14) (size 15 to 20)
#    0.000    1.429    0.000    9.429    0.000    0.571 
#    0.000   15.714    0.000    0.000    0.000    0.000 
#    0.000    0.000    0.000    0.000    0.000    0.000 
#
# Total GULP energy -346955.838680 kJ/mol
# GULP energy per Si atom -12391.279953 kJ/mol
# Density = 2.122761 g / cm^3
# Si number density = 21.276038 Si / 1000 Ang^3
#
#
#
# Elastic Constant Matrix: (Units=GPa)
#
#
# Indices 1 2 3 4 5 6 
#
# 1 135.3232 56.2691 35.3010 0.0000 -5.4144 0.0000
# 2 56.2691 79.3715 20.8608 0.0000 -21.6029 0.0000
# 3 35.3010 20.8608 74.0489 0.0000 -3.1842 0.0000
# 4 0.0000 0.0000 0.0000 29.7553 0.0000 -17.6558
# 5 -5.4144 -21.6029 -3.1842 0.0000 40.0133 0.0000
# 6 0.0000 0.0000 0.0000 -17.6558 0.0000 28.7806
#
#
#
# Elastic Compliance Matrix: (Units=1/GPa)
#
#
# Indices 1 2 3 4 5 6 
#
# 1 0.011516 -0.008131 -0.003333 0.000000 -0.003097 0.000000
# 2 -0.008131 0.021679 -0.001781 0.000000 0.010462 0.000000
# 3 -0.003333 -0.001781 0.015588 0.000000 -0.000172 0.000000
# 4 0.000000 0.000000 0.000000 0.052843 0.000000 0.032417
# 5 -0.003097 0.010462 -0.000172 0.000000 0.030208 0.000000
# 6 0.000000 0.000000 0.000000 0.032417 0.000000 0.054632
#
#
# Mechanical properties :
#
#
# Convention : Reuss Voigt Hill
#
# Bulk Modulus (GPa) = 44.85655 57.06727 50.96191
# Shear Modulus (GPa) = 22.68740 31.46401 27.07571
#
# Velocity S-wave (km/s) = 3.26902 3.84975 3.57121
# Velocity P-wave (km/s) = 5.94791 6.82945 6.40386
#
# Compressibility (1/GPa) = 0.02229329
#
# Stress axis : x y z
#
# Youngs Moduli (GPa) = 86.83393 46.12702 64.15334
#
# Poissons Ratio (x) = 0.37507 0.21379
# Poissons Ratio (y) = 0.70607 0.11427
# Poissons Ratio (z) = 0.28938 0.08216
#
# Static dielectric constant tensor:
#      x y z
#    x 4.361300 0.000000 -0.393050 
#    y 0.000000 4.111180 0.000000 
#    z -0.393050 0.000000 4.043010 
# 
# 
# High freq. dielectric constant tensor:
#      x y z
#    x 1.851830 0.000000 -0.010930 
#    y 0.000000 1.813220 0.000000 
#    z -0.010930 0.000000 1.828920 
# 
# From -- ./inp_files/91379.got.cif
#   From: 2010.06.25/outbox.cif.g09.slc.cpg/sg13_46_cif.got.tgz:91379.got - 2010.06.28 04:50:58.
