data_PCOD8118350
_publ_section_title
;
Structure prediction by ZEFSAII (Michael W. Deem and Ramdas Pophale) SiO2 
 PCOD8118350
Probable space group: P 2/C
;
_chemical_formula_sum "Si O2"
_cell_formula_units_Z 28
_cell_length_a 9.165132
_cell_length_b 8.726402
_cell_length_c 29.426580
_cell_angle_alpha 90.000000
_cell_angle_beta 142.699569
_cell_angle_gamma 90.000000
_cell_volume 1426.206233
_symmetry_space_group_name_H-M "P 2/C"
_symmetry_group_IT_number 13
_symmetry_cell_setting 'monoclinic'
loop_
_space_group_symop_operation_xyz
x,y,z
-x,y,1/2-z
-x,-y,-z
x,-y,1/2+z
loop_
_atom_site_type_symbol
_atom_site_label
_atom_site_fract_x
_atom_site_fract_y
_atom_site_fract_z
Si Si1 0.326120 0.401677 0.595118
Si Si2 0.969614 0.809741 0.953736
Si Si3 0.361089 0.042971 0.057441
Si Si4 0.576133 0.371167 0.455931
Si Si5 0.254492 0.571932 0.667294
Si Si6 0.251512 0.205146 0.836589
Si Si7 0.833725 0.444102 0.610656
O O1 0.319686 0.561949 0.565634
O O2 0.298473 0.439268 0.641085
O O3 0.580372 0.317648 0.651109
O O4 0.103576 0.296028 0.524358
O O5 0.744543 0.899460 0.920277
O O6 0.884427 0.715981 0.888836
O O7 0.166006 0.933211 0.984659
O O8 0.411953 0.188711 0.038595
O O9 0.615075 0.957183 0.125867
O O10 0.732844 0.442730 0.534746
O O11 0.301178 0.425552 0.393572
O O12 0.500000 0.633180 0.750000
O O13 0.108964 0.496947 0.673311
O O14 0.197509 0.280364 0.872458
O O15 0.000000 0.175993 0.750000
#
# Coordination Sequence:
#
# PCOD8118350 Si02
#       7
#     4   4   4   4   4   4   4
#     4  10  19  38  69  82 113 158 207 244 286 350
#     4  10  20  38  61  90 113 156 207 239 281 360
#     4  10  21  37  62  84 116 159 201 234 288 357
#     4  10  19  38  63  90 109 150 204 249 288 336
#     4  12  22  36  60  95 120 147 193 261 302 340
#     4  10  22  41  56  86 123 161 190 236 302 366
#     4  10  22  37  61  90 116 144 202 253 290 341
#
# _framework density 19.632504000000001
#
# number of rings (size 3 to 8) (size 9 to 14) (size 15 to 20)
#    0.000    1.714    2.857    2.143    2.000    0.571 
#    2.571    0.714    0.000    6.000    0.000    0.000 
#    0.000    0.000    0.000    0.000    0.000    0.000 
#
# Total GULP energy -347225.735123 kJ/mol
# GULP energy per Si atom -12400.919112 kJ/mol
# Density = 1.958782 g / cm^3
# Si number density = 19.632504 Si / 1000 Ang^3
#
#
#
# Elastic Constant Matrix: (Units=GPa)
#
#
# Indices 1 2 3 4 5 6 
#
# 1 99.6259 40.5765 36.2391 0.0000 15.6295 0.0000
# 2 40.5765 131.1457 41.9163 0.0000 13.0789 0.0000
# 3 36.2391 41.9163 90.9400 0.0000 21.8787 0.0000
# 4 0.0000 0.0000 0.0000 12.3364 0.0000 2.4519
# 5 15.6295 13.0789 21.8787 0.0000 28.5493 0.0000
# 6 0.0000 0.0000 0.0000 2.4519 0.0000 32.2560
#
#
#
# Elastic Compliance Matrix: (Units=1/GPa)
#
#
# Indices 1 2 3 4 5 6 
#
# 1 0.012756 -0.002631 -0.003041 0.000000 -0.003448 0.000000
# 2 -0.002631 0.009516 -0.003231 0.000000 -0.000443 0.000000
# 3 -0.003041 -0.003231 0.015866 0.000000 -0.009014 0.000000
# 4 0.000000 0.000000 0.000000 0.082304 0.000000 -0.006256
# 5 -0.003448 -0.000443 -0.009014 0.000000 0.044025 0.000000
# 6 0.000000 0.000000 0.000000 -0.006256 0.000000 0.031478
#
#
# Mechanical properties :
#
#
# Convention : Reuss Voigt Hill
#
# Bulk Modulus (GPa) = 49.18440 62.13060 55.65750
# Shear Modulus (GPa) = 22.67275 28.16033 25.41654
#
# Velocity S-wave (km/s) = 3.40201 3.79142 3.60198
# Velocity P-wave (km/s) = 6.36698 7.13316 6.76093
#
# Compressibility (1/GPa) = 0.02033165
#
# Stress axis : x y z
#
# Youngs Moduli (GPa) = 78.39328 105.08588 63.02774
#
# Poissons Ratio (x) = 0.27647 0.19168
# Poissons Ratio (y) = 0.20625 0.20365
# Poissons Ratio (z) = 0.23841 0.33955
#
# Static dielectric constant tensor:
#      x y z
#    x 3.697110 0.000000 0.238360 
#    y 0.000000 3.616500 0.000000 
#    z 0.238360 0.000000 3.308290 
# 
# 
# High freq. dielectric constant tensor:
#      x y z
#    x 1.775290 0.000000 0.019920 
#    y 0.000000 1.764440 0.000000 
#    z 0.019920 0.000000 1.740260 
# 
# From -- ./inp_files/91400.got.cif
#   From: 2010.06.25/outbox.cif.g09.slc.cpg/sg13_46_cif.got.tgz:91400.got - 2010.06.28 04:50:58.
