data_PCOD8118911
_publ_section_title
;
Structure prediction by ZEFSAII (Michael W. Deem and Ramdas Pophale) SiO2 
 PCOD8118911
Probable space group: P 2/C
;
_chemical_formula_sum "Si O2"
_cell_formula_units_Z 28
_cell_length_a 12.831376
_cell_length_b 5.137237
_cell_length_c 22.310617
_cell_angle_alpha 90.000000
_cell_angle_beta 90.492328
_cell_angle_gamma 90.000000
_cell_volume 1470.612932
_symmetry_space_group_name_H-M "P 2/C"
_symmetry_group_IT_number 13
_symmetry_cell_setting 'monoclinic'
loop_
_space_group_symop_operation_xyz
x,y,z
-x,y,1/2-z
-x,-y,-z
x,-y,1/2+z
loop_
_atom_site_type_symbol
_atom_site_label
_atom_site_fract_x
_atom_site_fract_y
_atom_site_fract_z
Si Si1 0.105387 0.287587 0.608206
Si Si2 0.118735 0.853532 0.241821
Si Si3 0.184187 0.338396 0.306595
Si Si4 0.215487 0.742155 0.993523
Si Si5 0.966401 0.207801 0.090449
Si Si6 0.590631 0.997883 0.548450
Si Si7 0.346652 0.508387 0.899364
O O1 0.147316 0.242334 0.675436
O O2 0.205507 0.315987 0.564447
O O3 0.037925 0.544488 0.601170
O O4 0.036407 0.044306 0.589646
O O5 0.130554 0.600548 0.283388
O O6 0.000000 0.951948 0.250000
O O7 0.193187 0.103691 0.257582
O O8 0.294483 0.436373 0.334392
O O9 0.117738 0.194774 0.357138
O O10 0.260052 0.504082 0.952995
O O11 0.096968 0.796004 0.972015
O O12 0.296342 0.981870 0.984201
O O13 0.590363 0.239401 0.594827
O O14 0.500000 0.000000 0.500000
O O15 0.571641 0.742013 0.588905
#
# Coordination Sequence:
#
# PCOD8118911 Si02
#       7
#     4   4   4   4   4   4   4
#     4  12  23  33  49  75 111 149 180 215 250 307
#     4  12  21  32  49  72 104 146 190 218 250 286
#     4  11  20  36  50  73 103 144 182 221 246 305
#     4   9  24  33  54  77 111 138 175 211 273 324
#     4  11  21  33  52  71 109 145 183 211 257 304
#     4  10  20  36  58  85 104 127 164 222 281 330
#     4   9  21  35  57  77 108 129 173 215 272 319
#
# _framework density 19.039681000000002
#
# number of rings (size 3 to 8) (size 9 to 14) (size 15 to 20)
#    0.857    0.571    2.857    3.429    6.000    0.000 
#    0.000    0.000    0.000    0.000    0.000    6.000 
#    0.000    0.000    0.000    0.000    0.000    0.000 
#
# Total GULP energy -346903.134890 kJ/mol
# GULP energy per Si atom -12389.397675 kJ/mol
# Density = 1.899635 g / cm^3
# Si number density = 19.039681 Si / 1000 Ang^3
#
#
#
# Elastic Constant Matrix: (Units=GPa)
#
#
# Indices 1 2 3 4 5 6 
#
# 1 33.8431 31.5210 30.6012 0.0000 22.7714 0.0000
# 2 31.5210 128.3449 33.4952 0.0000 21.9005 0.0000
# 3 30.6012 33.4952 100.4768 0.0000 21.9346 0.0000
# 4 0.0000 0.0000 0.0000 25.3740 0.0000 11.9350
# 5 22.7714 21.9005 21.9346 0.0000 29.9506 0.0000
# 6 0.0000 0.0000 0.0000 11.9350 0.0000 18.4007
#
#
#
# Elastic Compliance Matrix: (Units=1/GPa)
#
#
# Indices 1 2 3 4 5 6 
#
# 1 0.077455 -0.008542 -0.011010 0.000000 -0.044579 0.000000
# 2 -0.008542 0.010140 -0.000688 0.000000 -0.000416 0.000000
# 3 -0.011010 -0.000688 0.013805 0.000000 -0.001236 0.000000
# 4 0.000000 0.000000 0.000000 0.056713 0.000000 -0.036785
# 5 -0.044579 -0.000416 -0.001236 0.000000 0.068491 0.000000
# 6 0.000000 0.000000 0.000000 -0.036785 0.000000 0.078205
#
#
# Mechanical properties :
#
#
# Convention : Reuss Voigt Hill
#
# Bulk Modulus (GPa) = 16.41519 50.43329 33.42424
# Shear Modulus (GPa) = 13.67632 25.88155 19.77894
#
# Velocity S-wave (km/s) = 2.68303 3.69093 3.22658
# Velocity P-wave (km/s) = 4.27065 6.68655 5.61019
#
# Compressibility (1/GPa) = 0.06091918
#
# Stress axis : x y z
#
# Youngs Moduli (GPa) = 12.91079 98.61950 72.43779
#
# Poissons Ratio (x) = 0.84244 0.79754
# Poissons Ratio (y) = 0.11029 0.04982
# Poissons Ratio (z) = 0.14215 0.06783
#
# Static dielectric constant tensor:
#      x y z
#    x 3.028250 0.000000 0.190600 
#    y 0.000000 3.496720 0.000000 
#    z 0.190600 0.000000 3.686490 
# 
# 
# High freq. dielectric constant tensor:
#      x y z
#    x 1.682530 0.000000 0.025490 
#    y 0.000000 1.755290 0.000000 
#    z 0.025490 0.000000 1.740520 
# 
# From -- ./inp_files/85594.got.cif
#   From: 2010.06.25/outbox.cif.g09.slc.cpg/sg13_43_cif.got.tgz:85594.got - 2010.06.28 04:50:58.
