data_PCOD8118731
_publ_section_title
;
Structure prediction by ZEFSAII (Michael W. Deem and Ramdas Pophale) SiO2 
 PCOD8118731
Probable space group: P 2/C
;
_chemical_formula_sum "Si O2"
_cell_formula_units_Z 24
_cell_length_a 4.959955
_cell_length_b 20.895085
_cell_length_c 12.474808
_cell_angle_alpha 90.000000
_cell_angle_beta 72.635513
_cell_angle_gamma 90.000000
_cell_volume 1233.950621
_symmetry_space_group_name_H-M "P 2/C"
_symmetry_group_IT_number 13
_symmetry_cell_setting 'monoclinic'
loop_
_space_group_symop_operation_xyz
x,y,z
-x,y,1/2-z
-x,-y,-z
x,-y,1/2+z
loop_
_atom_site_type_symbol
_atom_site_label
_atom_site_fract_x
_atom_site_fract_y
_atom_site_fract_z
Si Si1 0.343822 0.551935 0.379015
Si Si2 0.411545 0.899288 0.962779
Si Si3 0.190195 0.305400 0.326312
Si Si4 0.310417 0.977669 0.175381
Si Si5 0.266480 0.417323 0.485361
Si Si6 0.958811 0.170412 0.379222
O O1 0.500000 0.567673 0.250000
O O2 0.364058 0.476414 0.400040
O O3 0.487989 0.593838 0.456390
O O4 0.015693 0.570048 0.412614
O O5 0.146697 0.878296 0.924257
O O6 0.632523 0.840985 0.949272
O O7 0.561147 0.958217 0.887886
O O8 0.296269 0.920280 0.091759
O O9 0.500000 0.284378 0.250000
O O10 0.223804 0.357254 0.414404
O O11 0.037515 0.243720 0.395335
O O12 0.000000 0.332303 0.250000
O O13 0.500000 0.952292 0.250000
O O14 0.000000 0.995164 0.250000
O O15 0.000000 0.155494 0.250000
#
# Coordination Sequence:
#
# PCOD8118731 Si02
#       6
#     4   4   4   4   4   4
#     4  10  20  35  56  81 110 144 180 221 270 321
#     4  11  22  36  57  82 110 143 179 225 275 327
#     4  11  22  36  57  84 112 143 180 226 277 326
#     4  11  22  36  56  82 111 143 180 224 275 328
#     4  10  21  35  55  82 111 143 178 223 272 320
#     4  11  21  36  57  82 110 142 179 225 277 326
#
# _framework density 19.449725000000001
#
# number of rings (size 3 to 8) (size 9 to 14) (size 15 to 20)
#    0.000    1.333    0.000    8.000    0.000    5.333 
#    0.000    0.000    0.000   10.000    0.000    0.000 
#    0.000    0.000    0.000    0.000    0.000    0.000 
#
# Total GULP energy -297694.927690 kJ/mol
# GULP energy per Si atom -12403.955320 kJ/mol
# Density = 1.940546 g / cm^3
# Si number density = 19.449725 Si / 1000 Ang^3
#
#
#
# Elastic Constant Matrix: (Units=GPa)
#
#
# Indices 1 2 3 4 5 6 
#
# 1 93.5597 8.4679 20.0136 0.0000 19.9669 0.0000
# 2 8.4679 74.3623 35.7051 0.0000 24.2978 0.0000
# 3 20.0136 35.7051 86.2310 0.0000 14.2541 0.0000
# 4 0.0000 0.0000 0.0000 34.9686 0.0000 6.5667
# 5 19.9669 24.2978 14.2541 0.0000 31.5470 0.0000
# 6 0.0000 0.0000 0.0000 6.5667 0.0000 38.3002
#
#
#
# Elastic Compliance Matrix: (Units=1/GPa)
#
#
# Indices 1 2 3 4 5 6 
#
# 1 0.012955 0.002785 -0.002648 0.000000 -0.009149 0.000000
# 2 0.002785 0.021439 -0.007027 0.000000 -0.015100 0.000000
# 3 -0.002648 -0.007027 0.015075 0.000000 0.000277 0.000000
# 4 0.000000 0.000000 0.000000 0.029549 0.000000 -0.005066
# 5 -0.009149 -0.015100 0.000277 0.000000 0.048994 0.000000
# 6 0.000000 0.000000 0.000000 -0.005066 0.000000 0.026978
#
#
# Mechanical properties :
#
#
# Convention : Reuss Voigt Hill
#
# Bulk Modulus (GPa) = 28.01953 42.50290 35.26121
# Shear Modulus (GPa) = 27.67541 33.62759 30.65150
#
# Velocity S-wave (km/s) = 3.77625 4.16257 3.97411
# Velocity P-wave (km/s) = 5.78367 6.70842 6.26313
#
# Compressibility (1/GPa) = 0.03568940
#
# Stress axis : x y z
#
# Youngs Moduli (GPa) = 77.18969 46.64485 66.33367
#
# Poissons Ratio (x) = -0.12992 0.17564
# Poissons Ratio (y) = -0.21500 0.46615
# Poissons Ratio (z) = 0.20439 0.32779
#
# Static dielectric constant tensor:
#      x y z
#    x 3.897430 0.000000 0.028300 
#    y 0.000000 3.378990 0.000000 
#    z 0.028300 0.000000 3.508970 
# 
# 
# High freq. dielectric constant tensor:
#      x y z
#    x 1.785210 0.000000 0.001830 
#    y 0.000000 1.738360 0.000000 
#    z 0.001830 0.000000 1.746850 
# 
# From -- ./inp_files/26617.got.cif
#   From: 2010.06.25/outbox.cif.g09.slc.cpg/sg13_14_cif.got.tgz:26617.got - 2010.06.28 04:50:58.
