data_PCOD8118018
_publ_section_title
;
Structure prediction by ZEFSAII (Michael W. Deem and Ramdas Pophale) SiO2 
 PCOD8118018
Probable space group: P 2/C
;
_chemical_formula_sum "Si O2"
_cell_formula_units_Z 22
_cell_length_a 13.693353
_cell_length_b 12.546903
_cell_length_c 16.954306
_cell_angle_alpha 90.000000
_cell_angle_beta 158.828437
_cell_angle_gamma 90.000000
_cell_volume 1052.030098
_symmetry_space_group_name_H-M "P 2/C"
_symmetry_group_IT_number 13
_symmetry_cell_setting 'monoclinic'
loop_
_space_group_symop_operation_xyz
x,y,z
-x,y,1/2-z
-x,-y,-z
x,-y,1/2+z
loop_
_atom_site_type_symbol
_atom_site_label
_atom_site_fract_x
_atom_site_fract_y
_atom_site_fract_z
Si Si1 0.267926 0.220021 0.838534
Si Si2 0.810215 0.942138 0.957253
Si Si3 0.000000 0.367500 0.750000
Si Si4 0.779545 0.533174 0.933839
Si Si5 0.896773 0.330835 0.936492
Si Si6 0.172891 0.874421 0.704330
O O1 0.245348 0.291933 0.901256
O O2 0.297161 0.288801 0.779733
O O3 0.980722 0.157559 0.619040
O O4 0.528119 0.142984 0.034116
O O5 0.500000 0.943784 0.750000
O O6 0.785900 0.936068 0.845564
O O7 0.976449 0.049031 0.108520
O O8 0.959459 0.447309 0.646403
O O9 0.500000 0.582590 0.750000
O O10 0.746587 0.409052 0.884854
O O11 0.863107 0.600851 0.920929
O O12 0.023499 0.237666 0.083819
#
# Coordination Sequence:
#
# PCOD8118018 Si02
#       6
#     4   4   2   4   4   4
#     4  10  19  35  58  84 113 151 191 234 283 338
#     4  10  21  35  55  84 115 146 188 239 282 331
#     4  10  20  32  58  86 106 146 196 234 278 332
#     4  10  20  36  55  80 112 146 187 237 284 334
#     4   9  21  36  54  81 113 147 188 235 284 337
#     4  10  20  36  56  79 112 152 190 229 283 341
#
# _framework density 20.911950000000001
#
# number of rings (size 3 to 8) (size 9 to 14) (size 15 to 20)
#    0.000    2.182    0.000    2.727    0.000    7.273 
#    0.000    5.455    0.000    9.818    0.000    0.000 
#    0.000    0.000    0.000    0.000    0.000    0.000 
#
# Total GULP energy -272540.400838 kJ/mol
# GULP energy per Si atom -12388.200038 kJ/mol
# Density = 2.086435 g / cm^3
# Si number density = 20.911950 Si / 1000 Ang^3
#
#
#
# Elastic Constant Matrix: (Units=GPa)
#
#
# Indices 1 2 3 4 5 6 
#
# 1 58.2931 32.3907 23.1951 0.0000 -5.2273 0.0000
# 2 32.3907 107.0542 35.3665 0.0000 -3.8498 0.0000
# 3 23.1951 35.3665 97.2819 0.0000 5.2936 0.0000
# 4 0.0000 0.0000 0.0000 12.6823 0.0000 -13.4719
# 5 -5.2273 -3.8498 5.2936 0.0000 19.0143 0.0000
# 6 0.0000 0.0000 0.0000 -13.4719 0.0000 12.0111
#
#
#
# Elastic Compliance Matrix: (Units=1/GPa)
#
#
# Indices 1 2 3 4 5 6 
#
# 1 0.022077 -0.005245 -0.003685 0.000000 0.006033 0.000000
# 2 -0.005245 0.012067 -0.003240 0.000000 0.001903 0.000000
# 3 -0.003685 -0.003240 0.012618 0.000000 -0.005182 0.000000
# 4 0.000000 0.000000 0.000000 -0.411847 0.000000 -0.461935
# 5 0.006033 0.001903 -0.005182 0.000000 0.056078 0.000000
# 6 0.000000 0.000000 0.000000 -0.461935 0.000000 -0.434860
#
#
# Mechanical properties :
#
#
# Convention : Reuss Voigt Hill
#
# Bulk Modulus (GPa) = 44.60117 49.39263 46.99690
# Shear Modulus (GPa) = -7.02195 20.18667 6.58236
#
# Velocity S-wave (km/s) = -1.83444 3.11033 1.77609
# Velocity P-wave (km/s) = 4.10944 6.04727 5.16996
#
# Compressibility (1/GPa) = 0.02242094
#
# Stress axis : x y z
#
# Youngs Moduli (GPa) = 45.29695 82.87208 79.25279
#
# Poissons Ratio (x) = 0.43468 0.29206
# Poissons Ratio (y) = 0.23759 0.25676
# Poissons Ratio (z) = 0.16693 0.26849
#
# Static dielectric constant tensor:
#      x y z
#    x 3.831830 0.000000 -0.065890 
#    y 0.000000 3.968910 0.000000 
#    z -0.065890 0.000000 3.764660 
# 
# 
# High freq. dielectric constant tensor:
#      x y z
#    x 1.805830 0.000000 -0.001010 
#    y 0.000000 1.827330 0.000000 
#    z -0.001010 0.000000 1.805900 
# 
# From -- ./inp_files/37246.got.cif
#   From: 2010.06.25/outbox.cif.g09.slc.cpg/sg13_19_cif.got.tgz:37246.got - 2010.06.28 04:50:58.
