data_PCOD8118896
_publ_section_title
;
Structure prediction by ZEFSAII (Michael W. Deem and Ramdas Pophale) SiO2 
 PCOD8118896
Probable space group: P 2/C
;
_chemical_formula_sum "Si O2"
_cell_formula_units_Z 22
_cell_length_a 8.487846
_cell_length_b 15.353602
_cell_length_c 10.797826
_cell_angle_alpha 90.000000
_cell_angle_beta 129.499929
_cell_angle_gamma 90.000000
_cell_volume 1085.801891
_symmetry_space_group_name_H-M "P 2/C"
_symmetry_group_IT_number 13
_symmetry_cell_setting 'monoclinic'
loop_
_space_group_symop_operation_xyz
x,y,z
-x,y,1/2-z
-x,-y,-z
x,-y,1/2+z
loop_
_atom_site_type_symbol
_atom_site_label
_atom_site_fract_x
_atom_site_fract_y
_atom_site_fract_z
Si Si1 0.723699 0.354829 0.504817
Si Si2 0.000000 0.791834 0.750000
Si Si3 0.723701 0.354829 0.218884
Si Si4 0.000000 0.500000 0.750000
Si Si5 0.000000 0.208166 0.750000
Si Si6 0.734101 0.933531 0.506517
Si Si7 0.265898 0.933531 0.272414
O O1 0.687764 0.346253 0.343883
O O2 0.499999 0.362926 0.458075
O O3 0.832106 0.267016 0.600859
O O4 0.857576 0.440241 0.594629
O O5 0.832109 0.732983 0.731251
O O6 0.880876 0.850285 0.590082
O O7 0.857579 0.440241 0.262950
O O8 0.880878 0.149715 0.790796
O O9 0.499999 0.904048 0.406826
O O10 0.764675 0.973714 0.382338
O O11 0.793528 1.000000 0.646765
#
# Coordination Sequence:
#
# PCOD8118896 Si02
#       7
#     4   2   4   2   2   4   4
#     4  10  21  36  55  81 111 142 180 226 274 327
#     4  11  21  35  57  82 110 146 185 227 279 333
#     4  10  21  36  55  81 111 142 180 226 274 327
#     4  10  20  36  58  80 106 144 182 220 272 330
#     4  11  21  35  57  82 110 146 185 227 279 333
#     4  10  22  39  58  82 113 149 190 235 282 333
#     4  10  22  39  58  82 113 149 190 235 282 333
#
# _framework density 20.261524000000001
#
# number of rings (size 3 to 8) (size 9 to 14) (size 15 to 20)
#    0.000    1.818    0.000    3.818    0.000    4.364 
#    0.000    3.636    0.000   17.455    0.000    0.000 
#    0.000    0.000    0.000    0.000    0.000    0.000 
#
# Total GULP energy -272691.740439 kJ/mol
# GULP energy per Si atom -12395.079111 kJ/mol
# Density = 2.021541 g / cm^3
# Si number density = 20.261524 Si / 1000 Ang^3
#
#
#
# Elastic Constant Matrix: (Units=GPa)
#
#
# Indices 1 2 3 4 5 6 
#
# 1 117.5591 68.3180 76.4821 0.0000 16.1991 0.0000
# 2 68.3180 122.9228 65.5198 0.0000 9.6323 0.0000
# 3 76.4821 65.5198 110.7558 0.0000 7.2101 0.0000
# 4 0.0000 0.0000 0.0000 13.0334 0.0000 -5.7293
# 5 16.1991 9.6323 7.2101 0.0000 49.1324 0.0000
# 6 0.0000 0.0000 0.0000 -5.7293 0.0000 11.3691
#
#
#
# Elastic Compliance Matrix: (Units=1/GPa)
#
#
# Indices 1 2 3 4 5 6 
#
# 1 0.017714 -0.004628 -0.009262 0.000000 -0.003574 0.000000
# 2 -0.004628 0.013175 -0.004573 0.000000 -0.000386 0.000000
# 3 -0.009262 -0.004573 0.018045 0.000000 0.001302 0.000000
# 4 0.000000 0.000000 0.000000 0.098560 0.000000 0.049668
# 5 -0.003574 -0.000386 0.001302 0.000000 0.021416 0.000000
# 6 0.000000 0.000000 0.000000 0.049668 0.000000 0.112988
#
#
# Mechanical properties :
#
#
# Convention : Reuss Voigt Hill
#
# Bulk Modulus (GPa) = 83.27570 85.76419 84.51995
# Shear Modulus (GPa) = 15.48820 24.10149 19.79484
#
# Velocity S-wave (km/s) = 2.76780 3.45268 3.12904
# Velocity P-wave (km/s) = 7.16966 7.63644 7.40672
#
# Compressibility (1/GPa) = 0.01200830
#
# Stress axis : x y z
#
# Youngs Moduli (GPa) = 56.45211 75.90031 55.41741
#
# Poissons Ratio (x) = 0.35130 0.51326
# Poissons Ratio (y) = 0.26129 0.25341
# Poissons Ratio (z) = 0.52284 0.34707
#
# Static dielectric constant tensor:
#      x y z
#    x 3.820510 0.000000 0.213650 
#    y 0.000000 3.747680 0.000000 
#    z 0.213650 0.000000 3.758440 
# 
# 
# High freq. dielectric constant tensor:
#      x y z
#    x 1.807270 0.000000 0.021760 
#    y 0.000000 1.784000 0.000000 
#    z 0.021760 0.000000 1.800950 
# 
# From -- ./inp_files/29989.got.cif
#   From: 2010.06.25/outbox.cif.g09.slc.cpg/sg13_15_cif.got.tgz:29989.got - 2010.06.28 04:50:58.
