data_PCOD8118075
_publ_section_title
;
Structure prediction by ZEFSAII (Michael W. Deem and Ramdas Pophale) SiO2 
 PCOD8118075
Probable space group: P 2/C
;
_chemical_formula_sum "Si O2"
_cell_formula_units_Z 28
_cell_length_a 15.223893
_cell_length_b 9.575913
_cell_length_c 21.072487
_cell_angle_alpha 90.000000
_cell_angle_beta 26.250100
_cell_angle_gamma 90.000000
_cell_volume 1358.717223
_symmetry_space_group_name_H-M "P 2/C"
_symmetry_group_IT_number 13
_symmetry_cell_setting 'monoclinic'
loop_
_space_group_symop_operation_xyz
x,y,z
-x,y,1/2-z
-x,-y,-z
x,-y,1/2+z
loop_
_atom_site_type_symbol
_atom_site_label
_atom_site_fract_x
_atom_site_fract_y
_atom_site_fract_z
Si Si1 0.064196 0.130392 0.808417
Si Si2 0.921519 0.153322 0.129859
Si Si3 0.396942 0.049453 0.250752
Si Si4 0.381559 0.670302 0.606002
Si Si5 0.302388 0.842165 0.035790
Si Si6 0.685427 0.264826 0.671903
Si Si7 0.332340 0.630602 0.184069
O O1 0.213920 0.081315 0.655399
O O2 0.157564 0.259611 0.784774
O O3 0.867405 0.195826 0.904614
O O4 0.010154 0.000679 0.890010
O O5 0.795436 0.141952 0.145318
O O6 0.786322 0.214253 0.273993
O O7 0.103377 0.261873 0.001791
O O8 0.500000 0.100383 0.250000
O O9 0.329858 0.891829 0.293876
O O10 0.551134 0.050042 0.092989
O O11 0.577545 0.701603 0.522453
O O12 0.455957 0.676491 0.484517
O O13 0.285469 0.521945 0.686531
O O14 0.500000 0.307636 0.750000
O O15 0.664964 0.376614 0.741623
#
# Coordination Sequence:
#
# PCOD8118075 Si02
#       7
#     4   4   4   4   4   4   4
#     4  10  19  35  63  88 117 153 201 253 299 352
#     4  11  22  38  61  91 119 155 201 251 302 361
#     4  10  20  33  57  87 122 152 193 245 303 359
#     4   9  22  42  60  87 118 158 208 242 299 358
#     4   9  20  35  58  88 119 152 205 245 296 364
#     4  11  23  37  57  88 125 155 198 246 304 358
#     4  10  21  40  64  82 120 164 196 247 301 352
#
# _framework density 20.607671
#
# number of rings (size 3 to 8) (size 9 to 14) (size 15 to 20)
#    0.000    2.000    1.429    2.143    4.000    2.286 
#    2.571    2.857    0.000    0.000    0.000    0.000 
#    0.000    0.000    0.000    0.000    0.000    0.000 
#
# Total GULP energy -346951.328125 kJ/mol
# GULP energy per Si atom -12391.118862 kJ/mol
# Density = 2.056077 g / cm^3
# Si number density = 20.607671 Si / 1000 Ang^3
#
#
#
# Elastic Constant Matrix: (Units=GPa)
#
#
# Indices 1 2 3 4 5 6 
#
# 1 86.2908 12.9707 37.3205 0.0000 -6.8243 0.0000
# 2 12.9707 53.5532 20.1338 0.0000 4.0821 0.0000
# 3 37.3205 20.1338 93.4810 0.0000 -3.3694 0.0000
# 4 0.0000 0.0000 0.0000 29.9581 0.0000 11.2795
# 5 -6.8243 4.0821 -3.3694 0.0000 28.1611 0.0000
# 6 0.0000 0.0000 0.0000 11.2795 0.0000 14.0966
#
#
#
# Elastic Compliance Matrix: (Units=1/GPa)
#
#
# Indices 1 2 3 4 5 6 
#
# 1 0.014366 -0.001743 -0.005248 0.000000 0.003106 0.000000
# 2 -0.001743 0.020876 -0.003942 0.000000 -0.003920 0.000000
# 3 -0.005248 -0.003942 0.013675 0.000000 0.000936 0.000000
# 4 0.000000 0.000000 0.000000 0.047772 0.000000 -0.038225
# 5 0.003106 -0.003920 0.000936 0.000000 0.036943 0.000000
# 6 0.000000 0.000000 0.000000 -0.038225 0.000000 0.101525
#
#
# Mechanical properties :
#
#
# Convention : Reuss Voigt Hill
#
# Bulk Modulus (GPa) = 36.96632 41.57498 39.27065
# Shear Modulus (GPa) = 18.79412 25.30315 22.04863
#
# Velocity S-wave (km/s) = 3.02320 3.50787 3.27452
# Velocity P-wave (km/s) = 5.49212 6.05188 5.77878
#
# Compressibility (1/GPa) = 0.02705165
#
# Stress axis : x y z
#
# Youngs Moduli (GPa) = 69.60802 47.90210 73.12517
#
# Poissons Ratio (x) = 0.08350 0.38376
# Poissons Ratio (y) = 0.12134 0.28823
# Poissons Ratio (z) = 0.36530 0.18881
#
# Static dielectric constant tensor:
#      x y z
#    x 3.878030 0.000000 0.022630 
#    y 0.000000 3.380700 0.000000 
#    z 0.022630 0.000000 4.082320 
# 
# 
# High freq. dielectric constant tensor:
#      x y z
#    x 1.800710 0.000000 0.006490 
#    y 0.000000 1.768160 0.000000 
#    z 0.006490 0.000000 1.824740 
# 
# From -- ./inp_files/79952.got.cif
#   From: 2010.06.25/outbox.cif.g09.slc.cpg/sg13_40_cif.got.tgz:79952.got - 2010.06.28 04:50:58.
