data_PCOD8118094
_publ_section_title
;
Structure prediction by ZEFSAII (Michael W. Deem and Ramdas Pophale) SiO2 
 PCOD8118094
Probable space group: P 2/C
;
_chemical_formula_sum "Si O2"
_cell_formula_units_Z 30
_cell_length_a 30.242959
_cell_length_b 8.432552
_cell_length_c 11.201091
_cell_angle_alpha 90.000000
_cell_angle_beta 145.455110
_cell_angle_gamma 90.000000
_cell_volume 1619.818399
_symmetry_space_group_name_H-M "P 2/C"
_symmetry_group_IT_number 13
_symmetry_cell_setting 'monoclinic'
loop_
_space_group_symop_operation_xyz
x,y,z
-x,y,1/2-z
-x,-y,-z
x,-y,1/2+z
loop_
_atom_site_type_symbol
_atom_site_label
_atom_site_fract_x
_atom_site_fract_y
_atom_site_fract_z
Si Si1 0.700510 0.492923 0.712167
Si Si2 0.827146 0.709136 0.608920
Si Si3 0.634933 0.195831 0.446011
Si Si4 0.500000 0.015612 0.750000
Si Si5 0.168171 0.693554 0.606302
Si Si6 0.241977 0.994355 0.661127
Si Si7 0.626381 0.209944 0.156498
Si Si8 0.954491 0.522307 0.772746
O O1 0.643379 0.359798 0.534426
O O2 0.757473 0.576869 0.742418
O O3 0.640209 0.622475 0.624931
O O4 0.754089 0.411383 0.932965
O O5 0.856586 0.696558 0.810307
O O6 0.895140 0.665625 0.666649
O O7 0.805732 0.889500 0.531145
O O8 0.623885 0.248388 0.288080
O O9 0.559721 0.096494 0.314963
O O10 0.713059 0.092022 0.636359
O O11 0.455478 0.131398 0.560503
O O12 0.185773 0.870340 0.600813
O O13 0.094714 0.636494 0.364379
O O14 0.303329 0.908943 0.712560
O O15 0.000000 0.565777 0.750000
O O16 0.000000 0.500000 0.000000
#
# Coordination Sequence:
#
# PCOD8118094 Si02
#       8
#     4   4   4   2   4   4   4   4
#     4   9  20  33  56  85 104 141 187 232 272 334
#     4  10  19  36  59  83 113 143 187 229 281 329
#     4  10  19  36  55  77 111 141 183 225 280 327
#     4  10  22  34  52  78 108 146 184 222 278 340
#     4  10  19  36  59  83 114 143 185 231 281 327
#     4   9  20  35  56  87 106 142 181 232 275 335
#     4  10  19  36  55  77 110 142 182 226 282 325
#     4  11  22  40  60  83 115 156 188 229 276 333
#
# _framework density 18.520595
#
# number of rings (size 3 to 8) (size 9 to 14) (size 15 to 20)
#    0.000    2.133    1.333    2.000    0.000    0.533 
#    4.800    6.667    0.000    0.000    0.000    0.000 
#    0.000    0.000    0.000    0.000    0.000    0.000 
#
# Total GULP energy -371873.558712 kJ/mol
# GULP energy per Si atom -12395.785290 kJ/mol
# Density = 1.847844 g / cm^3
# Si number density = 18.520595 Si / 1000 Ang^3
#
#
#
# Elastic Constant Matrix: (Units=GPa)
#
#
# Indices 1 2 3 4 5 6 
#
# 1 98.6606 45.0016 64.9636 0.0000 -17.3858 0.0000
# 2 45.0016 137.7094 64.4066 0.0000 -0.6376 0.0000
# 3 64.9636 64.4066 112.1767 0.0000 -9.4427 0.0000
# 4 0.0000 0.0000 0.0000 22.3588 0.0000 5.3053
# 5 -17.3858 -0.6376 -9.4427 0.0000 25.2971 0.0000
# 6 0.0000 0.0000 0.0000 5.3053 0.0000 17.5608
#
#
#
# Elastic Compliance Matrix: (Units=1/GPa)
#
#
# Indices 1 2 3 4 5 6 
#
# 1 0.018438 -0.001853 -0.008829 0.000000 0.009330 0.000000
# 2 -0.001853 0.010207 -0.005031 0.000000 -0.002894 0.000000
# 3 -0.008829 -0.005031 0.016926 0.000000 0.000124 0.000000
# 4 0.000000 0.000000 0.000000 0.048179 0.000000 -0.014555
# 5 0.009330 -0.002894 0.000124 0.000000 0.045916 0.000000
# 6 0.000000 0.000000 0.000000 -0.014555 0.000000 0.061342
#
#
# Mechanical properties :
#
#
# Convention : Reuss Voigt Hill
#
# Bulk Modulus (GPa) = 70.68966 77.47671 74.08319
# Shear Modulus (GPa) = 21.08385 24.65500 22.86942
#
# Velocity S-wave (km/s) = 3.37768 3.65255 3.51780
# Velocity P-wave (km/s) = 7.31181 7.72733 7.52244
#
# Compressibility (1/GPa) = 0.01414634
#
# Stress axis : x y z
#
# Youngs Moduli (GPa) = 54.23467 97.97526 59.08009
#
# Poissons Ratio (x) = 0.18155 0.52160
# Poissons Ratio (y) = 0.10050 0.29721
# Poissons Ratio (z) = 0.47882 0.49288
#
# Static dielectric constant tensor:
#      x y z
#    x 3.363000 0.000000 0.063380 
#    y 0.000000 3.511520 0.000000 
#    z 0.063380 0.000000 3.507510 
# 
# 
# High freq. dielectric constant tensor:
#      x y z
#    x 1.714580 0.000000 -0.004200 
#    y 0.000000 1.725330 0.000000 
#    z -0.004200 0.000000 1.717260 
# 
# From -- ./inp_files/42714.got.cif
#   From: 2010.06.25/outbox.cif.g09.slc.cpg/sg13_22_cif.got.tgz:42714.got - 2010.06.28 04:50:58.
