data_PCOD8118387
_publ_section_title
;
Structure prediction by ZEFSAII (Michael W. Deem and Ramdas Pophale) SiO2 
 PCOD8118387
Probable space group: P 2/C
;
_chemical_formula_sum "Si O2"
_cell_formula_units_Z 32
_cell_length_a 20.959674
_cell_length_b 5.636324
_cell_length_c 17.279761
_cell_angle_alpha 90.000000
_cell_angle_beta 126.988878
_cell_angle_gamma 90.000000
_cell_volume 1630.535790
_symmetry_space_group_name_H-M "P 2/C"
_symmetry_group_IT_number 13
_symmetry_cell_setting 'monoclinic'
loop_
_space_group_symop_operation_xyz
x,y,z
-x,y,1/2-z
-x,-y,-z
x,-y,1/2+z
loop_
_atom_site_type_symbol
_atom_site_label
_atom_site_fract_x
_atom_site_fract_y
_atom_site_fract_z
Si Si1 0.682024 0.233052 0.331366
Si Si2 0.312904 0.044839 0.518873
Si Si3 0.208087 0.384962 0.534062
Si Si4 0.399932 0.534319 0.339839
Si Si5 0.094156 0.610856 0.818812
Si Si6 0.749854 0.853753 0.280726
Si Si7 0.167831 0.888192 0.317984
Si Si8 0.546979 0.196227 0.988171
O O1 0.762984 0.356282 0.420317
O O2 0.611777 0.406483 0.251664
O O3 0.649051 0.077421 0.377552
O O4 0.704890 0.094758 0.269871
O O5 0.271915 0.286980 0.517693
O O6 0.385467 0.083790 0.514808
O O7 0.247694 0.881036 0.428225
O O8 0.122780 0.395288 0.429351
O O9 0.202382 0.226115 0.607118
O O10 0.318869 0.676571 0.297946
O O11 0.410112 0.373382 0.422340
O O12 0.480676 0.681619 0.385521
O O13 0.122819 0.363505 0.799363
O O14 0.000000 0.607013 0.750000
O O15 0.120885 0.863149 0.799883
O O16 0.812588 0.896255 0.258627
O O17 0.500000 0.000000 0.000000
#
# Coordination Sequence:
#
# PCOD8118387 Si02
#       8
#     4   4   4   4   4   4   4   4
#     4  10  19  39  60  85 119 160 214 269 320 380
#     4  10  21  37  61  88 119 165 223 257 326 381
#     4   9  21  39  63  90 123 167 209 268 314 393
#     4  10  22  37  58  84 123 162 207 274 329 370
#     4  11  24  44  67 101 137 170 210 265 329 390
#     4  10  22  39  64  91 122 166 221 268 315 386
#     4  11  23  40  70  98 127 175 218 264 314 396
#     4  11  23  39  56  86 124 164 210 274 327 383
#
# _framework density 19.625449
#
# number of rings (size 3 to 8) (size 9 to 14) (size 15 to 20)
#    0.000    1.750    1.250    2.625    7.000    2.000 
#    0.000   16.250    0.000    0.000    0.000    0.000 
#    0.000    0.000    0.000    0.000    0.000    0.000 
#
# Total GULP energy -396589.196983 kJ/mol
# GULP energy per Si atom -12393.412406 kJ/mol
# Density = 1.958078 g / cm^3
# Si number density = 19.625449 Si / 1000 Ang^3
#
#
#
# Elastic Constant Matrix: (Units=GPa)
#
#
# Indices 1 2 3 4 5 6 
#
# 1 124.0428 56.7215 71.1574 0.0000 2.9419 0.0000
# 2 56.7215 123.3789 47.4345 0.0000 6.5263 0.0000
# 3 71.1574 47.4345 130.8377 0.0000 14.1761 0.0000
# 4 0.0000 0.0000 0.0000 14.8064 0.0000 -1.7134
# 5 2.9419 6.5263 14.1761 0.0000 28.4607 0.0000
# 6 0.0000 0.0000 0.0000 -1.7134 0.0000 14.4299
#
#
#
# Elastic Compliance Matrix: (Units=1/GPa)
#
#
# Indices 1 2 3 4 5 6 
#
# 1 0.013273 -0.003899 -0.006081 0.000000 0.002551 0.000000
# 2 -0.003899 0.010569 -0.001578 0.000000 -0.001235 0.000000
# 3 -0.006081 -0.001578 0.012066 0.000000 -0.005020 0.000000
# 4 0.000000 0.000000 0.000000 0.068479 0.000000 0.008131
# 5 0.002551 -0.001235 -0.005020 0.000000 0.037656 0.000000
# 6 0.000000 0.000000 0.000000 0.008131 0.000000 0.070266
#
#
# Mechanical properties :
#
#
# Convention : Reuss Voigt Hill
#
# Bulk Modulus (GPa) = 78.16983 80.98736 79.57860
# Shear Modulus (GPa) = 20.86030 25.06913 22.96471
#
# Velocity S-wave (km/s) = 3.26378 3.57792 3.42446
# Velocity P-wave (km/s) = 7.35665 7.64361 7.50150
#
# Compressibility (1/GPa) = 0.01279266
#
# Stress axis : x y z
#
# Youngs Moduli (GPa) = 75.34301 94.61282 82.87508
#
# Poissons Ratio (x) = 0.36887 0.50400
# Poissons Ratio (y) = 0.29374 0.13075
# Poissons Ratio (z) = 0.45819 0.14927
#
# Static dielectric constant tensor:
#      x y z
#    x 3.239590 0.000000 -0.084990 
#    y 0.000000 3.927320 0.000000 
#    z -0.084990 0.000000 3.805030 
# 
# 
# High freq. dielectric constant tensor:
#      x y z
#    x 1.732980 0.000000 -0.012160 
#    y 0.000000 1.783790 0.000000 
#    z -0.012160 0.000000 1.778500 
# 
# From -- ./inp_files/70296.got.cif
#   From: 2010.06.25/outbox.cif.g09.slc.cpg/sg13_36_cif.got.tgz:70296.got - 2010.06.28 04:50:58.
