data_PCOD8118503
_publ_section_title
;
Structure prediction by ZEFSAII (Michael W. Deem and Ramdas Pophale) SiO2 
 PCOD8118503
Probable space group: P 2/C
;
_chemical_formula_sum "Si O2"
_cell_formula_units_Z 26
_cell_length_a 16.207149
_cell_length_b 4.975679
_cell_length_c 20.951251
_cell_angle_alpha 90.000000
_cell_angle_beta 128.443901
_cell_angle_gamma 90.000000
_cell_volume 1323.278351
_symmetry_space_group_name_H-M "P 2/C"
_symmetry_group_IT_number 13
_symmetry_cell_setting 'monoclinic'
loop_
_space_group_symop_operation_xyz
x,y,z
-x,y,1/2-z
-x,-y,-z
x,-y,1/2+z
loop_
_atom_site_type_symbol
_atom_site_label
_atom_site_fract_x
_atom_site_fract_y
_atom_site_fract_z
Si Si1 0.531020 0.104482 0.945422
Si Si2 0.996056 0.139419 0.066270
Si Si3 0.826034 0.259690 0.258450
Si Si4 0.895567 0.638687 0.076233
Si Si5 0.333956 0.627933 0.492731
Si Si6 0.305401 0.238085 0.833114
Si Si7 0.000000 0.412363 0.250000
O O1 0.425367 0.231122 0.863027
O O2 0.617954 0.333815 0.988718
O O3 0.500000 0.000000 0.000000
O O4 0.583836 0.844107 0.936656
O O5 0.939485 0.431268 0.043458
O O6 0.115875 0.182265 0.147805
O O7 0.929670 0.942369 0.079260
O O8 0.000000 0.000000 0.000000
O O9 0.770798 0.550999 0.239137
O O10 0.910442 0.237046 0.241509
O O11 0.733237 0.059053 0.199033
O O12 0.769586 0.617558 0.013583
O O13 0.943431 0.588874 0.169022
O O14 0.301196 0.713133 0.406200
#
# Coordination Sequence:
#
# PCOD8118503 Si02
#       7
#     4   4   4   4   4   4   2
#     4  10  20  32  50  76 122 156 178 218 276 348
#     4  11  25  42  56  81 114 155 203 238 281 339
#     4  11  22  33  57  80 114 151 186 230 285 334
#     4  11  23  36  61  82 116 153 188 239 292 341
#     4  11  20  33  52  83 116 152 183 222 284 349
#     4  11  20  33  52  83 116 152 184 219 282 347
#     4  10  22  34  52  88 118 142 182 232 288 348
#
# _framework density 19.648171000000001
#
# number of rings (size 3 to 8) (size 9 to 14) (size 15 to 20)
#    0.000    1.231    1.538    7.846    4.308    1.231 
#    0.000    0.000    0.000    0.000    0.000   16.154 
#    0.000    0.000    0.000    0.000    0.000    0.000 
#
# Total GULP energy -322291.650104 kJ/mol
# GULP energy per Si atom -12395.832696 kJ/mol
# Density = 1.960345 g / cm^3
# Si number density = 19.648171 Si / 1000 Ang^3
#
#
#
# Elastic Constant Matrix: (Units=GPa)
#
#
# Indices 1 2 3 4 5 6 
#
# 1 73.8826 22.1872 43.3922 0.0000 27.1952 0.0000
# 2 22.1872 97.2614 15.2691 0.0000 17.6136 0.0000
# 3 43.3922 15.2691 68.0442 0.0000 13.4371 0.0000
# 4 0.0000 0.0000 0.0000 33.0311 0.0000 17.9573
# 5 27.1952 17.6136 13.4371 0.0000 35.4842 0.0000
# 6 0.0000 0.0000 0.0000 17.9573 0.0000 39.5262
#
#
#
# Elastic Compliance Matrix: (Units=1/GPa)
#
#
# Indices 1 2 3 4 5 6 
#
# 1 0.028213 -0.001346 -0.014647 0.000000 -0.015408 0.000000
# 2 -0.001346 0.011513 -0.000865 0.000000 -0.004356 0.000000
# 3 -0.014647 -0.000865 0.023702 0.000000 0.002679 0.000000
# 4 0.000000 0.000000 0.000000 0.040205 0.000000 -0.018266
# 5 -0.015408 -0.004356 0.002679 0.000000 0.041138 0.000000
# 6 0.000000 0.000000 0.000000 -0.018266 0.000000 0.033598
#
#
# Mechanical properties :
#
#
# Convention : Reuss Voigt Hill
#
# Bulk Modulus (GPa) = 33.65648 44.54279 39.09964
# Shear Modulus (GPa) = 22.52373 32.16425 27.34399
#
# Velocity S-wave (km/s) = 3.38946 4.05039 3.73457
# Velocity P-wave (km/s) = 5.69953 6.67784 6.20799
#
# Compressibility (1/GPa) = 0.02971196
#
# Stress axis : x y z
#
# Youngs Moduli (GPa) = 35.44470 86.85642 42.19117
#
# Poissons Ratio (x) = 0.11693 0.61797
# Poissons Ratio (y) = 0.04772 0.03649
# Poissons Ratio (z) = 0.51915 0.07513
#
# Static dielectric constant tensor:
#      x y z
#    x 3.716140 0.000000 0.558070 
#    y 0.000000 3.873700 0.000000 
#    z 0.558070 0.000000 3.533880 
# 
# 
# High freq. dielectric constant tensor:
#      x y z
#    x 1.746330 0.000000 0.044700 
#    y 0.000000 1.789170 0.000000 
#    z 0.044700 0.000000 1.737590 
# 
# From -- ./inp_files/79265.got.cif
#   From: 2010.06.25/outbox.cif.g09.slc.cpg/sg13_40_cif.got.tgz:79265.got - 2010.06.28 04:50:58.
