data_PCOD8118839
_publ_section_title
;
Structure prediction by ZEFSAII (Michael W. Deem and Ramdas Pophale) SiO2 
 PCOD8118839
Probable space group: P 2/C
;
_chemical_formula_sum "Si O2"
_cell_formula_units_Z 24
_cell_length_a 13.384914
_cell_length_b 12.102587
_cell_length_c 8.548428
_cell_angle_alpha 90.000000
_cell_angle_beta 107.960743
_cell_angle_gamma 90.000000
_cell_volume 1317.294727
_symmetry_space_group_name_H-M "P 2/C"
_symmetry_group_IT_number 13
_symmetry_cell_setting 'monoclinic'
loop_
_space_group_symop_operation_xyz
x,y,z
-x,y,1/2-z
-x,-y,-z
x,-y,1/2+z
loop_
_atom_site_type_symbol
_atom_site_label
_atom_site_fract_x
_atom_site_fract_y
_atom_site_fract_z
Si Si1 0.598537 0.962112 0.898489
Si Si2 0.685140 0.222674 0.656963
Si Si3 0.885305 0.130633 0.640553
Si Si4 0.508357 0.621295 0.069733
Si Si5 0.797073 0.925186 0.787577
Si Si6 0.348938 0.194377 0.499568
O O1 0.500000 0.919372 0.750000
O O2 0.701157 0.976357 0.839683
O O3 0.577565 0.083432 0.963670
O O4 0.623834 0.881592 0.054210
O O5 0.803926 0.227435 0.649436
O O6 0.622035 0.331914 0.573229
O O7 0.690109 0.218566 0.845590
O O8 0.884634 0.118624 0.451664
O O9 0.000000 0.167086 0.750000
O O10 0.850154 0.016437 0.704233
O O11 0.500000 0.617802 0.250000
O O12 0.416832 0.703702 0.963218
O O13 0.500000 0.500000 0.000000
O O14 0.752544 0.824758 0.659924
#
# Coordination Sequence:
#
# PCOD8118839 Si02
#       6
#     4   4   4   4   4   4
#     4  11  19  29  51  80 107 142 169 206 263 326
#     4  10  20  36  51  76 111 140 177 215 259 315
#     4  11  21  34  50  75 108 145 179 217 260 305
#     4  10  23  37  55  78 109 142 174 216 263 318
#     4  11  20  32  49  77 109 142 176 215 255 322
#     4  11  19  33  53  77 108 141 172 211 268 318
#
# _framework density 18.219158
#
# number of rings (size 3 to 8) (size 9 to 14) (size 15 to 20)
#    0.000    1.333    5.000    3.000    0.000    5.333 
#    0.000    0.000    0.000    0.000    0.000   11.667 
#    0.000    0.000    0.000    0.000    0.000    0.000 
#
# Total GULP energy -297519.510500 kJ/mol
# GULP energy per Si atom -12396.646271 kJ/mol
# Density = 1.817769 g / cm^3
# Si number density = 18.219158 Si / 1000 Ang^3
#
#
#
# Elastic Constant Matrix: (Units=GPa)
#
#
# Indices 1 2 3 4 5 6 
#
# 1 80.0865 30.8175 33.0942 0.0000 18.8329 0.0000
# 2 30.8175 100.0126 19.9281 0.0000 2.0241 0.0000
# 3 33.0942 19.9281 108.8757 0.0000 16.5187 0.0000
# 4 0.0000 0.0000 0.0000 24.2839 0.0000 -3.0209
# 5 18.8329 2.0241 16.5187 0.0000 27.6104 0.0000
# 6 0.0000 0.0000 0.0000 -3.0209 0.0000 14.1301
#
#
#
# Elastic Compliance Matrix: (Units=1/GPa)
#
#
# Indices 1 2 3 4 5 6 
#
# 1 0.017928 -0.004711 -0.003062 0.000000 -0.010051 0.000000
# 2 -0.004711 0.011619 -0.001158 0.000000 0.003054 0.000000
# 3 -0.003062 -0.001158 0.010996 0.000000 -0.004405 0.000000
# 4 0.000000 0.000000 0.000000 0.042305 0.000000 0.009044
# 5 -0.010051 0.003054 -0.004405 0.000000 0.045486 0.000000
# 6 0.000000 0.000000 0.000000 0.009044 0.000000 0.072704
#
#
# Mechanical properties :
#
#
# Convention : Reuss Voigt Hill
#
# Bulk Modulus (GPa) = 44.09003 50.73939 47.41471
# Shear Modulus (GPa) = 22.07884 26.88054 24.47969
#
# Velocity S-wave (km/s) = 3.48494 3.84526 3.66952
# Velocity P-wave (km/s) = 6.35967 6.90106 6.63589
#
# Compressibility (1/GPa) = 0.02268087
#
# Stress axis : x y z
#
# Youngs Moduli (GPa) = 55.77779 86.06391 90.94271
#
# Poissons Ratio (x) = 0.40543 0.27849
# Poissons Ratio (y) = 0.26276 0.10533
# Poissons Ratio (z) = 0.17081 0.09968
#
# Static dielectric constant tensor:
#      x y z
#    x 3.395710 0.000000 0.028940 
#    y 0.000000 2.697740 0.000000 
#    z 0.028940 0.000000 3.732920 
# 
# 
# High freq. dielectric constant tensor:
#      x y z
#    x 1.691070 0.000000 -0.005210 
#    y 0.000000 1.655330 0.000000 
#    z -0.005210 0.000000 1.730410 
# 
# From -- ./inp_files/18478.got.cif
#   From: 2010.06.25/outbox.cif.g09.slc.cpg/sg13_10_cif.got.tgz:18478.got - 2010.06.28 04:50:58.
