data_PCOD8118550
_publ_section_title
;
Structure prediction by ZEFSAII (Michael W. Deem and Ramdas Pophale) SiO2 
 PCOD8118550
Probable space group: P 2/C
;
_chemical_formula_sum "Si O2"
_cell_formula_units_Z 24
_cell_length_a 14.634549
_cell_length_b 14.477082
_cell_length_c 8.216630
_cell_angle_alpha 90.000000
_cell_angle_beta 136.242926
_cell_angle_gamma 90.000000
_cell_volume 1203.955673
_symmetry_space_group_name_H-M "P 2/C"
_symmetry_group_IT_number 13
_symmetry_cell_setting 'monoclinic'
loop_
_space_group_symop_operation_xyz
x,y,z
-x,y,1/2-z
-x,-y,-z
x,-y,1/2+z
loop_
_atom_site_type_symbol
_atom_site_label
_atom_site_fract_x
_atom_site_fract_y
_atom_site_fract_z
Si Si1 0.231080 0.895931 0.591438
Si Si2 0.764792 0.092481 0.777105
Si Si3 0.500000 0.494362 0.750000
Si Si4 0.000000 0.758978 0.250000
Si Si5 0.497235 0.181613 0.052030
Si Si6 0.375312 0.628761 0.338443
Si Si7 0.905016 0.721142 0.477495
O O1 0.262573 0.912927 0.446841
O O2 0.117847 0.821211 0.471494
O O3 0.366202 0.857818 0.847463
O O4 0.182814 0.992975 0.601880
O O5 0.622697 0.118663 0.672676
O O6 0.874423 0.169773 0.957703
O O7 0.410387 0.558540 0.525048
O O8 0.607999 0.428616 0.804499
O O9 0.959175 0.701173 0.361140
O O10 0.500000 0.184122 0.250000
O O11 0.477035 0.285862 0.965105
O O12 0.226266 0.661523 0.172363
O O13 0.000000 0.692632 0.750000
#
# Coordination Sequence:
#
# PCOD8118550 Si02
#       7
#     4   4   2   2   4   4   4
#     4  10  20  33  52  82 117 164 210 247 300 348
#     4   9  20  33  54  81 116 160 208 255 300 337
#     4  10  22  40  72  94 118 142 200 254 328 386
#     4  10  24  36  58  88 118 182 206 246 302 350
#     4   9  17  35  57  80 117 154 194 255 307 360
#     4  10  21  42  65  97 118 156 194 259 317 377
#     4  10  23  42  62  89 129 167 212 247 299 370
#
# _framework density 19.934290000000001
#
# number of rings (size 3 to 8) (size 9 to 14) (size 15 to 20)
#    0.000    2.333    0.833    1.500    3.500    2.667 
#    6.000    0.833    0.000    0.000    0.000    0.000 
#    0.000    0.000    0.000    0.000    0.000    0.000 
#
# Total GULP energy -297438.912725 kJ/mol
# GULP energy per Si atom -12393.288030 kJ/mol
# Density = 1.988892 g / cm^3
# Si number density = 19.934290 Si / 1000 Ang^3
#
#
#
# Elastic Constant Matrix: (Units=GPa)
#
#
# Indices 1 2 3 4 5 6 
#
# 1 105.9631 47.0281 47.4460 0.0000 6.3735 0.0000
# 2 47.0281 88.5038 23.5682 0.0000 -5.9717 0.0000
# 3 47.4460 23.5682 72.5743 0.0000 1.6581 0.0000
# 4 0.0000 0.0000 0.0000 75.8542 0.0000 156.1822
# 5 6.3735 -5.9717 1.6581 0.0000 23.2186 0.0000
# 6 0.0000 0.0000 0.0000 156.1822 0.0000 351.8018
#
#
#
# Elastic Compliance Matrix: (Units=1/GPa)
#
#
# Indices 1 2 3 4 5 6 
#
# 1 0.016703 -0.006998 -0.008515 0.000000 -0.005777 0.000000
# 2 -0.006998 0.015586 -0.000623 0.000000 0.005974 0.000000
# 3 -0.008515 -0.000623 0.019531 0.000000 0.000782 0.000000
# 4 0.000000 0.000000 0.000000 0.153441 0.000000 -0.068120
# 5 -0.005777 0.005974 0.000782 0.000000 0.046135 0.000000
# 6 0.000000 0.000000 0.000000 -0.068120 0.000000 0.033084
#
#
# Mechanical properties :
#
#
# Convention : Reuss Voigt Hill
#
# Bulk Modulus (GPa) = 51.15790 55.90286 53.53038
# Shear Modulus (GPa) = 15.46697 100.10817 57.78757
#
# Velocity S-wave (km/s) = 2.78852 7.09423 5.38999
# Velocity P-wave (km/s) = 6.00722 9.75749 8.10232
#
# Compressibility (1/GPa) = 0.01954732
#
# Stress axis : x y z
#
# Youngs Moduli (GPa) = 59.86836 64.15845 51.20181
#
# Poissons Ratio (x) = 0.44897 0.43601
# Poissons Ratio (y) = 0.41894 0.03191
# Poissons Ratio (z) = 0.50981 0.03999
#
# Static dielectric constant tensor:
#      x y z
#    x 3.738260 0.000000 -0.000400 
#    y 0.000000 3.966170 0.000000 
#    z -0.000400 0.000000 3.661400 
# 
# 
# High freq. dielectric constant tensor:
#      x y z
#    x 1.773820 0.000000 0.005360 
#    y 0.000000 1.766960 0.000000 
#    z 0.005360 0.000000 1.776820 
# 
# From -- ./inp_files/19534.got.cif
#   From: 2010.06.25/outbox.cif.g09.slc.cpg/sg13_10_cif.got.tgz:19534.got - 2010.06.28 04:50:58.
