data_PCOD8118721
_publ_section_title
;
Structure prediction by ZEFSAII (Michael W. Deem and Ramdas Pophale) SiO2 
 PCOD8118721
Probable space group: P 2/C
;
_chemical_formula_sum "Si O2"
_cell_formula_units_Z 32
_cell_length_a 16.178274
_cell_length_b 21.047181
_cell_length_c 15.613877
_cell_angle_alpha 90.000000
_cell_angle_beta 162.207593
_cell_angle_gamma 90.000000
_cell_volume 1624.599609
_symmetry_space_group_name_H-M "P 2/C"
_symmetry_group_IT_number 13
_symmetry_cell_setting 'monoclinic'
loop_
_space_group_symop_operation_xyz
x,y,z
-x,y,1/2-z
-x,-y,-z
x,-y,1/2+z
loop_
_atom_site_type_symbol
_atom_site_label
_atom_site_fract_x
_atom_site_fract_y
_atom_site_fract_z
Si Si1 0.113486 0.070062 0.126806
Si Si2 0.269392 0.231059 0.959211
Si Si3 0.907984 0.448582 0.070322
Si Si4 0.743120 0.027315 0.053719
Si Si5 0.845883 0.405119 0.517682
Si Si6 0.562113 0.434534 0.010122
Si Si7 0.655987 0.645810 0.062298
Si Si8 0.347783 0.897864 0.438835
O O1 0.219224 0.076722 0.329080
O O2 0.355636 0.087570 0.302919
O O3 0.860124 0.113404 0.846259
O O4 0.000000 0.000000 0.000000
O O5 0.344945 0.163170 0.995552
O O6 0.000000 0.228555 0.750000
O O7 0.500000 0.254156 0.250000
O O8 0.270533 0.280214 0.879997
O O9 0.832338 0.520497 0.017613
O O10 0.000000 0.415112 0.250000
O O11 0.130830 0.438902 0.217167
O O12 0.627419 0.421236 0.758486
O O13 0.000000 0.034276 0.250000
O O14 0.727799 0.956389 0.074723
O O15 0.500000 0.045798 0.750000
O O16 0.541664 0.379230 0.208765
O O17 0.000000 0.370907 0.750000
O O18 0.055405 0.390815 0.646601
O O19 0.516710 0.371909 0.023695
O O20 0.500000 0.500000 0.000000
#
# Coordination Sequence:
#
# PCOD8118721 Si02
#       8
#     4   4   4   4   4   4   4   4
#     4  10  20  35  55  83 115 152 195 238 289 341
#     4  12  25  41  57  84 118 159 205 233 267 336
#     4  11  22  36  55  80 108 141 181 224 288 358
#     4  11  19  31  53  85 116 146 183 237 293 336
#     4  11  20  33  51  76 109 145 176 219 284 338
#     4  12  21  37  55  83 112 143 184 234 292 355
#     4  12  23  35  55  78 112 150 187 235 278 329
#     4  11  21  37  56  78 117 163 197 228 277 339
#
# _framework density 19.69716
#
# number of rings (size 3 to 8) (size 9 to 14) (size 15 to 20)
#    0.000    0.750    2.500    9.000    0.000    2.000 
#    0.000    0.000    0.000    0.000    0.000    8.750 
#    0.000    0.000    0.000    0.000    0.000    0.000 
#
# Total GULP energy -396510.299283 kJ/mol
# GULP energy per Si atom -12390.946853 kJ/mol
# Density = 1.965233 g / cm^3
# Si number density = 19.697160 Si / 1000 Ang^3
#
#
#
# Elastic Constant Matrix: (Units=GPa)
#
#
# Indices 1 2 3 4 5 6 
#
# 1 84.7380 30.4921 20.3530 0.0000 -1.6062 0.0000
# 2 30.4921 57.4729 9.5874 0.0000 7.6810 0.0000
# 3 20.3530 9.5874 106.0957 0.0000 -2.8579 0.0000
# 4 0.0000 0.0000 0.0000 18.2003 0.0000 2.2186
# 5 -1.6062 7.6810 -2.8579 0.0000 50.7632 0.0000
# 6 0.0000 0.0000 0.0000 2.2186 0.0000 37.8712
#
#
#
# Elastic Compliance Matrix: (Units=1/GPa)
#
#
# Indices 1 2 3 4 5 6 
#
# 1 0.015195 -0.007910 -0.002158 0.000000 0.001556 0.000000
# 2 -0.007910 0.022180 -0.000585 0.000000 -0.003639 0.000000
# 3 -0.002158 -0.000585 0.009908 0.000000 0.000578 0.000000
# 4 0.000000 0.000000 0.000000 0.055339 0.000000 -0.003242
# 5 0.001556 -0.003639 0.000578 0.000000 0.020332 0.000000
# 6 0.000000 0.000000 0.000000 -0.003242 0.000000 0.026595
#
#
# Mechanical properties :
#
#
# Convention : Reuss Voigt Hill
#
# Bulk Modulus (GPa) = 38.49545 41.01907 39.75726
# Shear Modulus (GPa) = 27.85291 33.89188 30.87240
#
# Velocity S-wave (km/s) = 3.76447 4.15257 3.96328
# Velocity P-wave (km/s) = 6.20331 6.62283 6.41650
#
# Compressibility (1/GPa) = 0.02597710
#
# Stress axis : x y z
#
# Youngs Moduli (GPa) = 65.81020 45.08581 100.92925
#
# Poissons Ratio (x) = 0.35662 0.21784
# Poissons Ratio (y) = 0.52054 0.05904
# Poissons Ratio (z) = 0.14204 0.02637
#
# Static dielectric constant tensor:
#      x y z
#    x 4.083660 0.000000 -0.400180 
#    y 0.000000 3.230420 0.000000 
#    z -0.400180 0.000000 4.191980 
# 
# 
# High freq. dielectric constant tensor:
#      x y z
#    x 1.771350 0.000000 0.002400 
#    y 0.000000 1.709210 0.000000 
#    z 0.002400 0.000000 1.800880 
# 
# From -- ./inp_files/54006.got.cif
#   From: 2010.06.25/outbox.cif.g09.slc.cpg/sg13_28_cif.got.tgz:54006.got - 2010.06.28 04:50:58.
