data_PCOD8118736
_publ_section_title
;
Structure prediction by ZEFSAII (Michael W. Deem and Ramdas Pophale) SiO2 
 PCOD8118736
Probable space group: P 2/C
;
_chemical_formula_sum "Si O2"
_cell_formula_units_Z 32
_cell_length_a 16.576421
_cell_length_b 11.020279
_cell_length_c 19.043678
_cell_angle_alpha 90.000000
_cell_angle_beta 28.085015
_cell_angle_gamma 90.000000
_cell_volume 1637.771307
_symmetry_space_group_name_H-M "P 2/C"
_symmetry_group_IT_number 13
_symmetry_cell_setting 'monoclinic'
loop_
_space_group_symop_operation_xyz
x,y,z
-x,y,1/2-z
-x,-y,-z
x,-y,1/2+z
loop_
_atom_site_type_symbol
_atom_site_label
_atom_site_fract_x
_atom_site_fract_y
_atom_site_fract_z
Si Si1 0.634548 0.071355 0.444484
Si Si2 0.368373 0.333222 0.099403
Si Si3 0.002916 0.383675 0.587274
Si Si4 0.983480 0.879815 0.844792
Si Si5 0.302038 0.421110 0.580399
Si Si6 0.652966 0.028994 0.081112
Si Si7 0.677919 0.692136 0.579425
Si Si8 0.994197 0.338905 0.070600
O O1 0.593313 0.213498 0.474100
O O2 0.837177 0.056846 0.268274
O O3 0.500000 0.000000 0.500000
O O4 0.599951 0.028728 0.548918
O O5 0.323481 0.435965 0.076871
O O6 0.210363 0.322260 0.274087
O O7 0.525097 0.356903 0.029523
O O8 0.173020 0.311963 0.477667
O O9 0.941467 0.328969 0.559367
O O10 0.851198 0.359657 0.758529
O O11 0.047719 0.526698 0.553834
O O12 0.000000 0.839348 0.750000
O O13 0.932937 0.763034 0.931747
O O14 0.833861 0.977877 0.970308
O O15 0.271362 0.399163 0.521998
O O16 0.500000 0.993349 0.250000
O O17 0.665736 0.172197 0.059594
O O18 0.500000 0.649282 0.750000
#
# Coordination Sequence:
#
# PCOD8118736 Si02
#       8
#     4   4   4   4   4   4   4   4
#     4  10  20  36  60  84 110 149 187 224 274 333
#     4   9  19  35  56  82 113 144 180 223 276 329
#     4  10  21  34  56  84 110 142 182 226 270 326
#     4   9  20  38  60  81 110 149 185 227 279 335
#     4  10  20  35  56  83 112 143 184 229 270 327
#     4  10  23  40  55  79 112 144 186 236 279 328
#     4  11  23  38  55  76 110 150 183 226 284 332
#     4   9  19  38  57  81 114 143 177 223 277 331
#
# _framework density 19.538747999999998
#
# number of rings (size 3 to 8) (size 9 to 14) (size 15 to 20)
#    0.000    2.250    0.000    1.875    0.000   13.000 
#    0.000    2.500    0.000    0.000    0.000    0.000 
#    0.000    0.000    0.000    0.000    0.000    0.000 
#
# Total GULP energy -396728.656184 kJ/mol
# GULP energy per Si atom -12397.770506 kJ/mol
# Density = 1.949428 g / cm^3
# Si number density = 19.538748 Si / 1000 Ang^3
#
#
#
# Elastic Constant Matrix: (Units=GPa)
#
#
# Indices 1 2 3 4 5 6 
#
# 1 80.9859 39.5122 32.0708 0.0000 11.9131 0.0000
# 2 39.5122 76.8305 42.5614 0.0000 4.8478 0.0000
# 3 32.0708 42.5614 89.2032 0.0000 12.8049 0.0000
# 4 0.0000 0.0000 0.0000 1.8782 0.0000 44.8615
# 5 11.9131 4.8478 12.8049 0.0000 33.5426 0.0000
# 6 0.0000 0.0000 0.0000 44.8615 0.0000 -49.7146
#
#
#
# Elastic Compliance Matrix: (Units=1/GPa)
#
#
# Indices 1 2 3 4 5 6 
#
# 1 0.017501 -0.007593 -0.002047 0.000000 -0.004337 0.000000
# 2 -0.007593 0.021002 -0.007662 0.000000 0.002586 0.000000
# 3 -0.002047 -0.007662 0.016228 0.000000 -0.004361 0.000000
# 4 0.000000 0.000000 0.000000 0.023607 0.000000 0.021303
# 5 -0.004337 0.002586 -0.004361 0.000000 0.032644 0.000000
# 6 0.000000 0.000000 0.000000 0.021303 0.000000 -0.000892
#
#
# Mechanical properties :
#
#
# Convention : Reuss Voigt Hill
#
# Bulk Modulus (GPa) = 49.68327 52.81204 51.24766
# Shear Modulus (GPa) = 33.02469 5.99956 19.51213
#
# Velocity S-wave (km/s) = 4.11568 1.75421 3.16355
# Velocity P-wave (km/s) = 6.93314 5.58490 6.29522
#
# Compressibility (1/GPa) = 0.02012750
#
# Stress axis : x y z
#
# Youngs Moduli (GPa) = 57.14042 47.61504 61.62215
#
# Poissons Ratio (x) = 0.36153 0.12612
# Poissons Ratio (y) = 0.43386 0.47215
# Poissons Ratio (z) = 0.11695 0.36483
#
# Static dielectric constant tensor:
#      x y z
#    x 3.494690 0.000000 -0.061580 
#    y 0.000000 3.702030 0.000000 
#    z -0.061580 0.000000 3.665130 
# 
# 
# High freq. dielectric constant tensor:
#      x y z
#    x 1.761740 0.000000 -0.004330 
#    y 0.000000 1.756850 0.000000 
#    z -0.004330 0.000000 1.765090 
# 
# From -- ./inp_files/68633.got.cif
#   From: 2010.06.25/outbox.cif.g09.slc.cpg/sg13_35_cif.got.tgz:68633.got - 2010.06.28 04:50:58.
