data_PCOD8118372
_publ_section_title
;
Structure prediction by ZEFSAII (Michael W. Deem and Ramdas Pophale) SiO2 
 PCOD8118372
Probable space group: P 2/C
;
_chemical_formula_sum "Si O2"
_cell_formula_units_Z 28
_cell_length_a 8.959478
_cell_length_b 14.998020
_cell_length_c 10.495083
_cell_angle_alpha 90.000000
_cell_angle_beta 116.320479
_cell_angle_gamma 90.000000
_cell_volume 1264.065215
_symmetry_space_group_name_H-M "P 2/C"
_symmetry_group_IT_number 13
_symmetry_cell_setting 'monoclinic'
loop_
_space_group_symop_operation_xyz
x,y,z
-x,y,1/2-z
-x,-y,-z
x,-y,1/2+z
loop_
_atom_site_type_symbol
_atom_site_label
_atom_site_fract_x
_atom_site_fract_y
_atom_site_fract_z
Si Si1 0.500000 0.813984 0.250000
Si Si2 0.155848 0.439693 0.026107
Si Si3 0.672337 0.147805 0.260160
Si Si4 0.000000 0.116610 0.750000
Si Si5 0.264161 0.743025 0.959453
Si Si6 0.346761 0.965368 0.353286
Si Si7 0.042695 0.241624 0.990671
Si Si8 0.198569 0.437942 0.321392
O O1 0.620720 0.749384 0.373383
O O2 0.396853 0.873498 0.308409
O O3 0.100508 0.339789 0.967894
O O4 0.262582 0.447131 0.198440
O O5 0.247142 0.479629 0.934194
O O6 0.000000 0.500000 0.000000
O O7 0.500000 0.182970 0.250000
O O8 0.698114 0.178285 0.124794
O O9 0.800306 0.185445 0.408180
O O10 0.682664 0.040408 0.265211
O O11 0.836557 0.055424 0.654074
O O12 0.045638 0.183758 0.652058
O O13 0.296572 0.648213 0.907576
O O14 0.073564 0.749437 0.930613
O O15 0.500000 0.000000 0.500000
O O16 0.000000 0.422509 0.250000
#
# Coordination Sequence:
#
# PCOD8118372 Si02
#       8
#     2   4   4   2   4   4   4   4
#     4  12  26  44  70  96 142 190 228 300 354 420
#     4  10  20  36  68 104 140 176 229 288 352 415
#     4  12  26  43  73  95 140 187 230 292 358 424
#     4  12  30  42  68 110 140 184 248 298 352 440
#     4  12  23  44  69 102 137 180 240 283 356 417
#     4  12  26  48  67 100 143 188 235 296 367 416
#     4  12  25  43  69 106 138 182 237 290 349 425
#     4  10  19  38  67 105 134 179 227 290 347 420
#
# _framework density 22.150756000000001
#
# number of rings (size 3 to 8) (size 9 to 14) (size 15 to 20)
#    0.000    0.571    7.857    1.286    5.000    0.571 
#    0.000    0.000    1.571    1.714    0.000    0.000 
#    0.000    0.000    0.000    0.000    0.000    0.000 
#
# Total GULP energy -347044.775278 kJ/mol
# GULP energy per Si atom -12394.456260 kJ/mol
# Density = 2.210034 g / cm^3
# Si number density = 22.150756 Si / 1000 Ang^3
#
#
#
# Elastic Constant Matrix: (Units=GPa)
#
#
# Indices 1 2 3 4 5 6 
#
# 1 77.3208 24.6137 30.9241 0.0000 0.1764 0.0000
# 2 24.6137 122.9589 60.8584 0.0000 7.3327 0.0000
# 3 30.9241 60.8584 127.0377 0.0000 -1.5679 0.0000
# 4 0.0000 0.0000 0.0000 50.5188 0.0000 1.1951
# 5 0.1764 7.3327 -1.5679 0.0000 27.8228 0.0000
# 6 0.0000 0.0000 0.0000 1.1951 0.0000 -21.2395
#
#
#
# Elastic Compliance Matrix: (Units=1/GPa)
#
#
# Indices 1 2 3 4 5 6 
#
# 1 0.014542 -0.001532 -0.002804 0.000000 0.000154 0.000000
# 2 -0.001532 0.011096 -0.004982 0.000000 -0.003195 0.000000
# 3 -0.002804 -0.004982 0.010965 0.000000 0.001949 0.000000
# 4 0.000000 0.000000 0.000000 0.019768 0.000000 0.001112
# 5 0.000154 -0.003195 0.001949 0.000000 0.036893 0.000000
# 6 0.000000 0.000000 0.000000 0.001112 0.000000 -0.047020
#
#
# Mechanical properties :
#
#
# Convention : Reuss Voigt Hill
#
# Bulk Modulus (GPa) = 55.65970 62.23442 58.94706
# Shear Modulus (GPa) = 70.55195 25.48182 48.01689
#
# Velocity S-wave (km/s) = 5.64977 3.39541 4.66094
# Velocity P-wave (km/s) = 8.23056 6.59762 7.45891
#
# Compressibility (1/GPa) = 0.01796632
#
# Stress axis : x y z
#
# Youngs Moduli (GPa) = 68.76638 90.12293 91.19968
#
# Poissons Ratio (x) = 0.13810 0.25571
# Poissons Ratio (y) = 0.10538 0.45436
# Poissons Ratio (z) = 0.19281 0.44900
#
# Static dielectric constant tensor:
#      x y z
#    x 3.914070 0.000000 -0.336720 
#    y 0.000000 4.708170 0.000000 
#    z -0.336720 0.000000 4.517940 
# 
# 
# High freq. dielectric constant tensor:
#      x y z
#    x 1.849240 0.000000 -0.011180 
#    y 0.000000 1.878190 0.000000 
#    z -0.011180 0.000000 1.881710 
# 
# From -- ./inp_files/30554.got.cif
#   From: 2010.06.25/outbox.cif.g09.slc.cpg/sg13_16_cif.got.tgz:30554.got - 2010.06.28 04:50:58.
