data_PCOD8118148
_publ_section_title
;
Structure prediction by ZEFSAII (Michael W. Deem and Ramdas Pophale) SiO2 
 PCOD8118148
Probable space group: P 2/C
;
_chemical_formula_sum "Si O2"
_cell_formula_units_Z 24
_cell_length_a 16.606612
_cell_length_b 8.780298
_cell_length_c 14.355404
_cell_angle_alpha 90.000000
_cell_angle_beta 32.433174
_cell_angle_gamma 90.000000
_cell_volume 1122.602790
_symmetry_space_group_name_H-M "P 2/C"
_symmetry_group_IT_number 13
_symmetry_cell_setting 'monoclinic'
loop_
_space_group_symop_operation_xyz
x,y,z
-x,y,1/2-z
-x,-y,-z
x,-y,1/2+z
loop_
_atom_site_type_symbol
_atom_site_label
_atom_site_fract_x
_atom_site_fract_y
_atom_site_fract_z
Si Si1 0.637990 0.102675 0.681604
Si Si2 0.646792 0.250013 0.870791
Si Si3 0.170687 0.550963 0.817890
Si Si4 0.143946 0.998892 0.793940
Si Si5 0.140644 0.743854 0.665097
Si Si6 0.673914 0.186043 0.249979
O O1 0.500000 0.073325 0.750000
O O2 0.599249 0.174946 0.819180
O O3 0.738336 0.228391 0.532927
O O4 0.705788 0.931644 0.633305
O O5 0.705075 0.420034 0.798604
O O6 0.787916 0.167522 0.785021
O O7 0.499187 0.242263 0.079560
O O8 0.191421 0.630101 0.696910
O O9 0.214533 0.667783 0.859025
O O10 0.000000 0.500000 0.000000
O O11 0.095936 0.912895 0.746800
O O12 0.285615 0.905213 0.695684
O O13 0.000000 0.000000 0.000000
O O14 0.000000 0.669012 0.750000
#
# Coordination Sequence:
#
# PCOD8118148 Si02
#       6
#     4   4   4   4   4   4
#     4  11  21  38  62  91 121 152 202 265 304 348
#     4  11  21  39  64  89 124 168 203 243 304 380
#     4  11  23  41  62  88 124 168 207 247 308 385
#     4  10  19  36  60  85 114 158 205 245 297 369
#     4  11  22  38  60  89 119 156 206 262 308 350
#     4  10  21  38  60  88 118 160 204 240 297 372
#
# _framework density 21.378889000000001
#
# number of rings (size 3 to 8) (size 9 to 14) (size 15 to 20)
#    0.000    1.333    0.000   10.500    0.000    0.000 
#    0.000    8.333    0.000    0.000    0.000    0.000 
#    0.000    0.000    0.000    0.000    0.000    0.000 
#
# Total GULP energy -297343.212603 kJ/mol
# GULP energy per Si atom -12389.300525 kJ/mol
# Density = 2.133023 g / cm^3
# Si number density = 21.378889 Si / 1000 Ang^3
#
#
#
# Elastic Constant Matrix: (Units=GPa)
#
#
# Indices 1 2 3 4 5 6 
#
# 1 84.7289 42.8082 10.9211 0.0000 -10.7453 0.0000
# 2 42.8082 120.7992 23.3555 0.0000 -10.3028 0.0000
# 3 10.9211 23.3555 98.4969 0.0000 -18.0927 0.0000
# 4 0.0000 0.0000 0.0000 40.5614 0.0000 -8.2122
# 5 -10.7453 -10.3028 -18.0927 0.0000 32.8611 0.0000
# 6 0.0000 0.0000 0.0000 -8.2122 0.0000 38.2059
#
#
#
# Elastic Compliance Matrix: (Units=1/GPa)
#
#
# Indices 1 2 3 4 5 6 
#
# 1 0.014711 -0.004959 0.000159 0.000000 0.003343 0.000000
# 2 -0.004959 0.010441 -0.001805 0.000000 0.000658 0.000000
# 3 0.000159 -0.001805 0.011646 0.000000 0.005898 0.000000
# 4 0.000000 0.000000 0.000000 0.025776 0.000000 0.005540
# 5 0.003343 0.000658 0.005898 0.000000 0.034978 0.000000
# 6 0.000000 0.000000 0.000000 0.005540 0.000000 0.027365
#
#
# Mechanical properties :
#
#
# Convention : Reuss Voigt Hill
#
# Bulk Modulus (GPa) = 42.39401 50.91050 46.65225
# Shear Modulus (GPa) = 34.24897 37.45503 35.85200
#
# Velocity S-wave (km/s) = 4.00684 4.19019 4.09954
# Velocity P-wave (km/s) = 6.42489 6.87571 6.65412
#
# Compressibility (1/GPa) = 0.02358824
#
# Stress axis : x y z
#
# Youngs Moduli (GPa) = 67.97515 95.77998 85.86324
#
# Poissons Ratio (x) = 0.47496 -0.01363
# Poissons Ratio (y) = 0.33708 0.15498
# Poissons Ratio (z) = -0.01079 0.17288
#
# Static dielectric constant tensor:
#      x y z
#    x 3.990330 0.000000 -0.043800 
#    y 0.000000 4.286520 0.000000 
#    z -0.043800 0.000000 3.441080 
# 
# 
# High freq. dielectric constant tensor:
#      x y z
#    x 1.836630 0.000000 -0.021500 
#    y 0.000000 1.840730 0.000000 
#    z -0.021500 0.000000 1.824830 
# 
# From -- ./inp_files/45992.got.cif
#   From: 2010.06.25/outbox.cif.g09.slc.cpg/sg13_23_cif.got.tgz:45992.got - 2010.06.28 04:50:58.
