data_PCOD8118008
_publ_section_title
;
Structure prediction by ZEFSAII (Michael W. Deem and Ramdas Pophale) SiO2 
 PCOD8118008
Probable space group: P 2/C
;
_chemical_formula_sum "Si O2"
_cell_formula_units_Z 26
_cell_length_a 25.683632
_cell_length_b 12.346797
_cell_length_c 14.027178
_cell_angle_alpha 90.000000
_cell_angle_beta 17.615724
_cell_angle_gamma 90.000000
_cell_volume 1346.155222
_symmetry_space_group_name_H-M "P 2/C"
_symmetry_group_IT_number 13
_symmetry_cell_setting 'monoclinic'
loop_
_space_group_symop_operation_xyz
x,y,z
-x,y,1/2-z
-x,-y,-z
x,-y,1/2+z
loop_
_atom_site_type_symbol
_atom_site_label
_atom_site_fract_x
_atom_site_fract_y
_atom_site_fract_z
Si Si1 0.500000 0.256791 0.750000
Si Si2 0.075167 0.261343 0.261926
Si Si3 0.042401 0.255813 0.821491
Si Si4 0.749302 0.942022 0.584076
Si Si5 0.608739 0.861554 0.228792
Si Si6 0.000000 0.445005 0.250000
Si Si7 0.000000 0.912276 0.750000
Si Si8 0.225501 0.641989 0.843619
O O1 0.372837 0.176893 0.913218
O O2 0.581130 0.338012 0.529118
O O3 0.964917 0.166276 0.402386
O O4 0.997863 0.287849 0.500226
O O5 0.064771 0.373656 0.224477
O O6 0.275436 0.223299 0.913060
O O7 0.098033 0.130544 0.724345
O O8 0.195609 0.330275 0.508003
O O9 0.878879 0.271463 0.038747
O O10 0.682647 0.017697 0.614088
O O11 0.594176 0.864105 0.890336
O O12 0.829425 0.014712 0.529867
O O13 0.840225 0.520341 0.562708
#
# Coordination Sequence:
#
# PCOD8118008 Si02
#       8
#     2   4   4   4   4   2   2   4
#     4  12  20  40  54  84 118 148 186 246 282 342
#     4  10  20  39  60  85 114 153 191 241 286 338
#     4  10  19  35  57  84 115 144 194 234 270 339
#     4  10  20  36  53  87 120 155 195 223 277 341
#     4  10  22  34  56  82 121 154 185 231 283 333
#     4   9  22  43  62  82 112 143 198 241 296 348
#     4   9  20  33  60  86 120 157 196 229 272 336
#     4  10  22  36  61  85 110 150 189 245 288 338
#
# _framework density 19.314264999999999
#
# number of rings (size 3 to 8) (size 9 to 14) (size 15 to 20)
#    0.000    2.154    3.077    0.923    0.000    6.154 
#    0.000    2.308    0.000    0.000    0.000    0.000 
#    0.000    0.000    0.000    0.000    0.000    0.000 
#
# Total GULP energy -322122.045309 kJ/mol
# GULP energy per Si atom -12389.309435 kJ/mol
# Density = 1.927031 g / cm^3
# Si number density = 19.314265 Si / 1000 Ang^3
#
#
#
# Elastic Constant Matrix: (Units=GPa)
#
#
# Indices 1 2 3 4 5 6 
#
# 1 110.7820 50.2865 47.3868 0.0000 6.4635 0.0000
# 2 50.2865 111.8508 48.9187 0.0000 -1.2718 0.0000
# 3 47.3868 48.9187 87.5461 0.0000 11.8646 0.0000
# 4 0.0000 0.0000 0.0000 24.5226 0.0000 -3.7668
# 5 6.4635 -1.2718 11.8646 0.0000 30.1047 0.0000
# 6 0.0000 0.0000 0.0000 -3.7668 0.0000 26.6102
#
#
#
# Elastic Compliance Matrix: (Units=1/GPa)
#
#
# Indices 1 2 3 4 5 6 
#
# 1 0.012781 -0.003698 -0.004710 0.000000 -0.001044 0.000000
# 2 -0.003698 0.013217 -0.005881 0.000000 0.003670 0.000000
# 3 -0.004710 -0.005881 0.018123 0.000000 -0.006380 0.000000
# 4 0.000000 0.000000 0.000000 0.041685 0.000000 0.005901
# 5 -0.001044 0.003670 -0.006380 0.000000 0.036111 0.000000
# 6 0.000000 0.000000 0.000000 0.005901 0.000000 0.038415
#
#
# Mechanical properties :
#
#
# Convention : Reuss Voigt Hill
#
# Bulk Modulus (GPa) = 64.34073 67.04030 65.69051
# Shear Modulus (GPa) = 25.76112 27.15330 26.45721
#
# Velocity S-wave (km/s) = 3.65607 3.75356 3.70513
# Velocity P-wave (km/s) = 7.15593 7.31923 7.23804
#
# Compressibility (1/GPa) = 0.01554226
#
# Stress axis : x y z
#
# Youngs Moduli (GPa) = 78.24080 75.66084 55.17878
#
# Poissons Ratio (x) = 0.27979 0.25991
# Poissons Ratio (y) = 0.28933 0.32451
# Poissons Ratio (z) = 0.36854 0.44496
#
# Static dielectric constant tensor:
#      x y z
#    x 3.614290 0.000000 -0.032610 
#    y 0.000000 3.503440 0.000000 
#    z -0.032610 0.000000 3.511850 
# 
# 
# High freq. dielectric constant tensor:
#      x y z
#    x 1.747930 0.000000 -0.006520 
#    y 0.000000 1.749040 0.000000 
#    z -0.006520 0.000000 1.733610 
# 
# From -- ./inp_files/59583.got.cif
#   From: 2010.06.25/outbox.cif.g09.slc.cpg/sg13_30_cif.got.tgz:59583.got - 2010.06.28 04:50:58.
