data_PCOD8118825
_publ_section_title
;
Structure prediction by ZEFSAII (Michael W. Deem and Ramdas Pophale) SiO2 
 PCOD8118825
Probable space group: P 2/C
;
_chemical_formula_sum "Si O2"
_cell_formula_units_Z 30
_cell_length_a 22.262139
_cell_length_b 9.087869
_cell_length_c 14.329657
_cell_angle_alpha 90.000000
_cell_angle_beta 31.681960
_cell_angle_gamma 90.000000
_cell_volume 1522.623590
_symmetry_space_group_name_H-M "P 2/C"
_symmetry_group_IT_number 13
_symmetry_cell_setting 'monoclinic'
loop_
_space_group_symop_operation_xyz
x,y,z
-x,y,1/2-z
-x,-y,-z
x,-y,1/2+z
loop_
_atom_site_type_symbol
_atom_site_label
_atom_site_fract_x
_atom_site_fract_y
_atom_site_fract_z
Si Si1 0.786659 0.636364 0.241005
Si Si2 0.631514 0.840246 0.557093
Si Si3 0.400041 0.890869 0.525382
Si Si4 0.648372 0.004136 0.713591
Si Si5 0.000000 0.796540 0.750000
Si Si6 0.760449 0.672346 0.862681
Si Si7 0.764462 0.298631 0.564997
Si Si8 0.994174 0.847646 0.560168
O O1 0.692570 0.697186 0.437067
O O2 0.805516 0.472015 0.251363
O O3 0.731793 0.626778 0.207784
O O4 0.903761 0.730887 0.096672
O O5 0.500000 0.801312 0.750000
O O6 0.652811 0.965727 0.452462
O O7 0.687769 0.896468 0.578745
O O8 0.537195 0.897968 0.330973
O O9 0.347107 0.743679 0.550434
O O10 0.372319 0.897978 0.671581
O O11 0.745780 0.123387 0.602651
O O12 0.101250 0.678615 0.624008
O O13 0.008627 0.898630 0.648000
O O14 0.868559 0.780492 0.712425
O O15 0.715383 0.642942 0.029900
O O16 0.000000 0.000000 0.500000
#
# Coordination Sequence:
#
# PCOD8118825 Si02
#       8
#     4   4   4   4   2   4   4   4
#     4  11  23  40  59  88 128 157 192 246 311 361
#     4  10  20  37  58  85 115 156 201 247 284 338
#     4  10  20  37  59  87 111 158 207 250 290 344
#     4  10  20  35  63  83 118 153 211 256 286 336
#     4   8  20  34  56  88 112 142 190 250 292 344
#     4  11  23  39  60  90 123 158 197 241 307 374
#     4  10  20  38  60  83 118 160 191 246 303 349
#     4  10  21  39  64  88 115 156 203 246 293 350
#
# _framework density 19.702833999999999
#
# number of rings (size 3 to 8) (size 9 to 14) (size 15 to 20)
#    0.000    1.867    2.667    1.200    3.733    1.067 
#    2.400    2.000    0.000    0.000    0.000    0.000 
#    0.000    0.000    0.000    0.000    0.000    0.000 
#
# Total GULP energy -371672.197468 kJ/mol
# GULP energy per Si atom -12389.073249 kJ/mol
# Density = 1.965799 g / cm^3
# Si number density = 19.702834 Si / 1000 Ang^3
#
#
#
# Elastic Constant Matrix: (Units=GPa)
#
#
# Indices 1 2 3 4 5 6 
#
# 1 121.5415 50.3544 41.9604 0.0000 28.1932 0.0000
# 2 50.3544 92.8533 36.0873 0.0000 12.5243 0.0000
# 3 41.9604 36.0873 83.2570 0.0000 16.6309 0.0000
# 4 0.0000 0.0000 0.0000 27.4975 0.0000 -2.0114
# 5 28.1932 12.5243 16.6309 0.0000 37.0079 0.0000
# 6 0.0000 0.0000 0.0000 -2.0114 0.0000 20.4159
#
#
#
# Elastic Compliance Matrix: (Units=1/GPa)
#
#
# Indices 1 2 3 4 5 6 
#
# 1 0.012870 -0.004894 -0.003007 0.000000 -0.006797 0.000000
# 2 -0.004894 0.014955 -0.004119 0.000000 0.000518 0.000000
# 3 -0.003007 -0.004119 0.016013 0.000000 -0.003511 0.000000
# 4 0.000000 0.000000 0.000000 0.036631 0.000000 0.003609
# 5 -0.006797 0.000518 -0.003511 0.000000 0.033602 0.000000
# 6 0.000000 0.000000 0.000000 0.003609 0.000000 0.049337
#
#
# Mechanical properties :
#
#
# Convention : Reuss Voigt Hill
#
# Bulk Modulus (GPa) = 50.51158 61.60624 56.05891
# Shear Modulus (GPa) = 25.76688 28.26757 27.01723
#
# Velocity S-wave (km/s) = 3.62024 3.79185 3.70704
# Velocity P-wave (km/s) = 6.57018 7.10678 6.84374
#
# Compressibility (1/GPa) = 0.01979744
#
# Stress axis : x y z
#
# Youngs Moduli (GPa) = 77.69981 66.86924 62.44745
#
# Poissons Ratio (x) = 0.32725 0.18781
# Poissons Ratio (y) = 0.38025 0.25723
# Poissons Ratio (z) = 0.23368 0.27544
#
# Static dielectric constant tensor:
#      x y z
#    x 3.963930 0.000000 0.127320 
#    y 0.000000 3.144960 0.000000 
#    z 0.127320 0.000000 3.709490 
# 
# 
# High freq. dielectric constant tensor:
#      x y z
#    x 1.783870 0.000000 0.011730 
#    y 0.000000 1.726090 0.000000 
#    z 0.011730 0.000000 1.777960 
# 
# From -- ./inp_files/58676.got.cif
#   From: 2010.06.25/outbox.cif.g09.slc.cpg/sg13_30_cif.got.tgz:58676.got - 2010.06.28 04:50:58.
