data_PCOD8118421
_publ_section_title
;
Structure prediction by ZEFSAII (Michael W. Deem and Ramdas Pophale) SiO2 
 PCOD8118421
Probable space group: P 2/C
;
_chemical_formula_sum "Si O2"
_cell_formula_units_Z 30
_cell_length_a 13.767785
_cell_length_b 17.440737
_cell_length_c 10.939786
_cell_angle_alpha 90.000000
_cell_angle_beta 32.920933
_cell_angle_gamma 90.000000
_cell_volume 1427.651598
_symmetry_space_group_name_H-M "P 2/C"
_symmetry_group_IT_number 13
_symmetry_cell_setting 'monoclinic'
loop_
_space_group_symop_operation_xyz
x,y,z
-x,y,1/2-z
-x,-y,-z
x,-y,1/2+z
loop_
_atom_site_type_symbol
_atom_site_label
_atom_site_fract_x
_atom_site_fract_y
_atom_site_fract_z
Si Si1 0.802377 0.794025 0.941991
Si Si2 0.500000 0.441770 0.750000
Si Si3 0.868541 0.488461 0.291509
Si Si4 0.723561 0.758382 0.752690
Si Si5 0.377686 0.681101 0.197840
Si Si6 0.011502 0.368235 0.957999
Si Si7 0.625792 0.071708 0.736540
Si Si8 0.412546 0.901375 0.709492
O O1 0.755008 0.797398 0.850366
O O2 0.000000 0.759804 0.750000
O O3 0.657062 0.738309 0.153913
O O4 0.794892 0.875838 0.020948
O O5 0.666265 0.495930 0.548243
O O6 0.542164 0.395097 0.828063
O O7 0.000000 0.450154 0.250000
O O8 0.885533 0.426972 0.165856
O O9 0.922139 0.577015 0.219478
O O10 0.724133 0.830051 0.658003
O O11 0.885149 0.701134 0.546911
O O12 0.530490 0.716071 0.948005
O O13 0.189553 0.665885 0.330818
O O14 0.500000 0.079697 0.750000
O O15 0.687697 0.983616 0.688663
O O16 0.545872 0.101858 0.950628
O O17 0.500000 0.892390 0.750000
#
# Coordination Sequence:
#
# PCOD8118421 Si02
#       8
#     4   2   4   4   4   4   4   4
#     4  12  21  35  67 102 130 165 231 300 334 384
#     4  12  22  36  68  94 124 166 222 280 344 402
#     4  11  24  43  63  91 131 169 216 277 344 413
#     4  12  22  41  67  98 131 176 224 286 340 403
#     4  12  21  36  64  99 127 160 222 289 334 394
#     4  11  25  41  64  95 129 170 217 280 346 404
#     4  10  19  39  68  99 129 178 236 278 326 401
#     4  10  22  39  67  97 141 181 219 277 347 411
#
# _framework density 21.013531
#
# number of rings (size 3 to 8) (size 9 to 14) (size 15 to 20)
#    0.000    0.800    8.000    0.000    0.000    1.600 
#    2.400    0.667    5.867    0.000    0.000    0.000 
#    0.000    0.000    0.000    0.000    0.000    0.000 
#
# Total GULP energy -371721.354954 kJ/mol
# GULP energy per Si atom -12390.711832 kJ/mol
# Density = 2.096570 g / cm^3
# Si number density = 21.013531 Si / 1000 Ang^3
#
#
#
# Elastic Constant Matrix: (Units=GPa)
#
#
# Indices 1 2 3 4 5 6 
#
# 1 85.1769 40.2791 37.6498 0.0000 -4.7290 0.0000
# 2 40.2791 139.7020 51.9424 0.0000 -5.3663 0.0000
# 3 37.6498 51.9424 106.9482 0.0000 -22.9329 0.0000
# 4 0.0000 0.0000 0.0000 27.4188 0.0000 10.7093
# 5 -4.7290 -5.3663 -22.9329 0.0000 32.5214 0.0000
# 6 0.0000 0.0000 0.0000 10.7093 0.0000 77.5352
#
#
#
# Elastic Compliance Matrix: (Units=1/GPa)
#
#
# Indices 1 2 3 4 5 6 
#
# 1 0.014812 -0.002785 -0.004122 0.000000 -0.001212 0.000000
# 2 -0.002785 0.009352 -0.003909 0.000000 -0.001618 0.000000
# 3 -0.004122 -0.003909 0.014648 0.000000 0.009085 0.000000
# 4 0.000000 0.000000 0.000000 0.038551 0.000000 -0.005325
# 5 -0.001212 -0.001618 0.009085 0.000000 0.036712 0.000000
# 6 0.000000 0.000000 0.000000 -0.005325 0.000000 0.013633
#
#
# Mechanical properties :
#
#
# Convention : Reuss Voigt Hill
#
# Bulk Modulus (GPa) = 58.20300 65.72999 61.96650
# Shear Modulus (GPa) = 32.24455 40.95879 36.60167
#
# Velocity S-wave (km/s) = 3.92148 4.41972 4.17803
# Velocity P-wave (km/s) = 6.94708 7.57582 7.26825
#
# Compressibility (1/GPa) = 0.01718124
#
# Stress axis : x y z
#
# Youngs Moduli (GPa) = 67.51430 106.92753 68.26951
#
# Poissons Ratio (x) = 0.29775 0.28139
# Poissons Ratio (y) = 0.18800 0.26685
# Poissons Ratio (z) = 0.27828 0.41796
#
# Static dielectric constant tensor:
#      x y z
#    x 3.703340 0.000000 0.036790 
#    y 0.000000 4.061930 0.000000 
#    z 0.036790 0.000000 3.730250 
# 
# 
# High freq. dielectric constant tensor:
#      x y z
#    x 1.812820 0.000000 -0.002610 
#    y 0.000000 1.834540 0.000000 
#    z -0.002610 0.000000 1.806520 
# 
# From -- ./inp_files/37650.got.cif
#   From: 2010.06.25/outbox.cif.g09.slc.cpg/sg13_19_cif.got.tgz:37650.got - 2010.06.28 04:50:58.
