data_PCOD8118675
_publ_section_title
;
Structure prediction by ZEFSAII (Michael W. Deem and Ramdas Pophale) SiO2 
 PCOD8118675
Probable space group: P 2/C
;
_chemical_formula_sum "Si O2"
_cell_formula_units_Z 22
_cell_length_a 10.368948
_cell_length_b 12.020293
_cell_length_c 8.732143
_cell_angle_alpha 90.000000
_cell_angle_beta 100.051365
_cell_angle_gamma 90.000000
_cell_volume 1071.650615
_symmetry_space_group_name_H-M "P 2/C"
_symmetry_group_IT_number 13
_symmetry_cell_setting 'monoclinic'
loop_
_space_group_symop_operation_xyz
x,y,z
-x,y,1/2-z
-x,-y,-z
x,-y,1/2+z
loop_
_atom_site_type_symbol
_atom_site_label
_atom_site_fract_x
_atom_site_fract_y
_atom_site_fract_z
Si Si1 0.717505 0.265353 0.599971
Si Si2 0.649623 0.728594 0.748406
Si Si3 0.601080 0.482847 0.652693
Si Si4 0.500000 0.142270 0.750000
Si Si5 0.287026 0.085060 0.474244
Si Si6 0.142234 0.918760 0.239180
O O1 0.724305 0.240901 0.420058
O O2 0.717103 0.397793 0.631732
O O3 0.590644 0.217389 0.660766
O O4 0.846917 0.207930 0.696514
O O5 0.500000 0.758400 0.750000
O O6 0.668353 0.598185 0.716609
O O7 0.704635 0.799277 0.617253
O O8 0.500000 0.428759 0.750000
O O9 0.500000 0.500000 0.500000
O O10 0.413700 0.067701 0.612017
O O11 0.160832 0.083672 0.560282
O O12 0.262020 0.986445 0.347171
O O13 0.000000 0.968568 0.250000
#
# Coordination Sequence:
#
# PCOD8118675 Si02
#       6
#     4   4   4   2   4   4
#     4  11  21  36  60  90 127 158 200 246 301 363
#     4  11  21  36  58  95 133 156 187 238 310 380
#     4  11  19  32  58  91 132 160 184 233 307 385
#     4  10  20  34  58  94 120 152 192 248 318 364
#     4  11  23  41  63  87 124 158 200 256 303 365
#     4  11  26  45  64  83 115 169 215 251 291 349
#
# _framework density 20.529077999999998
#
# number of rings (size 3 to 8) (size 9 to 14) (size 15 to 20)
#    0.000    1.091    6.364    1.636    2.545    2.909 
#    8.182    0.000    0.000    5.455    0.000    0.000 
#    0.000    0.000    0.000    0.000    0.000    0.000 
#
# Total GULP energy -272572.820751 kJ/mol
# GULP energy per Si atom -12389.673671 kJ/mol
# Density = 2.048235 g / cm^3
# Si number density = 20.529078 Si / 1000 Ang^3
#
#
#
# Elastic Constant Matrix: (Units=GPa)
#
#
# Indices 1 2 3 4 5 6 
#
# 1 64.2169 21.4244 26.6462 0.0000 -10.5407 0.0000
# 2 21.4244 95.3818 38.7361 0.0000 -1.6964 0.0000
# 3 26.6462 38.7361 127.4526 0.0000 -21.8443 0.0000
# 4 0.0000 0.0000 0.0000 36.5139 0.0000 -6.3208
# 5 -10.5407 -1.6964 -21.8443 0.0000 28.5955 0.0000
# 6 0.0000 0.0000 0.0000 -6.3208 0.0000 19.1878
#
#
#
# Elastic Compliance Matrix: (Units=1/GPa)
#
#
# Indices 1 2 3 4 5 6 
#
# 1 0.018295 -0.003214 -0.001985 0.000000 0.005037 0.000000
# 2 -0.003214 0.012667 -0.003742 0.000000 -0.003292 0.000000
# 3 -0.001985 -0.003742 0.010626 0.000000 0.007164 0.000000
# 4 0.000000 0.000000 0.000000 0.029043 0.000000 0.009567
# 5 0.005037 -0.003292 0.007164 0.000000 0.042104 0.000000
# 6 0.000000 0.000000 0.000000 0.009567 0.000000 0.055268
#
#
# Mechanical properties :
#
#
# Convention : Reuss Voigt Hill
#
# Bulk Modulus (GPa) = 42.18214 51.18497 46.68355
# Shear Modulus (GPa) = 25.80150 30.20909 28.00530
#
# Velocity S-wave (km/s) = 3.54902 3.84021 3.69748
# Velocity P-wave (km/s) = 6.11442 6.68207 6.40454
#
# Compressibility (1/GPa) = 0.02370672
#
# Stress axis : x y z
#
# Youngs Moduli (GPa) = 54.66054 78.94373 94.10703
#
# Poissons Ratio (x) = 0.25370 0.18679
# Poissons Ratio (y) = 0.17566 0.35217
# Poissons Ratio (z) = 0.10849 0.29543
#
# Static dielectric constant tensor:
#      x y z
#    x 3.234980 0.000000 -0.131870 
#    y 0.000000 3.324850 0.000000 
#    z -0.131870 0.000000 4.002990 
# 
# 
# High freq. dielectric constant tensor:
#      x y z
#    x 1.754010 0.000000 -0.025550 
#    y 0.000000 1.800660 0.000000 
#    z -0.025550 0.000000 1.829950 
# 
# From -- ./inp_files/15957.got.cif
#   From: 2010.06.25/outbox.cif.g09.slc.cpg/sg13_8_cif.got.tgz:15957.got - 2010.06.28 04:50:58.
