data_PCOD8118459
_publ_section_title
;
Structure prediction by ZEFSAII (Michael W. Deem and Ramdas Pophale) SiO2 
 PCOD8118459
Probable space group: P 2/C
;
_chemical_formula_sum "Si O2"
_cell_formula_units_Z 18
_cell_length_a 7.768244
_cell_length_b 7.619036
_cell_length_c 16.926302
_cell_angle_alpha 90.000000
_cell_angle_beta 124.968018
_cell_angle_gamma 90.000000
_cell_volume 820.954583
_symmetry_space_group_name_H-M "P 2/C"
_symmetry_group_IT_number 13
_symmetry_cell_setting 'monoclinic'
loop_
_space_group_symop_operation_xyz
x,y,z
-x,y,1/2-z
-x,-y,-z
x,-y,1/2+z
loop_
_atom_site_type_symbol
_atom_site_label
_atom_site_fract_x
_atom_site_fract_y
_atom_site_fract_z
Si Si1 0.934689 0.949215 0.323595
Si Si2 0.197504 0.629752 0.437374
Si Si3 0.500000 0.216015 0.750000
Si Si4 0.094132 0.340502 0.188619
Si Si5 0.529663 0.506560 0.137398
O O1 0.693301 0.898581 0.270972
O O2 0.000000 0.936571 0.250000
O O3 0.093344 0.822558 0.412784
O O4 0.949934 0.148439 0.359678
O O5 0.324190 0.596454 0.390215
O O6 0.352613 0.617873 0.552888
O O7 0.015623 0.482841 0.396990
O O8 0.579267 0.335372 0.843901
O O9 0.338867 0.389478 0.264864
O O10 0.000000 0.350069 0.250000
#
# Coordination Sequence:
#
# PCOD8118459 Si02
#       5
#     4   4   2   4   4
#     4  11  21  40  63  88 125 161 203 253 305 362
#     4  10  19  42  64  89 124 162 203 254 301 362
#     4  12  22  38  66  88 120 172 196 252 314 352
#     4   9  19  39  62  89 123 163 200 252 310 356
#     4  10  21  38  66  92 122 162 206 249 306 362
#
# _framework density 21.925697
#
# number of rings (size 3 to 8) (size 9 to 14) (size 15 to 20)
#    0.000    1.778    4.444    0.667    0.000    1.778 
#    4.000    5.556    0.000    0.000    0.000    0.000 
#    0.000    0.000    0.000    0.000    0.000    0.000 
#
# Total GULP energy -223138.127083 kJ/mol
# GULP energy per Si atom -12396.562616 kJ/mol
# Density = 2.187579 g / cm^3
# Si number density = 21.925697 Si / 1000 Ang^3
#
#
#
# Elastic Constant Matrix: (Units=GPa)
#
#
# Indices 1 2 3 4 5 6 
#
# 1 86.2526 21.9176 26.7663 0.0000 18.0718 0.0000
# 2 21.9176 144.7968 53.8827 0.0000 20.4202 0.0000
# 3 26.7663 53.8827 98.9771 0.0000 32.6084 0.0000
# 4 0.0000 0.0000 0.0000 9.9380 0.0000 11.5052
# 5 18.0718 20.4202 32.6084 0.0000 27.0007 0.0000
# 6 0.0000 0.0000 0.0000 11.5052 0.0000 1.3940
#
#
#
# Elastic Compliance Matrix: (Units=1/GPa)
#
#
# Indices 1 2 3 4 5 6 
#
# 1 0.013614 -0.000690 -0.000791 0.000000 -0.007636 0.000000
# 2 -0.000690 0.008729 -0.004223 0.000000 -0.001040 0.000000
# 3 -0.000791 -0.004223 0.018916 0.000000 -0.019121 0.000000
# 4 0.000000 0.000000 0.000000 -0.011762 0.000000 0.097077
# 5 -0.007636 -0.001040 -0.019121 0.000000 0.066026 0.000000
# 6 0.000000 0.000000 0.000000 0.097077 0.000000 -0.083854
#
#
# Mechanical properties :
#
#
# Convention : Reuss Voigt Hill
#
# Bulk Modulus (GPa) = 33.49794 59.46219 46.48006
# Shear Modulus (GPa) = 151.39747 22.83053 87.11400
#
# Velocity S-wave (km/s) = 8.31866 3.23037 6.31013
# Velocity P-wave (km/s) = 10.37198 6.41034 8.62179
#
# Compressibility (1/GPa) = 0.02985258
#
# Stress axis : x y z
#
# Youngs Moduli (GPa) = 73.45209 114.56496 52.86646
#
# Poissons Ratio (x) = 0.07902 0.04180
# Poissons Ratio (y) = 0.05066 0.22324
# Poissons Ratio (z) = 0.05807 0.48377
#
# Static dielectric constant tensor:
#      x y z
#    x 4.091450 0.000000 0.178600 
#    y 0.000000 4.151020 0.000000 
#    z 0.178600 0.000000 3.746820 
# 
# 
# High freq. dielectric constant tensor:
#      x y z
#    x 1.874610 0.000000 0.008080 
#    y 0.000000 1.857660 0.000000 
#    z 0.008080 0.000000 1.839570 
# 
# From -- ./inp_files/57014.got.cif
#   From: 2010.06.25/outbox.cif.g09.slc.cpg/sg13_29_cif.got.tgz:57014.got - 2010.06.28 04:50:58.
