data_PCOD8118037
_publ_section_title
;
Structure prediction by ZEFSAII (Michael W. Deem and Ramdas Pophale) SiO2 
 PCOD8118037
Probable space group: P 2/C
;
_chemical_formula_sum "Si O2"
_cell_formula_units_Z 32
_cell_length_a 14.110479
_cell_length_b 11.431611
_cell_length_c 18.275171
_cell_angle_alpha 90.000000
_cell_angle_beta 30.480931
_cell_angle_gamma 90.000000
_cell_volume 1495.319662
_symmetry_space_group_name_H-M "P 2/C"
_symmetry_group_IT_number 13
_symmetry_cell_setting 'monoclinic'
loop_
_space_group_symop_operation_xyz
x,y,z
-x,y,1/2-z
-x,-y,-z
x,-y,1/2+z
loop_
_atom_site_type_symbol
_atom_site_label
_atom_site_fract_x
_atom_site_fract_y
_atom_site_fract_z
Si Si1 0.484306 0.916817 0.179003
Si Si2 0.077064 0.727643 0.777873
Si Si3 0.315728 0.694811 0.225977
Si Si4 0.895279 0.023734 0.388233
Si Si5 0.162523 0.919421 0.921937
Si Si6 0.585250 0.534357 0.771943
Si Si7 0.484421 0.631984 0.536264
Si Si8 0.943856 0.667020 0.550933
O O1 0.500000 0.864727 0.250000
O O2 0.359372 0.825562 0.219057
O O3 0.367123 0.036662 0.260954
O O4 0.686464 0.930981 0.006217
O O5 0.297360 0.699781 0.634646
O O6 0.987806 0.662548 0.908953
O O7 0.000000 0.682125 0.750000
O O8 0.026521 0.864866 0.821416
O O9 0.449096 0.599056 0.178118
O O10 0.107115 0.660286 0.383884
O O11 0.343219 0.694261 0.119590
O O12 0.000000 0.962050 0.250000
O O13 0.866695 0.928538 0.470880
O O14 0.161742 0.789093 0.892479
O O15 0.000000 0.000000 0.000000
O O16 0.500000 0.557350 0.750000
O O17 0.497072 0.628822 0.887889
O O18 0.808292 0.558649 0.622525
O O19 0.500000 0.500000 0.500000
#
# Coordination Sequence:
#
# PCOD8118037 Si02
#       8
#     4   4   4   4   4   4   4   4
#     4  10  20  34  61  91 116 151 192 245 302 358
#     4  10  19  35  59  86 117 150 189 250 303 346
#     4  11  19  37  61  90 116 144 199 255 295 344
#     4  10  20  35  57  90 116 146 203 245 295 356
#     4  11  20  39  56  82 121 158 190 242 305 357
#     4  10  23  40  59  82 120 164 200 238 295 358
#     4   9  21  38  56  86 122 153 193 244 302 355
#     4  11  22  38  62  85 118 158 201 240 295 366
#
# _framework density 21.400105
#
# number of rings (size 3 to 8) (size 9 to 14) (size 15 to 20)
#    0.000    1.750    2.500    3.000    0.000    3.500 
#    0.000    5.000    0.000    0.000    0.000    0.000 
#    0.000    0.000    0.000    0.000    0.000    0.000 
#
# Total GULP energy -396455.880608 kJ/mol
# GULP energy per Si atom -12389.246269 kJ/mol
# Density = 2.135140 g / cm^3
# Si number density = 21.400105 Si / 1000 Ang^3
#
#
#
# Elastic Constant Matrix: (Units=GPa)
#
#
# Indices 1 2 3 4 5 6 
#
# 1 100.2800 14.2832 38.0736 0.0000 20.0818 0.0000
# 2 14.2832 60.4806 13.8743 0.0000 -2.1021 0.0000
# 3 38.0736 13.8743 166.3246 0.0000 16.8264 0.0000
# 4 0.0000 0.0000 0.0000 16.0287 0.0000 -9.1357
# 5 20.0818 -2.1021 16.8264 0.0000 24.2670 0.0000
# 6 0.0000 0.0000 0.0000 -9.1357 0.0000 24.0889
#
#
#
# Elastic Compliance Matrix: (Units=1/GPa)
#
#
# Indices 1 2 3 4 5 6 
#
# 1 0.013033 -0.003022 -0.001735 0.000000 -0.009843 0.000000
# 2 -0.003022 0.017714 -0.001284 0.000000 0.004925 0.000000
# 3 -0.001735 -0.001284 0.006864 0.000000 -0.003435 0.000000
# 4 0.000000 0.000000 0.000000 0.079592 0.000000 0.030186
# 5 -0.009843 0.004925 -0.003435 0.000000 0.052162 0.000000
# 6 0.000000 0.000000 0.000000 0.030186 0.000000 0.052961
#
#
# Mechanical properties :
#
#
# Convention : Reuss Voigt Hill
#
# Bulk Modulus (GPa) = 39.17333 51.06084 45.11708
# Shear Modulus (GPa) = 20.58311 30.26721 25.42516
#
# Velocity S-wave (km/s) = 3.10469 3.76486 3.45060
# Velocity P-wave (km/s) = 5.58544 6.54300 6.08309
#
# Compressibility (1/GPa) = 0.02552757
#
# Stress axis : x y z
#
# Youngs Moduli (GPa) = 76.73083 56.45371 145.68363
#
# Poissons Ratio (x) = 0.17059 0.25282
# Poissons Ratio (y) = 0.23186 0.18708
# Poissons Ratio (z) = 0.13316 0.07250
#
# Static dielectric constant tensor:
#      x y z
#    x 4.537120 0.000000 1.574160 
#    y 0.000000 4.001090 0.000000 
#    z 1.574160 0.000000 6.779150 
# 
# 
# High freq. dielectric constant tensor:
#      x y z
#    x 1.816380 0.000000 0.016800 
#    y 0.000000 1.824040 0.000000 
#    z 0.016800 0.000000 1.859150 
# 
# From -- ./inp_files/68657.got.cif
#   From: 2010.06.25/outbox.cif.g09.slc.cpg/sg13_35_cif.got.tgz:68657.got - 2010.06.28 04:50:58.
