data_PCOD8118083
_publ_section_title
;
Structure prediction by ZEFSAII (Michael W. Deem and Ramdas Pophale) SiO2 
 PCOD8118083
Probable space group: P 2/C
;
_chemical_formula_sum "Si O2"
_cell_formula_units_Z 28
_cell_length_a 20.553322
_cell_length_b 9.260894
_cell_length_c 16.551766
_cell_angle_alpha 90.000000
_cell_angle_beta 156.584496
_cell_angle_gamma 90.000000
_cell_volume 1251.996185
_symmetry_space_group_name_H-M "P 2/C"
_symmetry_group_IT_number 13
_symmetry_cell_setting 'monoclinic'
loop_
_space_group_symop_operation_xyz
x,y,z
-x,y,1/2-z
-x,-y,-z
x,-y,1/2+z
loop_
_atom_site_type_symbol
_atom_site_label
_atom_site_fract_x
_atom_site_fract_y
_atom_site_fract_z
Si Si1 0.408586 0.153759 0.407304
Si Si2 0.456998 0.677520 0.293250
Si Si3 0.037515 0.495386 0.448582
Si Si4 0.864156 0.726180 0.160097
Si Si5 0.358093 0.624110 0.727394
Si Si6 0.943460 0.939375 0.019059
Si Si7 0.888455 0.215182 0.050427
O O1 0.437669 0.218017 0.529345
O O2 0.470732 0.266051 0.408779
O O3 0.500000 0.000000 0.500000
O O4 0.212140 0.163147 0.171625
O O5 0.500000 0.709236 0.250000
O O6 0.477616 0.508055 0.339243
O O7 0.270057 0.715176 0.092398
O O8 0.207028 0.566188 0.610456
O O9 0.025319 0.328387 0.410937
O O10 0.000000 0.500000 0.500000
O O11 0.887161 0.575829 0.233257
O O12 0.000000 0.754758 0.250000
O O13 0.696336 0.710433 0.917197
O O14 0.896370 0.860790 0.258477
O O15 0.857043 0.067157 0.969439
O O16 0.000000 0.000000 0.000000
O O17 0.000000 0.169242 0.250000
#
# Coordination Sequence:
#
# PCOD8118083 Si02
#       7
#     4   4   4   4   4   4   4
#     4  12  25  48  69  97 147 187 227 282 356 421
#     4  11  26  48  70 100 140 188 234 288 350 417
#     4  10  19  35  64 100 131 164 220 288 336 390
#     4  10  19  41  66  93 132 173 221 281 337 393
#     4  10  23  44  70  95 134 187 232 281 347 411
#     4  12  25  42  68 105 136 179 229 281 346 417
#     4  11  24  40  67 100 134 176 229 285 341 408
#
# _framework density 22.364284999999999
#
# number of rings (size 3 to 8) (size 9 to 14) (size 15 to 20)
#    0.000    1.143    4.286    3.857    2.000    1.143 
#    2.571    0.000    0.000    0.000    0.000    0.000 
#    0.000    0.000    0.000    0.000    0.000    0.000 
#
# Total GULP energy -346933.253465 kJ/mol
# GULP energy per Si atom -12390.473338 kJ/mol
# Density = 2.231338 g / cm^3
# Si number density = 22.364285 Si / 1000 Ang^3
#
#
#
# Elastic Constant Matrix: (Units=GPa)
#
#
# Indices 1 2 3 4 5 6 
#
# 1 104.4635 42.9958 47.9411 0.0000 -32.5700 0.0000
# 2 42.9958 142.7184 53.2435 0.0000 -23.0313 0.0000
# 3 47.9411 53.2435 73.8729 0.0000 -42.3083 0.0000
# 4 0.0000 0.0000 0.0000 42.0403 0.0000 -16.4288
# 5 -32.5700 -23.0313 -42.3083 0.0000 32.6231 0.0000
# 6 0.0000 0.0000 0.0000 -16.4288 0.0000 33.8459
#
#
#
# Elastic Compliance Matrix: (Units=1/GPa)
#
#
# Indices 1 2 3 4 5 6 
#
# 1 0.014597 -0.001940 -0.001993 0.000000 0.010619 0.000000
# 2 -0.001940 0.010492 -0.012323 0.000000 -0.010512 0.000000
# 3 -0.001993 -0.012323 0.068375 0.000000 0.077985 0.000000
# 4 0.000000 0.000000 0.000000 0.029355 0.000000 0.014249
# 5 0.010619 -0.010512 0.077985 0.000000 0.134971 0.000000
# 6 0.000000 0.000000 0.000000 0.014249 0.000000 0.036462
#
#
# Mechanical properties :
#
#
# Convention : Reuss Voigt Hill
#
# Bulk Modulus (GPa) = 16.40642 67.71282 42.05962
# Shear Modulus (GPa) = 14.40577 33.49349 23.94963
#
# Velocity S-wave (km/s) = 2.54075 3.87412 3.27599
# Velocity P-wave (km/s) = 3.99489 7.09611 5.75821
#
# Compressibility (1/GPa) = 0.06095175
#
# Stress axis : x y z
#
# Youngs Moduli (GPa) = 68.50913 95.30631 14.62513
#
# Poissons Ratio (x) = 0.18493 0.02914
# Poissons Ratio (y) = 0.13294 0.18023
# Poissons Ratio (z) = 0.13651 1.17449
#
# Static dielectric constant tensor:
#      x y z
#    x 3.918400 0.000000 -0.116940 
#    y 0.000000 4.142870 0.000000 
#    z -0.116940 0.000000 4.263870 
# 
# 
# High freq. dielectric constant tensor:
#      x y z
#    x 1.867440 0.000000 -0.029790 
#    y 0.000000 1.898140 0.000000 
#    z -0.029790 0.000000 1.876750 
# 
# From -- ./inp_files/57523.got.cif
#   From: 2010.06.25/outbox.cif.g09.slc.cpg/sg13_29_cif.got.tgz:57523.got - 2010.06.28 04:50:58.
