data_PCOD8118209
_publ_section_title
;
Structure prediction by ZEFSAII (Michael W. Deem and Ramdas Pophale) SiO2 
 PCOD8118209
Probable space group: P 2/C
;
_chemical_formula_sum "Si O2"
_cell_formula_units_Z 28
_cell_length_a 9.068701
_cell_length_b 13.556150
_cell_length_c 14.039986
_cell_angle_alpha 90.000000
_cell_angle_beta 119.586180
_cell_angle_gamma 90.000000
_cell_volume 1500.979183
_symmetry_space_group_name_H-M "P 2/C"
_symmetry_group_IT_number 13
_symmetry_cell_setting 'monoclinic'
loop_
_space_group_symop_operation_xyz
x,y,z
-x,y,1/2-z
-x,-y,-z
x,-y,1/2+z
loop_
_atom_site_type_symbol
_atom_site_label
_atom_site_fract_x
_atom_site_fract_y
_atom_site_fract_z
Si Si1 0.333734 0.280698 0.631403
Si Si2 0.520577 0.529631 0.367106
Si Si3 0.996313 0.257820 0.636757
Si Si4 0.467619 0.161221 0.513329
Si Si5 0.991962 0.036003 0.891907
Si Si6 0.279352 0.006123 0.343923
Si Si7 0.660639 0.638129 0.037375
O O1 0.500000 0.270986 0.750000
O O2 0.337814 0.384643 0.575412
O O3 0.331393 0.192044 0.552759
O O4 0.174095 0.288416 0.649144
O O5 0.500000 0.507527 0.250000
O O6 0.353506 0.575538 0.367812
O O7 0.575581 0.426763 0.428684
O O8 0.957204 0.150059 0.585137
O O9 0.853817 0.339614 0.567896
O O10 0.000000 0.246575 0.750000
O O11 0.382314 0.108737 0.393425
O O12 0.565019 0.257839 0.510410
O O13 0.599467 0.086945 0.603876
O O14 0.135217 0.983328 0.876900
O O15 0.807192 0.009658 0.787315
O O16 0.000000 0.000000 0.000000
#
# Coordination Sequence:
#
# PCOD8118209 Si02
#       7
#     4   4   4   4   4   4   4
#     4  10  20  33  58  86 113 152 193 237 290 348
#     4   9  19  38  58  83 118 149 187 239 290 348
#     4  12  20  35  59  85 113 146 197 243 279 343
#     4  10  19  37  56  84 111 153 194 233 289 344
#     4  11  21  36  54  83 116 152 188 241 288 332
#     4  10  20  36  58  78 118 149 193 241 280 344
#     4  10  20  36  60  85 115 150 191 238 291 338
#
# _framework density 18.654489000000002
#
# number of rings (size 3 to 8) (size 9 to 14) (size 15 to 20)
#    0.000    1.714    2.857    4.286    0.000    0.571 
#    2.571    2.143    0.000    0.000    7.429    0.000 
#    0.000    0.000    0.000    0.000    0.000    0.000 
#
# Total GULP energy -346913.236908 kJ/mol
# GULP energy per Si atom -12389.758461 kJ/mol
# Density = 1.861203 g / cm^3
# Si number density = 18.654489 Si / 1000 Ang^3
#
#
#
# Elastic Constant Matrix: (Units=GPa)
#
#
# Indices 1 2 3 4 5 6 
#
# 1 129.5940 46.3316 51.0656 0.0000 1.5957 0.0000
# 2 46.3316 117.2409 49.8300 0.0000 -2.6922 0.0000
# 3 51.0656 49.8300 94.0156 0.0000 -15.3633 0.0000
# 4 0.0000 0.0000 0.0000 53.8616 0.0000 -25.0640
# 5 1.5957 -2.6922 -15.3633 0.0000 25.1986 0.0000
# 6 0.0000 0.0000 0.0000 -25.0640 0.0000 45.5168
#
#
#
# Elastic Compliance Matrix: (Units=1/GPa)
#
#
# Indices 1 2 3 4 5 6 
#
# 1 0.010602 -0.001999 -0.005380 0.000000 -0.004165 0.000000
# 2 -0.001999 0.011547 -0.005345 0.000000 -0.001898 0.000000
# 3 -0.005380 -0.005345 0.018164 0.000000 0.010844 0.000000
# 4 0.000000 0.000000 0.000000 0.024963 0.000000 0.013746
# 5 -0.004165 -0.001898 0.010844 0.000000 0.046357 0.000000
# 6 0.000000 0.000000 0.000000 0.013746 0.000000 0.029539
#
#
# Mechanical properties :
#
#
# Convention : Reuss Voigt Hill
#
# Bulk Modulus (GPa) = 67.26773 70.58942 68.92858
# Shear Modulus (GPa) = 29.14186 37.82361 33.48274
#
# Velocity S-wave (km/s) = 3.95674 4.50776 4.24121
# Velocity P-wave (km/s) = 7.55066 8.06324 7.81116
#
# Compressibility (1/GPa) = 0.01486597
#
# Stress axis : x y z
#
# Youngs Moduli (GPa) = 94.31983 86.59901 55.05526
#
# Poissons Ratio (x) = 0.17310 0.29619
# Poissons Ratio (y) = 0.18853 0.29426
# Poissons Ratio (z) = 0.50743 0.46286
#
# Static dielectric constant tensor:
#      x y z
#    x 3.695560 0.000000 -0.014350 
#    y 0.000000 3.609300 0.000000 
#    z -0.014350 0.000000 3.339450 
# 
# 
# High freq. dielectric constant tensor:
#      x y z
#    x 1.730460 0.000000 -0.010050 
#    y 0.000000 1.730340 0.000000 
#    z -0.010050 0.000000 1.701790 
# 
# From -- ./inp_files/47308.got.cif
#   From: 2010.06.25/outbox.cif.g09.slc.cpg/sg13_24_cif.got.tgz:47308.got - 2010.06.28 04:50:58.
