data_PCOD8118907
_publ_section_title
;
Structure prediction by ZEFSAII (Michael W. Deem and Ramdas Pophale) SiO2 
 PCOD8118907
Probable space group: P 2/C
;
_chemical_formula_sum "Si O2"
_cell_formula_units_Z 30
_cell_length_a 14.147487
_cell_length_b 6.306266
_cell_length_c 21.917734
_cell_angle_alpha 90.000000
_cell_angle_beta 60.334825
_cell_angle_gamma 90.000000
_cell_volume 1699.156110
_symmetry_space_group_name_H-M "P 2/C"
_symmetry_group_IT_number 13
_symmetry_cell_setting 'monoclinic'
loop_
_space_group_symop_operation_xyz
x,y,z
-x,y,1/2-z
-x,-y,-z
x,-y,1/2+z
loop_
_atom_site_type_symbol
_atom_site_label
_atom_site_fract_x
_atom_site_fract_y
_atom_site_fract_z
Si Si1 0.397115 0.626403 0.702484
Si Si2 0.452682 0.302862 0.053027
Si Si3 0.157569 0.926218 0.975854
Si Si4 0.370945 0.036243 0.975094
Si Si5 0.951251 0.691906 0.052311
Si Si6 0.414511 0.313429 0.849081
Si Si7 0.771964 0.583195 0.644191
Si Si8 0.500000 0.967173 0.750000
O O1 0.382695 0.622838 0.634102
O O2 0.468063 0.423025 0.699940
O O3 0.279916 0.629646 0.773165
O O4 0.460007 0.834687 0.705083
O O5 0.553234 0.169411 0.047372
O O6 0.500000 0.500000 0.000000
O O7 0.371858 0.152030 0.040461
O O8 0.189007 0.792396 0.904914
O O9 0.252870 0.948753 0.994467
O O10 0.123823 0.160430 0.966025
O O11 0.054476 0.822962 0.045167
O O12 0.413042 0.221081 0.917369
O O13 0.870660 0.581192 0.126951
O O14 0.000000 0.500000 0.000000
O O15 0.318269 0.480071 0.871185
O O16 0.402267 0.114747 0.806739
#
# Coordination Sequence:
#
# PCOD8118907 Si02
#       8
#     4   4   4   4   4   4   4   2
#     4  12  22  33  49  79 116 153 185 224 279 340
#     4  11  24  37  51  79 116 155 197 228 262 339
#     4  10  20  36  58  84 111 143 185 236 291 340
#     4  11  22  36  56  77 112 155 191 228 274 330
#     4   9  20  35  55  87 113 134 181 238 296 344
#     4  12  20  32  53  82 115 149 182 221 285 350
#     4  11  20  32  54  85 114 145 179 233 299 343
#     4  12  20  32  50  78 116 146 180 222 286 346
#
# _framework density 17.655823999999999
#
# number of rings (size 3 to 8) (size 9 to 14) (size 15 to 20)
#    0.000    1.067    6.667    1.600    0.000    0.000 
#    0.000    0.000    0.000    0.000    0.000   22.400 
#    0.000    0.000    0.000    0.000    0.000    0.000 
#
# Total GULP energy -371753.982577 kJ/mol
# GULP energy per Si atom -12391.799419 kJ/mol
# Density = 1.761564 g / cm^3
# Si number density = 17.655824 Si / 1000 Ang^3
#
#
#
# Elastic Constant Matrix: (Units=GPa)
#
#
# Indices 1 2 3 4 5 6 
#
# 1 91.5073 32.5525 47.0009 0.0000 -6.5094 0.0000
# 2 32.5525 87.7952 43.7982 0.0000 -2.8868 0.0000
# 3 47.0009 43.7982 113.5112 0.0000 -0.3418 0.0000
# 4 0.0000 0.0000 0.0000 35.3600 0.0000 -4.0822
# 5 -6.5094 -2.8868 -0.3418 0.0000 27.9542 0.0000
# 6 0.0000 0.0000 0.0000 -4.0822 0.0000 34.2851
#
#
#
# Elastic Compliance Matrix: (Units=1/GPa)
#
#
# Indices 1 2 3 4 5 6 
#
# 1 0.014727 -0.002875 -0.004979 0.000000 0.003071 0.000000
# 2 -0.002875 0.014721 -0.004487 0.000000 0.000796 0.000000
# 3 -0.004979 -0.004487 0.012598 0.000000 -0.001469 0.000000
# 4 0.000000 0.000000 0.000000 0.028675 0.000000 0.003414
# 5 0.003071 0.000796 -0.001469 0.000000 0.036552 0.000000
# 6 0.000000 0.000000 0.000000 0.003414 0.000000 0.029574
#
#
# Mechanical properties :
#
#
# Convention : Reuss Voigt Hill
#
# Bulk Modulus (GPa) = 57.59432 59.94631 58.77031
# Shear Modulus (GPa) = 29.88329 30.81735 30.35032
#
# Velocity S-wave (km/s) = 4.11852 4.18239 4.15058
# Velocity P-wave (km/s) = 7.43691 7.57295 7.50524
#
# Compressibility (1/GPa) = 0.01736282
#
# Stress axis : x y z
#
# Youngs Moduli (GPa) = 67.90276 67.93069 79.37601
#
# Poissons Ratio (x) = 0.19533 0.39522
# Poissons Ratio (y) = 0.19525 0.35616
# Poissons Ratio (z) = 0.33810 0.30481
#
# Static dielectric constant tensor:
#      x y z
#    x 3.240770 0.000000 -0.259150 
#    y 0.000000 3.637060 0.000000 
#    z -0.259150 0.000000 3.419580 
# 
# 
# High freq. dielectric constant tensor:
#      x y z
#    x 1.649740 0.000000 -0.015050 
#    y 0.000000 1.712920 0.000000 
#    z -0.015050 0.000000 1.671040 
# 
# From -- ./inp_files/86848.got.cif
#   From: 2010.06.25/outbox.cif.g09.slc.cpg/sg13_44_cif.got.tgz:86848.got - 2010.06.28 04:50:58.
