data_PCOD8118567
_publ_section_title
;
Structure prediction by ZEFSAII (Michael W. Deem and Ramdas Pophale) SiO2 
 PCOD8118567
Probable space group: P 2/C
;
_chemical_formula_sum "Si O2"
_cell_formula_units_Z 30
_cell_length_a 12.753571
_cell_length_b 13.801482
_cell_length_c 9.177201
_cell_angle_alpha 90.000000
_cell_angle_beta 119.653330
_cell_angle_gamma 90.000000
_cell_volume 1403.799034
_symmetry_space_group_name_H-M "P 2/C"
_symmetry_group_IT_number 13
_symmetry_cell_setting 'monoclinic'
loop_
_space_group_symop_operation_xyz
x,y,z
-x,y,1/2-z
-x,-y,-z
x,-y,1/2+z
loop_
_atom_site_type_symbol
_atom_site_label
_atom_site_fract_x
_atom_site_fract_y
_atom_site_fract_z
Si Si1 0.128183 0.451029 0.126467
Si Si2 0.259259 0.643825 0.207237
Si Si3 0.127098 0.088606 0.892374
Si Si4 0.500000 0.725352 0.250000
Si Si5 0.131771 0.279898 0.350968
Si Si6 0.343075 0.134923 0.489144
Si Si7 0.272811 0.979246 0.224127
Si Si8 0.130960 0.695194 0.388879
O O1 0.231652 0.531214 0.215987
O O2 0.127792 0.384100 0.268709
O O3 0.177925 0.379906 0.038140
O O4 0.000000 0.500000 0.000000
O O5 0.394076 0.657328 0.239222
O O6 0.235751 0.699981 0.340654
O O7 0.160431 0.692468 0.035477
O O8 0.114459 0.197857 0.942036
O O9 0.000000 0.047056 0.750000
O O10 0.219102 0.083625 0.819335
O O11 0.166330 0.028641 0.059657
O O12 0.546014 0.790360 0.418854
O O13 0.224415 0.196687 0.363954
O O14 0.000000 0.231242 0.250000
O O15 0.360019 0.058438 0.367311
O O16 0.340909 0.086647 0.651109
O O17 0.000000 0.655385 0.250000
#
# Coordination Sequence:
#
# PCOD8118567 Si02
#       8
#     4   4   4   2   4   4   4   4
#     4  12  22  36  61  95 131 162 218 259 315 385
#     4  11  23  39  64  88 129 169 217 265 315 387
#     4  10  20  33  56  89 133 166 201 257 333 387
#     4  10  24  46  64  92 128 176 218 272 334 382
#     4  11  21  37  60  94 131 172 207 266 326 393
#     4  10  23  41  64  89 127 165 220 271 331 383
#     4  10  21  38  60  90 119 167 220 267 314 397
#     4  11  21  36  58  93 128 164 203 265 316 376
#
# _framework density 21.37058
#
# number of rings (size 3 to 8) (size 9 to 14) (size 15 to 20)
#    0.000    1.333    2.667    3.600    0.000    5.867 
#    0.000    6.000    0.000    9.600    0.000    0.000 
#    0.000    0.000    0.000    0.000    0.000    0.000 
#
# Total GULP energy -371762.303433 kJ/mol
# GULP energy per Si atom -12392.076781 kJ/mol
# Density = 2.132194 g / cm^3
# Si number density = 21.370580 Si / 1000 Ang^3
#
#
#
# Elastic Constant Matrix: (Units=GPa)
#
#
# Indices 1 2 3 4 5 6 
#
# 1 84.3180 21.1532 31.8922 0.0000 11.1595 0.0000
# 2 21.1532 95.7407 29.5950 0.0000 8.0734 0.0000
# 3 31.8922 29.5950 81.9626 0.0000 -0.1006 0.0000
# 4 0.0000 0.0000 0.0000 39.1095 0.0000 7.0411
# 5 11.1595 8.0734 -0.1006 0.0000 33.4903 0.0000
# 6 0.0000 0.0000 0.0000 7.0411 0.0000 5.6305
#
#
#
# Elastic Compliance Matrix: (Units=1/GPa)
#
#
# Indices 1 2 3 4 5 6 
#
# 1 0.014796 -0.001233 -0.005318 0.000000 -0.004649 0.000000
# 2 -0.001233 0.012138 -0.003906 0.000000 -0.002527 0.000000
# 3 -0.005318 -0.003906 0.015684 0.000000 0.002761 0.000000
# 4 0.000000 0.000000 0.000000 0.032998 0.000000 -0.041265
# 5 -0.004649 -0.002527 0.002761 0.000000 0.032026 0.000000
# 6 0.000000 0.000000 0.000000 -0.041265 0.000000 0.229208
#
#
# Mechanical properties :
#
#
# Convention : Reuss Voigt Hill
#
# Bulk Modulus (GPa) = 46.07523 47.47803 46.77663
# Shear Modulus (GPa) = 13.69872 27.60479 20.65175
#
# Velocity S-wave (km/s) = 2.53456 3.59795 3.11201
# Velocity P-wave (km/s) = 5.49293 6.28690 5.90328
#
# Compressibility (1/GPa) = 0.02170364
#
# Stress axis : x y z
#
# Youngs Moduli (GPa) = 67.58657 82.38713 63.76115
#
# Poissons Ratio (x) = 0.10161 0.33905
# Poissons Ratio (y) = 0.08335 0.24905
# Poissons Ratio (z) = 0.35940 0.32180
#
# Static dielectric constant tensor:
#      x y z
#    x 3.626280 0.000000 0.032100 
#    y 0.000000 4.163950 0.000000 
#    z 0.032100 0.000000 4.082460 
# 
# 
# High freq. dielectric constant tensor:
#      x y z
#    x 1.810620 0.000000 -0.011920 
#    y 0.000000 1.854010 0.000000 
#    z -0.011920 0.000000 1.838150 
# 
# From -- ./inp_files/16909.got.cif
#   From: 2010.06.25/outbox.cif.g09.slc.cpg/sg13_9_cif.got.tgz:16909.got - 2010.06.28 04:50:58.
