data_PCOD8118998
_publ_section_title
;
Structure prediction by ZEFSAII (Michael W. Deem and Ramdas Pophale) SiO2 
 PCOD8118998
Probable space group: P 2/C
;
_chemical_formula_sum "Si O2"
_cell_formula_units_Z 20
_cell_length_a 11.902764
_cell_length_b 11.976290
_cell_length_c 8.125091
_cell_angle_alpha 90.000000
_cell_angle_beta 134.078239
_cell_angle_gamma 90.000000
_cell_volume 832.068294
_symmetry_space_group_name_H-M "P 2/C"
_symmetry_group_IT_number 13
_symmetry_cell_setting 'monoclinic'
loop_
_space_group_symop_operation_xyz
x,y,z
-x,y,1/2-z
-x,-y,-z
x,-y,1/2+z
loop_
_atom_site_type_symbol
_atom_site_label
_atom_site_fract_x
_atom_site_fract_y
_atom_site_fract_z
Si Si1 0.749823 0.331492 0.694826
Si Si2 0.066270 0.707396 0.638025
Si Si3 0.160036 0.065740 0.125423
Si Si4 0.658201 0.103265 0.503217
Si Si5 0.169901 0.527340 0.507658
O O1 0.635981 0.224378 0.571220
O O2 0.716748 0.405807 0.499173
O O3 0.745739 0.409786 0.855315
O O4 0.923002 0.276633 0.864104
O O5 0.167271 0.820254 0.739440
O O6 0.157982 0.596972 0.667843
O O7 0.000000 0.684247 0.750000
O O8 0.191559 0.099396 0.967918
O O9 0.308379 0.990304 0.326580
O O10 0.000000 0.000000 0.000000
O O11 0.500000 0.073610 0.250000
O O12 0.000000 0.508423 0.250000
#
# Coordination Sequence:
#
# PCOD8118998 Si02
#       5
#     4   4   4   4   4
#     4  11  21  39  64  96 135 172 221 276 339 393
#     4  11  20  35  63 101 130 166 220 284 333 384
#     4  12  24  44  71  99 129 171 232 282 325 401
#     4  12  27  47  67  96 140 179 217 278 348 406
#     4  10  20  36  61  97 138 167 219 289 336 380
#
# _framework density 24.036487000000001
#
# number of rings (size 3 to 8) (size 9 to 14) (size 15 to 20)
#    0.000    0.800    4.000    6.600    0.000    0.000 
#    0.000    1.000    0.000    0.000    0.000    0.000 
#    0.000    0.000    0.000    0.000    0.000    0.000 
#
# Total GULP energy -247811.089030 kJ/mol
# GULP energy per Si atom -12390.554451 kJ/mol
# Density = 2.398178 g / cm^3
# Si number density = 24.036487 Si / 1000 Ang^3
#
#
#
# Elastic Constant Matrix: (Units=GPa)
#
#
# Indices 1 2 3 4 5 6 
#
# 1 46.0877 20.4529 11.7675 0.0000 -19.8761 0.0000
# 2 20.4529 198.1409 56.9934 0.0000 -15.2770 0.0000
# 3 11.7675 56.9934 82.6222 0.0000 -10.5011 0.0000
# 4 0.0000 0.0000 0.0000 45.1722 0.0000 -13.8064
# 5 -19.8761 -15.2770 -10.5011 0.0000 36.9908 0.0000
# 6 0.0000 0.0000 0.0000 -13.8064 0.0000 21.5745
#
#
#
# Elastic Compliance Matrix: (Units=1/GPa)
#
#
# Indices 1 2 3 4 5 6 
#
# 1 0.028978 -0.001512 -0.001229 0.000000 0.014597 0.000000
# 2 -0.001512 0.006448 -0.004147 0.000000 0.000673 0.000000
# 3 -0.001229 -0.004147 0.015393 0.000000 0.001997 0.000000
# 4 0.000000 0.000000 0.000000 0.027520 0.000000 0.017611
# 5 0.014597 0.000673 0.001997 0.000000 0.035722 0.000000
# 6 0.000000 0.000000 0.000000 0.017611 0.000000 0.057621
#
#
# Mechanical properties :
#
#
# Convention : Reuss Voigt Hill
#
# Bulk Modulus (GPa) = 26.99591 56.14204 41.56897
# Shear Modulus (GPa) = 25.27749 36.58997 30.93373
#
# Velocity S-wave (km/s) = 3.24640 3.90586 3.59130
# Velocity P-wave (km/s) = 5.03068 6.61428 5.87607
#
# Compressibility (1/GPa) = 0.03704265
#
# Stress axis : x y z
#
# Youngs Moduli (GPa) = 34.50903 155.09450 64.96657
#
# Poissons Ratio (x) = 0.23455 0.07982
# Poissons Ratio (y) = 0.05219 0.26940
# Poissons Ratio (z) = 0.04240 0.64313
#
# Static dielectric constant tensor:
#      x y z
#    x 3.931230 0.000000 -0.416020 
#    y 0.000000 4.721530 0.000000 
#    z -0.416020 0.000000 4.182840 
# 
# 
# High freq. dielectric constant tensor:
#      x y z
#    x 1.906980 0.000000 -0.042330 
#    y 0.000000 1.985860 0.000000 
#    z -0.042330 0.000000 1.934210 
# 
# From -- ./inp_files/16009.got.cif
#   From: 2010.06.25/outbox.cif.g09.slc.cpg/sg13_9_cif.got.tgz:16009.got - 2010.06.28 04:50:58.
