data_PCOD8118252
_publ_section_title
;
Structure prediction by ZEFSAII (Michael W. Deem and Ramdas Pophale) SiO2 
 PCOD8118252
Probable space group: P 2/C
;
_chemical_formula_sum "Si O2"
_cell_formula_units_Z 20
_cell_length_a 9.455400
_cell_length_b 7.366404
_cell_length_c 22.270273
_cell_angle_alpha 90.000000
_cell_angle_beta 141.463196
_cell_angle_gamma 90.000000
_cell_volume 966.409140
_symmetry_space_group_name_H-M "P 2/C"
_symmetry_group_IT_number 13
_symmetry_cell_setting 'monoclinic'
loop_
_space_group_symop_operation_xyz
x,y,z
-x,y,1/2-z
-x,-y,-z
x,-y,1/2+z
loop_
_atom_site_type_symbol
_atom_site_label
_atom_site_fract_x
_atom_site_fract_y
_atom_site_fract_z
Si Si1 0.279196 0.966019 0.649781
Si Si2 0.784748 0.965458 0.507525
Si Si3 0.200247 0.357418 0.936317
Si Si4 0.526915 0.640694 0.088862
Si Si5 0.697794 0.647511 0.278998
O O1 0.500000 0.859138 0.750000
O O2 0.306218 0.975211 0.587558
O O3 0.277897 0.165280 0.677503
O O4 0.037565 0.876043 0.586586
O O5 0.621679 0.813807 0.481823
O O6 0.786738 0.141857 0.549953
O O7 0.270426 0.392817 0.890697
O O8 0.947990 0.441067 0.863121
O O9 0.368016 0.462047 0.037351
O O10 0.627108 0.677670 0.187153
O O11 0.500000 0.535804 0.250000
#
# Coordination Sequence:
#
# PCOD8118252 Si02
#       5
#     4   4   4   4   4
#     4   9  17  35  58  87 118 144 196 243 281 339
#     4  10  19  37  62  83 116 156 191 241 291 337
#     4  10  24  38  59  91 115 153 197 235 288 349
#     4  11  21  41  61  83 123 153 192 239 287 351
#     4  10  19  39  62  84 117 154 189 240 294 336
#
# _framework density 20.695169
#
# number of rings (size 3 to 8) (size 9 to 14) (size 15 to 20)
#    0.000    2.000    4.000    1.200    0.000    0.800 
#    3.600    0.000    0.000    0.000    0.000    0.000 
#    0.000    0.000    0.000    0.000    0.000    0.000 
#
# Total GULP energy -247840.096851 kJ/mol
# GULP energy per Si atom -12392.004843 kJ/mol
# Density = 2.064807 g / cm^3
# Si number density = 20.695169 Si / 1000 Ang^3
#
#
#
# Elastic Constant Matrix: (Units=GPa)
#
#
# Indices 1 2 3 4 5 6 
#
# 1 121.5977 11.4621 50.4237 0.0000 24.1599 0.0000
# 2 11.4621 43.9969 -2.5780 0.0000 12.0725 0.0000
# 3 50.4237 -2.5780 101.6307 0.0000 22.9027 0.0000
# 4 0.0000 0.0000 0.0000 4.5875 0.0000 -1.0640
# 5 24.1599 12.0725 22.9027 0.0000 35.0629 0.0000
# 6 0.0000 0.0000 0.0000 -1.0640 0.0000 16.5884
#
#
#
# Elastic Compliance Matrix: (Units=1/GPa)
#
#
# Indices 1 2 3 4 5 6 
#
# 1 0.011147 -0.002117 -0.004711 0.000000 -0.003875 0.000000
# 2 -0.002117 0.026324 0.004024 0.000000 -0.010234 0.000000
# 3 -0.004711 0.004024 0.013907 0.000000 -0.007223 0.000000
# 4 0.000000 0.000000 0.000000 0.221277 0.000000 0.014193
# 5 -0.003875 -0.010234 -0.007223 0.000000 0.039432 0.000000
# 6 0.000000 0.000000 0.000000 0.014193 0.000000 0.061193
#
#
# Mechanical properties :
#
#
# Convention : Reuss Voigt Hill
#
# Bulk Modulus (GPa) = 21.84819 42.87123 32.35971
# Shear Modulus (GPa) = 12.68572 25.10893 18.89733
#
# Velocity S-wave (km/s) = 2.47853 3.48699 3.02508
# Velocity P-wave (km/s) = 4.33254 6.08052 5.27937
#
# Compressibility (1/GPa) = 0.04577038
#
# Stress axis : x y z
#
# Youngs Moduli (GPa) = 89.71233 37.98787 71.90772
#
# Poissons Ratio (x) = 0.08041 0.33876
# Poissons Ratio (y) = 0.18991 -0.28937
# Poissons Ratio (z) = 0.42263 -0.15287
#
# Static dielectric constant tensor:
#      x y z
#    x 4.276540 0.000000 0.706710 
#    y 0.000000 3.370920 0.000000 
#    z 0.706710 0.000000 4.337190 
# 
# 
# High freq. dielectric constant tensor:
#      x y z
#    x 1.822210 0.000000 0.016190 
#    y 0.000000 1.771020 0.000000 
#    z 0.016190 0.000000 1.819630 
# 
# From -- ./inp_files/45686.got.cif
#   From: 2010.06.25/outbox.cif.g09.slc.cpg/sg13_23_cif.got.tgz:45686.got - 2010.06.28 04:50:58.
