data_PCOD8118300
_publ_section_title
;
Structure prediction by ZEFSAII (Michael W. Deem and Ramdas Pophale) SiO2 
 PCOD8118300
Probable space group: P 2/C
;
_chemical_formula_sum "Si O2"
_cell_formula_units_Z 16
_cell_length_a 21.276324
_cell_length_b 7.692178
_cell_length_c 5.316530
_cell_angle_alpha 90.000000
_cell_angle_beta 120.446062
_cell_angle_gamma 90.000000
_cell_volume 750.127601
_symmetry_space_group_name_H-M "P 2/C"
_symmetry_group_IT_number 13
_symmetry_cell_setting 'monoclinic'
loop_
_space_group_symop_operation_xyz
x,y,z
-x,y,1/2-z
-x,-y,-z
x,-y,1/2+z
loop_
_atom_site_type_symbol
_atom_site_label
_atom_site_fract_x
_atom_site_fract_y
_atom_site_fract_z
Si Si1 0.117160 0.602166 0.967894
Si Si2 0.500000 0.116430 0.750000
Si Si3 0.000000 0.111031 0.250000
Si Si4 0.347636 0.706005 0.936347
Si Si5 0.712806 0.322685 0.686107
O O1 0.094214 0.514934 0.658709
O O2 0.074052 0.780015 0.902273
O O3 0.202660 0.635464 0.150165
O O4 0.431893 0.245812 0.612453
O O5 0.500000 0.000000 0.500000
O O6 0.000000 0.000000 0.500000
O O7 0.335334 0.498592 0.907121
O O8 0.310045 0.786208 0.608442
O O9 0.307625 0.784830 0.103450
#
# Coordination Sequence:
#
# PCOD8118300 Si02
#       5
#     4   2   2   4   4
#     4  12  21  43  74 101 129 175 232 280 321 389
#     4  12  26  42  56  84 132 180 204 240 328 418
#     4  12  28  46  62 102 148 182 212 264 346 410
#     4  10  20  38  61  91 122 149 211 266 314 368
#     4  10  19  37  68  94 115 146 213 285 315 348
#
# _framework density 21.329702999999999
#
# number of rings (size 3 to 8) (size 9 to 14) (size 15 to 20)
#    0.000    1.000    5.000    3.750    0.000    4.000 
#    0.000    7.500    0.000    0.000    0.000    0.000 
#    0.000    0.000    0.000    0.000    0.000    0.000 
#
# Total GULP energy -198343.401111 kJ/mol
# GULP energy per Si atom -12396.462569 kJ/mol
# Density = 2.128116 g / cm^3
# Si number density = 21.329703 Si / 1000 Ang^3
#
#
#
# Elastic Constant Matrix: (Units=GPa)
#
#
# Indices 1 2 3 4 5 6 
#
# 1 151.8297 74.9197 93.6192 0.0000 -21.0463 0.0000
# 2 74.9197 75.3574 38.4004 0.0000 14.9663 0.0000
# 3 93.6192 38.4004 132.1401 0.0000 -37.8548 0.0000
# 4 0.0000 0.0000 0.0000 23.4406 0.0000 -11.9810
# 5 -21.0463 14.9663 -37.8548 0.0000 62.2017 0.0000
# 6 0.0000 0.0000 0.0000 -11.9810 0.0000 15.7160
#
#
#
# Elastic Compliance Matrix: (Units=1/GPa)
#
#
# Indices 1 2 3 4 5 6 
#
# 1 0.021948 -0.019252 -0.007874 0.000000 0.007267 0.000000
# 2 -0.019252 0.036468 -0.001620 0.000000 -0.016275 0.000000
# 3 -0.007874 -0.001620 0.015703 0.000000 0.007282 0.000000
# 4 0.000000 0.000000 0.000000 0.069896 0.000000 0.053285
# 5 0.007267 -0.016275 0.007282 0.000000 0.026883 0.000000
# 6 0.000000 0.000000 0.000000 0.053285 0.000000 0.104250
#
#
# Mechanical properties :
#
#
# Convention : Reuss Voigt Hill
#
# Bulk Modulus (GPa) = 60.14027 85.91177 73.02602
# Shear Modulus (GPa) = 14.78490 30.43086 22.60788
#
# Velocity S-wave (km/s) = 2.63565 3.78125 3.25918
# Velocity P-wave (km/s) = 6.12527 7.70904 6.96233
#
# Compressibility (1/GPa) = 0.01662779
#
# Stress axis : x y z
#
# Youngs Moduli (GPa) = 45.56183 27.42139 63.68122
#
# Poissons Ratio (x) = 0.52791 0.50140
# Poissons Ratio (y) = 0.87714 0.10319
# Poissons Ratio (z) = 0.35874 0.04444
#
# Static dielectric constant tensor:
#      x y z
#    x 4.505580 0.000000 -0.933990 
#    y 0.000000 3.468810 0.000000 
#    z -0.933990 0.000000 5.236810 
# 
# 
# High freq. dielectric constant tensor:
#      x y z
#    x 1.859570 0.000000 -0.018920 
#    y 0.000000 1.797600 0.000000 
#    z -0.018920 0.000000 1.869870 
# 
# From -- ./inp_files/5837.got.cif
#   From: 2010.06.25/outbox.cif.g09.slc.cpg/sg13_3_cif.got.tgz:5837.got - 2010.06.28 04:50:58.
