data_PCOD8118559
_publ_section_title
;
Structure prediction by ZEFSAII (Michael W. Deem and Ramdas Pophale) SiO2 
 PCOD8118559
Probable space group: P 2/C
;
_chemical_formula_sum "Si O2"
_cell_formula_units_Z 32
_cell_length_a 15.158013
_cell_length_b 14.863927
_cell_length_c 9.627004
_cell_angle_alpha 90.000000
_cell_angle_beta 125.297978
_cell_angle_gamma 90.000000
_cell_volume 1770.276987
_symmetry_space_group_name_H-M "P 2/C"
_symmetry_group_IT_number 13
_symmetry_cell_setting 'monoclinic'
loop_
_space_group_symop_operation_xyz
x,y,z
-x,y,1/2-z
-x,-y,-z
x,-y,1/2+z
loop_
_atom_site_type_symbol
_atom_site_label
_atom_site_fract_x
_atom_site_fract_y
_atom_site_fract_z
Si Si1 0.796007 0.214225 0.781246
Si Si2 0.368961 0.079141 0.279908
Si Si3 0.125313 0.296945 0.388031
Si Si4 0.011717 0.910899 0.099508
Si Si5 0.127498 0.332985 0.874341
Si Si6 0.921386 0.479928 0.060086
Si Si7 0.383765 0.905481 0.472749
Si Si8 0.183275 0.212812 0.164144
O O1 0.870411 0.132939 0.796132
O O2 0.824832 0.310604 0.733824
O O3 0.673976 0.185519 0.633107
O O4 0.817034 0.222234 0.964184
O O5 0.489125 0.115061 0.418581
O O6 0.286529 0.149226 0.273567
O O7 0.350161 0.984186 0.336855
O O8 0.347914 0.067831 0.096257
O O9 0.151639 0.389762 0.500697
O O10 0.180265 0.285114 0.287479
O O11 0.000000 0.274652 0.250000
O O12 0.000000 0.935437 0.250000
O O13 0.926675 0.842591 0.953699
O O14 0.000000 0.000000 0.000000
O O15 0.145869 0.434246 0.947393
O O16 0.000000 0.311238 0.750000
O O17 0.196001 0.270358 0.037168
O O18 0.000000 0.447482 0.250000
O O19 0.000000 0.500000 0.000000
#
# Coordination Sequence:
#
# PCOD8118559 Si02
#       8
#     4   4   4   4   4   4   4   4
#     4  12  21  36  54  79 112 148 183 223 281 331
#     4  10  22  40  60  82 108 142 191 242 281 325
#     4  11  22  35  53  85 116 150 184 227 271 335
#     4  12  24  35  51  75 110 146 182 220 278 341
#     4  11  18  35  56  77 113 150 178 228 275 340
#     4  10  20  33  54  81 113 152 188 224 277 327
#     4  10  22  40  60  82 107 143 191 240 284 325
#     4  12  21  36  54  80 114 147 184 226 280 331
#
# _framework density 18.076267999999999
#
# number of rings (size 3 to 8) (size 9 to 14) (size 15 to 20)
#    0.000    1.000    5.000    3.750    3.500    0.000 
#    0.000    0.000    0.000    0.000    0.000    5.250 
#    0.000    0.000    0.000    0.000    0.000    0.000 
#
# Total GULP energy -396462.612313 kJ/mol
# GULP energy per Si atom -12389.456635 kJ/mol
# Density = 1.803513 g / cm^3
# Si number density = 18.076268 Si / 1000 Ang^3
#
#
#
# Elastic Constant Matrix: (Units=GPa)
#
#
# Indices 1 2 3 4 5 6 
#
# 1 58.5213 26.6535 27.3959 0.0000 -0.6531 0.0000
# 2 26.6535 80.4003 37.8506 0.0000 -0.1945 0.0000
# 3 27.3959 37.8506 98.0001 0.0000 -9.7726 0.0000
# 4 0.0000 0.0000 0.0000 23.6137 0.0000 -6.4419
# 5 -0.6531 -0.1945 -9.7726 0.0000 30.3613 0.0000
# 6 0.0000 0.0000 0.0000 -6.4419 0.0000 25.1974
#
#
#
# Elastic Compliance Matrix: (Units=1/GPa)
#
#
# Indices 1 2 3 4 5 6 
#
# 1 0.021328 -0.005163 -0.004056 0.000000 -0.000880 0.000000
# 2 -0.005163 0.016553 -0.005115 0.000000 -0.001651 0.000000
# 3 -0.004056 -0.005115 0.013742 0.000000 0.004303 0.000000
# 4 0.000000 0.000000 0.000000 0.045523 0.000000 0.011638
# 5 -0.000880 -0.001651 0.004303 0.000000 0.034292 0.000000
# 6 0.000000 0.000000 0.000000 0.011638 0.000000 0.042662
#
#
# Mechanical properties :
#
#
# Convention : Reuss Voigt Hill
#
# Bulk Modulus (GPa) = 43.56067 46.74686 45.15377
# Shear Modulus (GPa) = 23.76183 25.50259 24.63221
#
# Velocity S-wave (km/s) = 3.62958 3.76018 3.69546
# Velocity P-wave (km/s) = 6.45877 6.69096 6.57589
#
# Compressibility (1/GPa) = 0.02295649
#
# Stress axis : x y z
#
# Youngs Moduli (GPa) = 46.88610 60.41080 72.76719
#
# Poissons Ratio (x) = 0.31192 0.29513
# Poissons Ratio (y) = 0.24209 0.37218
# Poissons Ratio (z) = 0.19016 0.30898
#
# Static dielectric constant tensor:
#      x y z
#    x 3.157250 0.000000 -0.113070 
#    y 0.000000 4.211780 0.000000 
#    z -0.113070 0.000000 3.378220 
# 
# 
# High freq. dielectric constant tensor:
#      x y z
#    x 1.669270 0.000000 -0.025510 
#    y 0.000000 1.698430 0.000000 
#    z -0.025510 0.000000 1.713980 
# 
# From -- ./inp_files/19653.got.cif
#   From: 2010.06.25/outbox.cif.g09.slc.cpg/sg13_10_cif.got.tgz:19653.got - 2010.06.28 04:50:58.
