data_PCOD8118940
_publ_section_title
;
Structure prediction by ZEFSAII (Michael W. Deem and Ramdas Pophale) SiO2 
 PCOD8118940
Probable space group: P 2/C
;
_chemical_formula_sum "Si O2"
_cell_formula_units_Z 28
_cell_length_a 14.938453
_cell_length_b 12.746067
_cell_length_c 7.487405
_cell_angle_alpha 90.000000
_cell_angle_beta 116.658522
_cell_angle_gamma 90.000000
_cell_volume 1274.098985
_symmetry_space_group_name_H-M "P 2/C"
_symmetry_group_IT_number 13
_symmetry_cell_setting 'monoclinic'
loop_
_space_group_symop_operation_xyz
x,y,z
-x,y,1/2-z
-x,-y,-z
x,-y,1/2+z
loop_
_atom_site_type_symbol
_atom_site_label
_atom_site_fract_x
_atom_site_fract_y
_atom_site_fract_z
Si Si1 0.400440 0.798923 0.468396
Si Si2 0.613635 0.820375 0.643963
Si Si3 0.889709 0.263970 0.130632
Si Si4 0.599197 0.430971 0.616674
Si Si5 0.816019 0.900569 0.839385
Si Si6 0.812477 0.866350 0.254780
Si Si7 0.697307 0.616505 0.560358
O O1 0.503067 0.834199 0.455364
O O2 0.400400 0.848331 0.662647
O O3 0.402790 0.673314 0.504202
O O4 0.301483 0.840770 0.279242
O O5 0.701578 0.898324 0.656847
O O6 0.656086 0.703367 0.658562
O O7 0.883029 0.170907 0.271140
O O8 0.000000 0.314009 0.250000
O O9 0.879131 0.218732 0.919396
O O10 0.808624 0.355389 0.092793
O O11 0.500000 0.500000 0.500000
O O12 0.696186 0.503070 0.655621
O O13 0.614352 0.389534 0.830187
O O14 0.849768 0.020746 0.857774
O O15 0.824434 0.857091 0.050852
#
# Coordination Sequence:
#
# PCOD8118940 Si02
#       7
#     4   4   4   4   4   4   4
#     4  10  20  36  59  89 128 166 209 245 305 378
#     4   9  20  36  56  89 128 167 202 250 300 376
#     4  11  25  46  68  91 121 164 218 269 323 370
#     4  12  22  33  61  92 119 161 201 244 305 377
#     4  10  22  40  65  95 130 160 211 262 313 386
#     4  11  21  41  65  94 129 167 204 265 322 370
#     4  11  23  40  59  90 126 160 205 263 310 366
#
# _framework density 21.976313999999999
#
# number of rings (size 3 to 8) (size 9 to 14) (size 15 to 20)
#    0.000    1.429    4.286    1.286    2.000    1.714 
#    0.000    0.714    0.000    0.000    0.000    0.000 
#    0.000    0.000    0.000    0.000    0.000    0.000 
#
# Total GULP energy -346943.313995 kJ/mol
# GULP energy per Si atom -12390.832643 kJ/mol
# Density = 2.192630 g / cm^3
# Si number density = 21.976314 Si / 1000 Ang^3
#
#
#
# Elastic Constant Matrix: (Units=GPa)
#
#
# Indices 1 2 3 4 5 6 
#
# 1 78.7935 8.9016 33.7128 0.0000 15.0504 0.0000
# 2 8.9016 56.2626 4.4902 0.0000 2.3988 0.0000
# 3 33.7128 4.4902 89.4556 0.0000 5.8244 0.0000
# 4 0.0000 0.0000 0.0000 24.7094 0.0000 1.8108
# 5 15.0504 2.3988 5.8244 0.0000 34.1435 0.0000
# 6 0.0000 0.0000 0.0000 1.8108 0.0000 17.9527
#
#
#
# Elastic Compliance Matrix: (Units=1/GPa)
#
#
# Indices 1 2 3 4 5 6 
#
# 1 0.016540 -0.001896 -0.005736 0.000000 -0.006179 0.000000
# 2 -0.001896 0.018105 -0.000168 0.000000 -0.000408 0.000000
# 3 -0.005736 -0.000168 0.013332 0.000000 0.000266 0.000000
# 4 0.000000 0.000000 0.000000 0.040772 0.000000 -0.004112
# 5 -0.006179 -0.000408 0.000266 0.000000 0.031995 0.000000
# 6 0.000000 0.000000 0.000000 -0.004112 0.000000 0.056117
#
#
# Mechanical properties :
#
#
# Convention : Reuss Voigt Hill
#
# Bulk Modulus (GPa) = 30.88583 35.41344 33.14963
# Shear Modulus (GPa) = 24.60015 27.18827 25.89421
#
# Velocity S-wave (km/s) = 3.34936 3.52115 3.43633
# Velocity P-wave (km/s) = 5.38909 5.71670 5.55531
#
# Compressibility (1/GPa) = 0.03237730
#
# Stress axis : x y z
#
# Youngs Moduli (GPa) = 60.45937 55.23485 75.01031
#
# Poissons Ratio (x) = 0.10471 0.43025
# Poissons Ratio (y) = 0.11461 0.01259
# Poissons Ratio (z) = 0.34679 0.00927
#
# Static dielectric constant tensor:
#      x y z
#    x 4.167880 0.000000 0.073330 
#    y 0.000000 4.007510 0.000000 
#    z 0.073330 0.000000 3.936770 
# 
# 
# High freq. dielectric constant tensor:
#      x y z
#    x 1.855720 0.000000 -0.006110 
#    y 0.000000 1.844070 0.000000 
#    z -0.006110 0.000000 1.859260 
# 
# From -- ./inp_files/19092.got.cif
#   From: 2010.06.25/outbox.cif.g09.slc.cpg/sg13_10_cif.got.tgz:19092.got - 2010.06.28 04:50:58.
