data_PCOD8118766
_publ_section_title
;
Structure prediction by ZEFSAII (Michael W. Deem and Ramdas Pophale) SiO2 
 PCOD8118766
Probable space group: P 2/C
;
_chemical_formula_sum "Si O2"
_cell_formula_units_Z 18
_cell_length_a 24.951570
_cell_length_b 10.236019
_cell_length_c 9.067434
_cell_angle_alpha 90.000000
_cell_angle_beta 155.301781
_cell_angle_gamma 90.000000
_cell_volume 967.658607
_symmetry_space_group_name_H-M "P 2/C"
_symmetry_group_IT_number 13
_symmetry_cell_setting 'monoclinic'
loop_
_space_group_symop_operation_xyz
x,y,z
-x,y,1/2-z
-x,-y,-z
x,-y,1/2+z
loop_
_atom_site_type_symbol
_atom_site_label
_atom_site_fract_x
_atom_site_fract_y
_atom_site_fract_z
Si Si1 0.254134 0.121950 0.049767
Si Si2 0.254135 0.878050 0.220852
Si Si3 0.149013 0.366200 0.950682
Si Si4 0.500000 0.000031 0.750000
Si Si5 0.149034 0.633804 0.794424
O O1 0.186479 0.999997 0.966162
O O2 0.407312 0.093300 0.420518
O O3 0.196381 0.135564 0.740925
O O4 0.232366 0.252524 0.087261
O O5 0.407312 0.906740 0.616013
O O6 0.232437 0.747454 0.074712
O O7 0.189320 0.499989 0.973280
O O8 0.999990 0.335325 0.551270
O O9 0.182191 0.376901 0.205467
#
# Coordination Sequence:
#
# PCOD8118766 Si02
#       5
#     4   4   4   2   4
#     4  10  20  35  58  82 110 145 183 226 273 321
#     4  10  20  35  58  82 110 145 183 226 273 321
#     4  10  21  37  57  82 113 146 181 223 273 327
#     4   8  22  36  58  80 110 144 184 226 274 320
#     4  10  21  37  57  82 113 146 181 223 273 327
#
# _framework density 18.601602
#
# number of rings (size 3 to 8) (size 9 to 14) (size 15 to 20)
#    1.333    0.889    0.000    3.333    0.000    3.556 
#    0.000    1.111    0.000    5.333    0.000    0.000 
#    0.000    0.000    0.000    0.000    0.000    0.000 
#
# Total GULP energy -223068.648714 kJ/mol
# GULP energy per Si atom -12392.702706 kJ/mol
# Density = 1.855926 g / cm^3
# Si number density = 18.601602 Si / 1000 Ang^3
#
#
#
# Elastic Constant Matrix: (Units=GPa)
#
#
# Indices 1 2 3 4 5 6 
#
# 1 128.0362 78.6114 48.4138 0.0000 -35.7206 0.0000
# 2 78.6114 171.6335 58.4220 0.0000 -12.4893 0.0000
# 3 48.4138 58.4220 56.5390 0.0000 -8.6801 0.0000
# 4 0.0000 0.0000 0.0000 16.6908 0.0000 -10.5338
# 5 -35.7206 -12.4893 -8.6801 0.0000 27.8947 0.0000
# 6 0.0000 0.0000 0.0000 -10.5338 0.0000 33.6451
#
#
#
# Elastic Compliance Matrix: (Units=1/GPa)
#
#
# Indices 1 2 3 4 5 6 
#
# 1 0.019651 -0.004405 -0.009152 0.000000 0.020344 0.000000
# 2 -0.004405 0.010013 -0.007091 0.000000 -0.003364 0.000000
# 3 -0.009152 -0.007091 0.032098 0.000000 -0.004907 0.000000
# 4 0.000000 0.000000 0.000000 0.074667 0.000000 0.023377
# 5 0.020344 -0.003364 -0.004907 0.000000 0.058868 0.000000
# 6 0.000000 0.000000 0.000000 0.023377 0.000000 0.037041
#
#
# Mechanical properties :
#
#
# Convention : Reuss Voigt Hill
#
# Bulk Modulus (GPa) = 48.86234 80.78925 64.82580
# Shear Modulus (GPa) = 17.82815 27.03021 22.42918
#
# Velocity S-wave (km/s) = 3.09920 3.81611 3.47618
# Velocity P-wave (km/s) = 6.25552 7.93363 7.14402
#
# Compressibility (1/GPa) = 0.02046566
#
# Stress axis : x y z
#
# Youngs Moduli (GPa) = 50.88689 99.87275 31.15507
#
# Poissons Ratio (x) = 0.43994 0.28514
# Poissons Ratio (y) = 0.22416 0.22091
# Poissons Ratio (z) = 0.46573 0.70817
#
# Static dielectric constant tensor:
#      x y z
#    x 3.371230 0.000000 -0.148420 
#    y 0.000000 3.363630 0.000000 
#    z -0.148420 0.000000 3.132120 
# 
# 
# High freq. dielectric constant tensor:
#      x y z
#    x 1.727630 0.000000 -0.018690 
#    y 0.000000 1.724870 0.000000 
#    z -0.018690 0.000000 1.697540 
# 
# From -- ./inp_files/17828.got.cif
#   From: 2010.06.25/outbox.cif.g09.slc.cpg/sg13_9_cif.got.tgz:17828.got - 2010.06.28 04:50:58.
