data_PCOD8118049
_publ_section_title
;
Structure prediction by ZEFSAII (Michael W. Deem and Ramdas Pophale) SiO2 
 PCOD8118049
Probable space group: P 2/C
;
_chemical_formula_sum "Si O2"
_cell_formula_units_Z 32
_cell_length_a 15.411477
_cell_length_b 9.720145
_cell_length_c 23.419293
_cell_angle_alpha 90.000000
_cell_angle_beta 27.150531
_cell_angle_gamma 90.000000
_cell_volume 1600.920082
_symmetry_space_group_name_H-M "P 2/C"
_symmetry_group_IT_number 13
_symmetry_cell_setting 'monoclinic'
loop_
_space_group_symop_operation_xyz
x,y,z
-x,y,1/2-z
-x,-y,-z
x,-y,1/2+z
loop_
_atom_site_type_symbol
_atom_site_label
_atom_site_fract_x
_atom_site_fract_y
_atom_site_fract_z
Si Si1 0.855543 0.859954 0.687571
Si Si2 0.709371 0.898117 0.648237
Si Si3 0.602081 0.282428 0.774117
Si Si4 0.248938 0.798994 0.421920
Si Si5 0.953380 0.163370 0.629416
Si Si6 0.606852 0.471843 0.525512
Si Si7 0.992668 0.414213 0.821243
Si Si8 0.309049 0.636675 0.639338
O O1 0.728502 0.868685 0.704643
O O2 0.744111 0.785889 0.804247
O O3 0.040843 0.766195 0.566942
O O4 0.936264 0.006769 0.661978
O O5 0.500000 0.850324 0.750000
O O6 0.875627 0.818235 0.516506
O O7 0.742951 0.059034 0.618243
O O8 0.692956 0.317764 0.658785
O O9 0.403345 0.198039 0.882497
O O10 0.748038 0.191529 0.723692
O O11 0.552544 0.420348 0.837160
O O12 0.989893 0.266700 0.659598
O O13 0.514873 0.598552 0.544737
O O14 0.670924 0.355235 0.441396
O O15 0.788130 0.519866 0.455985
O O16 0.156565 0.518780 0.745574
O O17 0.000000 0.386858 0.750000
#
# Coordination Sequence:
#
# PCOD8118049 Si02
#       8
#     4   4   4   4   4   4   4   4
#     4  11  21  38  62  96 120 159 208 252 295 369
#     4  11  20  36  56  89 130 165 192 239 317 374
#     4  11  18  37  62  88 117 162 206 239 296 376
#     4  10  19  35  60  86 123 164 193 243 315 359
#     4  11  21  38  64  91 122 158 200 255 308 357
#     4  10  22  40  63  85 118 170 205 247 305 365
#     4  10  22  43  64  84 119 164 203 251 311 362
#     4  10  22  41  64  84 121 162 209 249 305 362
#
# _framework density 19.988505
#
# number of rings (size 3 to 8) (size 9 to 14) (size 15 to 20)
#    0.000    1.500    5.000    1.500    1.750    0.000 
#    0.000   10.000    0.000    0.000    0.000    0.000 
#    0.000    0.000    0.000    0.000    0.000    0.000 
#
# Total GULP energy -396659.722065 kJ/mol
# GULP energy per Si atom -12395.616315 kJ/mol
# Density = 1.994301 g / cm^3
# Si number density = 19.988505 Si / 1000 Ang^3
#
#
#
# Elastic Constant Matrix: (Units=GPa)
#
#
# Indices 1 2 3 4 5 6 
#
# 1 89.9152 31.5047 30.6654 0.0000 -11.6355 0.0000
# 2 31.5047 64.3881 25.8369 0.0000 11.5877 0.0000
# 3 30.6654 25.8369 90.2289 0.0000 -11.8564 0.0000
# 4 0.0000 0.0000 0.0000 35.0136 0.0000 4.9284
# 5 -11.6355 11.5877 -11.8564 0.0000 33.7921 0.0000
# 6 0.0000 0.0000 0.0000 4.9284 0.0000 29.6521
#
#
#
# Elastic Compliance Matrix: (Units=1/GPa)
#
#
# Indices 1 2 3 4 5 6 
#
# 1 0.015646 -0.008213 -0.001979 0.000000 0.007509 0.000000
# 2 -0.008213 0.024301 -0.005906 0.000000 -0.013233 0.000000
# 3 -0.001979 -0.005906 0.014282 0.000000 0.006355 0.000000
# 4 0.000000 0.000000 0.000000 0.029245 0.000000 -0.004861
# 5 0.007509 -0.013233 0.006355 0.000000 0.038946 0.000000
# 6 0.000000 0.000000 0.000000 -0.004861 0.000000 0.034532
#
#
# Mechanical properties :
#
#
# Convention : Reuss Voigt Hill
#
# Bulk Modulus (GPa) = 45.38731 46.72737 46.05734
# Shear Modulus (GPa) = 25.44649 30.12658 27.78653
#
# Velocity S-wave (km/s) = 3.57186 3.88647 3.73248
# Velocity P-wave (km/s) = 6.30610 6.60056 6.45501
#
# Compressibility (1/GPa) = 0.02203259
#
# Stress axis : x y z
#
# Youngs Moduli (GPa) = 63.91479 41.15103 70.01930
#
# Poissons Ratio (x) = 0.33796 0.13857
# Poissons Ratio (y) = 0.52491 0.41355
# Poissons Ratio (z) = 0.12649 0.24305
#
# Static dielectric constant tensor:
#      x y z
#    x 3.727180 0.000000 -0.162110 
#    y 0.000000 3.309730 0.000000 
#    z -0.162110 0.000000 3.934330 
# 
# 
# High freq. dielectric constant tensor:
#      x y z
#    x 1.784630 0.000000 -0.018220 
#    y 0.000000 1.741050 0.000000 
#    z -0.018220 0.000000 1.790320 
# 
# From -- ./inp_files/87396.got.cif
#   From: 2010.06.25/outbox.cif.g09.slc.cpg/sg13_44_cif.got.tgz:87396.got - 2010.06.28 04:50:58.
