data_PCOD8118886
_publ_section_title
;
Structure prediction by ZEFSAII (Michael W. Deem and Ramdas Pophale) SiO2 
 PCOD8118886
Probable space group: P 2/C
;
_chemical_formula_sum "Si O2"
_cell_formula_units_Z 26
_cell_length_a 11.937059
_cell_length_b 9.341383
_cell_length_c 18.250388
_cell_angle_alpha 90.000000
_cell_angle_beta 134.375740
_cell_angle_gamma 90.000000
_cell_volume 1454.608923
_symmetry_space_group_name_H-M "P 2/C"
_symmetry_group_IT_number 13
_symmetry_cell_setting 'monoclinic'
loop_
_space_group_symop_operation_xyz
x,y,z
-x,y,1/2-z
-x,-y,-z
x,-y,1/2+z
loop_
_atom_site_type_symbol
_atom_site_label
_atom_site_fract_x
_atom_site_fract_y
_atom_site_fract_z
Si Si1 0.351507 0.068001 0.971461
Si Si2 0.134489 0.789514 0.262147
Si Si3 0.965817 0.920653 0.654491
Si Si4 0.500000 0.506069 0.750000
Si Si5 0.817204 0.596857 0.349698
Si Si6 0.067841 0.715229 0.571050
Si Si7 0.616935 0.779269 0.862509
O O1 0.282922 0.178262 0.881083
O O2 0.220442 0.951762 0.935390
O O3 0.405612 0.150152 0.069152
O O4 0.500000 0.000000 0.000000
O O5 0.181460 0.668616 0.227904
O O6 0.000000 0.719178 0.250000
O O7 0.066221 0.933206 0.192843
O O8 0.000000 0.851139 0.750000
O O9 0.018844 0.815971 0.615039
O O10 0.363214 0.399685 0.710324
O O11 0.563662 0.611676 0.844144
O O12 0.876019 0.434480 0.369557
O O13 0.917376 0.690661 0.451786
O O14 0.203964 0.788707 0.584599
O O15 0.500000 0.856274 0.750000
#
# Coordination Sequence:
#
# PCOD8118886 Si02
#       7
#     4   4   4   2   4   4   4
#     4  10  21  36  55  83 115 147 183 232 285 333
#     4   9  20  36  54  76 114 143 179 230 283 327
#     4   9  21  37  56  81 113 144 182 234 276 335
#     4   8  20  36  54  78 118 140 190 230 278 326
#     4  10  20  36  57  83 110 147 185 238 275 329
#     4  10  20  37  60  80 111 149 194 224 277 338
#     4   9  20  36  57  77 111 154 183 222 283 340
#
# _framework density 17.874220000000001
#
# number of rings (size 3 to 8) (size 9 to 14) (size 15 to 20)
#    0.462    2.462    0.000    1.846    4.308    4.308 
#    0.000    0.769    0.000    0.000    0.000    0.000 
#    0.000    0.000    0.000    0.000    0.000    0.000 
#
# Total GULP energy -322227.279745 kJ/mol
# GULP energy per Si atom -12393.356913 kJ/mol
# Density = 1.783354 g / cm^3
# Si number density = 17.874220 Si / 1000 Ang^3
#
#
#
# Elastic Constant Matrix: (Units=GPa)
#
#
# Indices 1 2 3 4 5 6 
#
# 1 151.6270 68.1655 89.8500 0.0000 2.3093 0.0000
# 2 68.1655 59.6657 52.4230 0.0000 -14.1321 0.0000
# 3 89.8500 52.4230 119.0795 0.0000 -0.2035 0.0000
# 4 0.0000 0.0000 0.0000 -47.8687 0.0000 8.6274
# 5 2.3093 -14.1321 -0.2035 0.0000 33.9624 0.0000
# 6 0.0000 0.0000 0.0000 8.6274 0.0000 26.0566
#
#
#
# Elastic Compliance Matrix: (Units=1/GPa)
#
#
# Indices 1 2 3 4 5 6 
#
# 1 0.018138 -0.017459 -0.006014 0.000000 -0.008534 0.000000
# 2 -0.017459 0.049293 -0.008490 0.000000 0.021648 0.000000
# 3 -0.006014 -0.008490 0.016668 0.000000 -0.003024 0.000000
# 4 0.000000 0.000000 0.000000 -0.019714 0.000000 0.006527
# 5 -0.008534 0.021648 -0.003024 0.000000 0.039014 0.000000
# 6 0.000000 0.000000 0.000000 0.006527 0.000000 0.036217
#
#
# Mechanical properties :
#
#
# Convention : Reuss Voigt Hill
#
# Bulk Modulus (GPa) = 49.57242 83.47214 66.52228
# Shear Modulus (GPa) = 23.77932 10.42564 17.10248
#
# Velocity S-wave (km/s) = 3.65138 2.41773 3.09661
# Velocity P-wave (km/s) = 6.75063 7.38885 7.07694
#
# Compressibility (1/GPa) = 0.02017251
#
# Stress axis : x y z
#
# Youngs Moduli (GPa) = 55.13354 20.28686 59.99438
#
# Poissons Ratio (x) = 0.35419 0.36082
# Poissons Ratio (y) = 0.96257 0.50936
# Poissons Ratio (z) = 0.33159 0.17224
#
# Static dielectric constant tensor:
#      x y z
#    x 3.296010 0.000000 0.179570 
#    y 0.000000 3.050010 0.000000 
#    z 0.179570 0.000000 3.425110 
# 
# 
# High freq. dielectric constant tensor:
#      x y z
#    x 1.695530 0.000000 0.009250 
#    y 0.000000 1.668210 0.000000 
#    z 0.009250 0.000000 1.701120 
# 
# From -- ./inp_files/66134.got.cif
#   From: 2010.06.25/outbox.cif.g09.slc.cpg/sg13_34_cif.got.tgz:66134.got - 2010.06.28 04:50:58.
