data_PCOD8118442
_publ_section_title
;
Structure prediction by ZEFSAII (Michael W. Deem and Ramdas Pophale) SiO2 
 PCOD8118442
Probable space group: P 2/C
;
_chemical_formula_sum "Si O2"
_cell_formula_units_Z 32
_cell_length_a 8.676272
_cell_length_b 14.260580
_cell_length_c 23.549995
_cell_angle_alpha 90.000000
_cell_angle_beta 148.105793
_cell_angle_gamma 90.000000
_cell_volume 1539.518563
_symmetry_space_group_name_H-M "P 2/C"
_symmetry_group_IT_number 13
_symmetry_cell_setting 'monoclinic'
loop_
_space_group_symop_operation_xyz
x,y,z
-x,y,1/2-z
-x,-y,-z
x,-y,1/2+z
loop_
_atom_site_type_symbol
_atom_site_label
_atom_site_fract_x
_atom_site_fract_y
_atom_site_fract_z
Si Si1 0.094968 0.866743 0.376546
Si Si2 0.222399 0.062799 0.036321
Si Si3 0.307476 0.618725 0.823135
Si Si4 0.309119 0.292938 0.538341
Si Si5 0.795356 0.406297 0.737137
Si Si6 0.664238 0.247737 0.357300
Si Si7 0.600469 0.895792 0.143162
Si Si8 0.329034 0.334541 0.958049
O O1 0.107142 0.932587 0.435371
O O2 0.237286 0.911930 0.365438
O O3 0.256952 0.773209 0.446894
O O4 0.768233 0.851638 0.250361
O O5 0.267501 0.163584 0.078416
O O6 0.514861 0.001905 0.131069
O O7 0.000000 0.000000 0.000000
O O8 0.275441 0.515141 0.788425
O O9 0.430015 0.683411 0.812004
O O10 0.000000 0.658724 0.750000
O O11 0.527509 0.615065 0.944064
O O12 0.495296 0.345679 0.646303
O O13 0.346189 0.180161 0.552363
O O14 0.440735 0.340259 0.522245
O O15 0.960685 0.306588 0.435786
O O16 0.000000 0.367506 0.750000
O O17 0.017707 0.388578 0.858240
O O18 0.500000 0.208990 0.250000
#
# Coordination Sequence:
#
# PCOD8118442 Si02
#       8
#     4   4   4   4   4   4   4   4
#     4  10  21  41  67  96 124 165 219 270 316 382
#     4  12  25  41  61  93 129 171 215 269 323 387
#     4  11  24  43  64  94 128 171 216 265 320 391
#     4  10  20  40  65  94 128 168 206 272 323 378
#     4   9  20  38  70  99 124 160 217 266 324 377
#     4  12  27  44  59  89 137 175 210 260 333 394
#     4  10  21  39  67  94 127 161 214 272 323 376
#     4  10  19  40  70  96 125 165 221 268 317 384
#
# _framework density 20.785719
#
# number of rings (size 3 to 8) (size 9 to 14) (size 15 to 20)
#    0.000    1.500    3.750    1.125    1.750    6.000 
#    2.250    1.875    0.000    0.000    0.000    0.000 
#    0.000    0.000    0.000    0.000    0.000    0.000 
#
# Total GULP energy -396513.965480 kJ/mol
# GULP energy per Si atom -12391.061421 kJ/mol
# Density = 2.073841 g / cm^3
# Si number density = 20.785719 Si / 1000 Ang^3
#
#
#
# Elastic Constant Matrix: (Units=GPa)
#
#
# Indices 1 2 3 4 5 6 
#
# 1 81.1920 44.7649 51.0895 0.0000 -0.7260 0.0000
# 2 44.7649 89.9787 29.7832 0.0000 6.2271 0.0000
# 3 51.0895 29.7832 121.3151 0.0000 -4.1082 0.0000
# 4 0.0000 0.0000 0.0000 38.2417 0.0000 4.8160
# 5 -0.7260 6.2271 -4.1082 0.0000 28.9838 0.0000
# 6 0.0000 0.0000 0.0000 4.8160 0.0000 20.7766
#
#
#
# Elastic Compliance Matrix: (Units=1/GPa)
#
#
# Indices 1 2 3 4 5 6 
#
# 1 0.021277 -0.008413 -0.006848 0.000000 0.001370 0.000000
# 2 -0.008413 0.015695 -0.000434 0.000000 -0.003644 0.000000
# 3 -0.006848 -0.000434 0.011285 0.000000 0.001521 0.000000
# 4 0.000000 0.000000 0.000000 0.026936 0.000000 -0.006244
# 5 0.001370 -0.003644 0.001521 0.000000 0.035535 0.000000
# 6 0.000000 0.000000 0.000000 -0.006244 0.000000 0.049578
#
#
# Mechanical properties :
#
#
# Convention : Reuss Voigt Hill
#
# Bulk Modulus (GPa) = 59.28931 60.41790 59.85361
# Shear Modulus (GPa) = 25.33978 28.72362 27.03170
#
# Velocity S-wave (km/s) = 3.49534 3.72141 3.61015
# Velocity P-wave (km/s) = 6.69895 6.89894 6.79968
#
# Compressibility (1/GPa) = 0.01686645
#
# Stress axis : x y z
#
# Youngs Moduli (GPa) = 46.99992 63.71426 88.61310
#
# Poissons Ratio (x) = 0.53604 0.60686
# Poissons Ratio (y) = 0.39542 0.03842
# Poissons Ratio (z) = 0.32187 0.02762
#
# Static dielectric constant tensor:
#      x y z
#    x 3.396730 0.000000 0.000700 
#    y 0.000000 3.619340 0.000000 
#    z 0.000700 0.000000 4.010870 
# 
# 
# High freq. dielectric constant tensor:
#      x y z
#    x 1.798650 0.000000 0.000430 
#    y 0.000000 1.808320 0.000000 
#    z 0.000430 0.000000 1.824440 
# 
# From -- ./inp_files/85356.got.cif
#   From: 2010.06.25/outbox.cif.g09.slc.cpg/sg13_43_cif.got.tgz:85356.got - 2010.06.28 04:50:58.
