data_PCOD8118116
_publ_section_title
;
Structure prediction by ZEFSAII (Michael W. Deem and Ramdas Pophale) SiO2 
 PCOD8118116
Probable space group: P 2/C
;
_chemical_formula_sum "Si O2"
_cell_formula_units_Z 24
_cell_length_a 12.165382
_cell_length_b 8.879606
_cell_length_c 15.910739
_cell_angle_alpha 90.000000
_cell_angle_beta 47.890801
_cell_angle_gamma 90.000000
_cell_volume 1275.077403
_symmetry_space_group_name_H-M "P 2/C"
_symmetry_group_IT_number 13
_symmetry_cell_setting 'monoclinic'
loop_
_space_group_symop_operation_xyz
x,y,z
-x,y,1/2-z
-x,-y,-z
x,-y,1/2+z
loop_
_atom_site_type_symbol
_atom_site_label
_atom_site_fract_x
_atom_site_fract_y
_atom_site_fract_z
Si Si1 0.192523 0.349544 0.409562
Si Si2 0.347608 0.087750 0.802246
Si Si3 0.136487 0.687441 0.476757
Si Si4 0.368308 0.818118 0.680918
Si Si5 0.166216 0.858299 0.633101
Si Si6 0.695739 0.866683 0.523378
O O1 0.204983 0.525219 0.423089
O O2 0.322437 0.297159 0.279208
O O3 0.200824 0.269585 0.496768
O O4 0.038849 0.307307 0.443844
O O5 0.500000 0.175284 0.750000
O O6 0.346320 0.995375 0.715749
O O7 0.337125 0.961099 0.877571
O O8 0.210248 0.201578 0.870427
O O9 0.178768 0.747522 0.547145
O O10 0.269773 0.782716 0.650161
O O11 0.541311 0.796852 0.567900
O O12 0.000000 0.869568 0.750000
O O13 0.221105 0.028723 0.586646
#
# Coordination Sequence:
#
# PCOD8118116 Si02
#       6
#     4   4   4   4   4   4
#     4  10  20  36  55  77 108 147 186 223 269 325
#     4   8  17  32  54  79 103 136 181 225 266 319
#     4  10  21  35  53  80 111 144 183 226 268 326
#     4  10  19  36  58  82 108 140 183 231 277 321
#     4  11  21  35  56  83 113 146 180 226 281 318
#     4   9  20  35  56  81 108 141 181 227 267 326
#
# _framework density 18.822388
#
# number of rings (size 3 to 8) (size 9 to 14) (size 15 to 20)
#    0.000    2.333    1.667    2.000    2.333    3.333 
#    0.000    3.333    0.000    0.000    0.000    0.000 
#    0.000    0.000    0.000    0.000    0.000    0.000 
#
# Total GULP energy -297467.248771 kJ/mol
# GULP energy per Si atom -12394.468699 kJ/mol
# Density = 1.877955 g / cm^3
# Si number density = 18.822388 Si / 1000 Ang^3
#
#
#
# Elastic Constant Matrix: (Units=GPa)
#
#
# Indices 1 2 3 4 5 6 
#
# 1 103.5841 48.3660 29.7392 0.0000 -3.2550 0.0000
# 2 48.3660 87.5185 41.0227 0.0000 -9.7766 0.0000
# 3 29.7392 41.0227 56.0466 0.0000 -2.1596 0.0000
# 4 0.0000 0.0000 0.0000 21.2918 0.0000 -2.6337
# 5 -3.2550 -9.7766 -2.1596 0.0000 21.2009 0.0000
# 6 0.0000 0.0000 0.0000 -2.6337 0.0000 24.6428
#
#
#
# Elastic Compliance Matrix: (Units=1/GPa)
#
#
# Indices 1 2 3 4 5 6 
#
# 1 0.013270 -0.006299 -0.002474 0.000000 -0.001119 0.000000
# 2 -0.006299 0.021402 -0.012027 0.000000 0.007677 0.000000
# 3 -0.002474 -0.012027 0.027839 0.000000 -0.003090 0.000000
# 4 0.000000 0.000000 0.000000 0.047596 0.000000 0.005087
# 5 -0.001119 0.007677 -0.003090 0.000000 0.050221 0.000000
# 6 0.000000 0.000000 0.000000 0.005087 0.000000 0.041124
#
#
# Mechanical properties :
#
#
# Convention : Reuss Voigt Hill
#
# Bulk Modulus (GPa) = 47.82068 53.93390 50.87729
# Shear Modulus (GPa) = 19.99818 21.96185 20.98002
#
# Velocity S-wave (km/s) = 3.26309 3.41954 3.34223
# Velocity P-wave (km/s) = 6.29749 6.65638 6.47942
#
# Compressibility (1/GPa) = 0.02091146
#
# Stress axis : x y z
#
# Youngs Moduli (GPa) = 75.35625 46.72395 35.92078
#
# Poissons Ratio (x) = 0.29432 0.08887
# Poissons Ratio (y) = 0.47467 0.43202
# Poissons Ratio (z) = 0.18644 0.56195
#
# Static dielectric constant tensor:
#      x y z
#    x 3.667120 0.000000 -0.157920 
#    y 0.000000 3.344670 0.000000 
#    z -0.157920 0.000000 3.463980 
# 
# 
# High freq. dielectric constant tensor:
#      x y z
#    x 1.738300 0.000000 -0.013580 
#    y 0.000000 1.711280 0.000000 
#    z -0.013580 0.000000 1.721500 
# 
# From -- ./inp_files/65901.got.cif
#   From: 2010.06.25/outbox.cif.g09.slc.cpg/sg13_33_cif.got.tgz:65901.got - 2010.06.28 04:50:58.
