data_PCOD8118789
_publ_section_title
;
Structure prediction by ZEFSAII (Michael W. Deem and Ramdas Pophale) SiO2 
 PCOD8118789
Probable space group: P 2/C
;
_chemical_formula_sum "Si O2"
_cell_formula_units_Z 28
_cell_length_a 21.198834
_cell_length_b 9.665558
_cell_length_c 13.811436
_cell_angle_alpha 90.000000
_cell_angle_beta 151.990822
_cell_angle_gamma 90.000000
_cell_volume 1328.978162
_symmetry_space_group_name_H-M "P 2/C"
_symmetry_group_IT_number 13
_symmetry_cell_setting 'monoclinic'
loop_
_space_group_symop_operation_xyz
x,y,z
-x,y,1/2-z
-x,-y,-z
x,-y,1/2+z
loop_
_atom_site_type_symbol
_atom_site_label
_atom_site_fract_x
_atom_site_fract_y
_atom_site_fract_z
Si Si1 0.214850 0.813081 0.067428
Si Si2 0.366281 0.384852 0.217486
Si Si3 0.155574 0.538069 0.282794
Si Si4 0.662041 0.420287 0.649693
Si Si5 0.786841 0.116951 0.466978
Si Si6 0.998844 0.189861 0.603923
Si Si7 0.949280 0.242646 0.329852
O O1 0.325870 0.710380 0.260736
O O2 0.269493 0.970435 0.147874
O O3 0.185216 0.785592 0.913872
O O4 0.078842 0.790061 0.942417
O O5 0.522950 0.402111 0.402870
O O6 0.340324 0.439120 0.291333
O O7 0.331592 0.221151 0.162729
O O8 0.278788 0.477128 0.025053
O O9 0.214339 0.574944 0.256867
O O10 0.061408 0.658178 0.194925
O O11 0.061863 0.402506 0.150854
O O12 0.889866 0.087068 0.696965
O O13 0.865075 0.191404 0.485891
O O14 0.961158 0.148495 0.442660
#
# Coordination Sequence:
#
# PCOD8118789 Si02
#       7
#     4   4   4   4   4   4   4
#     4  11  24  37  58  90 125 156 199 238 299 360
#     4  10  23  41  64  83 119 158 201 253 292 350
#     4  11  21  36  62  95 115 151 200 253 300 354
#     4  11  22  42  62  88 114 159 204 249 299 342
#     4  10  23  39  56  92 120 160 197 237 296 362
#     4  10  20  35  59  85 124 151 189 237 301 353
#     4  11  21  35  60  92 122 156 190 250 300 355
#
# _framework density 21.068819000000001
#
# number of rings (size 3 to 8) (size 9 to 14) (size 15 to 20)
#    0.000    1.429    2.857    3.429    2.000    4.000 
#    0.000    0.000    0.000    0.000    3.714    0.000 
#    0.000    0.000    0.000    0.000    0.000    0.000 
#
# Total GULP energy -347173.778713 kJ/mol
# GULP energy per Si atom -12399.063525 kJ/mol
# Density = 2.102087 g / cm^3
# Si number density = 21.068819 Si / 1000 Ang^3
#
#
#
# Elastic Constant Matrix: (Units=GPa)
#
#
# Indices 1 2 3 4 5 6 
#
# 1 76.3781 13.1478 14.1094 0.0000 -21.1709 0.0000
# 2 13.1478 92.7275 6.8215 0.0000 4.2977 0.0000
# 3 14.1094 6.8215 72.0355 0.0000 -20.6635 0.0000
# 4 0.0000 0.0000 0.0000 24.3981 0.0000 -4.7329
# 5 -21.1709 4.2977 -20.6635 0.0000 31.8316 0.0000
# 6 0.0000 0.0000 0.0000 -4.7329 0.0000 12.1724
#
#
#
# Elastic Compliance Matrix: (Units=1/GPa)
#
#
# Indices 1 2 3 4 5 6 
#
# 1 0.016810 -0.002960 0.000380 0.000000 0.011827 0.000000
# 2 -0.002960 0.011562 -0.001877 0.000000 -0.004748 0.000000
# 3 0.000380 -0.001877 0.017364 0.000000 0.011778 0.000000
# 4 0.000000 0.000000 0.000000 0.044330 0.000000 0.017237
# 5 0.011827 -0.004748 0.011778 0.000000 0.047568 0.000000
# 6 0.000000 0.000000 0.000000 0.017237 0.000000 0.088855
#
#
# Mechanical properties :
#
#
# Convention : Reuss Voigt Hill
#
# Bulk Modulus (GPa) = 27.15694 34.36651 30.76173
# Shear Modulus (GPa) = 20.18760 27.48460 23.83610
#
# Velocity S-wave (km/s) = 3.09880 3.61573 3.36720
# Velocity P-wave (km/s) = 5.07159 5.81191 5.45432
#
# Compressibility (1/GPa) = 0.03682300
#
# Stress axis : x y z
#
# Youngs Moduli (GPa) = 59.48776 86.48959 57.59073
#
# Poissons Ratio (x) = 0.25598 -0.02190
# Poissons Ratio (y) = 0.17606 0.10811
# Poissons Ratio (z) = -0.02262 0.16236
#
# Static dielectric constant tensor:
#      x y z
#    x 3.744660 0.000000 -0.408950 
#    y 0.000000 3.717010 0.000000 
#    z -0.408950 0.000000 3.924740 
# 
# 
# High freq. dielectric constant tensor:
#      x y z
#    x 1.815450 0.000000 -0.026570 
#    y 0.000000 1.821650 0.000000 
#    z -0.026570 0.000000 1.820710 
# 
# From -- ./inp_files/50465.got.cif
#   From: 2010.06.25/outbox.cif.g09.slc.cpg/sg13_26_cif.got.tgz:50465.got - 2010.06.28 04:50:58.
