data_PCOD8118590
_publ_section_title
;
Structure prediction by ZEFSAII (Michael W. Deem and Ramdas Pophale) SiO2 
 PCOD8118590
Probable space group: P 2/C
;
_chemical_formula_sum "Si O2"
_cell_formula_units_Z 30
_cell_length_a 25.366693
_cell_length_b 14.389493
_cell_length_c 8.644191
_cell_angle_alpha 90.000000
_cell_angle_beta 149.948758
_cell_angle_gamma 90.000000
_cell_volume 1580.067905
_symmetry_space_group_name_H-M "P 2/C"
_symmetry_group_IT_number 13
_symmetry_cell_setting 'monoclinic'
loop_
_space_group_symop_operation_xyz
x,y,z
-x,y,1/2-z
-x,-y,-z
x,-y,1/2+z
loop_
_atom_site_type_symbol
_atom_site_label
_atom_site_fract_x
_atom_site_fract_y
_atom_site_fract_z
Si Si1 0.767694 0.266184 0.736622
Si Si2 0.629374 0.567876 0.454561
Si Si3 0.411434 0.617944 0.808042
Si Si4 0.088132 0.586891 0.768766
Si Si5 0.000000 0.975345 0.250000
Si Si6 0.081249 0.272813 0.652157
Si Si7 0.858130 0.601471 0.944198
Si Si8 0.091492 0.879445 0.760924
O O1 0.642881 0.285590 0.392104
O O2 0.820162 0.248960 0.704004
O O3 0.806335 0.364904 0.901419
O O4 0.799948 0.179449 0.931348
O O5 0.647851 0.583683 0.684883
O O6 0.596170 0.461168 0.342762
O O7 0.732973 0.588657 0.617826
O O8 0.534883 0.635674 0.156185
O O9 0.086465 0.600055 0.579481
O O10 0.987120 0.639661 0.584120
O O11 0.088461 0.478539 0.812218
O O12 0.081685 0.913876 0.559300
O O13 0.080492 0.033735 0.348259
O O14 0.008892 0.183699 0.462430
O O15 0.121501 0.298048 0.926269
#
# Coordination Sequence:
#
# PCOD8118590 Si02
#       8
#     4   4   4   4   2   4   4   4
#     4  11  20  37  52  76 107 144 179 230 264 317
#     4  10  20  34  51  71  96 145 194 231 270 302
#     4  10  20  35  52  70 101 140 192 236 269 306
#     4  11  23  32  47  70 103 151 187 222 261 308
#     4  10  20  38  58  80 108 144 172 206 272 352
#     4  11  22  35  49  74 110 143 178 221 259 318
#     4  12  21  34  48  71 103 146 191 224 265 308
#     4  10  21  36  57  80 110 141 171 213 268 330
#
# _framework density 18.986525
#
# number of rings (size 3 to 8) (size 9 to 14) (size 15 to 20)
#    0.000    1.333    4.000    3.600    3.733    1.067 
#    0.000    0.000    0.000    0.000    0.000    0.000 
#    0.000   19.200    0.000    0.267    0.000    0.000 
#
# Total GULP energy -371839.547432 kJ/mol
# GULP energy per Si atom -12394.651581 kJ/mol
# Density = 1.894331 g / cm^3
# Si number density = 18.986525 Si / 1000 Ang^3
#
#
#
# Elastic Constant Matrix: (Units=GPa)
#
#
# Indices 1 2 3 4 5 6 
#
# 1 41.4411 18.6277 19.8010 0.0000 -8.6998 0.0000
# 2 18.6277 73.7254 39.2168 0.0000 -5.5181 0.0000
# 3 19.8010 39.2168 90.9092 0.0000 1.6079 0.0000
# 4 0.0000 0.0000 0.0000 37.2059 0.0000 -9.5607
# 5 -8.6998 -5.5181 1.6079 0.0000 34.1733 0.0000
# 6 0.0000 0.0000 0.0000 -9.5607 0.0000 10.9556
#
#
#
# Elastic Compliance Matrix: (Units=1/GPa)
#
#
# Indices 1 2 3 4 5 6 
#
# 1 0.029895 -0.004531 -0.004682 0.000000 0.007099 0.000000
# 2 -0.004531 0.018647 -0.007096 0.000000 0.002191 0.000000
# 3 -0.004682 -0.007096 0.015135 0.000000 -0.003050 0.000000
# 4 0.000000 0.000000 0.000000 0.034647 0.000000 0.030236
# 5 0.007099 0.002191 -0.003050 0.000000 0.031567 0.000000
# 6 0.000000 0.000000 0.000000 0.030236 0.000000 0.117664
#
#
# Mechanical properties :
#
#
# Convention : Reuss Voigt Hill
#
# Bulk Modulus (GPa) = 32.19778 40.15188 36.17483
# Shear Modulus (GPa) = 17.21009 25.02899 21.11954
#
# Velocity S-wave (km/s) = 3.01398 3.63471 3.33880
# Velocity P-wave (km/s) = 5.39510 6.22963 5.82732
#
# Compressibility (1/GPa) = 0.03105805
#
# Stress axis : x y z
#
# Youngs Moduli (GPa) = 33.45035 53.62696 66.07266
#
# Poissons Ratio (x) = 0.24301 0.30937
# Poissons Ratio (y) = 0.15158 0.46885
# Poissons Ratio (z) = 0.15662 0.38053
#
# Static dielectric constant tensor:
#      x y z
#    x 3.404520 0.000000 -0.195730 
#    y 0.000000 3.378510 0.000000 
#    z -0.195730 0.000000 3.697680 
# 
# 
# High freq. dielectric constant tensor:
#      x y z
#    x 1.731430 0.000000 -0.024910 
#    y 0.000000 1.697400 0.000000 
#    z -0.024910 0.000000 1.743400 
# 
# From -- ./inp_files/24738.got.cif
#   From: 2010.06.25/outbox.cif.g09.slc.cpg/sg13_13_cif.got.tgz:24738.got - 2010.06.28 04:50:58.
