data_PCOD8118847
_publ_section_title
;
Structure prediction by ZEFSAII (Michael W. Deem and Ramdas Pophale) SiO2 
 PCOD8118847
Probable space group: P 2/C
;
_chemical_formula_sum "Si O2"
_cell_formula_units_Z 30
_cell_length_a 16.152143
_cell_length_b 11.458695
_cell_length_c 8.925475
_cell_angle_alpha 90.000000
_cell_angle_beta 116.088922
_cell_angle_gamma 90.000000
_cell_volume 1483.636290
_symmetry_space_group_name_H-M "P 2/C"
_symmetry_group_IT_number 13
_symmetry_cell_setting 'monoclinic'
loop_
_space_group_symop_operation_xyz
x,y,z
-x,y,1/2-z
-x,-y,-z
x,-y,1/2+z
loop_
_atom_site_type_symbol
_atom_site_label
_atom_site_fract_x
_atom_site_fract_y
_atom_site_fract_z
Si Si1 0.106320 0.372166 0.371406
Si Si2 0.775758 0.165166 0.947387
Si Si3 0.715250 0.015909 0.628197
Si Si4 0.500000 0.530354 0.250000
Si Si5 0.644563 0.335226 0.389816
Si Si6 0.597535 0.102203 0.270949
Si Si7 0.795333 0.540793 0.844473
Si Si8 0.648432 0.340577 0.712303
O O1 0.135347 0.249162 0.470437
O O2 0.122030 0.478190 0.500042
O O3 0.166240 0.395218 0.270937
O O4 0.000000 0.365092 0.250000
O O5 0.685163 0.249946 0.867088
O O6 0.779736 0.088067 0.796603
O O7 0.773265 0.089255 0.097613
O O8 0.626175 0.965560 0.644657
O O9 0.677621 0.088714 0.458413
O O10 0.584970 0.452177 0.374186
O O11 0.455571 0.615712 0.338482
O O12 0.593624 0.242793 0.238881
O O13 0.746475 0.362216 0.409480
O O14 0.649937 0.272279 0.556211
O O15 0.500000 0.052514 0.250000
O O16 0.716777 0.448941 0.739495
#
# Coordination Sequence:
#
# PCOD8118847 Si02
#       8
#     4   4   4   2   4   4   4   4
#     4  11  22  40  64  94 122 151 192 244 299 372
#     4  10  22  41  62  84 113 154 202 245 310 355
#     4  10  22  40  58  78 111 158 197 254 307 344
#     4  10  22  32  52  82 122 160 198 236 286 330
#     4  11  19  35  55  82 119 157 200 235 283 346
#     4  11  21  35  54  81 113 152 207 250 286 332
#     4  10  21  37  60  87 125 160 187 226 296 363
#     4  10  20  36  54  83 118 160 193 240 278 352
#
# _framework density 20.220589
#
# number of rings (size 3 to 8) (size 9 to 14) (size 15 to 20)
#    0.000    1.600    3.333    2.000    0.000    1.067 
#    4.800    0.667    0.000    0.000    0.000    0.000 
#    0.000    0.000    0.000    0.000    0.000    0.000 
#
# Total GULP energy -371791.993918 kJ/mol
# GULP energy per Si atom -12393.066464 kJ/mol
# Density = 2.017457 g / cm^3
# Si number density = 20.220589 Si / 1000 Ang^3
#
#
#
# Elastic Constant Matrix: (Units=GPa)
#
#
# Indices 1 2 3 4 5 6 
#
# 1 67.1094 21.2541 25.0468 0.0000 1.7429 0.0000
# 2 21.2541 71.0109 17.7986 0.0000 -2.1820 0.0000
# 3 25.0468 17.7986 73.0713 0.0000 -6.2910 0.0000
# 4 0.0000 0.0000 0.0000 34.7710 0.0000 -1.9842
# 5 1.7429 -2.1820 -6.2910 0.0000 32.4521 0.0000
# 6 0.0000 0.0000 0.0000 -1.9842 0.0000 19.4953
#
#
#
# Elastic Compliance Matrix: (Units=1/GPa)
#
#
# Indices 1 2 3 4 5 6 
#
# 1 0.018326 -0.004188 -0.005462 0.000000 -0.002325 0.000000
# 2 -0.004188 0.015958 -0.002380 0.000000 0.000837 0.000000
# 3 -0.005462 -0.002380 0.016423 0.000000 0.003317 0.000000
# 4 0.000000 0.000000 0.000000 0.028928 0.000000 0.002944
# 5 -0.002325 0.000837 0.003317 0.000000 0.031639 0.000000
# 6 0.000000 0.000000 0.000000 0.002944 0.000000 0.051594
#
#
# Mechanical properties :
#
#
# Convention : Reuss Voigt Hill
#
# Bulk Modulus (GPa) = 37.52538 37.71006 37.61772
# Shear Modulus (GPa) = 25.53525 27.14984 26.34254
#
# Velocity S-wave (km/s) = 3.55749 3.66824 3.61329
# Velocity P-wave (km/s) = 5.95589 6.05237 6.00432
#
# Compressibility (1/GPa) = 0.02664863
#
# Stress axis : x y z
#
# Youngs Moduli (GPa) = 54.56690 62.66504 60.89164
#
# Poissons Ratio (x) = 0.26242 0.33258
# Poissons Ratio (y) = 0.22850 0.14490
# Poissons Ratio (z) = 0.29803 0.14912
#
# Static dielectric constant tensor:
#      x y z
#    x 3.365480 0.000000 -0.160900 
#    y 0.000000 3.840350 0.000000 
#    z -0.160900 0.000000 3.656820 
# 
# 
# High freq. dielectric constant tensor:
#      x y z
#    x 1.755620 0.000000 -0.016070 
#    y 0.000000 1.800170 0.000000 
#    z -0.016070 0.000000 1.789270 
# 
# From -- ./inp_files/18996.got.cif
#   From: 2010.06.25/outbox.cif.g09.slc.cpg/sg13_10_cif.got.tgz:18996.got - 2010.06.28 04:50:58.
