data_PCOD8118831
_publ_section_title
;
Structure prediction by ZEFSAII (Michael W. Deem and Ramdas Pophale) SiO2 
 PCOD8118831
Probable space group: P 2/C
;
_chemical_formula_sum "Si O2"
_cell_formula_units_Z 30
_cell_length_a 27.241020
_cell_length_b 10.680471
_cell_length_c 27.106538
_cell_angle_alpha 90.000000
_cell_angle_beta 10.788877
_cell_angle_gamma 90.000000
_cell_volume 1476.290752
_symmetry_space_group_name_H-M "P 2/C"
_symmetry_group_IT_number 13
_symmetry_cell_setting 'monoclinic'
loop_
_space_group_symop_operation_xyz
x,y,z
-x,y,1/2-z
-x,-y,-z
x,-y,1/2+z
loop_
_atom_site_type_symbol
_atom_site_label
_atom_site_fract_x
_atom_site_fract_y
_atom_site_fract_z
Si Si1 0.954165 0.739054 0.480156
Si Si2 0.845874 0.680285 0.358310
Si Si3 0.036373 0.510920 0.342185
Si Si4 0.544398 0.366188 0.807703
Si Si5 0.500000 0.478113 0.750000
Si Si6 0.985595 0.875568 0.545668
Si Si7 0.425223 0.164717 0.454346
Si Si8 0.492863 0.114133 0.908179
O O1 0.033331 0.593110 0.395221
O O2 0.668136 0.765048 0.739509
O O3 0.951146 0.760604 0.541718
O O4 0.170632 0.828056 0.240699
O O5 0.726619 0.565064 0.505825
O O6 0.638896 0.773343 0.535895
O O7 0.000000 0.755891 0.250000
O O8 0.030460 0.615503 0.134355
O O9 0.820235 0.402985 0.560703
O O10 0.322582 0.454269 0.050656
O O11 0.590555 0.386055 0.704220
O O12 0.472224 0.221668 0.887201
O O13 0.245560 0.860793 0.320174
O O14 0.000000 0.000000 0.500000
O O15 0.743049 0.875393 0.821373
O O16 0.494930 0.018776 0.377915
#
# Coordination Sequence:
#
# PCOD8118831 Si02
#       8
#     4   4   4   4   2   4   4   4
#     4  11  21  38  64  94 117 158 210 261 304 350
#     4  10  20  35  64  94 117 151 210 259 306 358
#     4  10  21  39  60  92 119 160 202 260 297 353
#     4  11  23  40  64  85 130 166 205 240 307 379
#     4  10  20  40  64  88 118 168 210 240 298 382
#     4  12  22  41  67  89 124 166 215 245 308 389
#     4  11  22  36  61  92 129 149 197 268 310 346
#     4  12  24  41  60  96 126 168 202 251 313 372
#
# _framework density 20.321200000000001
#
# number of rings (size 3 to 8) (size 9 to 14) (size 15 to 20)
#    0.000    1.067    4.000    4.400    1.867    0.000 
#    0.000    4.667    2.933    0.000    0.000    0.000 
#    0.000    0.000    0.000    0.000    0.000    0.000 
#
# Total GULP energy -371953.702713 kJ/mol
# GULP energy per Si atom -12398.456757 kJ/mol
# Density = 2.027495 g / cm^3
# Si number density = 20.321200 Si / 1000 Ang^3
#
#
#
# Elastic Constant Matrix: (Units=GPa)
#
#
# Indices 1 2 3 4 5 6 
#
# 1 96.8208 48.5704 36.2837 0.0000 -8.1215 0.0000
# 2 48.5704 114.4932 21.7065 0.0000 5.7431 0.0000
# 3 36.2837 21.7065 119.9448 0.0000 -5.8748 0.0000
# 4 0.0000 0.0000 0.0000 27.2566 0.0000 3.1578
# 5 -8.1215 5.7431 -5.8748 0.0000 33.2996 0.0000
# 6 0.0000 0.0000 0.0000 3.1578 0.0000 40.8359
#
#
#
# Elastic Compliance Matrix: (Units=1/GPa)
#
#
# Indices 1 2 3 4 5 6 
#
# 1 0.014828 -0.005883 -0.003222 0.000000 0.004063 0.000000
# 2 -0.005883 0.011495 -0.000472 0.000000 -0.003501 0.000000
# 3 -0.003222 -0.000472 0.009444 0.000000 0.000962 0.000000
# 4 0.000000 0.000000 0.000000 0.037020 0.000000 -0.002863
# 5 0.004063 -0.003501 0.000962 0.000000 0.031795 0.000000
# 6 0.000000 0.000000 0.000000 -0.002863 0.000000 0.024710
#
#
# Mechanical properties :
#
#
# Convention : Reuss Voigt Hill
#
# Bulk Modulus (GPa) = 60.19363 60.48665 60.34014
# Shear Modulus (GPa) = 32.47106 35.25833 33.86469
#
# Velocity S-wave (km/s) = 4.00170 4.16991 4.08667
# Velocity P-wave (km/s) = 7.14401 7.28108 7.21287
#
# Compressibility (1/GPa) = 0.01661305
#
# Stress axis : x y z
#
# Youngs Moduli (GPa) = 67.44060 86.99408 105.88393
#
# Poissons Ratio (x) = 0.51181 0.34114
# Poissons Ratio (y) = 0.39677 0.04998
# Poissons Ratio (z) = 0.21728 0.04106
#
# Static dielectric constant tensor:
#      x y z
#    x 3.953610 0.000000 0.180810 
#    y 0.000000 3.715450 0.000000 
#    z 0.180810 0.000000 3.770770 
# 
# 
# High freq. dielectric constant tensor:
#      x y z
#    x 1.787520 0.000000 -0.000420 
#    y 0.000000 1.784570 0.000000 
#    z -0.000420 0.000000 1.808570 
# 
# From -- ./inp_files/94218.got.cif
#   From: 2010.06.25/outbox.cif.g09.slc.cpg/sg13_48_cif.got.tgz:94218.got - 2010.06.28 04:50:58.
