data_PCOD8118634
_publ_section_title
;
Structure prediction by ZEFSAII (Michael W. Deem and Ramdas Pophale) SiO2 
 PCOD8118634
Probable space group: P 2/C
;
_chemical_formula_sum "Si O2"
_cell_formula_units_Z 20
_cell_length_a 14.171728
_cell_length_b 5.349158
_cell_length_c 20.465033
_cell_angle_alpha 90.000000
_cell_angle_beta 139.809724
_cell_angle_gamma 90.000000
_cell_volume 1001.154783
_symmetry_space_group_name_H-M "P 2/C"
_symmetry_group_IT_number 13
_symmetry_cell_setting 'monoclinic'
loop_
_space_group_symop_operation_xyz
x,y,z
-x,y,1/2-z
-x,-y,-z
x,-y,1/2+z
loop_
_atom_site_type_symbol
_atom_site_label
_atom_site_fract_x
_atom_site_fract_y
_atom_site_fract_z
Si Si1 0.984773 0.846109 0.319863
Si Si2 0.898105 0.655646 0.632545
Si Si3 0.580348 0.627253 0.724401
Si Si4 0.437978 0.397608 0.533813
Si Si5 0.320648 0.865545 0.273660
O O1 0.816823 0.849951 0.251333
O O2 0.000000 0.846468 0.250000
O O3 0.065348 0.595772 0.389523
O O4 0.064187 0.095848 0.389729
O O5 0.730267 0.669954 0.564973
O O6 0.000000 0.654404 0.750000
O O7 0.500000 0.652407 0.750000
O O8 0.459842 0.604775 0.602668
O O9 0.681927 0.376094 0.776750
O O10 0.678604 0.875158 0.765764
O O11 0.500000 0.500000 0.500000
O O12 0.532807 0.152135 0.604021
#
# Coordination Sequence:
#
# PCOD8118634 Si02
#       5
#     4   4   4   4   4
#     4  10  20  34  55  85 127 157 190 241 316 364
#     4  10  21  34  54  85 129 158 184 245 317 359
#     4  10  23  41  64  88 123 162 209 259 301 357
#     4  10  23  37  65  96 123 152 217 256 307 357
#     4  10  22  38  65  89 120 162 211 245 305 364
#
# _framework density 19.976929999999999
#
# number of rings (size 3 to 8) (size 9 to 14) (size 15 to 20)
#    1.200    0.800    0.000    4.200    8.400    0.800 
#    0.000    0.000    0.000    7.200    0.000    0.000 
#    0.000    0.000    0.000    0.000    0.000    0.000 
#
# Total GULP energy -247771.626148 kJ/mol
# GULP energy per Si atom -12388.581307 kJ/mol
# Density = 1.993146 g / cm^3
# Si number density = 19.976930 Si / 1000 Ang^3
#
#
#
# Elastic Constant Matrix: (Units=GPa)
#
#
# Indices 1 2 3 4 5 6 
#
# 1 145.7980 51.8329 51.4576 0.0000 25.4422 0.0000
# 2 51.8329 196.4311 33.0847 0.0000 24.1738 0.0000
# 3 51.4576 33.0847 81.7591 0.0000 39.0288 0.0000
# 4 0.0000 0.0000 0.0000 16.8346 0.0000 14.1015
# 5 25.4422 24.1738 39.0288 0.0000 45.6912 0.0000
# 6 0.0000 0.0000 0.0000 14.1015 0.0000 32.5947
#
#
#
# Elastic Compliance Matrix: (Units=1/GPa)
#
#
# Indices 1 2 3 4 5 6 
#
# 1 0.009247 -0.001575 -0.005272 0.000000 0.000188 0.000000
# 2 -0.001575 0.005810 -0.000525 0.000000 -0.001748 0.000000
# 3 -0.005272 -0.000525 0.024023 0.000000 -0.017307 0.000000
# 4 0.000000 0.000000 0.000000 0.093163 0.000000 -0.040305
# 5 0.000188 -0.001748 -0.017307 0.000000 0.037490 0.000000
# 6 0.000000 0.000000 0.000000 -0.040305 0.000000 0.048117
#
#
# Mechanical properties :
#
#
# Convention : Reuss Voigt Hill
#
# Bulk Modulus (GPa) = 41.09197 77.41541 59.25369
# Shear Modulus (GPa) = 20.77214 38.19828 29.48521
#
# Velocity S-wave (km/s) = 3.22810 4.37752 3.84599
# Velocity P-wave (km/s) = 5.87440 8.02414 7.03190
#
# Compressibility (1/GPa) = 0.02433566
#
# Stress axis : x y z
#
# Youngs Moduli (GPa) = 108.14696 172.11462 41.62608
#
# Poissons Ratio (x) = 0.27110 0.21945
# Poissons Ratio (y) = 0.17034 0.02186
# Poissons Ratio (z) = 0.57014 0.09040
#
# Static dielectric constant tensor:
#      x y z
#    x 3.152560 0.000000 -0.144650 
#    y 0.000000 5.777250 0.000000 
#    z -0.144650 0.000000 2.522830 
# 
# 
# High freq. dielectric constant tensor:
#      x y z
#    x 1.763580 0.000000 0.032700 
#    y 0.000000 1.806370 0.000000 
#    z 0.032700 0.000000 1.737300 
# 
# From -- ./inp_files/58154.got.cif
#   From: 2010.06.25/outbox.cif.g09.slc.cpg/sg13_30_cif.got.tgz:58154.got - 2010.06.28 04:50:58.
