data_PCOD8118197
_publ_section_title
;
Structure prediction by ZEFSAII (Michael W. Deem and Ramdas Pophale) SiO2 
 PCOD8118197
Probable space group: P 2/C
;
_chemical_formula_sum "Si O2"
_cell_formula_units_Z 26
_cell_length_a 6.421628
_cell_length_b 11.319764
_cell_length_c 21.367624
_cell_angle_alpha 90.000000
_cell_angle_beta 53.655337
_cell_angle_gamma 90.000000
_cell_volume 1251.083396
_symmetry_space_group_name_H-M "P 2/C"
_symmetry_group_IT_number 13
_symmetry_cell_setting 'monoclinic'
loop_
_space_group_symop_operation_xyz
x,y,z
-x,y,1/2-z
-x,-y,-z
x,-y,1/2+z
loop_
_atom_site_type_symbol
_atom_site_label
_atom_site_fract_x
_atom_site_fract_y
_atom_site_fract_z
Si Si1 0.064104 0.291452 0.491814
Si Si2 0.662590 0.159410 0.952268
Si Si3 0.023830 0.008577 0.817715
Si Si4 0.482506 0.325682 0.629289
Si Si5 0.547612 0.557159 0.923902
Si Si6 0.132923 0.782067 0.599072
Si Si7 0.500000 0.172728 0.750000
O O1 0.145696 0.189042 0.525097
O O2 0.268825 0.395514 0.454650
O O3 0.784299 0.338041 0.560750
O O4 0.064619 0.242506 0.421513
O O5 0.672347 0.260539 0.897870
O O6 0.373575 0.143512 0.028583
O O7 0.761905 0.041858 0.900992
O O8 0.000000 0.041627 0.750000
O O9 0.033945 0.865902 0.824302
O O10 0.260203 0.084114 0.805047
O O11 0.371542 0.460230 0.643498
O O12 0.439201 0.259870 0.702825
O O13 0.763712 0.661151 0.887047
O O14 0.500000 0.500000 0.000000
#
# Coordination Sequence:
#
# PCOD8118197 Si02
#       7
#     4   4   4   4   4   4   2
#     4  10  19  36  64  97 126 155 206 270 323 368
#     4  10  20  39  67  95 123 158 211 274 315 367
#     4  12  25  44  64  87 134 171 216 262 313 392
#     4  11  21  38  61  99 123 160 217 251 328 377
#     4  11  20  37  67  94 126 159 205 272 321 376
#     4  10  24  39  64  99 123 169 208 263 331 378
#     4  12  26  40  64  94 128 184 212 262 324 386
#
# _framework density 20.781987999999998
#
# number of rings (size 3 to 8) (size 9 to 14) (size 15 to 20)
#    0.000    1.231    7.692    0.923    0.000    3.077 
#    0.000    1.538    0.000    0.000    0.000    0.000 
#    0.000    0.000    0.000    0.000    0.000    0.000 
#
# Total GULP energy -322177.794708 kJ/mol
# GULP energy per Si atom -12391.453643 kJ/mol
# Density = 2.073469 g / cm^3
# Si number density = 20.781988 Si / 1000 Ang^3
#
#
#
# Elastic Constant Matrix: (Units=GPa)
#
#
# Indices 1 2 3 4 5 6 
#
# 1 113.0846 50.3371 20.4812 0.0000 16.3462 0.0000
# 2 50.3371 146.8874 51.2506 0.0000 6.5199 0.0000
# 3 20.4812 51.2506 44.6018 0.0000 10.0187 0.0000
# 4 0.0000 0.0000 0.0000 33.6888 0.0000 8.5381
# 5 16.3462 6.5199 10.0187 0.0000 16.7850 0.0000
# 6 0.0000 0.0000 0.0000 8.5381 0.0000 16.9028
#
#
#
# Elastic Compliance Matrix: (Units=1/GPa)
#
#
# Indices 1 2 3 4 5 6 
#
# 1 0.012024 -0.004297 0.001931 0.000000 -0.011193 0.000000
# 2 -0.004297 0.013126 -0.014902 0.000000 0.007981 0.000000
# 3 0.001931 -0.014902 0.043629 0.000000 -0.022133 0.000000
# 4 0.000000 0.000000 0.000000 0.034041 0.000000 -0.017195
# 5 -0.011193 0.007981 -0.022133 0.000000 0.080588 0.000000
# 6 0.000000 0.000000 0.000000 -0.017195 0.000000 0.067848
#
#
# Mechanical properties :
#
#
# Convention : Reuss Voigt Hill
#
# Bulk Modulus (GPa) = 29.20401 60.96794 45.08598
# Shear Modulus (GPa) = 16.82327 25.64230 21.23279
#
# Velocity S-wave (km/s) = 2.84828 3.51646 3.19986
# Velocity P-wave (km/s) = 4.98999 6.77406 5.94928
#
# Compressibility (1/GPa) = 0.03424187
#
# Stress axis : x y z
#
# Youngs Moduli (GPa) = 83.16666 76.18605 22.92053
#
# Poissons Ratio (x) = 0.32740 -0.04425
# Poissons Ratio (y) = 0.35740 0.34156
# Poissons Ratio (z) = -0.16057 1.13531
#
# Static dielectric constant tensor:
#      x y z
#    x 4.146360 0.000000 0.174270 
#    y 0.000000 3.897540 0.000000 
#    z 0.174270 0.000000 3.503100 
# 
# 
# High freq. dielectric constant tensor:
#      x y z
#    x 1.824030 0.000000 0.011070 
#    y 0.000000 1.823010 0.000000 
#    z 0.011070 0.000000 1.779340 
# 
# From -- ./inp_files/61134.got.cif
#   From: 2010.06.25/outbox.cif.g09.slc.cpg/sg13_31_cif.got.tgz:61134.got - 2010.06.28 04:50:58.
