data_PCOD8118490
_publ_section_title
;
Structure prediction by ZEFSAII (Michael W. Deem and Ramdas Pophale) SiO2 
 PCOD8118490
Probable space group: P 2/C
;
_chemical_formula_sum "Si O2"
_cell_formula_units_Z 28
_cell_length_a 28.574684
_cell_length_b 8.998119
_cell_length_c 28.073660
_cell_angle_alpha 90.000000
_cell_angle_beta 169.254623
_cell_angle_gamma 90.000000
_cell_volume 1345.805807
_symmetry_space_group_name_H-M "P 2/C"
_symmetry_group_IT_number 13
_symmetry_cell_setting 'monoclinic'
loop_
_space_group_symop_operation_xyz
x,y,z
-x,y,1/2-z
-x,-y,-z
x,-y,1/2+z
loop_
_atom_site_type_symbol
_atom_site_label
_atom_site_fract_x
_atom_site_fract_y
_atom_site_fract_z
Si Si1 0.186932 0.250542 0.894307
Si Si2 0.993195 0.323251 0.886573
Si Si3 0.813073 0.250534 0.020447
Si Si4 0.493938 0.323581 0.440438
Si Si5 0.500000 0.500004 0.250000
Si Si6 0.493940 0.676422 0.047440
Si Si7 0.993193 0.676757 0.599815
Si Si8 0.500000 0.999997 0.750000
O O1 0.000000 0.260091 0.750000
O O2 0.033113 0.249829 0.691555
O O3 0.353066 0.398905 0.065018
O O4 0.342797 0.099731 0.055961
O O5 0.000002 0.500004 0.889229
O O6 0.754407 0.266632 0.678250
O O7 0.252799 0.265547 0.169531
O O8 0.966888 0.249820 0.125330
O O9 0.000000 0.260077 0.250000
O O10 0.646938 0.398897 0.858891
O O11 0.657196 0.099726 0.870359
O O12 0.499994 0.500002 0.447627
O O13 0.472137 0.259862 0.472137
O O14 0.252800 0.734455 0.836066
O O15 0.754404 0.733375 0.330560
#
# Coordination Sequence:
#
# PCOD8118490 Si02
#       8
#     4   4   4   4   2   4   4   2
#     4  11  23  39  58  87 120 159 202 251 298 370
#     4  10  20  31  57  85 118 159 196 244 301 359
#     4  11  23  39  58  87 120 159 202 251 298 370
#     4   9  18  32  50  82 122 156 193 242 301 360
#     4  10  22  34  60  84 122 154 190 254 306 346
#     4   9  18  32  50  82 122 156 193 242 301 360
#     4  10  20  31  57  85 118 159 196 244 301 359
#     4  10  26  42  60  76 126 158 210 246 310 350
#
# _framework density 20.805378999999999
#
# number of rings (size 3 to 8) (size 9 to 14) (size 15 to 20)
#    0.000    2.000    0.000    3.429   14.000    3.429 
#    0.000    0.000    0.000    0.000    0.000    6.000 
#    0.000    0.000    0.000    0.000    0.000    0.000 
#
# Total GULP energy -347159.815712 kJ/mol
# GULP energy per Si atom -12398.564847 kJ/mol
# Density = 2.075802 g / cm^3
# Si number density = 20.805379 Si / 1000 Ang^3
#
#
#
# Elastic Constant Matrix: (Units=GPa)
#
#
# Indices 1 2 3 4 5 6 
#
# 1 198.6148 31.5313 94.7056 0.0000 -1.4461 0.0000
# 2 31.5313 72.5210 37.0035 0.0000 0.7440 0.0000
# 3 94.7056 37.0035 178.5643 0.0000 -1.2835 0.0000
# 4 0.0000 0.0000 0.0000 -4.9801 0.0000 -7.6190
# 5 -1.4461 0.7440 -1.2835 0.0000 46.6679 0.0000
# 6 0.0000 0.0000 0.0000 -7.6190 0.0000 51.1295
#
#
#
# Elastic Compliance Matrix: (Units=1/GPa)
#
#
# Indices 1 2 3 4 5 6 
#
# 1 0.006841 -0.001258 -0.003366 0.000000 0.000139 0.000000
# 2 -0.001258 0.015656 -0.002580 0.000000 -0.000360 0.000000
# 3 -0.003366 -0.002580 0.007921 0.000000 0.000155 0.000000
# 4 0.000000 0.000000 0.000000 -0.163521 0.000000 -0.024367
# 5 0.000139 -0.000360 0.000155 0.000000 0.021442 0.000000
# 6 0.000000 0.000000 0.000000 -0.024367 0.000000 0.015927
#
#
# Mechanical properties :
#
#
# Convention : Reuss Voigt Hill
#
# Bulk Modulus (GPa) = 62.46159 86.24231 74.35195
# Shear Modulus (GPa) = -65.79980 37.66077 -14.06951
#
# Velocity S-wave (km/s) = -5.62983 4.25920 -2.60329
# Velocity P-wave (km/s) = 3.48898 8.10738 5.17478
#
# Compressibility (1/GPa) = 0.01600984
#
# Stress axis : x y z
#
# Youngs Moduli (GPa) = 146.18059 63.87298 126.23990
#
# Poissons Ratio (x) = 0.08035 0.42499
# Poissons Ratio (y) = 0.18390 0.32567
# Poissons Ratio (z) = 0.49212 0.16478
#
# Static dielectric constant tensor:
#      x y z
#    x 3.684840 0.000000 0.155070 
#    y 0.000000 3.318000 0.000000 
#    z 0.155070 0.000000 4.827460 
# 
# 
# High freq. dielectric constant tensor:
#      x y z
#    x 1.820280 0.000000 0.002010 
#    y 0.000000 1.763900 0.000000 
#    z 0.002010 0.000000 1.835080 
# 
# From -- ./inp_files/95424.got.cif
#   From: 2010.06.25/outbox.cif.g09.slc.cpg/sg13_48_cif.got.tgz:95424.got - 2010.06.28 04:50:58.
