data_PCOD8118844
_publ_section_title
;
Structure prediction by ZEFSAII (Michael W. Deem and Ramdas Pophale) SiO2 
 PCOD8118844
Probable space group: P 2/C
;
_chemical_formula_sum "Si O2"
_cell_formula_units_Z 26
_cell_length_a 14.578324
_cell_length_b 14.306404
_cell_length_c 8.582878
_cell_angle_alpha 90.000000
_cell_angle_beta 43.942563
_cell_angle_gamma 90.000000
_cell_volume 1242.198526
_symmetry_space_group_name_H-M "P 2/C"
_symmetry_group_IT_number 13
_symmetry_cell_setting 'monoclinic'
loop_
_space_group_symop_operation_xyz
x,y,z
-x,y,1/2-z
-x,-y,-z
x,-y,1/2+z
loop_
_atom_site_type_symbol
_atom_site_label
_atom_site_fract_x
_atom_site_fract_y
_atom_site_fract_z
Si Si1 0.147509 0.569329 0.101127
Si Si2 0.181609 0.621715 0.402697
Si Si3 0.404597 0.753726 0.090570
Si Si4 0.786404 0.900837 0.090583
Si Si5 0.000000 0.231787 0.250000
Si Si6 0.852431 0.910543 0.370669
Si Si7 0.685253 0.261639 0.152954
O O1 0.185132 0.572771 0.233989
O O2 0.000000 0.604341 0.250000
O O3 0.162277 0.460228 0.049052
O O4 0.245148 0.639804 0.890304
O O5 0.320627 0.671694 0.277418
O O6 0.060316 0.697452 0.545867
O O7 0.357828 0.854084 0.214435
O O8 0.370965 0.742682 0.951140
O O9 0.562437 0.747575 0.923970
O O10 0.852804 0.904102 0.182317
O O11 0.877433 0.837541 0.861865
O O12 0.767286 0.000654 0.033458
O O13 0.791397 0.821552 0.535029
O O14 0.000000 0.924642 0.250000
#
# Coordination Sequence:
#
# PCOD8118844 Si02
#       7
#     4   4   4   4   2   4   4
#     4  11  21  36  55  88 110 145 180 231 271 331
#     4  10  21  36  59  81 112 145 186 221 280 320
#     4   8  18  38  55  78 107 156 180 219 275 331
#     4  10  21  36  59  81 112 145 186 221 280 320
#     4  10  20  36  54  78 110 148 170 226 274 332
#     4  11  21  36  55  88 110 145 180 231 271 331
#     4   9  19  35  57  77 113 145 189 221 268 321
#
# _framework density 20.930631000000002
#
# number of rings (size 3 to 8) (size 9 to 14) (size 15 to 20)
#    0.000    2.154    1.538    2.308    0.000    1.231 
#    0.000    0.000    0.000    1.846    0.000    0.000 
#    0.000    0.000    0.000    0.000    0.000    0.000 
#
# Total GULP energy -322114.125816 kJ/mol
# GULP energy per Si atom -12389.004839 kJ/mol
# Density = 2.088299 g / cm^3
# Si number density = 20.930631 Si / 1000 Ang^3
#
#
#
# Elastic Constant Matrix: (Units=GPa)
#
#
# Indices 1 2 3 4 5 6 
#
# 1 26.8910 13.5332 18.5503 0.0000 -3.5195 0.0000
# 2 13.5332 114.3853 39.7912 0.0000 0.8164 0.0000
# 3 18.5503 39.7912 109.6960 0.0000 -22.0427 0.0000
# 4 0.0000 0.0000 0.0000 28.9999 0.0000 -8.7824
# 5 -3.5195 0.8164 -22.0427 0.0000 22.7378 0.0000
# 6 0.0000 0.0000 0.0000 -8.7824 0.0000 6.9930
#
#
#
# Elastic Compliance Matrix: (Units=1/GPa)
#
#
# Indices 1 2 3 4 5 6 
#
# 1 0.042951 -0.003009 -0.005979 0.000000 0.000960 0.000000
# 2 -0.003009 0.010659 -0.004382 0.000000 -0.005096 0.000000
# 3 -0.005979 -0.004382 0.014360 0.000000 0.013152 0.000000
# 4 0.000000 0.000000 0.000000 0.055647 0.000000 0.069887
# 5 0.000960 -0.005096 0.013152 0.000000 0.057062 0.000000
# 6 0.000000 0.000000 0.000000 0.069887 0.000000 0.230768
#
#
# Mechanical properties :
#
#
# Convention : Reuss Voigt Hill
#
# Bulk Modulus (GPa) = 24.25352 43.85795 34.05574
# Shear Modulus (GPa) = 11.06366 23.68600 17.37483
#
# Velocity S-wave (km/s) = 2.30160 3.36764 2.88430
# Velocity P-wave (km/s) = 4.32156 6.01006 5.23434
#
# Compressibility (1/GPa) = 0.04123113
#
# Stress axis : x y z
#
# Youngs Moduli (GPa) = 23.28210 93.81769 69.64019
#
# Poissons Ratio (x) = 0.28226 0.41639
# Poissons Ratio (y) = 0.07005 0.30514
# Poissons Ratio (z) = 0.13921 0.41108
#
# Static dielectric constant tensor:
#      x y z
#    x 3.293870 0.000000 -0.243470 
#    y 0.000000 4.075630 0.000000 
#    z -0.243470 0.000000 4.293200 
# 
# 
# High freq. dielectric constant tensor:
#      x y z
#    x 1.766720 0.000000 -0.011330 
#    y 0.000000 1.837910 0.000000 
#    z -0.011330 0.000000 1.830520 
# 
# From -- ./inp_files/19856.got.cif
#   From: 2010.06.25/outbox.cif.g09.slc.cpg/sg13_10_cif.got.tgz:19856.got - 2010.06.28 04:50:58.
