data_PCOD8118566
_publ_section_title
;
Structure prediction by ZEFSAII (Michael W. Deem and Ramdas Pophale) SiO2 
 PCOD8118566
Probable space group: P 2/C
;
_chemical_formula_sum "Si O2"
_cell_formula_units_Z 20
_cell_length_a 21.089642
_cell_length_b 8.816106
_cell_length_c 9.924035
_cell_angle_alpha 90.000000
_cell_angle_beta 144.542481
_cell_angle_gamma 90.000000
_cell_volume 1070.376468
_symmetry_space_group_name_H-M "P 2/C"
_symmetry_group_IT_number 13
_symmetry_cell_setting 'monoclinic'
loop_
_space_group_symop_operation_xyz
x,y,z
-x,y,1/2-z
-x,-y,-z
x,-y,1/2+z
loop_
_atom_site_type_symbol
_atom_site_label
_atom_site_fract_x
_atom_site_fract_y
_atom_site_fract_z
Si Si1 0.948509 0.316040 0.794896
Si Si2 0.505890 0.140685 0.107871
Si Si3 0.289623 0.655113 0.543292
Si Si4 0.076183 0.675736 0.767992
Si Si5 0.693382 0.367039 0.741336
O O1 0.825594 0.264233 0.618846
O O2 0.939833 0.495846 0.764390
O O3 0.000000 0.242424 0.750000
O O4 0.035555 0.259060 0.056014
O O5 0.500000 0.080084 0.250000
O O6 0.621744 0.216447 0.282354
O O7 0.410717 0.261750 0.914462
O O8 0.500000 0.000000 0.000000
O O9 0.321581 0.521100 0.700954
O O10 0.288684 0.594781 0.386491
O O11 0.000000 0.748536 0.750000
O O12 0.200915 0.720035 0.015898
#
# Coordination Sequence:
#
# PCOD8118566 Si02
#       5
#     4   4   4   4   4
#     4   9  17  27  46  77 112 140 168 209 260 316
#     4  10  23  42  57  75 105 143 183 224 268 318
#     4  10  20  34  55  83 112 137 176 223 263 313
#     4   9  15  27  46  75 111 139 166 207 264 313
#     4  10  20  33  56  84 110 138 176 221 265 313
#
# _framework density 18.685013999999999
#
# number of rings (size 3 to 8) (size 9 to 14) (size 15 to 20)
#    0.000    2.400    2.000    0.600    8.400    1.600 
#    0.000    0.000    0.000    2.400    0.000    0.000 
#    0.000    0.000    0.000    0.000    0.000    0.000 
#
# Total GULP energy -247883.706910 kJ/mol
# GULP energy per Si atom -12394.185345 kJ/mol
# Density = 1.864249 g / cm^3
# Si number density = 18.685014 Si / 1000 Ang^3
#
#
#
# Elastic Constant Matrix: (Units=GPa)
#
#
# Indices 1 2 3 4 5 6 
#
# 1 157.1495 46.0346 87.6558 0.0000 -3.1138 0.0000
# 2 46.0346 49.3935 44.2452 0.0000 -6.3564 0.0000
# 3 87.6558 44.2452 158.5034 0.0000 -5.7654 0.0000
# 4 0.0000 0.0000 0.0000 14.2845 0.0000 -11.2754
# 5 -3.1138 -6.3564 -5.7654 0.0000 35.6522 0.0000
# 6 0.0000 0.0000 0.0000 -11.2754 0.0000 13.0281
#
#
#
# Elastic Compliance Matrix: (Units=1/GPa)
#
#
# Indices 1 2 3 4 5 6 
#
# 1 0.010429 -0.006181 -0.004073 0.000000 -0.000850 0.000000
# 2 -0.006181 0.031130 -0.005120 0.000000 0.004182 0.000000
# 3 -0.004073 -0.005120 0.010003 0.000000 0.000349 0.000000
# 4 0.000000 0.000000 0.000000 0.220944 0.000000 0.191219
# 5 -0.000850 0.004182 0.000349 0.000000 0.028777 0.000000
# 6 0.000000 0.000000 0.000000 0.191219 0.000000 0.242251
#
#
# Mechanical properties :
#
#
# Convention : Reuss Voigt Hill
#
# Bulk Modulus (GPa) = 48.04042 80.10196 64.07119
# Shear Modulus (GPa) = 8.60260 25.06700 16.83480
#
# Velocity S-wave (km/s) = 2.14802 3.66670 3.00489
# Velocity P-wave (km/s) = 5.64965 7.80314 6.81203
#
# Compressibility (1/GPa) = 0.02081580
#
# Stress axis : x y z
#
# Youngs Moduli (GPa) = 95.88710 32.12323 99.96664
#
# Poissons Ratio (x) = 0.19854 0.40717
# Poissons Ratio (y) = 0.59263 0.51180
# Poissons Ratio (z) = 0.39056 0.16446
#
# Static dielectric constant tensor:
#      x y z
#    x 3.808180 0.000000 -0.004990 
#    y 0.000000 2.758630 0.000000 
#    z -0.004990 0.000000 3.823390 
# 
# 
# High freq. dielectric constant tensor:
#      x y z
#    x 1.745890 0.000000 0.001470 
#    y 0.000000 1.657490 0.000000 
#    z 0.001470 0.000000 1.749960 
# 
# From -- ./inp_files/20825.got.cif
#   From: 2010.06.25/outbox.cif.g09.slc.cpg/sg13_11_cif.got.tgz:20825.got - 2010.06.28 04:50:58.
