data_PCOD8118444
_publ_section_title
;
Structure prediction by ZEFSAII (Michael W. Deem and Ramdas Pophale) SiO2 
 PCOD8118444
Probable space group: P 2/C
;
_chemical_formula_sum "Si O2"
_cell_formula_units_Z 30
_cell_length_a 15.691776
_cell_length_b 13.661290
_cell_length_c 16.615321
_cell_angle_alpha 90.000000
_cell_angle_beta 25.385163
_cell_angle_gamma 90.000000
_cell_volume 1526.958529
_symmetry_space_group_name_H-M "P 2/C"
_symmetry_group_IT_number 13
_symmetry_cell_setting 'monoclinic'
loop_
_space_group_symop_operation_xyz
x,y,z
-x,y,1/2-z
-x,-y,-z
x,-y,1/2+z
loop_
_atom_site_type_symbol
_atom_site_label
_atom_site_fract_x
_atom_site_fract_y
_atom_site_fract_z
Si Si1 0.937288 0.181848 0.212579
Si Si2 0.517631 0.426893 0.382612
Si Si3 0.819565 0.956349 0.105108
Si Si4 0.344559 0.376974 0.691329
Si Si5 0.300334 0.163821 0.302681
Si Si6 0.500000 0.698176 0.750000
Si Si7 0.508025 0.832864 0.029098
Si Si8 0.082491 0.683068 0.906142
O O1 0.717814 0.133565 0.390047
O O2 0.928306 0.289916 0.179420
O O3 0.000000 0.196677 0.250000
O O4 0.109604 0.115603 0.025407
O O5 0.357795 0.416102 0.589169
O O6 0.557564 0.542302 0.332343
O O7 0.421570 0.374421 0.386830
O O8 0.723591 0.377710 0.235953
O O9 0.661566 0.908734 0.301183
O O10 0.717823 0.052482 0.152111
O O11 0.000000 0.000000 0.000000
O O12 0.449322 0.273094 0.614852
O O13 0.110375 0.375204 0.904932
O O14 0.338036 0.230049 0.349228
O O15 0.096724 0.209036 0.437667
O O16 0.470239 0.172462 0.087057
#
# Coordination Sequence:
#
# PCOD8118444 Si02
#       8
#     4   4   4   4   4   2   4   4
#     4  11  24  39  57  88 127 152 205 260 298 356
#     4  10  22  38  63  88 121 157 210 244 306 375
#     4  12  22  41  65  90 117 168 212 238 309 385
#     4  11  19  38  66  87 112 168 205 244 303 370
#     4  10  21  38  63  88 123 160 201 253 304 364
#     4  10  20  42  58  88 132 148 192 264 304 352
#     4  11  21  40  65  87 122 162 206 252 304 363
#     4  10  19  41  59  86 117 160 201 248 300 360
#
# _framework density 19.646899999999999
#
# number of rings (size 3 to 8) (size 9 to 14) (size 15 to 20)
#    0.000    1.333    8.000    0.800    0.000    1.600 
#    2.400    2.667    0.000    0.000    0.000    0.000 
#    0.000    0.000    0.000    0.000    0.000    0.000 
#
# Total GULP energy -371754.579327 kJ/mol
# GULP energy per Si atom -12391.819311 kJ/mol
# Density = 1.960218 g / cm^3
# Si number density = 19.646900 Si / 1000 Ang^3
#
#
#
# Elastic Constant Matrix: (Units=GPa)
#
#
# Indices 1 2 3 4 5 6 
#
# 1 107.7808 34.4790 45.3518 0.0000 15.5625 0.0000
# 2 34.4790 113.7808 29.5038 0.0000 5.5678 0.0000
# 3 45.3518 29.5038 112.4006 0.0000 -4.7530 0.0000
# 4 0.0000 0.0000 0.0000 36.4650 0.0000 -2.0077
# 5 15.5625 5.5678 -4.7530 0.0000 18.4015 0.0000
# 6 0.0000 0.0000 0.0000 -2.0077 0.0000 28.9750
#
#
#
# Elastic Compliance Matrix: (Units=1/GPa)
#
#
# Indices 1 2 3 4 5 6 
#
# 1 0.014243 -0.002206 -0.005711 0.000000 -0.012853 0.000000
# 2 -0.002206 0.010005 -0.001805 0.000000 -0.001628 0.000000
# 3 -0.005711 -0.001805 0.012034 0.000000 0.008484 0.000000
# 4 0.000000 0.000000 0.000000 0.027529 0.000000 0.001908
# 5 -0.012853 -0.001628 0.008484 0.000000 0.067897 0.000000
# 6 0.000000 0.000000 0.000000 0.001908 0.000000 0.034645
#
#
# Mechanical properties :
#
#
# Convention : Reuss Voigt Hill
#
# Bulk Modulus (GPa) = 59.39258 61.40350 60.39804
# Shear Modulus (GPa) = 26.12208 31.74347 28.93277
#
# Velocity S-wave (km/s) = 3.65029 4.02394 3.84166
# Velocity P-wave (km/s) = 6.93266 7.27398 7.10537
#
# Compressibility (1/GPa) = 0.01683712
#
# Stress axis : x y z
#
# Youngs Moduli (GPa) = 70.21074 99.94985 83.10024
#
# Poissons Ratio (x) = 0.22050 0.47460
# Poissons Ratio (y) = 0.15489 0.14999
# Poissons Ratio (z) = 0.40099 0.18040
#
# Static dielectric constant tensor:
#      x y z
#    x 3.412250 0.000000 0.043340 
#    y 0.000000 4.181460 0.000000 
#    z 0.043340 0.000000 3.649790 
# 
# 
# High freq. dielectric constant tensor:
#      x y z
#    x 1.733300 0.000000 0.000180 
#    y 0.000000 1.784620 0.000000 
#    z 0.000180 0.000000 1.760950 
# 
# From -- ./inp_files/53867.got.cif
#   From: 2010.06.25/outbox.cif.g09.slc.cpg/sg13_27_cif.got.tgz:53867.got - 2010.06.28 04:50:58.
