data_PCOD8118867
_publ_section_title
;
Structure prediction by ZEFSAII (Michael W. Deem and Ramdas Pophale) SiO2 
 PCOD8118867
Probable space group: P 2/C
;
_chemical_formula_sum "Si O2"
_cell_formula_units_Z 26
_cell_length_a 13.177200
_cell_length_b 21.374331
_cell_length_c 5.575271
_cell_angle_alpha 90.000000
_cell_angle_beta 60.208621
_cell_angle_gamma 90.000000
_cell_volume 1362.766422
_symmetry_space_group_name_H-M "P 2/C"
_symmetry_group_IT_number 13
_symmetry_cell_setting 'monoclinic'
loop_
_space_group_symop_operation_xyz
x,y,z
-x,y,1/2-z
-x,-y,-z
x,-y,1/2+z
loop_
_atom_site_type_symbol
_atom_site_label
_atom_site_fract_x
_atom_site_fract_y
_atom_site_fract_z
Si Si1 0.159931 0.334221 0.927315
Si Si2 0.372558 0.715819 0.929629
Si Si3 0.000000 0.729336 0.250000
Si Si4 0.866465 0.473994 0.412795
Si Si5 0.379760 0.837901 0.248720
Si Si6 0.787283 0.232829 0.261702
Si Si7 0.631825 0.975833 0.359970
O O1 0.286842 0.334591 0.650498
O O2 0.052292 0.320125 0.877693
O O3 0.142848 0.399373 0.080667
O O4 0.154049 0.277842 0.117088
O O5 0.500000 0.684689 0.750000
O O6 0.322948 0.732545 0.727817
O O7 0.384162 0.779540 0.066377
O O8 0.895531 0.777256 0.451328
O O9 0.808182 0.500531 0.730712
O O10 0.000000 0.497130 0.250000
O O11 0.500000 0.843357 0.250000
O O12 0.266454 0.829926 0.557522
O O13 0.361681 0.901022 0.119940
O O14 0.500000 0.000000 0.500000
O O15 0.691891 0.003373 0.533944
#
# Coordination Sequence:
#
# PCOD8118867 Si02
#       7
#     4   4   2   4   4   4   4
#     4  10  22  36  56  82 116 148 183 240 287 347
#     4  10  21  33  56  81 111 151 188 236 286 339
#     4  10  20  36  56  80 116 146 190 226 300 344
#     4  10  22  35  57  85 113 146 188 235 290 343
#     4  11  20  32  52  79 118 144 192 234 284 343
#     4  10  21  34  55  81 111 152 184 240 287 335
#     4  10  21  32  50  78 112 157 184 231 287 343
#
# _framework density 19.07884
#
# number of rings (size 3 to 8) (size 9 to 14) (size 15 to 20)
#    0.000    1.846    3.077    1.385   11.846    0.000 
#    0.000    0.000    0.000    0.923    0.000    1.077 
#    0.000    0.000    0.000    0.000    0.000    0.000 
#
# Total GULP energy -322151.155018 kJ/mol
# GULP energy per Si atom -12390.429039 kJ/mol
# Density = 1.903542 g / cm^3
# Si number density = 19.078840 Si / 1000 Ang^3
#
#
#
# Elastic Constant Matrix: (Units=GPa)
#
#
# Indices 1 2 3 4 5 6 
#
# 1 78.9538 6.8435 33.1235 0.0000 2.0358 0.0000
# 2 6.8435 68.3530 19.8338 0.0000 2.2832 0.0000
# 3 33.1235 19.8338 87.7826 0.0000 5.3583 0.0000
# 4 0.0000 0.0000 0.0000 27.1881 0.0000 -6.8051
# 5 2.0358 2.2832 5.3583 0.0000 45.0846 0.0000
# 6 0.0000 0.0000 0.0000 -6.8051 0.0000 3.0008
#
#
#
# Elastic Compliance Matrix: (Units=1/GPa)
#
#
# Indices 1 2 3 4 5 6 
#
# 1 0.015049 0.000151 -0.005712 0.000000 -0.000008 0.000000
# 2 0.000151 0.015664 -0.003573 0.000000 -0.000375 0.000000
# 3 -0.005712 -0.003573 0.014432 0.000000 -0.001276 0.000000
# 4 0.000000 0.000000 0.000000 0.085065 0.000000 0.192910
# 5 -0.000008 -0.000375 -0.001276 0.000000 0.022352 0.000000
# 6 0.000000 0.000000 0.000000 0.192910 0.000000 0.770729
#
#
# Mechanical properties :
#
#
# Convention : Reuss Voigt Hill
#
# Bulk Modulus (GPa) = 37.20656 39.41009 38.30833
# Shear Modulus (GPa) = 5.26028 26.74061 16.00044
#
# Velocity S-wave (km/s) = 1.66226 3.74784 2.89908
# Velocity P-wave (km/s) = 4.81954 6.27930 5.59721
#
# Compressibility (1/GPa) = 0.02687698
#
# Stress axis : x y z
#
# Youngs Moduli (GPa) = 66.44873 63.83988 69.28823
#
# Poissons Ratio (x) = -0.00964 0.39579
# Poissons Ratio (y) = -0.01004 0.24759
# Poissons Ratio (z) = 0.37957 0.22812
#
# Static dielectric constant tensor:
#      x y z
#    x 3.627820 0.000000 0.292300 
#    y 0.000000 3.266350 0.000000 
#    z 0.292300 0.000000 4.239750 
# 
# 
# High freq. dielectric constant tensor:
#      x y z
#    x 1.720430 0.000000 0.025270 
#    y 0.000000 1.711630 0.000000 
#    z 0.025270 0.000000 1.757050 
# 
# From -- ./inp_files/4061.got.cif
#   From: 2010.06.25/outbox.cif.g09.slc.cpg/sg13_3_cif.got.tgz:4061.got - 2010.06.28 04:50:58.
