data_PCOD8118624
_publ_section_title
;
Structure prediction by ZEFSAII (Michael W. Deem and Ramdas Pophale) SiO2 
 PCOD8118624
Probable space group: P 2/C
;
_chemical_formula_sum "Si O2"
_cell_formula_units_Z 32
_cell_length_a 13.736321
_cell_length_b 14.970545
_cell_length_c 10.076078
_cell_angle_alpha 90.000000
_cell_angle_beta 133.055857
_cell_angle_gamma 90.000000
_cell_volume 1514.020740
_symmetry_space_group_name_H-M "P 2/C"
_symmetry_group_IT_number 13
_symmetry_cell_setting 'monoclinic'
loop_
_space_group_symop_operation_xyz
x,y,z
-x,y,1/2-z
-x,-y,-z
x,-y,1/2+z
loop_
_atom_site_type_symbol
_atom_site_label
_atom_site_fract_x
_atom_site_fract_y
_atom_site_fract_z
Si Si1 0.914062 0.982541 0.548401
Si Si2 0.731158 0.229061 0.592199
Si Si3 0.954105 0.798638 0.507230
Si Si4 0.504166 0.912023 0.911863
Si Si5 0.222512 0.479198 0.192264
Si Si6 0.357663 0.425363 0.048637
Si Si7 0.991561 0.607415 0.599592
Si Si8 0.771383 0.852182 0.859521
O O1 0.881590 0.876679 0.525653
O O2 0.000000 0.017126 0.750000
O O3 0.784068 0.044682 0.424146
O O4 0.000000 0.000000 0.500000
O O5 0.870699 0.221174 0.797646
O O6 0.631556 0.152206 0.555105
O O7 0.665139 0.327304 0.535477
O O8 0.771697 0.217522 0.478279
O O9 0.951963 0.709531 0.590921
O O10 0.107556 0.827446 0.624293
O O11 0.500000 0.935566 0.750000
O O12 0.376409 0.852795 0.840903
O O13 0.500000 0.000000 0.000000
O O14 0.262708 0.453565 0.081202
O O15 0.338953 0.505286 0.406807
O O16 0.136968 0.395368 0.166341
O O17 0.120879 0.562823 0.096552
O O18 0.500000 0.432727 0.250000
O O19 0.000000 0.558532 0.750000
#
# Coordination Sequence:
#
# PCOD8118624 Si02
#       8
#     4   4   4   4   4   4   4   4
#     4  10  20  34  54  85 121 159 202 257 310 367
#     4  11  22  39  62  93 126 167 214 266 317 390
#     4  11  21  35  60  90 125 163 211 271 321 381
#     4  10  22  40  62  88 128 171 216 263 320 383
#     4  11  24  42  67  96 127 168 214 273 339 402
#     4  12  24  44  69  97 130 173 222 273 335 407
#     4  11  22  40  63  92 132 165 210 273 341 399
#     4  10  20  36  58  89 119 166 216 258 312 382
#
# _framework density 21.135771999999999
#
# number of rings (size 3 to 8) (size 9 to 14) (size 15 to 20)
#    0.000    1.250    2.500    5.250    0.000    3.000 
#    0.000    1.250    0.000    0.000    0.000    0.000 
#    0.000    0.000    0.000    0.000    0.000    0.000 
#
# Total GULP energy -396471.198444 kJ/mol
# GULP energy per Si atom -12389.724951 kJ/mol
# Density = 2.108767 g / cm^3
# Si number density = 21.135772 Si / 1000 Ang^3
#
#
#
# Elastic Constant Matrix: (Units=GPa)
#
#
# Indices 1 2 3 4 5 6 
#
# 1 60.6436 7.4762 27.6452 0.0000 1.6635 0.0000
# 2 7.4762 91.9852 9.2278 0.0000 2.9322 0.0000
# 3 27.6452 9.2278 92.8898 0.0000 2.1480 0.0000
# 4 0.0000 0.0000 0.0000 25.9235 0.0000 -5.0864
# 5 1.6635 2.9322 2.1480 0.0000 34.0954 0.0000
# 6 0.0000 0.0000 0.0000 -5.0864 0.0000 26.7547
#
#
#
# Elastic Compliance Matrix: (Units=1/GPa)
#
#
# Indices 1 2 3 4 5 6 
#
# 1 0.019176 -0.000981 -0.005598 0.000000 -0.000499 0.000000
# 2 -0.000981 0.011057 -0.000787 0.000000 -0.000853 0.000000
# 3 -0.005598 -0.000787 0.012520 0.000000 -0.000448 0.000000
# 4 0.000000 0.000000 0.000000 0.040070 0.000000 0.007618
# 5 -0.000499 -0.000853 -0.000448 0.000000 0.029455 0.000000
# 6 0.000000 0.000000 0.000000 0.007618 0.000000 0.038825
#
#
# Mechanical properties :
#
#
# Convention : Reuss Voigt Hill
#
# Bulk Modulus (GPa) = 35.68662 37.13522 36.41092
# Shear Modulus (GPa) = 28.54271 30.76601 29.65436
#
# Velocity S-wave (km/s) = 3.67883 3.81942 3.74978
# Velocity P-wave (km/s) = 5.91322 6.08758 6.00103
#
# Compressibility (1/GPa) = 0.02802171
#
# Stress axis : x y z
#
# Youngs Moduli (GPa) = 52.14743 90.43894 79.87197
#
# Poissons Ratio (x) = 0.08873 0.44713
# Poissons Ratio (y) = 0.05116 0.06284
# Poissons Ratio (z) = 0.29193 0.07115
#
# Static dielectric constant tensor:
#      x y z
#    x 3.682490 0.000000 0.113480 
#    y 0.000000 4.298170 0.000000 
#    z 0.113480 0.000000 3.935370 
# 
# 
# High freq. dielectric constant tensor:
#      x y z
#    x 1.812460 0.000000 0.001170 
#    y 0.000000 1.832970 0.000000 
#    z 0.001170 0.000000 1.835060 
# 
# From -- ./inp_files/37550.got.cif
#   From: 2010.06.25/outbox.cif.g09.slc.cpg/sg13_19_cif.got.tgz:37550.got - 2010.06.28 04:50:58.
