data_PCOD8118622
_publ_section_title
;
Structure prediction by ZEFSAII (Michael W. Deem and Ramdas Pophale) SiO2 
 PCOD8118622
Probable space group: P 2/C
;
_chemical_formula_sum "Si O2"
_cell_formula_units_Z 28
_cell_length_a 12.316303
_cell_length_b 8.983985
_cell_length_c 27.878460
_cell_angle_alpha 90.000000
_cell_angle_beta 153.441135
_cell_angle_gamma 90.000000
_cell_volume 1379.238485
_symmetry_space_group_name_H-M "P 2/C"
_symmetry_group_IT_number 13
_symmetry_cell_setting 'monoclinic'
loop_
_space_group_symop_operation_xyz
x,y,z
-x,y,1/2-z
-x,-y,-z
x,-y,1/2+z
loop_
_atom_site_type_symbol
_atom_site_label
_atom_site_fract_x
_atom_site_fract_y
_atom_site_fract_z
Si Si1 0.551034 0.344504 0.714574
Si Si2 0.324495 0.353348 0.283729
Si Si3 0.732786 0.131328 0.316886
Si Si4 0.608654 0.327765 0.489536
Si Si5 0.855756 0.413696 0.146644
Si Si6 0.005550 0.159938 0.597262
Si Si7 0.977381 0.676134 0.496780
O O1 0.500000 0.360545 0.750000
O O2 0.660848 0.500628 0.742205
O O3 0.750718 0.220467 0.780968
O O4 0.294541 0.293394 0.590340
O O5 0.378685 0.204273 0.275235
O O6 0.516520 0.383517 0.401626
O O7 0.050020 0.321739 0.193038
O O8 0.500000 0.051767 0.250000
O O9 0.834321 0.264966 0.389692
O O10 0.950373 0.014873 0.394039
O O11 0.366209 0.301781 0.426209
O O12 0.765497 0.451291 0.578310
O O13 0.779330 0.184726 0.545008
O O14 0.000000 0.479420 0.250000
O O15 0.962679 0.244457 0.530083
O O16 0.000000 0.500000 0.500000
#
# Coordination Sequence:
#
# PCOD8118622 Si02
#       7
#     4   4   4   4   4   4   4
#     4  10  20  34  54  84 118 152 200 253 292 356
#     4  11  21  36  61  90 118 156 204 252 309 356
#     4  12  24  38  56  87 130 171 203 240 305 372
#     4  10  20  38  64  89 119 150 202 257 316 358
#     4   9  20  38  64  94 118 147 197 268 315 363
#     4  11  22  38  57  84 124 164 201 245 303 369
#     4  11  22  36  58  86 120 164 209 255 294 354
#
# _framework density 20.301057
#
# number of rings (size 3 to 8) (size 9 to 14) (size 15 to 20)
#    0.000    1.429    1.429    6.429    2.000    1.143 
#    0.000    0.714    0.000    2.571    0.000    0.000 
#    0.000    0.000    0.000    0.000    0.000    0.000 
#
# Total GULP energy -346960.905286 kJ/mol
# GULP energy per Si atom -12391.460903 kJ/mol
# Density = 2.025485 g / cm^3
# Si number density = 20.301057 Si / 1000 Ang^3
#
#
#
# Elastic Constant Matrix: (Units=GPa)
#
#
# Indices 1 2 3 4 5 6 
#
# 1 102.6851 37.8545 45.1666 0.0000 28.4782 0.0000
# 2 37.8545 87.5737 24.1477 0.0000 -1.2256 0.0000
# 3 45.1666 24.1477 102.0721 0.0000 16.2399 0.0000
# 4 0.0000 0.0000 0.0000 18.4876 0.0000 10.8676
# 5 28.4782 -1.2256 16.2399 0.0000 35.0179 0.0000
# 6 0.0000 0.0000 0.0000 10.8676 0.0000 24.0007
#
#
#
# Elastic Compliance Matrix: (Units=1/GPa)
#
#
# Indices 1 2 3 4 5 6 
#
# 1 0.017467 -0.006571 -0.004187 0.000000 -0.012493 0.000000
# 2 -0.006571 0.014807 -0.001650 0.000000 0.006627 0.000000
# 3 -0.004187 -0.001650 0.012424 0.000000 -0.002415 0.000000
# 4 0.000000 0.000000 0.000000 0.073709 0.000000 -0.033376
# 5 -0.012493 0.006627 -0.002415 0.000000 0.040069 0.000000
# 6 0.000000 0.000000 0.000000 -0.033376 0.000000 0.056778
#
#
# Mechanical properties :
#
#
# Convention : Reuss Voigt Hill
#
# Bulk Modulus (GPa) = 50.29336 56.29648 53.29492
# Shear Modulus (GPa) = 20.26772 27.84538 24.05655
#
# Velocity S-wave (km/s) = 3.16311 3.70756 3.44610
# Velocity P-wave (km/s) = 6.17802 6.79110 6.49180
#
# Compressibility (1/GPa) = 0.01988334
#
# Stress axis : x y z
#
# Youngs Moduli (GPa) = 57.24970 67.53626 80.48809
#
# Poissons Ratio (x) = 0.44376 0.33701
# Poissons Ratio (y) = 0.37617 0.13279
# Poissons Ratio (z) = 0.23971 0.11142
#
# Static dielectric constant tensor:
#      x y z
#    x 4.016130 0.000000 0.366340 
#    y 0.000000 3.279760 0.000000 
#    z 0.366340 0.000000 4.400280 
# 
# 
# High freq. dielectric constant tensor:
#      x y z
#    x 1.792340 0.000000 0.016260 
#    y 0.000000 1.752380 0.000000 
#    z 0.016260 0.000000 1.816480 
# 
# From -- ./inp_files/92259.got.cif
#   From: 2010.06.25/outbox.cif.g09.slc.cpg/sg13_47_cif.got.tgz:92259.got - 2010.06.28 04:50:58.
