data_PCOD8118120
_publ_section_title
;
Structure prediction by ZEFSAII (Michael W. Deem and Ramdas Pophale) SiO2 
 PCOD8118120
Probable space group: P 2/C
;
_chemical_formula_sum "Si O2"
_cell_formula_units_Z 18
_cell_length_a 24.891741
_cell_length_b 7.705755
_cell_length_c 5.202400
_cell_angle_alpha 90.000000
_cell_angle_beta 120.830921
_cell_angle_gamma 90.000000
_cell_volume 856.854924
_symmetry_space_group_name_H-M "P 2/C"
_symmetry_group_IT_number 13
_symmetry_cell_setting 'monoclinic'
loop_
_space_group_symop_operation_xyz
x,y,z
-x,y,1/2-z
-x,-y,-z
x,-y,1/2+z
loop_
_atom_site_type_symbol
_atom_site_label
_atom_site_fract_x
_atom_site_fract_y
_atom_site_fract_z
Si Si1 0.429982 0.925052 0.822210
Si Si2 0.246917 0.115604 0.876828
Si Si3 0.000000 0.385820 0.250000
Si Si4 0.641929 0.612363 0.904238
Si Si5 0.135916 0.619404 0.089599
O O1 0.424563 0.715805 0.787653
O O2 0.394681 0.010429 0.491991
O O3 0.500000 0.000000 0.000000
O O4 0.183794 0.224161 0.695079
O O5 0.248838 0.973434 0.658760
O O6 0.304894 0.245360 0.998054
O O7 0.000000 0.500000 0.500000
O O8 0.066838 0.286075 0.414787
O O9 0.646813 0.467087 0.699160
O O10 0.145978 0.507168 0.371660
#
# Coordination Sequence:
#
# PCOD8118120 Si02
#       5
#     4   4   2   4   4
#     4  10  21  41  63  86 120 156 184 226 289 344
#     4  12  24  39  59  86 119 156 191 239 300 347
#     4   8  16  30  54  80 110 150 192 238 290 336
#     4  12  24  41  64  91 116 151 198 242 280 339
#     4  10  19  36  58  84 114 152 199 243 284 344
#
# _framework density 21.007057
#
# number of rings (size 3 to 8) (size 9 to 14) (size 15 to 20)
#    0.000    1.333    0.000    6.667    0.000    0.000 
#    0.000   14.444    0.000    0.000    0.000    0.000 
#    0.000    0.000    0.000    0.000    0.000    0.000 
#
# Total GULP energy -223010.024162 kJ/mol
# GULP energy per Si atom -12389.445787 kJ/mol
# Density = 2.095924 g / cm^3
# Si number density = 21.007057 Si / 1000 Ang^3
#
#
#
# Elastic Constant Matrix: (Units=GPa)
#
#
# Indices 1 2 3 4 5 6 
#
# 1 80.9905 35.9470 41.3464 0.0000 20.9935 0.0000
# 2 35.9470 87.0940 28.4021 0.0000 17.4749 0.0000
# 3 41.3464 28.4021 98.0931 0.0000 -28.0213 0.0000
# 4 0.0000 0.0000 0.0000 47.3327 0.0000 -8.2860
# 5 20.9935 17.4749 -28.0213 0.0000 51.6562 0.0000
# 6 0.0000 0.0000 0.0000 -8.2860 0.0000 35.2620
#
#
#
# Elastic Compliance Matrix: (Units=1/GPa)
#
#
# Indices 1 2 3 4 5 6 
#
# 1 0.025935 -0.001927 -0.015619 0.000000 -0.018361 0.000000
# 2 -0.001927 0.015800 -0.005994 0.000000 -0.007814 0.000000
# 3 -0.015619 -0.005994 0.024740 0.000000 0.021796 0.000000
# 4 0.000000 0.000000 0.000000 0.022033 0.000000 0.005177
# 5 -0.018361 -0.007814 0.021796 0.000000 0.041287 0.000000
# 6 0.000000 0.000000 0.000000 0.005177 0.000000 0.029576
#
#
# Mechanical properties :
#
#
# Convention : Reuss Voigt Hill
#
# Bulk Modulus (GPa) = 51.56232 53.06319 52.31275
# Shear Modulus (GPa) = 23.48337 37.54898 30.51618
#
# Velocity S-wave (km/s) = 3.34710 4.23241 3.81552
# Velocity P-wave (km/s) = 6.28776 7.01419 6.66089
#
# Compressibility (1/GPa) = 0.01939401
#
# Stress axis : x y z
#
# Youngs Moduli (GPa) = 38.55743 63.29188 40.42104
#
# Poissons Ratio (x) = 0.12197 0.63133
# Poissons Ratio (y) = 0.07430 0.24230
# Poissons Ratio (z) = 0.60222 0.37940
#
# Static dielectric constant tensor:
#      x y z
#    x 3.490630 0.000000 1.835940 
#    y 0.000000 3.758350 0.000000 
#    z 1.835940 0.000000 1.021060 
# 
# 
# High freq. dielectric constant tensor:
#      x y z
#    x 1.842070 0.000000 -0.010610 
#    y 0.000000 1.799130 0.000000 
#    z -0.010610 0.000000 1.855120 
# 
# From -- ./inp_files/7217.got.cif
#   From: 2010.06.25/outbox.cif.g09.slc.cpg/sg13_4_cif.got.tgz:7217.got - 2010.06.28 04:50:58.
