data_PCOD8118887
_publ_section_title
;
Structure prediction by ZEFSAII (Michael W. Deem and Ramdas Pophale) SiO2 
 PCOD8118887
Probable space group: P 2/C
;
_chemical_formula_sum "Si O2"
_cell_formula_units_Z 20
_cell_length_a 15.927249
_cell_length_b 9.250111
_cell_length_c 8.935232
_cell_angle_alpha 90.000000
_cell_angle_beta 47.253174
_cell_angle_gamma 90.000000
_cell_volume 966.724280
_symmetry_space_group_name_H-M "P 2/C"
_symmetry_group_IT_number 13
_symmetry_cell_setting 'monoclinic'
loop_
_space_group_symop_operation_xyz
x,y,z
-x,y,1/2-z
-x,-y,-z
x,-y,1/2+z
loop_
_atom_site_type_symbol
_atom_site_label
_atom_site_fract_x
_atom_site_fract_y
_atom_site_fract_z
Si Si1 0.601823 0.892736 0.017361
Si Si2 0.982375 0.342617 0.593321
Si Si3 0.766103 0.391175 0.697417
Si Si4 0.800374 0.681489 0.821777
Si Si5 0.445543 0.212015 0.462637
O O1 0.500000 0.852884 0.250000
O O2 0.624677 0.064286 0.984133
O O3 0.716441 0.816858 0.933831
O O4 0.561217 0.828131 0.909872
O O5 0.853121 0.299963 0.700701
O O6 0.000000 0.334812 0.750000
O O7 0.000000 0.500000 0.500000
O O8 0.080913 0.251394 0.388221
O O9 0.755260 0.557305 0.763287
O O10 0.814661 0.387995 0.469436
O O11 0.639617 0.323301 0.854842
O O12 0.500000 0.285316 0.250000
#
# Coordination Sequence:
#
# PCOD8118887 Si02
#       5
#     4   4   4   4   4
#     4  10  21  42  58  84 113 156 190 232 283 339
#     4  10  20  36  57  83 114 150 187 232 287 338
#     4  11  22  38  58  89 114 152 188 236 284 335
#     4  11  22  37  61  85 119 147 190 236 282 339
#     4  10  23  38  62  81 116 153 194 231 282 338
#
# _framework density 20.688421999999999
#
# number of rings (size 3 to 8) (size 9 to 14) (size 15 to 20)
#    0.000    1.600    2.000    5.400    5.600    1.600 
#    0.000    1.000    0.000    0.000    0.000    0.000 
#    0.000    0.000    0.000    0.000    0.000    0.000 
#
# Total GULP energy -247857.671064 kJ/mol
# GULP energy per Si atom -12392.883553 kJ/mol
# Density = 2.064133 g / cm^3
# Si number density = 20.688422 Si / 1000 Ang^3
#
#
#
# Elastic Constant Matrix: (Units=GPa)
#
#
# Indices 1 2 3 4 5 6 
#
# 1 59.0762 7.8785 10.9668 0.0000 8.2412 0.0000
# 2 7.8785 37.6047 -0.0024 0.0000 -6.4036 0.0000
# 3 10.9668 -0.0024 105.5917 0.0000 17.0743 0.0000
# 4 0.0000 0.0000 0.0000 2.0005 0.0000 6.7546
# 5 8.2412 -6.4036 17.0743 0.0000 47.6447 0.0000
# 6 0.0000 0.0000 0.0000 6.7546 0.0000 20.9077
#
#
#
# Elastic Compliance Matrix: (Units=1/GPa)
#
#
# Indices 1 2 3 4 5 6 
#
# 1 0.018217 -0.004370 -0.001367 0.000000 -0.003249 0.000000
# 2 -0.004370 0.028303 -0.000300 0.000000 0.004667 0.000000
# 3 -0.001367 -0.000300 0.010170 0.000000 -0.003449 0.000000
# 4 0.000000 0.000000 0.000000 -5.505387 0.000000 1.778605
# 5 -0.003249 0.004667 -0.003449 0.000000 0.023414 0.000000
# 6 0.000000 0.000000 0.000000 1.778605 0.000000 -0.526778
#
#
# Mechanical properties :
#
#
# Convention : Reuss Voigt Hill
#
# Bulk Modulus (GPa) = 22.41355 26.66204 24.53780
# Shear Modulus (GPa) = -0.84387 26.33922 12.74768
#
# Velocity S-wave (km/s) = -0.63936 3.57198 2.48498
# Velocity P-wave (km/s) = 3.21128 5.47060 4.48552
#
# Compressibility (1/GPa) = 0.04461586
#
# Stress axis : x y z
#
# Youngs Moduli (GPa) = 54.89387 35.33223 98.32815
#
# Poissons Ratio (x) = 0.15440 0.13440
# Poissons Ratio (y) = 0.23988 0.02952
# Poissons Ratio (z) = 0.07503 0.01061
#
# Static dielectric constant tensor:
#      x y z
#    x 4.859030 0.000000 -0.207630 
#    y 0.000000 3.319580 0.000000 
#    z -0.207630 0.000000 4.175420 
# 
# 
# High freq. dielectric constant tensor:
#      x y z
#    x 1.814230 0.000000 0.005740 
#    y 0.000000 1.762590 0.000000 
#    z 0.005740 0.000000 1.832040 
# 
# From -- ./inp_files/17937.got.cif
#   From: 2010.06.25/outbox.cif.g09.slc.cpg/sg13_9_cif.got.tgz:17937.got - 2010.06.28 04:50:58.
