data_PCOD8118814
_publ_section_title
;
Structure prediction by ZEFSAII (Michael W. Deem and Ramdas Pophale) SiO2 
 PCOD8118814
Probable space group: P 2/C
;
_chemical_formula_sum "Si O2"
_cell_formula_units_Z 30
_cell_length_a 29.629408
_cell_length_b 8.718330
_cell_length_c 17.898510
_cell_angle_alpha 90.000000
_cell_angle_beta 19.746269
_cell_angle_gamma 90.000000
_cell_volume 1562.082832
_symmetry_space_group_name_H-M "P 2/C"
_symmetry_group_IT_number 13
_symmetry_cell_setting 'monoclinic'
loop_
_space_group_symop_operation_xyz
x,y,z
-x,y,1/2-z
-x,-y,-z
x,-y,1/2+z
loop_
_atom_site_type_symbol
_atom_site_label
_atom_site_fract_x
_atom_site_fract_y
_atom_site_fract_z
Si Si1 0.969597 0.006550 0.380457
Si Si2 0.229556 0.172222 0.481548
Si Si3 0.426173 0.057242 0.744983
Si Si4 0.261235 0.354114 0.573890
Si Si5 0.274993 0.295374 0.087114
Si Si6 0.500000 0.822801 0.750000
Si Si7 0.997190 0.825282 0.976164
Si Si8 0.704053 0.171764 0.285503
O O1 0.815139 0.956438 0.633806
O O2 0.000000 0.061661 0.250000
O O3 0.996675 0.158266 0.387376
O O4 0.072989 0.867965 0.240108
O O5 0.279671 0.305259 0.458641
O O6 0.246729 0.239744 0.370820
O O7 0.312895 0.013420 0.366783
O O8 0.553122 0.118760 0.501208
O O9 0.493654 0.923090 0.686429
O O10 0.366960 0.183897 0.894171
O O11 0.287361 0.533399 0.538216
O O12 0.368873 0.279980 0.461178
O O13 0.120781 0.287687 0.818069
O O14 0.123179 0.254549 0.313952
O O15 0.308441 0.286251 0.123867
O O16 0.000000 0.000000 0.000000
#
# Coordination Sequence:
#
# PCOD8118814 Si02
#       8
#     4   4   4   4   4   2   4   4
#     4  10  20  35  61  92 114 149 202 261 292 340
#     4  10  21  40  59  86 121 156 201 248 305 348
#     4  11  20  38  62  88 114 160 204 253 292 358
#     4  11  24  37  59  90 123 158 195 247 300 365
#     4  12  23  37  62  90 123 155 200 250 306 352
#     4  10  20  36  60  84 116 152 202 246 284 344
#     4  12  19  39  63  87 114 158 206 243 288 358
#     4  11  21  35  63  88 116 157 204 250 298 355
#
# _framework density 19.205127000000001
#
# number of rings (size 3 to 8) (size 9 to 14) (size 15 to 20)
#    0.000    1.067    5.333    2.400    1.867    0.000 
#    0.000    2.000    2.933    0.000    0.000    0.000 
#    0.000    0.000    0.000    0.000    0.000    0.000 
#
# Total GULP energy -371719.704350 kJ/mol
# GULP energy per Si atom -12390.656812 kJ/mol
# Density = 1.916141 g / cm^3
# Si number density = 19.205127 Si / 1000 Ang^3
#
#
#
# Elastic Constant Matrix: (Units=GPa)
#
#
# Indices 1 2 3 4 5 6 
#
# 1 102.8287 40.6661 25.2504 0.0000 4.5693 0.0000
# 2 40.6661 98.2111 30.4032 0.0000 4.0871 0.0000
# 3 25.2504 30.4032 117.1694 0.0000 -13.9268 0.0000
# 4 0.0000 0.0000 0.0000 38.1394 0.0000 -13.7128
# 5 4.5693 4.0871 -13.9268 0.0000 34.8899 0.0000
# 6 0.0000 0.0000 0.0000 -13.7128 0.0000 27.4590
#
#
#
# Elastic Compliance Matrix: (Units=1/GPa)
#
#
# Indices 1 2 3 4 5 6 
#
# 1 0.011928 -0.004360 -0.001642 0.000000 -0.001707 0.000000
# 2 -0.004360 0.012888 -0.002642 0.000000 -0.001993 0.000000
# 3 -0.001642 -0.002642 0.010116 0.000000 0.004563 0.000000
# 4 0.000000 0.000000 0.000000 0.031958 0.000000 0.015959
# 5 -0.001707 -0.001993 0.004563 0.000000 0.030940 0.000000
# 6 0.000000 0.000000 0.000000 0.015959 0.000000 0.044388
#
#
# Mechanical properties :
#
#
# Convention : Reuss Voigt Hill
#
# Bulk Modulus (GPa) = 56.67135 56.76096 56.71615
# Shear Modulus (GPa) = 30.23217 34.89029 32.56123
#
# Velocity S-wave (km/s) = 3.97189 4.26692 4.12204
# Velocity P-wave (km/s) = 7.11386 7.34130 7.22848
#
# Compressibility (1/GPa) = 0.01764560
#
# Stress axis : x y z
#
# Youngs Moduli (GPa) = 83.83530 77.59118 98.85026
#
# Poissons Ratio (x) = 0.33827 0.16233
# Poissons Ratio (y) = 0.36549 0.26112
# Poissons Ratio (z) = 0.13767 0.20497
#
# Static dielectric constant tensor:
#      x y z
#    x 3.976630 0.000000 -0.234510 
#    y 0.000000 3.183390 0.000000 
#    z -0.234510 0.000000 3.772960 
# 
# 
# High freq. dielectric constant tensor:
#      x y z
#    x 1.763580 0.000000 -0.012430 
#    y 0.000000 1.703750 0.000000 
#    z -0.012430 0.000000 1.765380 
# 
# From -- ./inp_files/72390.got.cif
#   From: 2010.06.25/outbox.cif.g09.slc.cpg/sg13_37_cif.got.tgz:72390.got - 2010.06.28 04:50:58.
