data_PCOD8118212
_publ_section_title
;
Structure prediction by ZEFSAII (Michael W. Deem and Ramdas Pophale) SiO2 
 PCOD8118212
Probable space group: P 2/C
;
_chemical_formula_sum "Si O2"
_cell_formula_units_Z 32
_cell_length_a 12.789108
_cell_length_b 14.088957
_cell_length_c 9.296150
_cell_angle_alpha 90.000000
_cell_angle_beta 99.301719
_cell_angle_gamma 90.000000
_cell_volume 1653.003406
_symmetry_space_group_name_H-M "P 2/C"
_symmetry_group_IT_number 13
_symmetry_cell_setting 'monoclinic'
loop_
_space_group_symop_operation_xyz
x,y,z
-x,y,1/2-z
-x,-y,-z
x,-y,1/2+z
loop_
_atom_site_type_symbol
_atom_site_label
_atom_site_fract_x
_atom_site_fract_y
_atom_site_fract_z
Si Si1 0.394630 0.059170 0.443308
Si Si2 0.587652 0.726686 0.563449
Si Si3 0.815592 0.586165 0.896600
Si Si4 0.954608 0.914968 0.897412
Si Si5 0.988446 0.289069 0.078680
Si Si6 0.360055 0.726057 0.591407
Si Si7 0.218550 0.607405 0.948648
Si Si8 0.289925 0.073614 0.119412
O O1 0.404657 0.167630 0.499646
O O2 0.370076 0.055562 0.268866
O O3 0.500000 0.000000 0.500000
O O4 0.297952 0.013504 0.510555
O O5 0.465014 0.693565 0.527402
O O6 0.623010 0.729240 0.735133
O O7 0.665025 0.653183 0.497606
O O8 0.931187 0.629280 0.959513
O O9 0.731292 0.651145 0.961981
O O10 0.797930 0.580929 0.721636
O O11 0.799745 0.482589 0.955896
O O12 0.986145 0.814884 0.980918
O O13 0.828735 0.917993 0.851525
O O14 0.000000 0.925276 0.750000
O O15 0.000000 0.000000 0.000000
O O16 0.000000 0.277999 0.250000
O O17 0.868051 0.316591 0.016057
O O18 0.324533 0.831839 0.539531
#
# Coordination Sequence:
#
# PCOD8118212 Si02
#       8
#     4   4   4   4   4   4   4   4
#     4  11  21  35  59  86 116 150 194 234 283 342
#     4   9  19  33  55  83 109 145 188 228 277 341
#     4  10  19  37  57  81 106 142 187 234 286 335
#     4  11  23  38  58  87 118 156 194 236 288 345
#     4   9  19  35  59  81 107 147 195 229 272 344
#     4   9  17  34  56  80 108 145 190 227 270 340
#     4  10  21  35  59  81 108 143 187 240 283 337
#     4  11  21  36  58  84 115 154 191 240 282 339
#
# _framework density 19.358702999999998
#
# number of rings (size 3 to 8) (size 9 to 14) (size 15 to 20)
#    0.000    2.000    2.500    1.500    7.000    0.500 
#    0.000    2.500    0.000    0.000    0.000    0.000 
#    0.000    0.000    0.000    0.000    0.000    0.000 
#
# Total GULP energy -396719.494677 kJ/mol
# GULP energy per Si atom -12397.484209 kJ/mol
# Density = 1.931464 g / cm^3
# Si number density = 19.358703 Si / 1000 Ang^3
#
#
#
# Elastic Constant Matrix: (Units=GPa)
#
#
# Indices 1 2 3 4 5 6 
#
# 1 156.6990 60.8205 22.0822 0.0000 -13.9912 0.0000
# 2 60.8205 137.0435 35.4423 0.0000 -10.3666 0.0000
# 3 22.0822 35.4423 29.9229 0.0000 -2.7342 0.0000
# 4 0.0000 0.0000 0.0000 27.0164 0.0000 -8.1459
# 5 -13.9912 -10.3666 -2.7342 0.0000 22.3940 0.0000
# 6 0.0000 0.0000 0.0000 -8.1459 0.0000 40.1335
#
#
#
# Elastic Compliance Matrix: (Units=1/GPa)
#
#
# Indices 1 2 3 4 5 6 
#
# 1 0.008084 -0.002685 -0.002465 0.000000 0.003507 0.000000
# 2 -0.002685 0.011671 -0.011632 0.000000 0.002305 0.000000
# 3 -0.002465 -0.011632 0.048929 0.000000 -0.000951 0.000000
# 4 0.000000 0.000000 0.000000 0.039427 0.000000 0.008003
# 5 0.003507 0.002305 -0.000951 0.000000 0.047797 0.000000
# 6 0.000000 0.000000 0.000000 0.008003 0.000000 0.026541
#
#
# Mechanical properties :
#
#
# Convention : Reuss Voigt Hill
#
# Bulk Modulus (GPa) = 28.47360 62.26170 45.36765
# Shear Modulus (GPa) = 21.95665 31.59679 26.77672
#
# Velocity S-wave (km/s) = 3.37144 4.04440 3.72316
# Velocity P-wave (km/s) = 5.46771 7.35129 6.47832
#
# Compressibility (1/GPa) = 0.03512025
#
# Stress axis : x y z
#
# Youngs Moduli (GPa) = 123.69577 85.68098 20.43771
#
# Poissons Ratio (x) = 0.23005 0.05038
# Poissons Ratio (y) = 0.33212 0.23773
# Poissons Ratio (z) = 0.30495 0.99664
#
# Static dielectric constant tensor:
#      x y z
#    x 4.190810 0.000000 -0.055130 
#    y 0.000000 3.745640 0.000000 
#    z -0.055130 0.000000 3.084170 
# 
# 
# High freq. dielectric constant tensor:
#      x y z
#    x 1.774920 0.000000 -0.012530 
#    y 0.000000 1.761800 0.000000 
#    z -0.012530 0.000000 1.702520 
# 
# From -- ./inp_files/33845.got.cif
#   From: 2010.06.25/outbox.cif.g09.slc.cpg/sg13_17_cif.got.tgz:33845.got - 2010.06.28 04:50:58.
