data_PCOD8118684
_publ_section_title
;
Structure prediction by ZEFSAII (Michael W. Deem and Ramdas Pophale) SiO2 
 PCOD8118684
Probable space group: P 2/C
;
_chemical_formula_sum "Si O2"
_cell_formula_units_Z 30
_cell_length_a 8.981873
_cell_length_b 12.387105
_cell_length_c 13.488662
_cell_angle_alpha 90.000000
_cell_angle_beta 83.426580
_cell_angle_gamma 90.000000
_cell_volume 1490.874595
_symmetry_space_group_name_H-M "P 2/C"
_symmetry_group_IT_number 13
_symmetry_cell_setting 'monoclinic'
loop_
_space_group_symop_operation_xyz
x,y,z
-x,y,1/2-z
-x,-y,-z
x,-y,1/2+z
loop_
_atom_site_type_symbol
_atom_site_label
_atom_site_fract_x
_atom_site_fract_y
_atom_site_fract_z
Si Si1 0.500000 0.379087 0.250000
Si Si2 0.653600 0.802280 0.628730
Si Si3 0.612151 0.922507 0.929305
Si Si4 0.315586 0.721552 0.456754
Si Si5 0.644183 0.522775 0.924805
Si Si6 0.832215 0.968606 0.743711
Si Si7 0.161199 0.211055 0.777207
Si Si8 0.333465 0.288964 0.581815
O O1 0.370021 0.310123 0.313390
O O2 0.407758 0.452886 0.182267
O O3 0.489365 0.855977 0.639712
O O4 0.768978 0.881303 0.672339
O O5 0.711596 0.777627 0.513114
O O6 0.736213 0.982079 0.852729
O O7 0.701757 0.839287 0.992269
O O8 0.500000 0.000000 0.000000
O O9 0.264378 0.624201 0.534793
O O10 0.210706 0.717614 0.367751
O O11 0.488488 0.703579 0.417124
O O12 0.737776 0.410395 0.916317
O O13 0.500000 0.500000 0.000000
O O14 0.000000 0.928066 0.750000
O O15 0.837928 0.085437 0.691135
O O16 0.277152 0.223826 0.679795
O O17 0.000000 0.249691 0.750000
#
# Coordination Sequence:
#
# PCOD8118684 Si02
#       8
#     2   4   4   4   4   4   4   4
#     4  12  18  36  62  92 128 146 194 252 310 354
#     4  11  20  37  60  88 121 154 201 259 299 366
#     4  11  20  35  60  87 118 155 208 260 309 364
#     4  10  20  38  59  88 117 153 203 256 309 355
#     4  10  20  34  60  96 117 149 193 255 307 359
#     4  11  23  38  58  88 124 169 206 246 312 373
#     4  11  25  40  56  83 126 166 204 249 300 369
#     4  10  22  38  61  94 113 154 206 253 312 359
#
# _framework density 20.122416999999999
#
# number of rings (size 3 to 8) (size 9 to 14) (size 15 to 20)
#    0.000    1.333    5.333    2.800    3.733    2.133 
#    0.000    4.000    0.000    4.000    0.000    0.000 
#    0.000    0.000    0.000    0.000    0.000    0.000 
#
# Total GULP energy -371904.663989 kJ/mol
# GULP energy per Si atom -12396.822133 kJ/mol
# Density = 2.007662 g / cm^3
# Si number density = 20.122417 Si / 1000 Ang^3
#
#
#
# Elastic Constant Matrix: (Units=GPa)
#
#
# Indices 1 2 3 4 5 6 
#
# 1 76.7018 27.1812 47.5320 0.0000 15.1603 0.0000
# 2 27.1812 93.4966 37.3728 0.0000 16.0533 0.0000
# 3 47.5320 37.3728 118.9532 0.0000 24.2416 0.0000
# 4 0.0000 0.0000 0.0000 32.8376 0.0000 4.7328
# 5 15.1603 16.0533 24.2416 0.0000 25.1489 0.0000
# 6 0.0000 0.0000 0.0000 4.7328 0.0000 17.9865
#
#
#
# Elastic Compliance Matrix: (Units=1/GPa)
#
#
# Indices 1 2 3 4 5 6 
#
# 1 0.018196 -0.002317 -0.005736 0.000000 -0.003961 0.000000
# 2 -0.002317 0.013078 -0.002198 0.000000 -0.004832 0.000000
# 3 -0.005736 -0.002198 0.012941 0.000000 -0.007613 0.000000
# 4 0.000000 0.000000 0.000000 0.031653 0.000000 -0.008329
# 5 -0.003961 -0.004832 -0.007613 0.000000 0.052574 0.000000
# 6 0.000000 0.000000 0.000000 -0.008329 0.000000 0.057789
#
#
# Mechanical properties :
#
#
# Convention : Reuss Voigt Hill
#
# Bulk Modulus (GPa) = 42.17183 57.03595 49.60389
# Shear Modulus (GPa) = 23.29527 26.99898 25.14712
#
# Velocity S-wave (km/s) = 3.40616 3.66695 3.53895
# Velocity P-wave (km/s) = 6.03923 6.80696 6.43456
#
# Compressibility (1/GPa) = 0.02371251
#
# Stress axis : x y z
#
# Youngs Moduli (GPa) = 54.95746 76.46717 77.27615
#
# Poissons Ratio (x) = 0.17718 0.44322
# Poissons Ratio (y) = 0.12734 0.16986
# Poissons Ratio (z) = 0.31521 0.16808
#
# Static dielectric constant tensor:
#      x y z
#    x 3.277900 0.000000 0.042520 
#    y 0.000000 1.542870 0.000000 
#    z 0.042520 0.000000 3.689150 
# 
# 
# High freq. dielectric constant tensor:
#      x y z
#    x 1.737910 0.000000 0.007230 
#    y 0.000000 1.801260 0.000000 
#    z 0.007230 0.000000 1.797560 
# 
# From -- ./inp_files/46939.got.cif
#   From: 2010.06.25/outbox.cif.g09.slc.cpg/sg13_24_cif.got.tgz:46939.got - 2010.06.28 04:50:58.
