data_PCOD8118217
_publ_section_title
;
Structure prediction by ZEFSAII (Michael W. Deem and Ramdas Pophale) SiO2 
 PCOD8118217
Probable space group: P 2/C
;
_chemical_formula_sum "Si O2"
_cell_formula_units_Z 20
_cell_length_a 12.058292
_cell_length_b 7.597702
_cell_length_c 18.442988
_cell_angle_alpha 90.000000
_cell_angle_beta 144.019289
_cell_angle_gamma 90.000000
_cell_volume 992.697005
_symmetry_space_group_name_H-M "P 2/C"
_symmetry_group_IT_number 13
_symmetry_cell_setting 'monoclinic'
loop_
_space_group_symop_operation_xyz
x,y,z
-x,y,1/2-z
-x,-y,-z
x,-y,1/2+z
loop_
_atom_site_type_symbol
_atom_site_label
_atom_site_fract_x
_atom_site_fract_y
_atom_site_fract_z
Si Si1 0.173602 0.617870 0.940989
Si Si2 0.640826 0.267960 0.478458
Si Si3 0.425310 0.906447 0.130344
Si Si4 0.324909 0.911095 0.366130
Si Si5 0.224557 0.280429 0.304448
O O1 0.244215 0.660298 0.897624
O O2 0.946385 0.621239 0.826591
O O3 0.244565 0.423073 0.000229
O O4 0.262208 0.759264 0.042986
O O5 0.737815 0.241366 0.610628
O O6 0.420239 0.322585 0.367364
O O7 0.661641 0.092269 0.441743
O O8 0.500000 0.930749 0.250000
O O9 0.600052 0.841423 0.171626
O O10 0.500000 0.000000 0.500000
O O11 0.175107 0.069660 0.275890
#
# Coordination Sequence:
#
# PCOD8118217 Si02
#       5
#     4   4   4   4   4
#     4  11  19  33  58  88 109 141 186 235 275 326
#     4  10  19  37  58  79 117 147 187 224 282 327
#     4  10  20  36  56  79 112 152 185 224 279 336
#     4   8  15  35  56  76 108 144 178 230 275 320
#     4   9  18  34  55  88 113 133 183 243 274 321
#
# _framework density 20.147133
#
# number of rings (size 3 to 8) (size 9 to 14) (size 15 to 20)
#    0.000    2.800    6.000    0.600    0.000    0.800 
#    7.200    4.000    0.000    6.000    0.000    0.000 
#    0.000    0.000    0.000    0.000    0.000    0.000 
#
# Total GULP energy -247841.392574 kJ/mol
# GULP energy per Si atom -12392.069629 kJ/mol
# Density = 2.010128 g / cm^3
# Si number density = 20.147133 Si / 1000 Ang^3
#
#
#
# Elastic Constant Matrix: (Units=GPa)
#
#
# Indices 1 2 3 4 5 6 
#
# 1 44.6376 31.6443 39.9120 0.0000 -8.6877 0.0000
# 2 31.6443 123.0050 54.7743 0.0000 12.6428 0.0000
# 3 39.9120 54.7743 84.1565 0.0000 -3.0717 0.0000
# 4 0.0000 0.0000 0.0000 22.6295 0.0000 8.1999
# 5 -8.6877 12.6428 -3.0717 0.0000 37.1502 0.0000
# 6 0.0000 0.0000 0.0000 8.1999 0.0000 16.5256
#
#
#
# Elastic Compliance Matrix: (Units=1/GPa)
#
#
# Indices 1 2 3 4 5 6 
#
# 1 0.042724 -0.004466 -0.016987 0.000000 0.010106 0.000000
# 2 -0.004466 0.012727 -0.006381 0.000000 -0.005903 0.000000
# 3 -0.016987 -0.006381 0.024099 0.000000 0.000192 0.000000
# 4 0.000000 0.000000 0.000000 0.053877 0.000000 -0.026733
# 5 0.010106 -0.005903 0.000192 0.000000 0.031306 0.000000
# 6 0.000000 0.000000 0.000000 -0.026733 0.000000 0.073777
#
#
# Mechanical properties :
#
#
# Convention : Reuss Voigt Hill
#
# Bulk Modulus (GPa) = 41.87132 56.05113 48.96122
# Shear Modulus (GPa) = 16.54878 23.62562 20.08720
#
# Velocity S-wave (km/s) = 2.86911 3.42812 3.16100
# Velocity P-wave (km/s) = 5.63947 6.59929 6.13817
#
# Compressibility (1/GPa) = 0.02388269
#
# Stress axis : x y z
#
# Youngs Moduli (GPa) = 23.40622 78.57456 41.49576
#
# Poissons Ratio (x) = 0.35089 0.70488
# Poissons Ratio (y) = 0.10452 0.26478
# Poissons Ratio (z) = 0.39759 0.50138
#
# Static dielectric constant tensor:
#      x y z
#    x 3.455760 0.000000 -0.030340 
#    y 0.000000 4.147170 0.000000 
#    z -0.030340 0.000000 3.481370 
# 
# 
# High freq. dielectric constant tensor:
#      x y z
#    x 1.746650 0.000000 0.011150 
#    y 0.000000 1.790330 0.000000 
#    z 0.011150 0.000000 1.757860 
# 
# From -- ./inp_files/59350.got.cif
#   From: 2010.06.25/outbox.cif.g09.slc.cpg/sg13_30_cif.got.tgz:59350.got - 2010.06.28 04:50:58.
