data_PCOD8118352
_publ_section_title
;
Structure prediction by ZEFSAII (Michael W. Deem and Ramdas Pophale) SiO2 
 PCOD8118352
Probable space group: P 2/C
;
_chemical_formula_sum "Si O2"
_cell_formula_units_Z 30
_cell_length_a 8.329539
_cell_length_b 11.549030
_cell_length_c 15.129094
_cell_angle_alpha 90.000000
_cell_angle_beta 84.967293
_cell_angle_gamma 90.000000
_cell_volume 1449.779190
_symmetry_space_group_name_H-M "P 2/C"
_symmetry_group_IT_number 13
_symmetry_cell_setting 'monoclinic'
loop_
_space_group_symop_operation_xyz
x,y,z
-x,y,1/2-z
-x,-y,-z
x,-y,1/2+z
loop_
_atom_site_type_symbol
_atom_site_label
_atom_site_fract_x
_atom_site_fract_y
_atom_site_fract_z
Si Si1 0.605797 0.674356 0.501050
Si Si2 0.694061 0.993172 0.816507
Si Si3 0.668588 0.038565 0.619794
Si Si4 0.347255 0.740833 0.638509
Si Si5 0.177736 0.123466 0.532565
Si Si6 0.162532 0.241378 0.976023
Si Si7 0.500000 0.442737 0.250000
Si Si8 0.323671 0.551047 0.410733
O O1 0.520139 0.750149 0.581750
O O2 0.722333 0.762380 0.444656
O O3 0.471141 0.620403 0.446225
O O4 0.712101 0.569446 0.537017
O O5 0.693229 0.854933 0.803642
O O6 0.734366 0.043236 0.717766
O O7 0.523026 0.026783 0.866994
O O8 0.824412 0.037024 0.882612
O O9 0.696896 0.160447 0.570393
O O10 0.754635 0.937980 0.558640
O O11 0.202121 0.723878 0.575438
O O12 0.368654 0.631646 0.701766
O O13 0.998506 0.167023 0.522288
O O14 0.167195 0.363668 0.921376
O O15 0.380618 0.524946 0.309664
#
# Coordination Sequence:
#
# PCOD8118352 Si02
#       8
#     4   4   4   4   4   4   2   4
#     4   9  19  37  65  86 116 158 214 254 316 367
#     4  11  22  37  66  94 121 163 221 265 321 372
#     4  11  23  39  61  95 124 165 216 270 309 372
#     4  10  19  38  63  93 120 160 214 271 313 375
#     4  12  23  40  63  93 132 175 201 259 325 391
#     4  11  24  40  59  90 139 171 209 248 329 391
#     4  10  20  36  70  92 120 158 228 286 312 352
#     4   9  20  38  61  92 117 159 210 270 306 369
#
# _framework density 20.692807999999999
#
# number of rings (size 3 to 8) (size 9 to 14) (size 15 to 20)
#    0.000    1.600    2.667    4.000    1.867    3.200 
#    0.000    0.000    0.000    3.200    0.000    0.000 
#    0.000    0.000    0.000    0.000    0.000    0.000 
#
# Total GULP energy -371788.732037 kJ/mol
# GULP energy per Si atom -12392.957735 kJ/mol
# Density = 2.064571 g / cm^3
# Si number density = 20.692808 Si / 1000 Ang^3
#
#
#
# Elastic Constant Matrix: (Units=GPa)
#
#
# Indices 1 2 3 4 5 6 
#
# 1 56.2081 19.6344 25.6680 0.0000 8.6569 0.0000
# 2 19.6344 97.3671 36.0051 0.0000 -2.2297 0.0000
# 3 25.6680 36.0051 118.4852 0.0000 8.1210 0.0000
# 4 0.0000 0.0000 0.0000 11.5212 0.0000 -5.7452
# 5 8.6569 -2.2297 8.1210 0.0000 19.6307 0.0000
# 6 0.0000 0.0000 0.0000 -5.7452 0.0000 34.6701
#
#
#
# Elastic Compliance Matrix: (Units=1/GPa)
#
#
# Indices 1 2 3 4 5 6 
#
# 1 0.021737 -0.003450 -0.003064 0.000000 -0.008710 0.000000
# 2 -0.003450 0.012275 -0.003275 0.000000 0.004271 0.000000
# 3 -0.003064 -0.003275 0.010325 0.000000 -0.003292 0.000000
# 4 0.000000 0.000000 0.000000 0.094615 0.000000 0.015679
# 5 -0.008710 0.004271 -0.003292 0.000000 0.056629 0.000000
# 6 0.000000 0.000000 0.000000 0.015679 0.000000 0.031441
#
#
# Mechanical properties :
#
#
# Convention : Reuss Voigt Hill
#
# Bulk Modulus (GPa) = 40.39025 48.29724 44.34375
# Shear Modulus (GPa) = 19.61928 25.88128 22.75028
#
# Velocity S-wave (km/s) = 3.08250 3.54041 3.31936
# Velocity P-wave (km/s) = 5.67718 6.33273 6.01390
#
# Compressibility (1/GPa) = 0.02475845
#
# Stress axis : x y z
#
# Youngs Moduli (GPa) = 46.00533 81.46566 96.85657
#
# Poissons Ratio (x) = 0.28104 0.29673
# Poissons Ratio (y) = 0.15871 0.31725
# Poissons Ratio (z) = 0.14094 0.26684
#
# Static dielectric constant tensor:
#      x y z
#    x 3.457550 0.000000 -0.068930 
#    y 0.000000 4.126610 0.000000 
#    z -0.068930 0.000000 3.856300 
# 
# 
# High freq. dielectric constant tensor:
#      x y z
#    x 1.774040 0.000000 0.004250 
#    y 0.000000 1.827780 0.000000 
#    z 0.004250 0.000000 1.805670 
# 
# From -- ./inp_files/46949.got.cif
#   From: 2010.06.25/outbox.cif.g09.slc.cpg/sg13_24_cif.got.tgz:46949.got - 2010.06.28 04:50:58.
