data_PCOD8118546
_publ_section_title
;
Structure prediction by ZEFSAII (Michael W. Deem and Ramdas Pophale) SiO2 
 PCOD8118546
Probable space group: P 2/C
;
_chemical_formula_sum "Si O2"
_cell_formula_units_Z 26
_cell_length_a 11.282686
_cell_length_b 13.028136
_cell_length_c 8.694915
_cell_angle_alpha 90.000000
_cell_angle_beta 94.442611
_cell_angle_gamma 90.000000
_cell_volume 1274.246031
_symmetry_space_group_name_H-M "P 2/C"
_symmetry_group_IT_number 13
_symmetry_cell_setting 'monoclinic'
loop_
_space_group_symop_operation_xyz
x,y,z
-x,y,1/2-z
-x,-y,-z
x,-y,1/2+z
loop_
_atom_site_type_symbol
_atom_site_label
_atom_site_fract_x
_atom_site_fract_y
_atom_site_fract_z
Si Si1 0.551685 0.322796 0.059214
Si Si2 0.500000 0.023612 0.750000
Si Si3 0.252961 0.361859 0.638476
Si Si4 0.663889 0.582151 0.846016
Si Si5 0.974710 0.387523 0.065283
Si Si6 0.613304 0.868108 0.981662
Si Si7 0.818573 0.279631 0.553352
O O1 0.459441 0.419096 0.066746
O O2 0.648940 0.338874 0.202815
O O3 0.621421 0.315012 0.905774
O O4 0.477818 0.220080 0.076020
O O5 0.403224 0.957778 0.644404
O O6 0.418747 0.092451 0.851985
O O7 0.290526 0.472646 0.709103
O O8 0.163155 0.365911 0.485234
O O9 0.196368 0.291724 0.765022
O O10 0.765577 0.620470 0.967937
O O11 0.000000 0.386120 0.250000
O O12 0.044747 0.292360 0.987332
O O13 0.000000 0.500000 0.000000
O O14 0.749523 0.824724 0.994890
#
# Coordination Sequence:
#
# PCOD8118546 Si02
#       7
#     4   2   4   4   4   4   4
#     4  10  21  35  52  83 120 161 198 247 293 361
#     4  10  20  38  64  92 118 154 188 258 320 394
#     4  12  22  34  55  81 116 168 208 244 285 337
#     4  10  20  33  51  77 120 164 205 236 284 343
#     4  12  25  40  57  80 116 165 215 250 284 332
#     4  10  21  38  61  91 123 149 196 244 321 372
#     4  11  22  37  57  85 118 159 202 253 292 357
#
# _framework density 20.404223999999999
#
# number of rings (size 3 to 8) (size 9 to 14) (size 15 to 20)
#    0.000    1.231    1.538    6.462    0.000    5.538 
#    0.000    0.000    0.000    0.000    0.000   26.923 
#    0.000    0.000    0.000    0.000    0.000    0.000 
#
# Total GULP energy -322138.792342 kJ/mol
# GULP energy per Si atom -12389.953552 kJ/mol
# Density = 2.035778 g / cm^3
# Si number density = 20.404224 Si / 1000 Ang^3
#
#
#
# Elastic Constant Matrix: (Units=GPa)
#
#
# Indices 1 2 3 4 5 6 
#
# 1 82.2527 34.0121 13.8870 0.0000 -6.9854 0.0000
# 2 34.0121 65.1494 29.1285 0.0000 -1.9217 0.0000
# 3 13.8870 29.1285 68.8420 0.0000 -4.0378 0.0000
# 4 0.0000 0.0000 0.0000 21.8176 0.0000 0.6608
# 5 -6.9854 -1.9217 -4.0378 0.0000 37.9229 0.0000
# 6 0.0000 0.0000 0.0000 0.6608 0.0000 29.3762
#
#
#
# Elastic Compliance Matrix: (Units=1/GPa)
#
#
# Indices 1 2 3 4 5 6 
#
# 1 0.015750 -0.008379 0.000517 0.000000 0.002532 0.000000
# 2 -0.008379 0.023389 -0.008279 0.000000 -0.001240 0.000000
# 3 0.000517 -0.008279 0.018018 0.000000 0.001594 0.000000
# 4 0.000000 0.000000 0.000000 0.045866 0.000000 -0.001032
# 5 0.002532 -0.001240 0.001594 0.000000 0.026942 0.000000
# 6 0.000000 0.000000 0.000000 -0.001032 0.000000 0.034064
#
#
# Mechanical properties :
#
#
# Convention : Reuss Voigt Hill
#
# Bulk Modulus (GPa) = 40.20109 41.14438 40.67273
# Shear Modulus (GPa) = 24.43754 27.10445 25.77100
#
# Velocity S-wave (km/s) = 3.46449 3.64864 3.55776
# Velocity P-wave (km/s) = 5.97902 6.16105 6.07072
#
# Compressibility (1/GPa) = 0.02487495
#
# Stress axis : x y z
#
# Youngs Moduli (GPa) = 63.49136 42.75599 55.49948
#
# Poissons Ratio (x) = 0.35825 -0.02867
# Poissons Ratio (y) = 0.53199 0.45946
# Poissons Ratio (z) = -0.03280 0.35396
#
# Static dielectric constant tensor:
#      x y z
#    x 3.969430 0.000000 -0.023120 
#    y 0.000000 3.451420 0.000000 
#    z -0.023120 0.000000 3.794450 
# 
# 
# High freq. dielectric constant tensor:
#      x y z
#    x 1.794300 0.000000 0.002140 
#    y 0.000000 1.754970 0.000000 
#    z 0.002140 0.000000 1.815090 
# 
# From -- ./inp_files/16308.got.cif
#   From: 2010.06.25/outbox.cif.g09.slc.cpg/sg13_9_cif.got.tgz:16308.got - 2010.06.28 04:50:58.
