data_PCOD8118067
_publ_section_title
;
Structure prediction by ZEFSAII (Michael W. Deem and Ramdas Pophale) SiO2 
 PCOD8118067
Probable space group: P 2/C
;
_chemical_formula_sum "Si O2"
_cell_formula_units_Z 32
_cell_length_a 19.605605
_cell_length_b 8.292426
_cell_length_c 14.948516
_cell_angle_alpha 90.000000
_cell_angle_beta 143.096310
_cell_angle_gamma 90.000000
_cell_volume 1459.326593
_symmetry_space_group_name_H-M "P 2/C"
_symmetry_group_IT_number 13
_symmetry_cell_setting 'monoclinic'
loop_
_space_group_symop_operation_xyz
x,y,z
-x,y,1/2-z
-x,-y,-z
x,-y,1/2+z
loop_
_atom_site_type_symbol
_atom_site_label
_atom_site_fract_x
_atom_site_fract_y
_atom_site_fract_z
Si Si1 0.625346 0.879337 0.852267
Si Si2 0.060489 0.258605 0.908514
Si Si3 0.370806 0.990919 0.335605
Si Si4 0.258090 0.564340 0.529192
Si Si5 0.232671 0.687333 0.145155
Si Si6 0.977880 0.905042 0.623633
Si Si7 0.151835 0.374254 0.739763
Si Si8 0.217332 0.996837 0.334010
O O1 0.500000 0.932263 0.750000
O O2 0.647815 0.904644 0.771794
O O3 0.637843 0.685919 0.882386
O O4 0.715020 0.992011 0.000266
O O5 0.179495 0.340801 0.016990
O O6 0.000000 0.238483 0.750000
O O7 0.985884 0.373454 0.896513
O O8 0.076861 0.076955 0.962713
O O9 0.333396 0.807476 0.277640
O O10 0.296954 0.065066 0.339023
O O11 0.500000 0.000000 0.500000
O O12 0.284200 0.401372 0.611348
O O13 0.201730 0.519684 0.374375
O O14 0.204429 0.567676 0.200013
O O15 0.110155 0.770430 0.000549
O O16 0.000000 0.882910 0.750000
O O17 0.104946 0.890705 0.714985
O O18 0.183470 0.186933 0.782547
#
# Coordination Sequence:
#
# PCOD8118067 Si02
#       8
#     4   4   4   4   4   4   4   4
#     4  11  21  40  68  86 116 174 218 256 321 384
#     4   8  15  32  55  82 115 162 198 237 294 372
#     4  11  22  40  65  95 126 155 213 274 312 374
#     4  10  21  38  58  84 121 165 210 248 302 385
#     4  11  23  37  60  93 128 164 204 261 323 369
#     4  10  19  35  61  94 132 159 204 263 315 377
#     4   8  18  35  58  83 122 162 204 238 300 380
#     4   9  19  37  64  95 124 160 205 260 318 378
#
# _framework density 21.927921999999999
#
# number of rings (size 3 to 8) (size 9 to 14) (size 15 to 20)
#    0.000    2.250    1.250    3.750    0.000    7.500 
#    0.000    3.750    0.000    0.000    0.000    0.000 
#    0.000    0.000    0.000    0.000    0.000    0.000 
#
# Total GULP energy -396505.245726 kJ/mol
# GULP energy per Si atom -12390.788929 kJ/mol
# Density = 2.187801 g / cm^3
# Si number density = 21.927922 Si / 1000 Ang^3
#
#
#
# Elastic Constant Matrix: (Units=GPa)
#
#
# Indices 1 2 3 4 5 6 
#
# 1 108.2499 18.2382 43.4312 0.0000 -4.8680 0.0000
# 2 18.2382 41.9766 25.8680 0.0000 -4.9103 0.0000
# 3 43.4312 25.8680 102.2959 0.0000 0.4277 0.0000
# 4 0.0000 0.0000 0.0000 25.1455 0.0000 -7.3740
# 5 -4.8680 -4.9103 0.4277 0.0000 42.5382 0.0000
# 6 0.0000 0.0000 0.0000 -7.3740 0.0000 24.3471
#
#
#
# Elastic Compliance Matrix: (Units=1/GPa)
#
#
# Indices 1 2 3 4 5 6 
#
# 1 0.011372 -0.002174 -0.004283 0.000000 0.001094 0.000000
# 2 -0.002174 0.029116 -0.006453 0.000000 0.003177 0.000000
# 3 -0.004283 -0.006453 0.013231 0.000000 -0.001368 0.000000
# 4 0.000000 0.000000 0.000000 0.043645 0.000000 0.013219
# 5 0.001094 0.003177 -0.001368 0.000000 0.024014 0.000000
# 6 0.000000 0.000000 0.000000 0.013219 0.000000 0.045076
#
#
# Mechanical properties :
#
#
# Convention : Reuss Voigt Hill
#
# Bulk Modulus (GPa) = 35.84284 47.51082 41.67683
# Shear Modulus (GPa) = 24.80497 29.40517 27.10507
#
# Velocity S-wave (km/s) = 3.36699 3.66593 3.51963
# Velocity P-wave (km/s) = 5.61219 6.29544 5.96361
#
# Compressibility (1/GPa) = 0.02789958
#
# Stress axis : x y z
#
# Youngs Moduli (GPa) = 87.93819 34.34595 75.57740
#
# Poissons Ratio (x) = 0.07465 0.32369
# Poissons Ratio (y) = 0.19114 0.48770
# Poissons Ratio (z) = 0.37663 0.22164
#
# Static dielectric constant tensor:
#      x y z
#    x 4.578300 0.000000 -0.176320 
#    y 0.000000 3.611440 0.000000 
#    z -0.176320 0.000000 4.088530 
# 
# 
# High freq. dielectric constant tensor:
#      x y z
#    x 1.874580 0.000000 -0.012080 
#    y 0.000000 1.814650 0.000000 
#    z -0.012080 0.000000 1.858610 
# 
# From -- ./inp_files/57288.got.cif
#   From: 2010.06.25/outbox.cif.g09.slc.cpg/sg13_29_cif.got.tgz:57288.got - 2010.06.28 04:50:58.
