data_PCOD8118677
_publ_section_title
;
Structure prediction by ZEFSAII (Michael W. Deem and Ramdas Pophale) SiO2 
 PCOD8118677
Probable space group: P 2/C
;
_chemical_formula_sum "Si O2"
_cell_formula_units_Z 24
_cell_length_a 14.957756
_cell_length_b 8.498668
_cell_length_c 9.185160
_cell_angle_alpha 90.000000
_cell_angle_beta 72.405423
_cell_angle_gamma 90.000000
_cell_volume 1113.004328
_symmetry_space_group_name_H-M "P 2/C"
_symmetry_group_IT_number 13
_symmetry_cell_setting 'monoclinic'
loop_
_space_group_symop_operation_xyz
x,y,z
-x,y,1/2-z
-x,-y,-z
x,-y,1/2+z
loop_
_atom_site_type_symbol
_atom_site_label
_atom_site_fract_x
_atom_site_fract_y
_atom_site_fract_z
Si Si1 0.910213 0.674425 0.365270
Si Si2 0.606338 0.182742 0.668821
Si Si3 0.710117 0.685608 0.370003
Si Si4 0.603513 0.818556 0.666005
Si Si5 0.707982 0.319578 0.361864
Si Si6 0.911940 0.664595 0.714740
O O1 0.811536 0.755443 0.369243
O O2 0.921521 0.659637 0.534344
O O3 0.909204 0.509974 0.280277
O O4 0.000000 0.767386 0.250000
O O5 0.500000 0.242224 0.750000
O O6 0.686402 0.282954 0.713319
O O7 0.635286 0.212985 0.488150
O O8 0.615124 0.999966 0.703746
O O9 0.627628 0.787168 0.486237
O O10 0.702720 0.501419 0.410340
O O11 0.500000 0.758485 0.750000
O O12 0.675898 0.704248 0.712266
O O13 0.814991 0.254416 0.313823
O O14 0.000000 0.753174 0.750000
#
# Coordination Sequence:
#
# PCOD8118677 Si02
#       6
#     4   4   4   4   4   4
#     4  10  20  34  59  91 125 160 197 249 310 368
#     4  11  25  41  62  87 120 172 209 245 310 371
#     4  11  23  38  63  95 123 154 207 259 306 352
#     4  11  23  43  62  85 124 166 207 247 304 383
#     4  11  23  38  63  95 123 154 207 259 306 352
#     4  10  20  34  59  91 125 160 197 249 310 368
#
# _framework density 21.563257
#
# number of rings (size 3 to 8) (size 9 to 14) (size 15 to 20)
#    0.000    1.333    1.667    5.000    9.333    6.667 
#    0.000    0.000    0.000    6.000    0.000    0.000 
#    0.000    0.000    0.000    0.000    0.000    0.000 
#
# Total GULP energy -297449.585423 kJ/mol
# GULP energy per Si atom -12393.732726 kJ/mol
# Density = 2.151418 g / cm^3
# Si number density = 21.563257 Si / 1000 Ang^3
#
#
#
# Elastic Constant Matrix: (Units=GPa)
#
#
# Indices 1 2 3 4 5 6 
#
# 1 147.2105 40.2468 36.7866 0.0000 -7.5153 0.0000
# 2 40.2468 39.6413 16.8097 0.0000 -6.2236 0.0000
# 3 36.7866 16.8097 104.8622 0.0000 -7.5269 0.0000
# 4 0.0000 0.0000 0.0000 23.4498 0.0000 7.9250
# 5 -7.5153 -6.2236 -7.5269 0.0000 48.2397 0.0000
# 6 0.0000 0.0000 0.0000 7.9250 0.0000 11.9884
#
#
#
# Elastic Compliance Matrix: (Units=1/GPa)
#
#
# Indices 1 2 3 4 5 6 
#
# 1 0.009769 -0.009076 -0.001969 0.000000 0.000044 0.000000
# 2 -0.009076 0.035891 -0.002365 0.000000 0.002847 0.000000
# 3 -0.001969 -0.002365 0.010682 0.000000 0.001055 0.000000
# 4 0.000000 0.000000 0.000000 0.054912 0.000000 -0.036300
# 5 0.000044 0.002847 0.001055 0.000000 0.021269 0.000000
# 6 0.000000 0.000000 0.000000 -0.036300 0.000000 0.107410
#
#
# Mechanical properties :
#
#
# Convention : Reuss Voigt Hill
#
# Bulk Modulus (GPa) = 33.87379 53.26670 43.57024
# Shear Modulus (GPa) = 18.07716 29.92696 24.00206
#
# Velocity S-wave (km/s) = 2.89854 3.72945 3.33993
# Velocity P-wave (km/s) = 5.19087 6.58037 5.92648
#
# Compressibility (1/GPa) = 0.02952135
#
# Stress axis : x y z
#
# Youngs Moduli (GPa) = 102.36894 27.86225 93.61662
#
# Poissons Ratio (x) = 0.25288 0.18432
# Poissons Ratio (y) = 0.92911 0.22141
# Poissons Ratio (z) = 0.20155 0.06590
#
# Static dielectric constant tensor:
#      x y z
#    x 4.968630 0.000000 -0.251400 
#    y 0.000000 3.229370 0.000000 
#    z -0.251400 0.000000 3.884840 
# 
# 
# High freq. dielectric constant tensor:
#      x y z
#    x 1.872860 0.000000 -0.002990 
#    y 0.000000 1.793570 0.000000 
#    z -0.002990 0.000000 1.864750 
# 
# From -- ./inp_files/18035.got.cif
#   From: 2010.06.25/outbox.cif.g09.slc.cpg/sg13_10_cif.got.tgz:18035.got - 2010.06.28 04:50:58.
