data_PCOD8118320
_publ_section_title
;
Structure prediction by ZEFSAII (Michael W. Deem and Ramdas Pophale) SiO2 
 PCOD8118320
Probable space group: P 2/C
;
_chemical_formula_sum "Si O2"
_cell_formula_units_Z 32
_cell_length_a 8.203723
_cell_length_b 14.893346
_cell_length_c 14.300488
_cell_angle_alpha 90.000000
_cell_angle_beta 66.155248
_cell_angle_gamma 90.000000
_cell_volume 1598.108663
_symmetry_space_group_name_H-M "P 2/C"
_symmetry_group_IT_number 13
_symmetry_cell_setting 'monoclinic'
loop_
_space_group_symop_operation_xyz
x,y,z
-x,y,1/2-z
-x,-y,-z
x,-y,1/2+z
loop_
_atom_site_type_symbol
_atom_site_label
_atom_site_fract_x
_atom_site_fract_y
_atom_site_fract_z
Si Si1 0.043283 0.004301 0.098286
Si Si2 0.182511 0.824390 0.662584
Si Si3 0.974921 0.337891 0.864417
Si Si4 0.653649 0.442105 0.012714
Si Si5 0.308379 0.913751 0.802569
Si Si6 0.768697 0.168351 0.975508
Si Si7 0.654054 0.401806 0.641013
Si Si8 0.543633 0.716768 0.995188
O O1 0.161640 0.090082 0.098750
O O2 0.847959 0.015910 0.191649
O O3 0.145818 0.913812 0.103818
O O4 0.000000 0.000000 0.000000
O O5 0.318091 0.841402 0.716646
O O6 0.260211 0.742796 0.584408
O O7 0.000000 0.790839 0.750000
O O8 0.168529 0.360256 0.858314
O O9 0.000000 0.315146 0.750000
O O10 0.831875 0.419669 0.910171
O O11 0.906112 0.251327 0.938177
O O12 0.556601 0.347312 0.057549
O O13 0.500000 0.500000 0.000000
O O14 0.712224 0.500402 0.088119
O O15 0.500000 0.963128 0.750000
O O16 0.264750 0.864180 0.910176
O O17 0.582189 0.194702 0.968134
O O18 0.500000 0.420053 0.750000
O O19 0.564739 0.333656 0.588046
#
# Coordination Sequence:
#
# PCOD8118320 Si02
#       8
#     4   4   4   4   4   4   4   4
#     4   9  21  37  59  84 124 169 208 259 311 364
#     4  10  21  37  61  88 126 165 205 260 311 372
#     4  11  23  40  68  92 129 167 207 266 319 376
#     4   9  20  42  63  89 122 161 203 254 319 384
#     4  10  19  38  60  88 126 165 207 261 314 364
#     4  10  21  40  61  89 128 167 212 259 318 372
#     4  11  23  42  64  93 127 164 211 262 323 386
#     4  10  21  39  64  90 124 164 210 262 316 378
#
# _framework density 20.023669999999999
#
# number of rings (size 3 to 8) (size 9 to 14) (size 15 to 20)
#    0.000    2.000    1.250    2.625    5.250    2.000 
#    4.500    5.625    0.000    0.000    0.000    0.000 
#    0.000    0.000    0.000    0.000    0.000    0.000 
#
# Total GULP energy -396426.208591 kJ/mol
# GULP energy per Si atom -12388.319018 kJ/mol
# Density = 1.997809 g / cm^3
# Si number density = 20.023670 Si / 1000 Ang^3
#
#
#
# Elastic Constant Matrix: (Units=GPa)
#
#
# Indices 1 2 3 4 5 6 
#
# 1 105.2694 45.9153 35.5664 0.0000 -18.5455 0.0000
# 2 45.9153 95.4319 53.1326 0.0000 -14.6193 0.0000
# 3 35.5664 53.1326 103.7189 0.0000 -10.7877 0.0000
# 4 0.0000 0.0000 0.0000 23.8007 0.0000 -7.1116
# 5 -18.5455 -14.6193 -10.7877 0.0000 38.0549 0.0000
# 6 0.0000 0.0000 0.0000 -7.1116 0.0000 31.0860
#
#
#
# Elastic Compliance Matrix: (Units=1/GPa)
#
#
# Indices 1 2 3 4 5 6 
#
# 1 0.012764 -0.004651 -0.001580 0.000000 0.003986 0.000000
# 2 -0.004651 0.016852 -0.006801 0.000000 0.002279 0.000000
# 3 -0.001580 -0.006801 0.013720 0.000000 0.000507 0.000000
# 4 0.000000 0.000000 0.000000 0.045098 0.000000 0.010317
# 5 0.003986 0.002279 0.000507 0.000000 0.029240 0.000000
# 6 0.000000 0.000000 0.000000 0.010317 0.000000 0.034529
#
#
# Mechanical properties :
#
#
# Convention : Reuss Voigt Hill
#
# Bulk Modulus (GPa) = 57.89561 63.73875 60.81718
# Shear Modulus (GPa) = 27.17038 29.90872 28.53955
#
# Velocity S-wave (km/s) = 3.68763 3.86899 3.77940
# Velocity P-wave (km/s) = 6.86351 7.20136 7.03447
#
# Compressibility (1/GPa) = 0.01727247
#
# Stress axis : x y z
#
# Youngs Moduli (GPa) = 78.34534 59.33971 72.88731
#
# Poissons Ratio (x) = 0.27599 0.11514
# Poissons Ratio (y) = 0.36439 0.49570
# Poissons Ratio (z) = 0.12377 0.40357
#
# Static dielectric constant tensor:
#      x y z
#    x 3.896060 0.000000 -0.142660 
#    y 0.000000 4.058200 0.000000 
#    z -0.142660 0.000000 3.821630 
# 
# 
# High freq. dielectric constant tensor:
#      x y z
#    x 1.797940 0.000000 -0.012060 
#    y 0.000000 1.769130 0.000000 
#    z -0.012060 0.000000 1.776150 
# 
# From -- ./inp_files/47678.got.cif
#   From: 2010.06.25/outbox.cif.g09.slc.cpg/sg13_24_cif.got.tgz:47678.got - 2010.06.28 04:50:58.
