data_PCOD8118889
_publ_section_title
;
Structure prediction by ZEFSAII (Michael W. Deem and Ramdas Pophale) SiO2 
 PCOD8118889
Probable space group: P 2/C
;
_chemical_formula_sum "Si O2"
_cell_formula_units_Z 28
_cell_length_a 9.121661
_cell_length_b 20.045005
_cell_length_c 15.269887
_cell_angle_alpha 90.000000
_cell_angle_beta 28.281786
_cell_angle_gamma 90.000000
_cell_volume 1322.874277
_symmetry_space_group_name_H-M "P 2/C"
_symmetry_group_IT_number 13
_symmetry_cell_setting 'monoclinic'
loop_
_space_group_symop_operation_xyz
x,y,z
-x,y,1/2-z
-x,-y,-z
x,-y,1/2+z
loop_
_atom_site_type_symbol
_atom_site_label
_atom_site_fract_x
_atom_site_fract_y
_atom_site_fract_z
Si Si1 0.400819 0.648257 0.208368
Si Si2 0.558286 0.912364 0.123685
Si Si3 0.282615 0.607652 0.947956
Si Si4 0.274708 0.526910 0.546669
Si Si5 0.637981 0.706961 0.450153
Si Si6 0.635210 0.144956 0.941916
Si Si7 0.176350 0.965683 0.747323
O O1 0.500000 0.678499 0.250000
O O2 0.506030 0.694017 0.070511
O O3 0.031584 0.644700 0.411801
O O4 0.570123 0.577859 0.102714
O O5 0.500000 0.884093 0.250000
O O6 0.499582 0.852879 0.086261
O O7 0.328612 0.971511 0.214339
O O8 0.914327 0.934438 0.945583
O O9 0.500000 0.598094 0.750000
O O10 0.171833 0.536492 0.043264
O O11 0.472869 0.652601 0.919543
O O12 0.500000 0.500000 0.500000
O O13 0.000000 0.558642 0.750000
O O14 0.561702 0.782430 0.521681
O O15 0.000000 0.696286 0.250000
O O16 0.000000 0.129544 0.750000
O O17 0.454060 0.087066 0.088423
O O18 0.000000 0.985612 0.750000
#
# Coordination Sequence:
#
# PCOD8118889 Si02
#       7
#     4   4   4   4   4   4   4
#     4  11  24  39  61  90 117 150 197 242 292 345
#     4  11  21  35  57  88 119 147 186 241 287 330
#     4  11  23  41  61  85 118 154 193 240 292 353
#     4  12  22  39  64  87 119 155 191 240 296 350
#     4   9  20  42  61  80 115 158 195 239 287 346
#     4  10  20  38  62  80 110 157 196 227 284 346
#     4  10  20  36  57  83 116 152 191 228 282 345
#
# _framework density 21.166032999999999
#
# number of rings (size 3 to 8) (size 9 to 14) (size 15 to 20)
#    0.000    1.429    2.857    4.286    2.000    1.714 
#    0.000   11.429    0.000    0.000    0.000    0.000 
#    0.000    0.000    0.000    0.000    0.000    0.000 
#
# Total GULP energy -346980.201406 kJ/mol
# GULP energy per Si atom -12392.150050 kJ/mol
# Density = 2.111786 g / cm^3
# Si number density = 21.166033 Si / 1000 Ang^3
#
#
#
# Elastic Constant Matrix: (Units=GPa)
#
#
# Indices 1 2 3 4 5 6 
#
# 1 85.9039 10.7910 20.2379 0.0000 10.5503 0.0000
# 2 10.7910 69.2402 -0.6175 0.0000 -0.0329 0.0000
# 3 20.2379 -0.6175 92.5092 0.0000 1.3414 0.0000
# 4 0.0000 0.0000 0.0000 8.8240 0.0000 -11.4842
# 5 10.5503 -0.0329 1.3414 0.0000 38.8998 0.0000
# 6 0.0000 0.0000 0.0000 -11.4842 0.0000 1.3700
#
#
#
# Elastic Compliance Matrix: (Units=1/GPa)
#
#
# Indices 1 2 3 4 5 6 
#
# 1 0.012980 -0.002049 -0.002803 0.000000 -0.003425 0.000000
# 2 -0.002049 0.014767 0.000539 0.000000 0.000550 0.000000
# 3 -0.002803 0.000539 0.011421 0.000000 0.000367 0.000000
# 4 0.000000 0.000000 0.000000 -0.011435 0.000000 -0.095863
# 5 -0.003425 0.000550 0.000367 0.000000 0.026624 0.000000
# 6 0.000000 0.000000 0.000000 -0.095863 0.000000 -0.073657
#
#
# Mechanical properties :
#
#
# Convention : Reuss Voigt Hill
#
# Bulk Modulus (GPa) = 32.74421 34.27513 33.50967
# Shear Modulus (GPa) = -10139.29287 24.30155 -5057.49566
#
# Velocity S-wave (km/s) = -69.28752 3.39210 -48.93492
# Velocity P-wave (km/s) = 79.90938 5.61875 56.36461
#
# Compressibility (1/GPa) = 0.03053975
#
# Stress axis : x y z
#
# Youngs Moduli (GPa) = 77.04450 67.71880 87.55558
#
# Poissons Ratio (x) = 0.13879 0.24546
# Poissons Ratio (y) = 0.15790 -0.04719
# Poissons Ratio (z) = 0.21599 -0.03650
#
# Static dielectric constant tensor:
#      x y z
#    x 4.050340 0.000000 0.007890 
#    y 0.000000 3.420830 0.000000 
#    z 0.007890 0.000000 3.741470 
# 
# 
# High freq. dielectric constant tensor:
#      x y z
#    x 1.830180 0.000000 -0.004310 
#    y 0.000000 1.814680 0.000000 
#    z -0.004310 0.000000 1.826750 
# 
# From -- ./inp_files/48205.got.cif
#   From: 2010.06.25/outbox.cif.g09.slc.cpg/sg13_25_cif.got.tgz:48205.got - 2010.06.28 04:50:58.
