data_PCOD8118136
_publ_section_title
;
Structure prediction by ZEFSAII (Michael W. Deem and Ramdas Pophale) SiO2 
 PCOD8118136
Probable space group: P 2/C
;
_chemical_formula_sum "Si O2"
_cell_formula_units_Z 22
_cell_length_a 12.089239
_cell_length_b 11.911503
_cell_length_c 10.155340
_cell_angle_alpha 90.000000
_cell_angle_beta 53.100351
_cell_angle_gamma 90.000000
_cell_volume 1169.447576
_symmetry_space_group_name_H-M "P 2/C"
_symmetry_group_IT_number 13
_symmetry_cell_setting 'monoclinic'
loop_
_space_group_symop_operation_xyz
x,y,z
-x,y,1/2-z
-x,-y,-z
x,-y,1/2+z
loop_
_atom_site_type_symbol
_atom_site_label
_atom_site_fract_x
_atom_site_fract_y
_atom_site_fract_z
Si Si1 0.376962 0.736686 0.038544
Si Si2 0.590200 0.031698 0.060311
Si Si3 0.155896 0.394562 0.116965
Si Si4 0.500000 0.578977 0.750000
Si Si5 0.611751 0.787176 0.057728
Si Si6 0.733099 0.544110 0.226576
O O1 0.533031 0.764093 0.976533
O O2 0.282750 0.673938 0.214181
O O3 0.313226 0.859285 0.043194
O O4 0.387916 0.654469 0.905788
O O5 0.500000 0.068633 0.250000
O O6 0.669652 0.915064 0.035137
O O7 0.500000 0.000000 0.000000
O O8 0.201789 0.471521 0.204490
O O9 0.000000 0.353604 0.250000
O O10 0.253314 0.287776 0.032746
O O11 0.166953 0.462449 0.971616
O O12 0.419588 0.500891 0.702831
O O13 0.500000 0.757997 0.250000
#
# Coordination Sequence:
#
# PCOD8118136 Si02
#       6
#     4   4   4   2   4   4
#     4  11  19  33  58  89 119 144 185 248 298 333
#     4   9  19  32  54  87 116 143 180 240 298 337
#     4  12  25  40  58  83 121 161 195 234 288 355
#     4  12  20  32  58  94 120 148 188 248 296 336
#     4  10  19  36  59  85 112 147 193 241 290 337
#     4  12  23  37  58  86 120 155 196 238 293 345
#
# _framework density 18.812301999999999
#
# number of rings (size 3 to 8) (size 9 to 14) (size 15 to 20)
#    0.000    1.091    6.364    2.182    0.000    0.000 
#    0.000    0.000    0.000    2.182    0.000    0.000 
#    0.000    0.000    0.000    0.000    0.000    0.000 
#
# Total GULP energy -272641.044519 kJ/mol
# GULP energy per Si atom -12392.774751 kJ/mol
# Density = 1.876948 g / cm^3
# Si number density = 18.812302 Si / 1000 Ang^3
#
#
#
# Elastic Constant Matrix: (Units=GPa)
#
#
# Indices 1 2 3 4 5 6 
#
# 1 64.9613 44.9816 51.1293 0.0000 4.4358 0.0000
# 2 44.9816 147.1765 56.3275 0.0000 -4.3879 0.0000
# 3 51.1293 56.3275 106.3819 0.0000 9.5011 0.0000
# 4 0.0000 0.0000 0.0000 27.2797 0.0000 10.8594
# 5 4.4358 -4.3879 9.5011 0.0000 35.5314 0.0000
# 6 0.0000 0.0000 0.0000 10.8594 0.0000 12.1336
#
#
#
# Elastic Compliance Matrix: (Units=1/GPa)
#
#
# Indices 1 2 3 4 5 6 
#
# 1 0.026593 -0.004141 -0.010497 0.000000 -0.001024 0.000000
# 2 -0.004141 0.009356 -0.003189 0.000000 0.002525 0.000000
# 3 -0.010497 -0.003189 0.016445 0.000000 -0.003481 0.000000
# 4 0.000000 0.000000 0.000000 0.056945 0.000000 -0.050965
# 5 -0.001024 0.002525 -0.003481 0.000000 0.029515 0.000000
# 6 0.000000 0.000000 0.000000 -0.050965 0.000000 0.128029
#
#
# Mechanical properties :
#
#
# Convention : Reuss Voigt Hill
#
# Bulk Modulus (GPa) = 59.73920 69.26626 64.50273
# Shear Modulus (GPa) = 16.22762 26.06101 21.14432
#
# Velocity S-wave (km/s) = 2.94020 3.72602 3.35619
# Velocity P-wave (km/s) = 6.58413 7.44383 7.02714
#
# Compressibility (1/GPa) = 0.01673943
#
# Stress axis : x y z
#
# Youngs Moduli (GPa) = 37.60400 106.88387 60.80949
#
# Poissons Ratio (x) = 0.44257 0.63833
# Poissons Ratio (y) = 0.15570 0.19394
# Poissons Ratio (z) = 0.39474 0.34088
#
# Static dielectric constant tensor:
#      x y z
#    x 3.284190 0.000000 0.384110 
#    y 0.000000 4.060220 0.000000 
#    z 0.384110 0.000000 3.557760 
# 
# 
# High freq. dielectric constant tensor:
#      x y z
#    x 1.696000 0.000000 0.053540 
#    y 0.000000 1.751050 0.000000 
#    z 0.053540 0.000000 1.716360 
# 
# From -- ./inp_files/29110.got.cif
#   From: 2010.06.25/outbox.cif.g09.slc.cpg/sg13_15_cif.got.tgz:29110.got - 2010.06.28 04:50:58.
