data_PCOD8118153
_publ_section_title
;
Structure prediction by ZEFSAII (Michael W. Deem and Ramdas Pophale) SiO2 
 PCOD8118153
Probable space group: P 2/C
;
_chemical_formula_sum "Si O2"
_cell_formula_units_Z 32
_cell_length_a 8.982747
_cell_length_b 11.405287
_cell_length_c 30.102603
_cell_angle_alpha 90.000000
_cell_angle_beta 32.105610
_cell_angle_gamma 90.000000
_cell_volume 1639.108138
_symmetry_space_group_name_H-M "P 2/C"
_symmetry_group_IT_number 13
_symmetry_cell_setting 'monoclinic'
loop_
_space_group_symop_operation_xyz
x,y,z
-x,y,1/2-z
-x,-y,-z
x,-y,1/2+z
loop_
_atom_site_type_symbol
_atom_site_label
_atom_site_fract_x
_atom_site_fract_y
_atom_site_fract_z
Si Si1 0.898003 0.583395 0.918557
Si Si2 0.703283 0.742628 0.736208
Si Si3 0.194025 0.085167 0.012883
Si Si4 0.186583 0.286073 0.418845
Si Si5 0.733857 0.171524 0.011849
Si Si6 0.270948 0.332158 0.566789
Si Si7 0.796895 0.841036 0.343406
Si Si8 0.829798 0.080964 0.377704
O O1 0.890688 0.446771 0.909167
O O2 0.116856 0.635848 0.828497
O O3 0.000693 0.608423 0.943850
O O4 0.602541 0.645150 0.984583
O O5 0.500000 0.793439 0.750000
O O6 0.513428 0.695249 0.824603
O O7 0.892280 0.848753 0.704609
O O8 0.272694 0.089619 0.045323
O O9 0.923325 0.164707 0.074501
O O10 0.464705 0.135012 0.917155
O O11 0.105377 0.952417 0.021419
O O12 0.176812 0.269877 0.474331
O O13 0.407002 0.135375 0.094620
O O14 0.810784 0.229271 0.946011
O O15 0.170300 0.284945 0.640148
O O16 0.000000 0.834262 0.250000
O O17 0.898957 0.947108 0.348654
#
# Coordination Sequence:
#
# PCOD8118153 Si02
#       8
#     4   4   4   4   4   4   4   4
#     4  10  21  39  64  82 111 159 213 247 297 363
#     4  10  19  36  60  87 118 150 200 253 300 345
#     4  11  19  40  60  88 126 164 200 236 311 381
#     4  11  22  36  61  90 124 156 199 257 303 357
#     4  11  21  34  60  93 123 159 197 249 300 373
#     4  11  20  41  64  82 111 165 205 244 307 362
#     4  11  22  36  64  91 124 153 202 260 305 369
#     4  11  19  37  62  91 122 161 202 239 304 384
#
# _framework density 19.522812999999999
#
# number of rings (size 3 to 8) (size 9 to 14) (size 15 to 20)
#    0.000    1.250    7.500    1.125    3.500    0.500 
#    0.000    2.500    8.250    0.000    0.000    0.000 
#    0.000    0.000    0.000    0.000    0.000    0.000 
#
# Total GULP energy -396557.143565 kJ/mol
# GULP energy per Si atom -12392.410736 kJ/mol
# Density = 1.947838 g / cm^3
# Si number density = 19.522813 Si / 1000 Ang^3
#
#
#
# Elastic Constant Matrix: (Units=GPa)
#
#
# Indices 1 2 3 4 5 6 
#
# 1 63.0477 28.0746 27.2946 0.0000 6.8220 0.0000
# 2 28.0746 110.2737 37.1612 0.0000 -1.3350 0.0000
# 3 27.2946 37.1612 99.1892 0.0000 5.5857 0.0000
# 4 0.0000 0.0000 0.0000 20.7704 0.0000 -3.7999
# 5 6.8220 -1.3350 5.5857 0.0000 29.1051 0.0000
# 6 0.0000 0.0000 0.0000 -3.7999 0.0000 37.3887
#
#
#
# Elastic Compliance Matrix: (Units=1/GPa)
#
#
# Indices 1 2 3 4 5 6 
#
# 1 0.019605 -0.003776 -0.003752 0.000000 -0.004048 0.000000
# 2 -0.003776 0.011150 -0.003252 0.000000 0.002021 0.000000
# 3 -0.003752 -0.003252 0.012426 0.000000 -0.001654 0.000000
# 4 0.000000 0.000000 0.000000 0.049057 0.000000 0.004986
# 5 -0.004048 0.002021 -0.001654 0.000000 0.035717 0.000000
# 6 0.000000 0.000000 0.000000 0.004986 0.000000 0.027253
#
#
# Mechanical properties :
#
#
# Convention : Reuss Voigt Hill
#
# Bulk Modulus (GPa) = 46.25255 50.84127 48.54691
# Shear Modulus (GPa) = 27.17758 29.45152 28.31455
#
# Velocity S-wave (km/s) = 3.73512 3.88824 3.81245
# Velocity P-wave (km/s) = 6.50727 6.80121 6.65586
#
# Compressibility (1/GPa) = 0.02162043
#
# Stress axis : x y z
#
# Youngs Moduli (GPa) = 51.00804 89.68606 80.47740
#
# Poissons Ratio (x) = 0.33863 0.30197
# Poissons Ratio (y) = 0.19259 0.26172
# Poissons Ratio (z) = 0.19139 0.29167
#
# Static dielectric constant tensor:
#      x y z
#    x 3.568150 0.000000 -0.055020 
#    y 0.000000 3.649210 0.000000 
#    z -0.055020 0.000000 3.587620 
# 
# 
# High freq. dielectric constant tensor:
#      x y z
#    x 1.751810 0.000000 -0.004920 
#    y 0.000000 1.756140 0.000000 
#    z -0.004920 0.000000 1.745870 
# 
# From -- ./inp_files/96114.got.cif
#   From: 2010.06.25/outbox.cif.g09.slc.cpg/sg13_49_cif.got.tgz:96114.got - 2010.06.28 04:50:58.
