data_PCOD8118430
_publ_section_title
;
Structure prediction by ZEFSAII (Michael W. Deem and Ramdas Pophale) SiO2 
 PCOD8118430
Probable space group: P 2/C
;
_chemical_formula_sum "Si O2"
_cell_formula_units_Z 30
_cell_length_a 8.647971
_cell_length_b 9.328735
_cell_length_c 30.966577
_cell_angle_alpha 90.000000
_cell_angle_beta 142.752318
_cell_angle_gamma 90.000000
_cell_volume 1512.075359
_symmetry_space_group_name_H-M "P 2/C"
_symmetry_group_IT_number 13
_symmetry_cell_setting 'monoclinic'
loop_
_space_group_symop_operation_xyz
x,y,z
-x,y,1/2-z
-x,-y,-z
x,-y,1/2+z
loop_
_atom_site_type_symbol
_atom_site_label
_atom_site_fract_x
_atom_site_fract_y
_atom_site_fract_z
Si Si1 0.739984 0.966877 0.753469
Si Si2 0.191222 0.036258 0.632704
Si Si3 0.958620 0.698134 0.447908
Si Si4 0.620217 0.528956 0.480642
Si Si5 0.589183 0.583749 0.153921
Si Si6 0.021111 0.237091 0.056576
Si Si7 0.000000 0.830966 0.250000
Si Si8 0.550894 0.655341 0.711292
O O1 0.741861 0.792831 0.750614
O O2 0.471684 0.020791 0.673220
O O3 0.767831 0.009154 0.808613
O O4 0.968720 0.055027 0.781990
O O5 0.078733 0.192391 0.599610
O O6 0.993870 0.921707 0.569514
O O7 0.703503 0.609966 0.399439
O O8 0.176172 0.592508 0.482280
O O9 0.041892 0.779003 0.509751
O O10 0.500000 0.500000 0.500000
O O11 0.407404 0.524923 0.394848
O O12 0.764855 0.680857 0.513750
O O13 0.684921 0.469538 0.211751
O O14 0.753905 0.728873 0.191520
O O15 0.274276 0.312790 0.130415
O O16 0.500000 0.608826 0.750000
#
# Coordination Sequence:
#
# PCOD8118430 Si02
#       8
#     4   4   4   4   4   4   2   4
#     4  10  22  40  61  91 133 160 209 267 313 378
#     4  10  20  39  66  92 117 171 214 252 318 384
#     4  11  20  40  69  90 125 165 210 266 316 386
#     4  11  24  41  62  93 131 158 208 276 319 375
#     4  11  24  42  63  94 127 169 214 255 324 387
#     4  10  19  40  63  92 122 162 213 257 318 379
#     4  12  26  42  58  94 136 166 202 264 326 380
#     4  11  20  40  69  93 120 168 221 264 306 386
#
# _framework density 19.840281000000001
#
# number of rings (size 3 to 8) (size 9 to 14) (size 15 to 20)
#    0.000    1.333    6.667    1.200    1.867    2.667 
#    2.400    0.667    0.000    0.000    0.000    0.000 
#    0.000    0.000    0.000    0.000    0.000    0.000 
#
# Total GULP energy -371828.465504 kJ/mol
# GULP energy per Si atom -12394.282183 kJ/mol
# Density = 1.979512 g / cm^3
# Si number density = 19.840281 Si / 1000 Ang^3
#
#
#
# Elastic Constant Matrix: (Units=GPa)
#
#
# Indices 1 2 3 4 5 6 
#
# 1 103.7660 53.4234 32.8391 0.0000 -18.1843 0.0000
# 2 53.4234 106.7885 39.4642 0.0000 -21.8363 0.0000
# 3 32.8391 39.4642 82.7241 0.0000 -24.7998 0.0000
# 4 0.0000 0.0000 0.0000 42.7663 0.0000 -3.8209
# 5 -18.1843 -21.8363 -24.7998 0.0000 23.4484 0.0000
# 6 0.0000 0.0000 0.0000 -3.8209 0.0000 33.5423
#
#
#
# Elastic Compliance Matrix: (Units=1/GPa)
#
#
# Indices 1 2 3 4 5 6 
#
# 1 0.013620 -0.005425 -0.001708 0.000000 0.003703 0.000000
# 2 -0.005425 0.014399 -0.002866 0.000000 0.006171 0.000000
# 3 -0.001708 -0.002866 0.018942 0.000000 0.016041 0.000000
# 4 0.000000 0.000000 0.000000 0.023623 0.000000 0.002691
# 5 0.003703 0.006171 0.016041 0.000000 0.068231 0.000000
# 6 0.000000 0.000000 0.000000 0.002691 0.000000 0.030120
#
#
# Mechanical properties :
#
#
# Convention : Reuss Voigt Hill
#
# Bulk Modulus (GPa) = 37.08719 60.52579 48.80649
# Shear Modulus (GPa) = 25.26256 31.12151 28.19204
#
# Velocity S-wave (km/s) = 3.57220 3.96486 3.77364
# Velocity P-wave (km/s) = 5.97893 7.17864 6.60607
#
# Compressibility (1/GPa) = 0.02696349
#
# Stress axis : x y z
#
# Youngs Moduli (GPa) = 73.42287 69.44827 52.79144
#
# Poissons Ratio (x) = 0.37676 0.09019
# Poissons Ratio (y) = 0.39832 0.15128
# Poissons Ratio (z) = 0.12544 0.19901
#
# Static dielectric constant tensor:
#      x y z
#    x 3.643620 0.000000 -0.137720 
#    y 0.000000 3.812690 0.000000 
#    z -0.137720 0.000000 3.854040 
# 
# 
# High freq. dielectric constant tensor:
#      x y z
#    x 1.755880 0.000000 -0.015850 
#    y 0.000000 1.782550 0.000000 
#    z -0.015850 0.000000 1.776890 
# 
# From -- ./inp_files/96007.got.cif
#   From: 2010.06.25/outbox.cif.g09.slc.cpg/sg13_49_cif.got.tgz:96007.got - 2010.06.28 04:50:58.
