data_PCOD8118190
_publ_section_title
;
Structure prediction by ZEFSAII (Michael W. Deem and Ramdas Pophale) SiO2 
 PCOD8118190
Probable space group: P 2/C
;
_chemical_formula_sum "Si O2"
_cell_formula_units_Z 24
_cell_length_a 15.672647
_cell_length_b 10.033842
_cell_length_c 21.194349
_cell_angle_alpha 90.000000
_cell_angle_beta 22.067147
_cell_angle_gamma 90.000000
_cell_volume 1252.168346
_symmetry_space_group_name_H-M "P 2/C"
_symmetry_group_IT_number 13
_symmetry_cell_setting 'monoclinic'
loop_
_space_group_symop_operation_xyz
x,y,z
-x,y,1/2-z
-x,-y,-z
x,-y,1/2+z
loop_
_atom_site_type_symbol
_atom_site_label
_atom_site_fract_x
_atom_site_fract_y
_atom_site_fract_z
Si Si1 0.736071 0.342958 0.436297
Si Si2 0.735363 0.135635 0.051554
Si Si3 0.546236 0.794422 0.948195
Si Si4 0.748714 0.642032 0.448043
Si Si5 0.213886 0.043886 0.763379
Si Si6 0.532784 0.890543 0.152833
O O1 0.640400 0.315329 0.432147
O O2 0.669542 0.489365 0.507227
O O3 0.641553 0.243315 0.552856
O O4 0.000000 0.323452 0.250000
O O5 0.500000 0.133073 0.250000
O O6 0.702491 0.016396 0.022381
O O7 0.763699 0.283627 0.004927
O O8 0.952720 0.091686 0.943762
O O9 0.747556 0.888377 0.781964
O O10 0.437821 0.716777 0.964793
O O11 0.349665 0.876688 0.116950
O O12 0.000000 0.650768 0.250000
O O13 0.300494 0.077836 0.774506
O O14 0.500000 0.871261 0.250000
#
# Coordination Sequence:
#
# PCOD8118190 Si02
#       6
#     4   4   4   4   4   4
#     4  10  22  37  59  88 118 152 193 243 291 349
#     4  11  23  38  59  87 120 154 196 244 293 347
#     4  10  19  36  63  90 116 150 195 246 293 348
#     4  11  21  38  61  87 119 154 195 241 292 351
#     4  10  20  36  62  91 116 152 198 243 295 345
#     4  10  22  39  59  83 118 157 193 243 288 350
#
# _framework density 19.166753
#
# number of rings (size 3 to 8) (size 9 to 14) (size 15 to 20)
#    0.000    1.667    3.333    1.500    0.000    4.000 
#    3.000    0.000    0.000    3.000    0.000    0.000 
#    0.000    0.000    0.000    0.000    0.000    0.000 
#
# Total GULP energy -297434.668093 kJ/mol
# GULP energy per Si atom -12393.111171 kJ/mol
# Density = 1.912313 g / cm^3
# Si number density = 19.166753 Si / 1000 Ang^3
#
#
#
# Elastic Constant Matrix: (Units=GPa)
#
#
# Indices 1 2 3 4 5 6 
#
# 1 102.2869 69.7118 39.2997 0.0000 -5.8955 0.0000
# 2 69.7118 155.7785 51.4023 0.0000 -12.9234 0.0000
# 3 39.2997 51.4023 84.8201 0.0000 -13.1900 0.0000
# 4 0.0000 0.0000 0.0000 74.4598 0.0000 24.0496
# 5 -5.8955 -12.9234 -13.1900 0.0000 28.3955 0.0000
# 6 0.0000 0.0000 0.0000 24.0496 0.0000 46.1176
#
#
#
# Elastic Compliance Matrix: (Units=1/GPa)
#
#
# Indices 1 2 3 4 5 6 
#
# 1 0.014921 -0.005541 -0.003736 0.000000 -0.001159 0.000000
# 2 -0.005541 0.010141 -0.003276 0.000000 0.001943 0.000000
# 3 -0.003736 -0.003276 0.016333 0.000000 0.005320 0.000000
# 4 0.000000 0.000000 0.000000 0.016150 0.000000 -0.008422
# 5 -0.001159 0.001943 0.005320 0.000000 0.038332 0.000000
# 6 0.000000 0.000000 0.000000 -0.008422 0.000000 0.026076
#
#
# Mechanical properties :
#
#
# Convention : Reuss Voigt Hill
#
# Bulk Modulus (GPa) = 61.38798 73.74592 67.56695
# Shear Modulus (GPa) = 32.78912 41.95937 37.37425
#
# Velocity S-wave (km/s) = 4.14058 4.68394 4.42062
# Velocity P-wave (km/s) = 7.41331 8.23480 7.83483
#
# Compressibility (1/GPa) = 0.01628983
#
# Stress axis : x y z
#
# Youngs Moduli (GPa) = 67.01879 98.60768 61.22401
#
# Poissons Ratio (x) = 0.54636 0.22873
# Poissons Ratio (y) = 0.37133 0.20059
# Poissons Ratio (z) = 0.25038 0.32307
#
# Static dielectric constant tensor:
#      x y z
#    x 3.488720 0.000000 -0.263790 
#    y 0.000000 3.998700 0.000000 
#    z -0.263790 0.000000 3.288430 
# 
# 
# High freq. dielectric constant tensor:
#      x y z
#    x 1.750150 0.000000 -0.017750 
#    y 0.000000 1.753350 0.000000 
#    z -0.017750 0.000000 1.734510 
# 
# From -- ./inp_files/80134.got.cif
#   From: 2010.06.25/outbox.cif.g09.slc.cpg/sg13_41_cif.got.tgz:80134.got - 2010.06.28 04:50:58.
