data_PCOD8118971
_publ_section_title
;
Structure prediction by ZEFSAII (Michael W. Deem and Ramdas Pophale) SiO2 
 PCOD8118971
Probable space group: P 2/C
;
_chemical_formula_sum "Si O2"
_cell_formula_units_Z 24
_cell_length_a 12.502366
_cell_length_b 16.703788
_cell_length_c 9.668414
_cell_angle_alpha 90.000000
_cell_angle_beta 34.937410
_cell_angle_gamma 90.000000
_cell_volume 1156.312929
_symmetry_space_group_name_H-M "P 2/C"
_symmetry_group_IT_number 13
_symmetry_cell_setting 'monoclinic'
loop_
_space_group_symop_operation_xyz
x,y,z
-x,y,1/2-z
-x,-y,-z
x,-y,1/2+z
loop_
_atom_site_type_symbol
_atom_site_label
_atom_site_fract_x
_atom_site_fract_y
_atom_site_fract_z
Si Si1 0.757340 0.239384 0.816902
Si Si2 0.263353 0.554576 0.878617
Si Si3 0.000000 0.330018 0.750000
Si Si4 0.703629 0.969218 0.739677
Si Si5 0.009272 0.886713 0.586253
Si Si6 0.665126 0.411323 0.873834
Si Si7 0.500000 0.868030 0.750000
O O1 0.833067 0.272791 0.881461
O O2 0.709600 0.319708 0.782714
O O3 0.918799 0.187584 0.577595
O O4 0.577224 0.185209 0.041469
O O5 0.232770 0.464879 0.852452
O O6 0.441330 0.585322 0.604692
O O7 0.084874 0.612535 0.036796
O O8 0.279320 0.559803 0.029654
O O9 0.805242 0.913184 0.746000
O O10 0.670312 0.921310 0.631137
O O11 0.842241 0.041689 0.566212
O O12 0.500000 0.000000 0.000000
O O13 0.000000 0.853428 0.750000
#
# Coordination Sequence:
#
# PCOD8118971 Si02
#       7
#     4   4   2   4   4   4   2
#     4  11  22  38  59  93 121 160 201 266 311 365
#     4   9  18  35  59  83 115 158 204 251 302 379
#     4  10  20  36  60  90 116 156 210 254 300 370
#     4  11  23  43  68  90 120 170 213 254 310 382
#     4  11  25  42  61  95 131 161 209 261 316 382
#     4   9  19  37  59  83 117 158 205 251 307 376
#     4  12  22  40  70  90 120 168 214 256 312 378
#
# _framework density 20.755628000000002
#
# number of rings (size 3 to 8) (size 9 to 14) (size 15 to 20)
#    0.000    1.667    1.667    4.000    2.333    2.667 
#    4.500    0.000    7.333    0.000    0.000    0.000 
#    0.000    0.000    0.000    0.000    0.000    0.000 
#
# Total GULP energy -297335.544229 kJ/mol
# GULP energy per Si atom -12388.981010 kJ/mol
# Density = 2.070839 g / cm^3
# Si number density = 20.755628 Si / 1000 Ang^3
#
#
#
# Elastic Constant Matrix: (Units=GPa)
#
#
# Indices 1 2 3 4 5 6 
#
# 1 77.5253 47.7572 30.5189 0.0000 -8.0620 0.0000
# 2 47.7572 147.1501 48.5580 0.0000 0.8858 0.0000
# 3 30.5189 48.5580 91.9868 0.0000 -2.6891 0.0000
# 4 0.0000 0.0000 0.0000 31.3746 0.0000 6.4758
# 5 -8.0620 0.8858 -2.6891 0.0000 30.7027 0.0000
# 6 0.0000 0.0000 0.0000 6.4758 0.0000 33.5855
#
#
#
# Elastic Compliance Matrix: (Units=1/GPa)
#
#
# Indices 1 2 3 4 5 6 
#
# 1 0.017487 -0.004639 -0.003223 0.000000 0.004443 0.000000
# 2 -0.004639 0.009471 -0.003513 0.000000 -0.001799 0.000000
# 3 -0.003223 -0.003513 0.013809 0.000000 0.000464 0.000000
# 4 0.000000 0.000000 0.000000 0.033194 0.000000 -0.006400
# 5 0.004443 -0.001799 0.000464 0.000000 0.033830 0.000000
# 6 0.000000 0.000000 0.000000 -0.006400 0.000000 0.031009
#
#
# Mechanical properties :
#
#
# Convention : Reuss Voigt Hill
#
# Bulk Modulus (GPa) = 55.50330 63.37006 59.43668
# Shear Modulus (GPa) = 29.84064 31.78776 30.81420
#
# Velocity S-wave (km/s) = 3.79583 3.91772 3.85726
# Velocity P-wave (km/s) = 6.78310 7.14580 6.96681
#
# Compressibility (1/GPa) = 0.01801695
#
# Stress axis : x y z
#
# Youngs Moduli (GPa) = 57.18372 105.58051 72.41753
#
# Poissons Ratio (x) = 0.48974 0.23343
# Poissons Ratio (y) = 0.26525 0.25443
# Poissons Ratio (z) = 0.18433 0.37095
#
# Static dielectric constant tensor:
#      x y z
#    x 3.838640 0.000000 -0.274820 
#    y 0.000000 4.050890 0.000000 
#    z -0.274820 0.000000 4.056880 
# 
# 
# High freq. dielectric constant tensor:
#      x y z
#    x 1.792460 0.000000 -0.023240 
#    y 0.000000 1.823220 0.000000 
#    z -0.023240 0.000000 1.811700 
# 
# From -- ./inp_files/37485.got.cif
#   From: 2010.06.25/outbox.cif.g09.slc.cpg/sg13_19_cif.got.tgz:37485.got - 2010.06.28 04:50:58.
