data_PCOD8118655
_publ_section_title
;
Structure prediction by ZEFSAII (Michael W. Deem and Ramdas Pophale) SiO2 
 PCOD8118655
Probable space group: P 2/C
;
_chemical_formula_sum "Si O2"
_cell_formula_units_Z 24
_cell_length_a 23.729738
_cell_length_b 11.368964
_cell_length_c 9.756169
_cell_angle_alpha 90.000000
_cell_angle_beta 149.818716
_cell_angle_gamma 90.000000
_cell_volume 1323.227495
_symmetry_space_group_name_H-M "P 2/C"
_symmetry_group_IT_number 13
_symmetry_cell_setting 'monoclinic'
loop_
_space_group_symop_operation_xyz
x,y,z
-x,y,1/2-z
-x,-y,-z
x,-y,1/2+z
loop_
_atom_site_type_symbol
_atom_site_label
_atom_site_fract_x
_atom_site_fract_y
_atom_site_fract_z
Si Si1 0.433337 0.936398 0.240210
Si Si2 0.269628 0.134707 0.848766
Si Si3 0.359486 0.426643 0.811911
Si Si4 0.614554 0.370442 0.332910
Si Si5 0.920729 0.970367 0.956478
Si Si6 0.750144 0.206726 0.999280
O O1 0.500000 0.881010 0.250000
O O2 0.500000 0.000000 0.500000
O O3 0.362554 0.835449 0.163782
O O4 0.359105 0.034215 0.011156
O O5 0.164841 0.080498 0.711349
O O6 0.231833 0.168190 0.618720
O O7 0.326730 0.242573 0.052732
O O8 0.350010 0.555209 0.726072
O O9 0.262788 0.348102 0.535211
O O10 0.479666 0.361258 0.045396
O O11 0.341851 0.437161 0.938504
O O12 0.856764 0.845307 0.803788
O O13 0.000000 0.952533 0.250000
O O14 0.000000 0.000000 0.000000
#
# Coordination Sequence:
#
# PCOD8118655 Si02
#       6
#     4   4   4   4   4   4
#     4  11  20  31  48  78 112 140 172 214 265 326
#     4  10  20  34  57  77 106 148 179 215 275 332
#     4   9  18  35  53  79 111 146 179 215 258 322
#     4   9  18  34  55  77 111 147 179 211 262 320
#     4  11  22  39  58  81 105 137 184 234 284 324
#     4  10  20  35  55  79 106 143 182 220 270 328
#
# _framework density 18.13747
#
# number of rings (size 3 to 8) (size 9 to 14) (size 15 to 20)
#    0.000    2.000    3.333    1.000    2.333    0.000 
#   12.000    0.000    0.000    2.000    0.000    0.000 
#    0.000    0.000    0.000    0.000    0.000    0.000 
#
# Total GULP energy -297389.272041 kJ/mol
# GULP energy per Si atom -12391.219668 kJ/mol
# Density = 1.809619 g / cm^3
# Si number density = 18.137470 Si / 1000 Ang^3
#
#
#
# Elastic Constant Matrix: (Units=GPa)
#
#
# Indices 1 2 3 4 5 6 
#
# 1 96.7432 16.5161 19.0923 0.0000 1.8648 0.0000
# 2 16.5161 71.4518 26.5225 0.0000 -1.3738 0.0000
# 3 19.0923 26.5225 78.4356 0.0000 -0.2072 0.0000
# 4 0.0000 0.0000 0.0000 29.0035 0.0000 -3.5371
# 5 1.8648 -1.3738 -0.2072 0.0000 23.5120 0.0000
# 6 0.0000 0.0000 0.0000 -3.5371 0.0000 22.3199
#
#
#
# Elastic Compliance Matrix: (Units=1/GPa)
#
#
# Indices 1 2 3 4 5 6 
#
# 1 0.011076 -0.001804 -0.002089 0.000000 -0.001002 0.000000
# 2 -0.001804 0.016317 -0.005075 0.000000 0.001052 0.000000
# 3 -0.002089 -0.005075 0.014974 0.000000 0.000001 0.000000
# 4 0.000000 0.000000 0.000000 0.035158 0.000000 0.005572
# 5 -0.001002 0.001052 0.000001 0.000000 0.042673 0.000000
# 6 0.000000 0.000000 0.000000 0.005572 0.000000 0.045686
#
#
# Mechanical properties :
#
#
# Convention : Reuss Voigt Hill
#
# Bulk Modulus (GPa) = 40.93300 41.21028 41.07164
# Shear Modulus (GPa) = 26.04660 27.26703 26.65682
#
# Velocity S-wave (km/s) = 3.79366 3.88152 3.83784
# Velocity P-wave (km/s) = 6.46578 6.54665 6.50634
#
# Compressibility (1/GPa) = 0.02443017
#
# Stress axis : x y z
#
# Youngs Moduli (GPa) = 90.28380 61.28693 66.78265
#
# Poissons Ratio (x) = 0.11058 0.13949
# Poissons Ratio (y) = 0.16289 0.33895
# Poissons Ratio (z) = 0.18857 0.31106
#
# Static dielectric constant tensor:
#      x y z
#    x 3.338900 0.000000 -0.022140 
#    y 0.000000 3.216730 0.000000 
#    z -0.022140 0.000000 3.409180 
# 
# 
# High freq. dielectric constant tensor:
#      x y z
#    x 1.701600 0.000000 -0.017580 
#    y 0.000000 1.686360 0.000000 
#    z -0.017580 0.000000 1.695020 
# 
# From -- ./inp_files/15796.got.cif
#   From: 2010.06.25/outbox.cif.g09.slc.cpg/sg13_8_cif.got.tgz:15796.got - 2010.06.28 04:50:58.
