data_PCOD8118501
_publ_section_title
;
Structure prediction by ZEFSAII (Michael W. Deem and Ramdas Pophale) SiO2 
 PCOD8118501
Probable space group: P 2/C
;
_chemical_formula_sum "Si O2"
_cell_formula_units_Z 28
_cell_length_a 21.490173
_cell_length_b 14.430448
_cell_length_c 21.256568
_cell_angle_alpha 90.000000
_cell_angle_beta 13.307543
_cell_angle_gamma 90.000000
_cell_volume 1517.317300
_symmetry_space_group_name_H-M "P 2/C"
_symmetry_group_IT_number 13
_symmetry_cell_setting 'monoclinic'
loop_
_space_group_symop_operation_xyz
x,y,z
-x,y,1/2-z
-x,-y,-z
x,-y,1/2+z
loop_
_atom_site_type_symbol
_atom_site_label
_atom_site_fract_x
_atom_site_fract_y
_atom_site_fract_z
Si Si1 0.241709 0.618970 0.966196
Si Si2 0.902844 0.828782 0.074612
Si Si3 0.690722 0.445973 0.237291
Si Si4 0.223719 0.378202 0.774955
Si Si5 0.177446 0.897555 0.206259
Si Si6 0.411220 0.932511 0.531507
Si Si7 0.650634 0.830732 0.663958
O O1 0.500000 0.587061 0.750000
O O2 0.231745 0.561022 0.911884
O O3 0.240516 0.727331 0.951239
O O4 0.000000 0.592803 0.250000
O O5 0.807703 0.723180 0.165143
O O6 0.902027 0.863494 0.146916
O O7 0.691081 0.882658 0.237486
O O8 0.203352 0.850716 0.754954
O O9 0.420931 0.386854 0.519927
O O10 0.655936 0.554467 0.289110
O O11 0.924469 0.405048 0.050121
O O12 0.913354 0.892530 0.421478
O O13 0.281810 0.004351 0.103809
O O14 0.424092 0.832640 0.941032
O O15 0.500000 0.000000 0.500000
O O16 0.500000 0.869190 0.750000
#
# Coordination Sequence:
#
# PCOD8118501 Si02
#       7
#     4   4   4   4   4   4   4
#     4  11  21  34  51  74 104 136 171 211 250 302
#     4  11  19  32  51  76 102 132 167 201 252 305
#     4  10  20  35  51  78 107 136 174 207 261 316
#     4  10  20  33  54  77 107 139 167 213 259 316
#     4  11  19  32  49  68 101 134 159 205 250 287
#     4  10  20  32  48  74 101 128 166 201 243 304
#     4  11  21  32  47  71  98 131 171 200 239 298
#
# _framework density 18.453620999999998
#
# number of rings (size 3 to 8) (size 9 to 14) (size 15 to 20)
#    0.000    1.429    0.000    9.857    0.000    0.000 
#    0.000    0.000    0.000    0.000    0.000   10.000 
#    0.000    0.000    0.000    0.000    0.000    0.000 
#
# Total GULP energy -347087.857533 kJ/mol
# GULP energy per Si atom -12395.994912 kJ/mol
# Density = 1.841162 g / cm^3
# Si number density = 18.453621 Si / 1000 Ang^3
#
#
#
# Elastic Constant Matrix: (Units=GPa)
#
#
# Indices 1 2 3 4 5 6 
#
# 1 78.7638 34.6385 22.7450 0.0000 -3.9813 0.0000
# 2 34.6385 83.8953 26.0838 0.0000 -12.3234 0.0000
# 3 22.7450 26.0838 112.4798 0.0000 -5.6721 0.0000
# 4 0.0000 0.0000 0.0000 29.6267 0.0000 -1.2356
# 5 -3.9813 -12.3234 -5.6721 0.0000 35.1350 0.0000
# 6 0.0000 0.0000 0.0000 -1.2356 0.0000 23.2094
#
#
#
# Elastic Compliance Matrix: (Units=1/GPa)
#
#
# Indices 1 2 3 4 5 6 
#
# 1 0.015864 -0.006073 -0.001831 0.000000 -0.000628 0.000000
# 2 -0.006073 0.015771 -0.002203 0.000000 0.004488 0.000000
# 3 -0.001831 -0.002203 0.009802 0.000000 0.000602 0.000000
# 4 0.000000 0.000000 0.000000 0.033828 0.000000 0.001801
# 5 -0.000628 0.004488 0.000602 0.000000 0.030062 0.000000
# 6 0.000000 0.000000 0.000000 0.001801 0.000000 0.043182
#
#
# Mechanical properties :
#
#
# Convention : Reuss Voigt Hill
#
# Bulk Modulus (GPa) = 47.11876 49.11927 48.11901
# Shear Modulus (GPa) = 28.44181 30.37233 29.40707
#
# Velocity S-wave (km/s) = 3.93015 4.06134 3.99628
# Velocity P-wave (km/s) = 6.79586 6.97625 6.88665
#
# Compressibility (1/GPa) = 0.02122297
#
# Stress axis : x y z
#
# Youngs Moduli (GPa) = 63.03614 63.40730 102.01959
#
# Poissons Ratio (x) = 0.38506 0.18683
# Poissons Ratio (y) = 0.38280 0.22475
# Poissons Ratio (z) = 0.11544 0.13968
#
# Static dielectric constant tensor:
#      x y z
#    x 3.326050 0.000000 -0.153110 
#    y 0.000000 3.580200 0.000000 
#    z -0.153110 0.000000 3.742560 
# 
# 
# High freq. dielectric constant tensor:
#      x y z
#    x 1.682790 0.000000 -0.012420 
#    y 0.000000 1.696910 0.000000 
#    z -0.012420 0.000000 1.745320 
# 
# From -- ./inp_files/89192.got.cif
#   From: 2010.06.25/outbox.cif.g09.slc.cpg/sg13_45_cif.got.tgz:89192.got - 2010.06.28 04:50:58.
