data_PCOD8118172
_publ_section_title
;
Structure prediction by ZEFSAII (Michael W. Deem and Ramdas Pophale) SiO2 
 PCOD8118172
Probable space group: P 2/C
;
_chemical_formula_sum "Si O2"
_cell_formula_units_Z 28
_cell_length_a 21.152068
_cell_length_b 8.537527
_cell_length_c 19.957798
_cell_angle_alpha 90.000000
_cell_angle_beta 21.402352
_cell_angle_gamma 90.000000
_cell_volume 1315.192329
_symmetry_space_group_name_H-M "P 2/C"
_symmetry_group_IT_number 13
_symmetry_cell_setting 'monoclinic'
loop_
_space_group_symop_operation_xyz
x,y,z
-x,y,1/2-z
-x,-y,-z
x,-y,1/2+z
loop_
_atom_site_type_symbol
_atom_site_label
_atom_site_fract_x
_atom_site_fract_y
_atom_site_fract_z
Si Si1 0.810148 0.544284 0.102875
Si Si2 0.697442 0.023379 0.053237
Si Si3 0.108613 0.681578 0.084635
Si Si4 0.850711 0.337631 0.181558
Si Si5 0.984966 0.877016 0.086879
Si Si6 0.284858 0.889987 0.325906
Si Si7 0.676755 0.928206 0.926665
O O1 0.747619 0.449080 0.230880
O O2 0.711696 0.708341 0.197345
O O3 0.770803 0.442792 0.074324
O O4 0.019870 0.563150 0.899002
O O5 0.500000 0.070728 0.250000
O O6 0.742401 0.899092 0.067050
O O7 0.790077 0.187496 0.973755
O O8 0.745261 0.941805 0.935577
O O9 0.989214 0.768210 0.147767
O O10 0.000000 0.592593 0.250000
O O11 0.713648 0.246868 0.363145
O O12 0.979044 0.221243 0.015036
O O13 0.791200 0.948429 0.271063
O O14 0.130774 0.013314 0.943840
O O15 0.472077 0.964632 0.120987
#
# Coordination Sequence:
#
# PCOD8118172 Si02
#       7
#     4   4   4   4   4   4   4
#     4  10  22  39  54  83 125 155 192 237 291 362
#     4   9  20  38  59  89 114 141 199 253 286 340
#     4  10  19  36  62  86 110 157 196 233 303 351
#     4  10  22  39  59  83 120 159 193 241 290 348
#     4  10  20  39  62  87 115 149 200 252 280 334
#     4  10  22  37  61  89 118 150 194 248 288 350
#     4  11  20  36  65  88 113 153 198 241 298 334
#
# _framework density 21.289663000000001
#
# number of rings (size 3 to 8) (size 9 to 14) (size 15 to 20)
#    0.000    2.000    2.857    0.429    0.000    2.286 
#    0.000    3.571    9.429    0.000    0.000    0.000 
#    0.000    0.000    0.000    0.000    0.000    0.000 
#
# Total GULP energy -347046.570124 kJ/mol
# GULP energy per Si atom -12394.520362 kJ/mol
# Density = 2.124121 g / cm^3
# Si number density = 21.289663 Si / 1000 Ang^3
#
#
#
# Elastic Constant Matrix: (Units=GPa)
#
#
# Indices 1 2 3 4 5 6 
#
# 1 53.2756 31.4435 19.7762 0.0000 11.8362 0.0000
# 2 31.4435 104.7917 32.2404 0.0000 4.3236 0.0000
# 3 19.7762 32.2404 76.4107 0.0000 1.2998 0.0000
# 4 0.0000 0.0000 0.0000 24.3483 0.0000 3.5804
# 5 11.8362 4.3236 1.2998 0.0000 28.7817 0.0000
# 6 0.0000 0.0000 0.0000 3.5804 0.0000 22.2250
#
#
#
# Elastic Compliance Matrix: (Units=1/GPa)
#
#
# Indices 1 2 3 4 5 6 
#
# 1 0.026028 -0.006196 -0.003959 0.000000 -0.009594 0.000000
# 2 -0.006196 0.012501 -0.003685 0.000000 0.000837 0.000000
# 3 -0.003959 -0.003685 0.015642 0.000000 0.001475 0.000000
# 4 0.000000 0.000000 0.000000 0.042067 0.000000 -0.006777
# 5 -0.009594 0.000837 0.001475 0.000000 0.038498 0.000000
# 6 0.000000 0.000000 0.000000 -0.006777 0.000000 0.046086
#
#
# Mechanical properties :
#
#
# Convention : Reuss Voigt Hill
#
# Bulk Modulus (GPa) = 37.74929 44.59979 41.17454
# Shear Modulus (GPa) = 23.00614 25.13886 24.07250
#
# Velocity S-wave (km/s) = 3.29085 3.44001 3.36626
# Velocity P-wave (km/s) = 5.67533 6.06405 5.87291
#
# Compressibility (1/GPa) = 0.02649056
#
# Stress axis : x y z
#
# Youngs Moduli (GPa) = 38.41944 79.99193 63.93185
#
# Poissons Ratio (x) = 0.49564 0.25310
# Poissons Ratio (y) = 0.23805 0.23561
# Poissons Ratio (z) = 0.15210 0.29479
#
# Static dielectric constant tensor:
#      x y z
#    x 4.094770 0.000000 0.241760 
#    y 0.000000 3.883890 0.000000 
#    z 0.241760 0.000000 3.650870 
# 
# 
# High freq. dielectric constant tensor:
#      x y z
#    x 1.844060 0.000000 0.018270 
#    y 0.000000 1.828800 0.000000 
#    z 0.018270 0.000000 1.815180 
# 
# From -- ./inp_files/82132.got.cif
#   From: 2010.06.25/outbox.cif.g09.slc.cpg/sg13_42_cif.got.tgz:82132.got - 2010.06.28 04:50:58.
