data_PCOD8118309
_publ_section_title
;
Structure prediction by ZEFSAII (Michael W. Deem and Ramdas Pophale) SiO2 
 PCOD8118309
Probable space group: P 2/C
;
_chemical_formula_sum "Si O2"
_cell_formula_units_Z 32
_cell_length_a 7.648518
_cell_length_b 15.920246
_cell_length_c 23.974005
_cell_angle_alpha 90.000000
_cell_angle_beta 145.787552
_cell_angle_gamma 90.000000
_cell_volume 1641.372704
_symmetry_space_group_name_H-M "P 2/C"
_symmetry_group_IT_number 13
_symmetry_cell_setting 'monoclinic'
loop_
_space_group_symop_operation_xyz
x,y,z
-x,y,1/2-z
-x,-y,-z
x,-y,1/2+z
loop_
_atom_site_type_symbol
_atom_site_label
_atom_site_fract_x
_atom_site_fract_y
_atom_site_fract_z
Si Si1 0.391701 0.505286 0.664570
Si Si2 0.208607 0.335283 0.254283
Si Si3 0.180801 0.085400 0.061824
Si Si4 0.376377 0.710264 0.966163
Si Si5 0.204510 0.396383 0.519391
Si Si6 0.708559 0.012025 0.141648
Si Si7 0.760623 0.264019 0.460089
Si Si8 0.242736 0.108557 0.455472
O O1 0.500000 0.457443 0.750000
O O2 0.620295 0.584031 0.723873
O O3 0.435384 0.444175 0.623000
O O4 0.034256 0.536985 0.570922
O O5 0.462600 0.265721 0.339921
O O6 0.000000 0.366935 0.250000
O O7 0.981690 0.295629 0.148569
O O8 0.540880 0.064911 0.146517
O O9 0.108592 0.167945 0.003639
O O10 0.091893 0.109465 0.101696
O O11 0.000000 0.000000 0.000000
O O12 0.419730 0.642156 0.027004
O O13 0.641754 0.700465 0.988766
O O14 0.407759 0.802081 0.999925
O O15 0.028037 0.324929 0.508288
O O16 0.817489 0.076506 0.122619
O O17 0.000000 0.969190 0.250000
O O18 0.486421 0.944880 0.055310
#
# Coordination Sequence:
#
# PCOD8118309 Si02
#       8
#     4   4   4   4   4   4   4   4
#     4  10  19  38  58  81 118 146 188 240 293 356
#     4   9  20  34  54  88 115 141 184 250 296 350
#     4  10  20  35  56  85 119 152 196 246 295 348
#     4  11  19  35  60  83 116 151 190 240 299 343
#     4  10  21  36  58  84 113 155 184 234 302 347
#     4  10  22  38  55  84 120 159 197 242 296 356
#     4  10  20  34  55  86 118 147 192 238 293 352
#     4  10  21  36  60  84 118 156 196 248 295 350
#
# _framework density 19.495878000000001
#
# number of rings (size 3 to 8) (size 9 to 14) (size 15 to 20)
#    0.000    2.000    3.750    0.000    1.750    0.500 
#    2.250    2.500    2.750    0.000    0.000    0.000 
#    0.000    0.000    0.000    0.000    0.000    0.000 
#
# Total GULP energy -396507.397163 kJ/mol
# GULP energy per Si atom -12390.856161 kJ/mol
# Density = 1.945150 g / cm^3
# Si number density = 19.495878 Si / 1000 Ang^3
#
#
#
# Elastic Constant Matrix: (Units=GPa)
#
#
# Indices 1 2 3 4 5 6 
#
# 1 130.3851 30.5204 31.6868 0.0000 -6.8156 0.0000
# 2 30.5204 82.4399 24.2724 0.0000 -11.8658 0.0000
# 3 31.6868 24.2724 71.5925 0.0000 -15.0630 0.0000
# 4 0.0000 0.0000 0.0000 6.7292 0.0000 -4.6097
# 5 -6.8156 -11.8658 -15.0630 0.0000 21.3217 0.0000
# 6 0.0000 0.0000 0.0000 -4.6097 0.0000 32.3942
#
#
#
# Elastic Compliance Matrix: (Units=1/GPa)
#
#
# Indices 1 2 3 4 5 6 
#
# 1 0.009014 -0.002480 -0.003328 0.000000 -0.000849 0.000000
# 2 -0.002480 0.014630 -0.002721 0.000000 0.005427 0.000000
# 3 -0.003328 -0.002721 0.018583 0.000000 0.010550 0.000000
# 4 0.000000 0.000000 0.000000 0.164657 0.000000 0.023431
# 5 -0.000849 0.005427 0.010550 0.000000 0.057103 0.000000
# 6 0.000000 0.000000 0.000000 0.023431 0.000000 0.034204
#
#
# Mechanical properties :
#
#
# Convention : Reuss Voigt Hill
#
# Bulk Modulus (GPa) = 39.72806 50.81966 45.27386
# Shear Modulus (GPa) = 15.44933 25.28487 20.36710
#
# Velocity S-wave (km/s) = 2.81809 3.60520 3.23567
# Velocity P-wave (km/s) = 5.56873 6.59192 6.10181
#
# Compressibility (1/GPa) = 0.02517113
#
# Stress axis : x y z
#
# Youngs Moduli (GPa) = 110.93402 68.35131 53.81245
#
# Poissons Ratio (x) = 0.16949 0.17908
# Poissons Ratio (y) = 0.27509 0.14641
# Poissons Ratio (z) = 0.36916 0.18597
#
# Static dielectric constant tensor:
#      x y z
#    x 3.994300 0.000000 -0.039470 
#    y 0.000000 3.548500 0.000000 
#    z -0.039470 0.000000 3.263300 
# 
# 
# High freq. dielectric constant tensor:
#      x y z
#    x 1.778410 0.000000 -0.004950 
#    y 0.000000 1.756170 0.000000 
#    z -0.004950 0.000000 1.717690 
# 
# From -- ./inp_files/91681.got.cif
#   From: 2010.06.25/outbox.cif.g09.slc.cpg/sg13_46_cif.got.tgz:91681.got - 2010.06.28 04:50:58.
