data_PCOD8118848
_publ_section_title
;
Structure prediction by ZEFSAII (Michael W. Deem and Ramdas Pophale) SiO2 
 PCOD8118848
Probable space group: P 2/C
;
_chemical_formula_sum "Si O2"
_cell_formula_units_Z 24
_cell_length_a 18.254221
_cell_length_b 12.084030
_cell_length_c 12.873804
_cell_angle_alpha 90.000000
_cell_angle_beta 154.255966
_cell_angle_gamma 90.000000
_cell_volume 1233.454933
_symmetry_space_group_name_H-M "P 2/C"
_symmetry_group_IT_number 13
_symmetry_cell_setting 'monoclinic'
loop_
_space_group_symop_operation_xyz
x,y,z
-x,y,1/2-z
-x,-y,-z
x,-y,1/2+z
loop_
_atom_site_type_symbol
_atom_site_label
_atom_site_fract_x
_atom_site_fract_y
_atom_site_fract_z
Si Si1 0.325967 0.814243 0.641486
Si Si2 0.845266 0.810306 0.288948
Si Si3 0.773126 0.193818 0.254803
Si Si4 0.579961 0.011367 0.490410
Si Si5 0.434432 0.398915 0.552805
Si Si6 0.392150 0.358116 0.933993
O O1 0.194250 0.787385 0.382986
O O2 0.225397 0.832256 0.620044
O O3 0.429899 0.924922 0.736429
O O4 0.459347 0.714280 0.824141
O O5 0.750835 0.917021 0.213641
O O6 0.785539 0.703765 0.278607
O O7 0.043238 0.827814 0.557792
O O8 0.636831 0.111171 0.024485
O O9 0.725198 0.320625 0.173230
O O10 0.500000 0.000000 0.500000
O O11 0.500000 0.370650 0.750000
O O12 0.578895 0.374913 0.651885
O O13 0.376811 0.525474 0.472913
#
# Coordination Sequence:
#
# PCOD8118848 Si02
#       6
#     4   4   4   4   4   4
#     4   9  18  34  57  77 100 138 177 211 250 306
#     4  11  19  33  56  79 105 133 170 221 263 295
#     4  10  21  33  50  82 112 131 164 216 268 311
#     4   9  18  33  50  71 101 137 175 209 247 304
#     4  10  20  36  55  74 105 143 174 207 254 311
#     4   9  19  35  56  79  99 135 184 214 241 302
#
# _framework density 19.457542
#
# number of rings (size 3 to 8) (size 9 to 14) (size 15 to 20)
#    0.000    2.333    0.000    5.000    0.000    2.000 
#    0.000    0.833    0.000    0.000    0.000    0.000 
#    0.000    0.000    0.000    0.000    0.000    0.000 
#
# Total GULP energy -297479.098326 kJ/mol
# GULP energy per Si atom -12394.962430 kJ/mol
# Density = 1.941326 g / cm^3
# Si number density = 19.457542 Si / 1000 Ang^3
#
#
#
# Elastic Constant Matrix: (Units=GPa)
#
#
# Indices 1 2 3 4 5 6 
#
# 1 82.8515 20.7399 30.1196 0.0000 7.3841 0.0000
# 2 20.7399 106.7608 23.7910 0.0000 12.3922 0.0000
# 3 30.1196 23.7910 65.6579 0.0000 17.7857 0.0000
# 4 0.0000 0.0000 0.0000 14.5478 0.0000 6.7466
# 5 7.3841 12.3922 17.7857 0.0000 37.2438 0.0000
# 6 0.0000 0.0000 0.0000 6.7466 0.0000 30.1196
#
#
#
# Elastic Compliance Matrix: (Units=1/GPa)
#
#
# Indices 1 2 3 4 5 6 
#
# 1 0.014708 -0.001511 -0.006370 0.000000 0.000629 0.000000
# 2 -0.001511 0.010459 -0.002567 0.000000 -0.001955 0.000000
# 3 -0.006370 -0.002567 0.021259 0.000000 -0.008035 0.000000
# 4 0.000000 0.000000 0.000000 0.076707 0.000000 -0.017182
# 5 0.000629 -0.001955 -0.008035 0.000000 0.031213 0.000000
# 6 0.000000 0.000000 0.000000 -0.017182 0.000000 0.037050
#
#
# Mechanical properties :
#
#
# Convention : Reuss Voigt Hill
#
# Bulk Modulus (GPa) = 39.16880 44.95235 42.06058
# Shear Modulus (GPa) = 22.64480 28.42357 25.53418
#
# Velocity S-wave (km/s) = 3.41516 3.82619 3.62650
# Velocity P-wave (km/s) = 5.97706 6.53242 6.26090
#
# Compressibility (1/GPa) = 0.02553052
#
# Stress axis : x y z
#
# Youngs Moduli (GPa) = 67.99223 95.60955 47.03804
#
# Poissons Ratio (x) = 0.14443 0.29962
# Poissons Ratio (y) = 0.10271 0.12077
# Poissons Ratio (z) = 0.43309 0.24547
#
# Static dielectric constant tensor:
#      x y z
#    x 3.696150 0.000000 0.070650 
#    y 0.000000 3.922780 0.000000 
#    z 0.070650 0.000000 3.195260 
# 
# 
# High freq. dielectric constant tensor:
#      x y z
#    x 1.771810 0.000000 0.010010 
#    y 0.000000 1.769090 0.000000 
#    z 0.010010 0.000000 1.716430 
# 
# From -- ./inp_files/57736.got.cif
#   From: 2010.06.25/outbox.cif.g09.slc.cpg/sg13_29_cif.got.tgz:57736.got - 2010.06.28 04:50:58.
