data_PCOD8118277
_publ_section_title
;
Structure prediction by ZEFSAII (Michael W. Deem and Ramdas Pophale) SiO2 
 PCOD8118277
Probable space group: P 2/C
;
_chemical_formula_sum "Si O2"
_cell_formula_units_Z 30
_cell_length_a 11.157596
_cell_length_b 11.460744
_cell_length_c 14.697145
_cell_angle_alpha 90.000000
_cell_angle_beta 130.628048
_cell_angle_gamma 90.000000
_cell_volume 1426.366402
_symmetry_space_group_name_H-M "P 2/C"
_symmetry_group_IT_number 13
_symmetry_cell_setting 'monoclinic'
loop_
_space_group_symop_operation_xyz
x,y,z
-x,y,1/2-z
-x,-y,-z
x,-y,1/2+z
loop_
_atom_site_type_symbol
_atom_site_label
_atom_site_fract_x
_atom_site_fract_y
_atom_site_fract_z
Si Si1 0.148970 0.944157 0.217768
Si Si2 0.207285 0.888147 0.442023
Si Si3 0.237633 0.534245 0.120692
Si Si4 0.263012 0.888105 0.079066
Si Si5 0.925973 0.194210 0.355884
Si Si6 0.329606 0.274098 0.135051
Si Si7 0.006702 0.557440 0.651691
Si Si8 0.500000 0.285794 0.750000
O O1 0.235495 0.891941 0.348086
O O2 0.256049 0.923703 0.182403
O O3 0.977029 0.885832 0.121017
O O4 0.124036 0.082210 0.227723
O O5 0.295381 0.768372 0.515133
O O6 0.290769 0.999019 0.531016
O O7 0.322322 0.412062 0.143616
O O8 0.112645 0.526065 0.140849
O O9 0.362748 0.629100 0.220343
O O10 0.158484 0.570665 0.984824
O O11 0.410543 0.800077 0.134502
O O12 0.101947 0.820904 0.979486
O O13 0.805193 0.203619 0.378920
O O14 0.915807 0.314633 0.294370
O O15 0.500000 0.229317 0.250000
O O16 0.000000 0.501518 0.750000
#
# Coordination Sequence:
#
# PCOD8118277 Si02
#       8
#     4   4   4   4   4   4   4   2
#     4  10  20  37  62  97 130 160 213 265 321 388
#     4  10  21  37  64  97 121 169 210 260 331 385
#     4  10  23  45  63  93 128 171 213 268 320 373
#     4  11  21  39  63  91 131 167 203 268 316 390
#     4  10  19  37  64  89 126 164 212 256 319 384
#     4  11  21  39  64  85 128 167 209 263 319 384
#     4  10  22  41  71  96 118 167 224 267 314 385
#     4  12  24  42  68  92 132 172 214 264 336 372
#
# _framework density 21.032464999999998
#
# number of rings (size 3 to 8) (size 9 to 14) (size 15 to 20)
#    0.000    1.600    4.667    0.800    4.667    0.000 
#    4.800    6.000    0.000    0.000    0.000    0.000 
#    0.000    0.000    0.000    0.000    0.000    0.000 
#
# Total GULP energy -371779.431324 kJ/mol
# GULP energy per Si atom -12392.647711 kJ/mol
# Density = 2.098459 g / cm^3
# Si number density = 21.032465 Si / 1000 Ang^3
#
#
#
# Elastic Constant Matrix: (Units=GPa)
#
#
# Indices 1 2 3 4 5 6 
#
# 1 51.0209 23.7606 51.0019 0.0000 -0.9993 0.0000
# 2 23.7606 74.9854 42.0814 0.0000 4.3078 0.0000
# 3 51.0019 42.0814 117.9987 0.0000 -9.3655 0.0000
# 4 0.0000 0.0000 0.0000 29.2548 0.0000 9.1268
# 5 -0.9993 4.3078 -9.3655 0.0000 36.5542 0.0000
# 6 0.0000 0.0000 0.0000 9.1268 0.0000 19.3070
#
#
#
# Elastic Compliance Matrix: (Units=1/GPa)
#
#
# Indices 1 2 3 4 5 6 
#
# 1 0.035333 -0.002980 -0.014397 0.000000 -0.002372 0.000000
# 2 -0.002980 0.017391 -0.005189 0.000000 -0.003460 0.000000
# 3 -0.014397 -0.005189 0.016909 0.000000 0.004550 0.000000
# 4 0.000000 0.000000 0.000000 0.040096 0.000000 -0.018954
# 5 -0.002372 -0.003460 0.004550 0.000000 0.028865 0.000000
# 6 0.000000 0.000000 0.000000 -0.018954 0.000000 0.060755
#
#
# Mechanical properties :
#
#
# Convention : Reuss Voigt Hill
#
# Bulk Modulus (GPa) = 40.81456 53.07699 46.94578
# Shear Modulus (GPa) = 19.79041 25.50060 22.64550
#
# Velocity S-wave (km/s) = 3.07081 3.48579 3.28486
# Velocity P-wave (km/s) = 5.65869 6.44139 6.06269
#
# Compressibility (1/GPa) = 0.02450106
#
# Stress axis : x y z
#
# Youngs Moduli (GPa) = 28.30204 57.50159 59.13989
#
# Poissons Ratio (x) = 0.17136 0.85145
# Poissons Ratio (y) = 0.08434 0.30685
# Poissons Ratio (z) = 0.40747 0.29835
#
# Static dielectric constant tensor:
#      x y z
#    x 3.560220 0.000000 0.097580 
#    y 0.000000 3.932010 0.000000 
#    z 0.097580 0.000000 3.764230 
# 
# 
# High freq. dielectric constant tensor:
#      x y z
#    x 1.796780 0.000000 0.009220 
#    y 0.000000 1.833940 0.000000 
#    z 0.009220 0.000000 1.814290 
# 
# From -- ./inp_files/51188.got.cif
#   From: 2010.06.25/outbox.cif.g09.slc.cpg/sg13_26_cif.got.tgz:51188.got - 2010.06.28 04:50:58.
