data_PCOD8118470
_publ_section_title
;
Structure prediction by ZEFSAII (Michael W. Deem and Ramdas Pophale) SiO2 
 PCOD8118470
Probable space group: P 2/C
;
_chemical_formula_sum "Si O2"
_cell_formula_units_Z 30
_cell_length_a 15.036097
_cell_length_b 16.046207
_cell_length_c 13.685022
_cell_angle_alpha 90.000000
_cell_angle_beta 27.227916
_cell_angle_gamma 90.000000
_cell_volume 1510.684393
_symmetry_space_group_name_H-M "P 2/C"
_symmetry_group_IT_number 13
_symmetry_cell_setting 'monoclinic'
loop_
_space_group_symop_operation_xyz
x,y,z
-x,y,1/2-z
-x,-y,-z
x,-y,1/2+z
loop_
_atom_site_type_symbol
_atom_site_label
_atom_site_fract_x
_atom_site_fract_y
_atom_site_fract_z
Si Si1 0.791961 0.472935 0.481258
Si Si2 0.680775 0.882628 0.308012
Si Si3 0.098267 0.857850 0.959247
Si Si4 0.692779 0.647816 0.607951
Si Si5 0.477697 0.563299 0.430381
Si Si6 0.403031 0.734362 0.599888
Si Si7 0.439092 0.025156 0.197692
Si Si8 0.000000 0.232653 0.750000
O O1 0.823644 0.565587 0.497529
O O2 0.672797 0.478510 0.496808
O O3 0.682722 0.421449 0.673370
O O4 0.000000 0.433211 0.250000
O O5 0.599827 0.788022 0.391969
O O6 0.617505 0.935284 0.464563
O O7 0.591370 0.927829 0.299141
O O8 0.915248 0.887546 0.073568
O O9 0.215749 0.794909 0.772860
O O10 0.239478 0.929763 0.860862
O O11 0.002912 0.818477 0.148306
O O12 0.500000 0.610276 0.750000
O O13 0.614339 0.698178 0.775939
O O14 0.807582 0.711290 0.426727
O O15 0.500000 0.500000 0.500000
O O16 0.399716 0.655420 0.531499
O O17 0.500000 0.035709 0.250000
#
# Coordination Sequence:
#
# PCOD8118470 Si02
#       8
#     4   4   4   4   4   4   4   2
#     4  11  23  38  59  87 117 157 207 257 299 360
#     4  10  21  39  60  86 121 155 197 251 291 354
#     4  10  20  35  59  91 121 156 197 247 300 360
#     4  11  18  34  55  82 118 152 193 247 306 356
#     4  11  22  42  61  85 120 165 203 253 311 363
#     4  10  22  37  58  86 119 157 203 245 306 358
#     4  10  21  38  61  89 120 158 195 237 301 362
#     4  10  20  28  54  90 122 146 194 250 304 352
#
# _framework density 19.858549
#
# number of rings (size 3 to 8) (size 9 to 14) (size 15 to 20)
#    0.000    1.600    3.333    2.000    0.000    5.333 
#    2.400    0.000    0.000    0.000    1.733    0.000 
#    0.000    0.000    0.000    0.000    0.000    0.000 
#
# Total GULP energy -371730.457564 kJ/mol
# GULP energy per Si atom -12391.015252 kJ/mol
# Density = 1.981335 g / cm^3
# Si number density = 19.858549 Si / 1000 Ang^3
#
#
#
# Elastic Constant Matrix: (Units=GPa)
#
#
# Indices 1 2 3 4 5 6 
#
# 1 72.7666 34.8885 41.9820 0.0000 -1.5743 0.0000
# 2 34.8885 108.5558 37.9483 0.0000 2.6462 0.0000
# 3 41.9820 37.9483 130.4793 0.0000 -4.9273 0.0000
# 4 0.0000 0.0000 0.0000 78.3020 0.0000 59.6891
# 5 -1.5743 2.6462 -4.9273 0.0000 28.1173 0.0000
# 6 0.0000 0.0000 0.0000 59.6891 0.0000 80.3488
#
#
#
# Elastic Compliance Matrix: (Units=1/GPa)
#
#
# Indices 1 2 3 4 5 6 
#
# 1 0.018535 -0.004337 -0.004679 0.000000 0.000626 0.000000
# 2 -0.004337 0.011332 -0.001963 0.000000 -0.001653 0.000000
# 3 -0.004679 -0.001963 0.009802 0.000000 0.001641 0.000000
# 4 0.000000 0.000000 0.000000 0.029446 0.000000 -0.021875
# 5 0.000626 -0.001653 0.001641 0.000000 0.036043 0.000000
# 6 0.000000 0.000000 0.000000 -0.021875 0.000000 0.028696
#
#
# Mechanical properties :
#
#
# Convention : Reuss Voigt Hill
#
# Bulk Modulus (GPa) = 56.45683 60.15995 58.30839
# Shear Modulus (GPa) = 30.91861 50.48580 40.70221
#
# Velocity S-wave (km/s) = 3.95009 5.04756 4.53217
# Velocity P-wave (km/s) = 7.02107 8.02063 7.53744
#
# Compressibility (1/GPa) = 0.01771265
#
# Stress axis : x y z
#
# Youngs Moduli (GPa) = 53.95314 88.24532 102.01712
#
# Poissons Ratio (x) = 0.38268 0.47731
# Poissons Ratio (y) = 0.23397 0.20025
# Poissons Ratio (z) = 0.25243 0.17322
#
# Static dielectric constant tensor:
#      x y z
#    x 3.280200 0.000000 0.163330 
#    y 0.000000 3.786600 0.000000 
#    z 0.163330 0.000000 3.794510 
# 
# 
# High freq. dielectric constant tensor:
#      x y z
#    x 1.743220 0.000000 0.002110 
#    y 0.000000 1.776570 0.000000 
#    z 0.002110 0.000000 1.790740 
# 
# From -- ./inp_files/53853.got.cif
#   From: 2010.06.25/outbox.cif.g09.slc.cpg/sg13_27_cif.got.tgz:53853.got - 2010.06.28 04:50:58.
