data_PCOD8118879
_publ_section_title
;
Structure prediction by ZEFSAII (Michael W. Deem and Ramdas Pophale) SiO2 
 PCOD8118879
Probable space group: P 2/C
;
_chemical_formula_sum "Si O2"
_cell_formula_units_Z 28
_cell_length_a 11.894041
_cell_length_b 9.884488
_cell_length_c 13.127363
_cell_angle_alpha 90.000000
_cell_angle_beta 70.537856
_cell_angle_gamma 90.000000
_cell_volume 1455.154683
_symmetry_space_group_name_H-M "P 2/C"
_symmetry_group_IT_number 13
_symmetry_cell_setting 'monoclinic'
loop_
_space_group_symop_operation_xyz
x,y,z
-x,y,1/2-z
-x,-y,-z
x,-y,1/2+z
loop_
_atom_site_type_symbol
_atom_site_label
_atom_site_fract_x
_atom_site_fract_y
_atom_site_fract_z
Si Si1 0.293552 0.350755 0.441412
Si Si2 0.850240 0.873286 0.611934
Si Si3 0.500000 0.555717 0.750000
Si Si4 0.793990 0.257404 0.345425
Si Si5 0.000000 0.446337 0.250000
Si Si6 0.620604 0.500890 0.402367
Si Si7 0.127061 0.155129 0.981654
Si Si8 0.887529 0.444581 0.593634
O O1 0.224833 0.208782 0.450697
O O2 0.423901 0.347169 0.348920
O O3 0.296703 0.390717 0.561454
O O4 0.225292 0.465806 0.399386
O O5 0.808484 0.823652 0.735651
O O6 0.989315 0.850319 0.554426
O O7 0.827233 0.032325 0.602743
O O8 0.413783 0.461269 0.704546
O O9 0.677123 0.350529 0.380666
O O10 0.791395 0.152910 0.440630
O O11 0.908285 0.351052 0.338794
O O12 0.081986 0.538956 0.296707
O O13 0.500000 0.500000 0.500000
O O14 0.147926 0.290237 0.911450
O O15 0.000000 0.500000 0.500000
#
# Coordination Sequence:
#
# PCOD8118879 Si02
#       8
#     4   4   2   4   2   4   4   4
#     4  11  19  36  61  90 116 156 206 252 308 361
#     4  11  22  38  58  87 127 170 202 237 305 382
#     4  10  20  36  56  94 116 150 200 266 308 364
#     4  12  18  39  61  84 122 167 200 247 316 367
#     4  12  20  30  60  90 116 164 196 240 312 356
#     4  10  21  33  62  94 112 151 208 270 309 360
#     4  11  23  37  57  89 130 160 204 250 294 376
#     4  12  19  35  57  90 120 153 198 253 304 357
#
# _framework density 19.241941000000001
#
# number of rings (size 3 to 8) (size 9 to 14) (size 15 to 20)
#    0.000    0.857    8.571    0.000    0.000    0.000 
#    5.143    0.000    0.000    4.286    0.000    0.000 
#    0.000    0.000    0.000    0.000    0.000    0.000 
#
# Total GULP energy -346992.229855 kJ/mol
# GULP energy per Si atom -12392.579638 kJ/mol
# Density = 1.919815 g / cm^3
# Si number density = 19.241941 Si / 1000 Ang^3
#
#
#
# Elastic Constant Matrix: (Units=GPa)
#
#
# Indices 1 2 3 4 5 6 
#
# 1 97.8759 38.7778 39.6103 0.0000 23.2849 0.0000
# 2 38.7778 105.2231 42.3002 0.0000 -6.7509 0.0000
# 3 39.6103 42.3002 80.5761 0.0000 17.2473 0.0000
# 4 0.0000 0.0000 0.0000 33.3644 0.0000 -0.7651
# 5 23.2849 -6.7509 17.2473 0.0000 40.6040 0.0000
# 6 0.0000 0.0000 0.0000 -0.7651 0.0000 11.3242
#
#
#
# Elastic Compliance Matrix: (Units=1/GPa)
#
#
# Indices 1 2 3 4 5 6 
#
# 1 0.015455 -0.004930 -0.003230 0.000000 -0.008310 0.000000
# 2 -0.004930 0.014688 -0.007056 0.000000 0.008267 0.000000
# 3 -0.003230 -0.007056 0.019314 0.000000 -0.007525 0.000000
# 4 0.000000 0.000000 0.000000 0.030019 0.000000 0.002028
# 5 -0.008310 0.008267 -0.007525 0.000000 0.033964 0.000000
# 6 0.000000 0.000000 0.000000 0.002028 0.000000 0.088444
#
#
# Mechanical properties :
#
#
# Convention : Reuss Voigt Hill
#
# Bulk Modulus (GPa) = 52.57030 58.33908 55.45469
# Shear Modulus (GPa) = 20.95058 27.92430 24.43744
#
# Velocity S-wave (km/s) = 3.30327 3.81362 3.56758
# Velocity P-wave (km/s) = 6.47525 7.05522 6.77145
#
# Compressibility (1/GPa) = 0.01902215
#
# Stress axis : x y z
#
# Youngs Moduli (GPa) = 64.70566 68.08479 51.77657
#
# Poissons Ratio (x) = 0.33566 0.16726
# Poissons Ratio (y) = 0.31900 0.36536
# Poissons Ratio (z) = 0.20903 0.48044
#
# Static dielectric constant tensor:
#      x y z
#    x 3.938870 0.000000 0.353950 
#    y 0.000000 3.502750 0.000000 
#    z 0.353950 0.000000 3.881560 
# 
# 
# High freq. dielectric constant tensor:
#      x y z
#    x 1.762140 0.000000 0.014080 
#    y 0.000000 1.709920 0.000000 
#    z 0.014080 0.000000 1.752570 
# 
# From -- ./inp_files/49997.got.cif
#   From: 2010.06.25/outbox.cif.g09.slc.cpg/sg13_25_cif.got.tgz:49997.got - 2010.06.28 04:50:58.
