data_PCOD8118319
_publ_section_title
;
Structure prediction by ZEFSAII (Michael W. Deem and Ramdas Pophale) SiO2 
 PCOD8118319
Probable space group: P 2/C
;
_chemical_formula_sum "Si O2"
_cell_formula_units_Z 20
_cell_length_a 9.287497
_cell_length_b 7.347338
_cell_length_c 14.890274
_cell_angle_alpha 90.000000
_cell_angle_beta 108.886424
_cell_angle_gamma 90.000000
_cell_volume 961.384100
_symmetry_space_group_name_H-M "P 2/C"
_symmetry_group_IT_number 13
_symmetry_cell_setting 'monoclinic'
loop_
_space_group_symop_operation_xyz
x,y,z
-x,y,1/2-z
-x,-y,-z
x,-y,1/2+z
loop_
_atom_site_type_symbol
_atom_site_label
_atom_site_fract_x
_atom_site_fract_y
_atom_site_fract_z
Si Si1 0.663824 0.012703 0.895854
Si Si2 0.840880 0.309935 0.027349
Si Si3 0.622225 0.810512 0.212760
Si Si4 0.807043 0.354959 0.398711
Si Si5 0.825336 0.494647 0.208837
O O1 0.482435 0.057460 0.871916
O O2 0.718239 0.069264 0.804901
O O3 0.693241 0.798294 0.913353
O O4 0.762423 0.118662 0.989956
O O5 0.797402 0.362277 0.119929
O O6 0.020919 0.287928 0.051039
O O7 0.774647 0.460981 0.946424
O O8 0.500000 0.695600 0.250000
O O9 0.728452 0.679744 0.175784
O O10 0.773687 0.390442 0.287524
O O11 0.000000 0.557027 0.250000
#
# Coordination Sequence:
#
# PCOD8118319 Si02
#       5
#     4   4   4   4   4
#     4   9  19  38  57  85 120 158 209 233 300 363
#     4  10  20  35  62  90 120 157 202 250 302 362
#     4   8  19  39  58  82 123 163 196 246 298 358
#     4  10  19  38  60  85 125 162 193 253 307 355
#     4  10  20  38  62  93 122 159 205 252 309 356
#
# _framework density 20.803341
#
# number of rings (size 3 to 8) (size 9 to 14) (size 15 to 20)
#    1.200    1.200    2.000    0.600    0.000    0.800 
#   14.400    2.000    0.000    0.000    0.000    0.000 
#    0.000    0.000    0.000    0.000    0.000    0.000 
#
# Total GULP energy -247840.059653 kJ/mol
# GULP energy per Si atom -12392.002983 kJ/mol
# Density = 2.075599 g / cm^3
# Si number density = 20.803341 Si / 1000 Ang^3
#
#
#
# Elastic Constant Matrix: (Units=GPa)
#
#
# Indices 1 2 3 4 5 6 
#
# 1 54.7853 40.1696 23.4585 0.0000 4.4045 0.0000
# 2 40.1696 102.1250 29.3349 0.0000 4.0895 0.0000
# 3 23.4585 29.3349 98.2586 0.0000 -4.0783 0.0000
# 4 0.0000 0.0000 0.0000 12.2622 0.0000 10.1978
# 5 4.4045 4.0895 -4.0783 0.0000 22.5942 0.0000
# 6 0.0000 0.0000 0.0000 10.1978 0.0000 32.6497
#
#
#
# Elastic Compliance Matrix: (Units=1/GPa)
#
#
# Indices 1 2 3 4 5 6 
#
# 1 0.027136 -0.009396 -0.003851 0.000000 -0.004284 0.000000
# 2 -0.009396 0.014110 -0.002014 0.000000 -0.001086 0.000000
# 3 -0.003851 -0.002014 0.011833 0.000000 0.003251 0.000000
# 4 0.000000 0.000000 0.000000 0.110169 0.000000 -0.034410
# 5 -0.004284 -0.001086 0.003251 0.000000 0.045878 0.000000
# 6 0.000000 0.000000 0.000000 -0.034410 0.000000 0.041376
#
#
# Mechanical properties :
#
#
# Convention : Reuss Voigt Hill
#
# Bulk Modulus (GPa) = 44.33431 49.01055 46.67243
# Shear Modulus (GPa) = 17.32852 24.31494 20.82173
#
# Velocity S-wave (km/s) = 2.88925 3.42248 3.16711
# Velocity P-wave (km/s) = 5.69980 6.26322 5.98814
#
# Compressibility (1/GPa) = 0.02255590
#
# Stress axis : x y z
#
# Youngs Moduli (GPa) = 36.85192 70.87336 84.50945
#
# Poissons Ratio (x) = 0.66590 0.32546
# Poissons Ratio (y) = 0.34625 0.17023
# Poissons Ratio (z) = 0.14192 0.14276
#
# Static dielectric constant tensor:
#      x y z
#    x 3.451420 0.000000 0.117440 
#    y 0.000000 3.375780 0.000000 
#    z 0.117440 0.000000 3.844090 
# 
# 
# High freq. dielectric constant tensor:
#      x y z
#    x 1.784810 0.000000 0.013570 
#    y 0.000000 1.794440 0.000000 
#    z 0.013570 0.000000 1.821480 
# 
# From -- ./inp_files/65159.got.cif
#   From: 2010.06.25/outbox.cif.g09.slc.cpg/sg13_33_cif.got.tgz:65159.got - 2010.06.28 04:50:58.
