data_PCOD8118957
_publ_section_title
;
Structure prediction by ZEFSAII (Michael W. Deem and Ramdas Pophale) SiO2 
 PCOD8118957
Probable space group: P 2/C
;
_chemical_formula_sum "Si O2"
_cell_formula_units_Z 16
_cell_length_a 19.134629
_cell_length_b 7.557861
_cell_length_c 22.949760
_cell_angle_alpha 90.000000
_cell_angle_beta 165.101957
_cell_angle_gamma 90.000000
_cell_volume 853.294230
_symmetry_space_group_name_H-M "P 2/C"
_symmetry_group_IT_number 13
_symmetry_cell_setting 'monoclinic'
loop_
_space_group_symop_operation_xyz
x,y,z
-x,y,1/2-z
-x,-y,-z
x,-y,1/2+z
loop_
_atom_site_type_symbol
_atom_site_label
_atom_site_fract_x
_atom_site_fract_y
_atom_site_fract_z
Si Si1 0.620554 0.329870 0.203669
Si Si2 0.715449 0.150637 0.661736
Si Si3 0.304692 0.967317 0.645895
Si Si4 0.221133 0.709183 0.161049
O O1 0.601117 0.208111 0.244849
O O2 0.612177 0.531518 0.220705
O O3 0.897531 0.304775 0.389409
O O4 0.370374 0.281286 0.959801
O O5 0.740628 0.266068 0.739613
O O6 0.500000 0.000000 0.500000
O O7 0.001079 0.057233 0.876559
O O8 0.500000 0.008632 0.750000
O O9 0.333306 0.129339 0.713912
#
# Coordination Sequence:
#
# PCOD8118957 Si02
#       4
#     4   4   4   4
#     4  10  20  37  60  84 112 146 195 237 278 337
#     4  11  18  37  63  82 107 148 196 234 276 336
#     4  11  23  37  56  83 121 153 181 233 294 340
#     4  10  20  36  60  86 109 148 192 238 281 332
#
# _framework density 18.750859999999999
#
# number of rings (size 3 to 8) (size 9 to 14) (size 15 to 20)
#    0.000    1.500    5.000    2.250    0.000    2.000 
#    0.000    0.000    5.500    0.000    0.000    0.000 
#    0.000    0.000    0.000    0.000    0.000    0.000 
#
# Total GULP energy -198421.134405 kJ/mol
# GULP energy per Si atom -12401.320900 kJ/mol
# Density = 1.870818 g / cm^3
# Si number density = 18.750860 Si / 1000 Ang^3
#
#
#
# Elastic Constant Matrix: (Units=GPa)
#
#
# Indices 1 2 3 4 5 6 
#
# 1 65.8921 14.2312 33.6436 0.0000 4.2612 0.0000
# 2 14.2312 100.8696 25.0541 0.0000 -1.2261 0.0000
# 3 33.6436 25.0541 107.4112 0.0000 -12.1230 0.0000
# 4 0.0000 0.0000 0.0000 26.1856 0.0000 -5.5115
# 5 4.2612 -1.2261 -12.1230 0.0000 24.6239 0.0000
# 6 0.0000 0.0000 0.0000 -5.5115 0.0000 10.8119
#
#
#
# Elastic Compliance Matrix: (Units=1/GPa)
#
#
# Indices 1 2 3 4 5 6 
#
# 1 0.019156 -0.001176 -0.006466 0.000000 -0.006557 0.000000
# 2 -0.001176 0.010608 -0.002142 0.000000 -0.000323 0.000000
# 3 -0.006466 -0.002142 0.012652 0.000000 0.007241 0.000000
# 4 0.000000 0.000000 0.000000 0.042779 0.000000 0.021807
# 5 -0.006557 -0.000323 0.007241 0.000000 0.045294 0.000000
# 6 0.000000 0.000000 0.000000 0.021807 0.000000 0.103607
#
#
# Mechanical properties :
#
#
# Convention : Reuss Voigt Hill
#
# Bulk Modulus (GPa) = 43.76907 46.67008 45.21957
# Shear Modulus (GPa) = 19.13649 25.74054 22.43851
#
# Velocity S-wave (km/s) = 3.19810 3.70910 3.46304
# Velocity P-wave (km/s) = 6.08524 6.57928 6.33708
#
# Compressibility (1/GPa) = 0.02284719
#
# Stress axis : x y z
#
# Youngs Moduli (GPa) = 52.20389 94.26896 79.03779
#
# Poissons Ratio (x) = 0.11089 0.51103
# Poissons Ratio (y) = 0.06141 0.16933
# Poissons Ratio (z) = 0.33753 0.20196
#
# Static dielectric constant tensor:
#      x y z
#    x 3.170190 0.000000 -0.411620 
#    y 0.000000 3.657330 0.000000 
#    z -0.411620 0.000000 4.832070 
# 
# 
# High freq. dielectric constant tensor:
#      x y z
#    x 1.698760 0.000000 -0.019960 
#    y 0.000000 1.742300 0.000000 
#    z -0.019960 0.000000 1.729670 
# 
# From -- ./inp_files/43209.got.cif
#   From: 2010.06.25/outbox.cif.g09.slc.cpg/sg13_22_cif.got.tgz:43209.got - 2010.06.28 04:50:58.
