data_PCOD8118699
_publ_section_title
;
Structure prediction by ZEFSAII (Michael W. Deem and Ramdas Pophale) SiO2 
 PCOD8118699
Probable space group: P 2/C
;
_chemical_formula_sum "Si O2"
_cell_formula_units_Z 30
_cell_length_a 21.738257
_cell_length_b 14.026426
_cell_length_c 8.520776
_cell_angle_alpha 90.000000
_cell_angle_beta 141.557131
_cell_angle_gamma 90.000000
_cell_volume 1615.308539
_symmetry_space_group_name_H-M "P 2/C"
_symmetry_group_IT_number 13
_symmetry_cell_setting 'monoclinic'
loop_
_space_group_symop_operation_xyz
x,y,z
-x,y,1/2-z
-x,-y,-z
x,-y,1/2+z
loop_
_atom_site_type_symbol
_atom_site_label
_atom_site_fract_x
_atom_site_fract_y
_atom_site_fract_z
Si Si1 0.913777 0.614653 0.799769
Si Si2 0.889806 0.788921 0.966103
Si Si3 0.867816 0.425127 0.853398
Si Si4 0.631003 0.910170 0.753653
Si Si5 0.174466 0.032434 0.347191
Si Si6 0.227882 0.257899 0.964207
Si Si7 0.500000 0.004913 0.250000
Si Si8 0.105109 0.124207 0.520281
O O1 0.887327 0.718649 0.812128
O O2 0.862518 0.538611 0.815582
O O3 0.869154 0.597012 0.539776
O O4 0.032556 0.608377 0.037221
O O5 0.840087 0.886133 0.810318
O O6 0.820307 0.750054 0.962710
O O7 0.000000 0.805931 0.250000
O O8 0.772684 0.370379 0.584201
O O9 0.549660 0.923386 0.725706
O O10 0.581041 0.934914 0.488249
O O11 0.668072 0.799431 0.828251
O O12 0.719323 0.983794 0.962569
O O13 0.164736 0.069762 0.503534
O O14 0.094604 0.948705 0.147109
O O15 0.160324 0.217631 0.687723
O O16 0.000000 0.159744 0.250000
#
# Coordination Sequence:
#
# PCOD8118699 Si02
#       8
#     4   4   4   4   4   4   2   4
#     4  10  21  33  51  72 103 149 193 216 262 284
#     4  12  21  32  48  75 106 152 188 223 253 304
#     4  10  20  35  51  72 105 144 186 233 251 302
#     4  10  21  37  55  80 101 139 167 227 273 338
#     4  11  21  34  49  70 106 134 183 222 265 306
#     4  11  21  33  52  75 109 135 185 224 264 304
#     4  10  20  38  60  74 104 130 176 214 298 344
#     4  11  21  32  45  68 100 149 182 215 251 305
#
# _framework density 18.572303999999999
#
# number of rings (size 3 to 8) (size 9 to 14) (size 15 to 20)
#    0.000    1.333    1.333    7.200    3.733    0.000 
#    0.000    0.000    0.000    0.000    0.000    0.000 
#    0.000   36.267    0.000    0.000    0.000    0.000 
#
# Total GULP energy -371912.220510 kJ/mol
# GULP energy per Si atom -12397.074017 kJ/mol
# Density = 1.853003 g / cm^3
# Si number density = 18.572304 Si / 1000 Ang^3
#
#
#
# Elastic Constant Matrix: (Units=GPa)
#
#
# Indices 1 2 3 4 5 6 
#
# 1 52.2593 0.7627 10.9856 0.0000 -8.3505 0.0000
# 2 0.7627 69.2845 27.2943 0.0000 2.8998 0.0000
# 3 10.9856 27.2943 78.9654 0.0000 -6.1324 0.0000
# 4 0.0000 0.0000 0.0000 60.6725 0.0000 -18.9735
# 5 -8.3505 2.8998 -6.1324 0.0000 25.5131 0.0000
# 6 0.0000 0.0000 0.0000 -18.9735 0.0000 37.3490
#
#
#
# Elastic Compliance Matrix: (Units=1/GPa)
#
#
# Indices 1 2 3 4 5 6 
#
# 1 0.020642 0.000537 -0.002586 0.000000 0.006073 0.000000
# 2 0.000537 0.017008 -0.006206 0.000000 -0.003249 0.000000
# 3 -0.002586 -0.006206 0.015446 0.000000 0.003572 0.000000
# 4 0.000000 0.000000 0.000000 0.019595 0.000000 0.009954
# 5 0.006073 -0.003249 0.003572 0.000000 0.042411 0.000000
# 6 0.000000 0.000000 0.000000 0.009954 0.000000 0.031831
#
#
# Mechanical properties :
#
#
# Convention : Reuss Voigt Hill
#
# Bulk Modulus (GPa) = 27.33222 30.95494 29.14358
# Shear Modulus (GPa) = 28.46778 35.47137 31.96958
#
# Velocity S-wave (km/s) = 3.91936 4.37499 4.15343
# Velocity P-wave (km/s) = 5.93552 6.49801 6.22313
#
# Compressibility (1/GPa) = 0.03658685
#
# Stress axis : x y z
#
# Youngs Moduli (GPa) = 48.44603 58.79559 64.74208
#
# Poissons Ratio (x) = -0.03158 0.16740
# Poissons Ratio (y) = -0.02602 0.40178
# Poissons Ratio (z) = 0.12526 0.36488
#
# Static dielectric constant tensor:
#      x y z
#    x 3.314490 0.000000 -0.260120 
#    y 0.000000 3.563950 0.000000 
#    z -0.260120 0.000000 3.474470 
# 
# 
# High freq. dielectric constant tensor:
#      x y z
#    x 1.707610 0.000000 -0.040950 
#    y 0.000000 1.719530 0.000000 
#    z -0.040950 0.000000 1.706510 
# 
# From -- ./inp_files/24199.got.cif
#   From: 2010.06.25/outbox.cif.g09.slc.cpg/sg13_13_cif.got.tgz:24199.got - 2010.06.28 04:50:58.
