data_PCOD8118139
_publ_section_title
;
Structure prediction by ZEFSAII (Michael W. Deem and Ramdas Pophale) SiO2 
 PCOD8118139
Probable space group: P 2/C
;
_chemical_formula_sum "Si O2"
_cell_formula_units_Z 32
_cell_length_a 11.720017
_cell_length_b 11.840848
_cell_length_c 19.178963
_cell_angle_alpha 90.000000
_cell_angle_beta 38.366829
_cell_angle_gamma 90.000000
_cell_volume 1652.013873
_symmetry_space_group_name_H-M "P 2/C"
_symmetry_group_IT_number 13
_symmetry_cell_setting 'monoclinic'
loop_
_space_group_symop_operation_xyz
x,y,z
-x,y,1/2-z
-x,-y,-z
x,-y,1/2+z
loop_
_atom_site_type_symbol
_atom_site_label
_atom_site_fract_x
_atom_site_fract_y
_atom_site_fract_z
Si Si1 0.000277 0.313463 0.833754
Si Si2 0.869765 0.886043 0.636199
Si Si3 0.737616 0.496231 0.459493
Si Si4 0.072375 0.269506 0.137850
Si Si5 0.633863 0.595363 0.368044
Si Si6 0.549804 0.825860 0.013102
Si Si7 0.119642 0.099696 0.529008
Si Si8 0.528673 0.947440 0.881942
O O1 0.192643 0.374230 0.764789
O O2 0.000000 0.304891 0.750000
O O3 0.827243 0.387817 0.944751
O O4 0.986320 0.190795 0.873409
O O5 0.878291 0.856343 0.550953
O O6 0.663245 0.924642 0.752948
O O7 0.924139 0.774606 0.653240
O O8 0.010344 0.984146 0.589387
O O9 0.888982 0.399780 0.398484
O O10 0.699895 0.506288 0.394706
O O11 0.539923 0.462513 0.589636
O O12 0.000000 0.254163 0.250000
O O13 0.259039 0.198697 0.040158
O O14 0.571912 0.713193 0.433274
O O15 0.447176 0.922147 0.106906
O O16 0.588384 0.867271 0.916568
O O17 0.322780 0.080871 0.459388
#
# Coordination Sequence:
#
# PCOD8118139 Si02
#       8
#     4   4   4   4   4   4   4   4
#     4  10  19  36  59  86 112 150 193 242 286 340
#     4  11  24  39  56  82 118 163 191 243 297 353
#     4   9  19  32  56  86 118 146 187 239 297 348
#     4  11  19  36  56  86 118 149 193 242 296 348
#     4   9  17  33  53  87 116 147 184 233 297 341
#     4  10  20  31  57  89 115 146 192 245 281 344
#     4  11  24  40  57  82 119 157 204 235 293 360
#     4  11  20  36  56  85 119 151 191 240 294 345
#
# _framework density 19.370296
#
# number of rings (size 3 to 8) (size 9 to 14) (size 15 to 20)
#    0.000    1.750    2.500    3.750    0.000    1.500 
#    2.250    0.625    0.000    0.000    0.000    0.000 
#    0.000    0.000    0.000    0.000    0.000    0.000 
#
# Total GULP energy -396740.147288 kJ/mol
# GULP energy per Si atom -12398.129603 kJ/mol
# Density = 1.932621 g / cm^3
# Si number density = 19.370296 Si / 1000 Ang^3
#
#
#
# Elastic Constant Matrix: (Units=GPa)
#
#
# Indices 1 2 3 4 5 6 
#
# 1 47.4012 25.5562 21.6913 0.0000 0.1193 0.0000
# 2 25.5562 72.4742 18.0971 0.0000 5.4550 0.0000
# 3 21.6913 18.0971 84.9000 0.0000 -15.0924 0.0000
# 4 0.0000 0.0000 0.0000 23.6737 0.0000 -9.3636
# 5 0.1193 5.4550 -15.0924 0.0000 22.2177 0.0000
# 6 0.0000 0.0000 0.0000 -9.3636 0.0000 20.2646
#
#
#
# Elastic Compliance Matrix: (Units=1/GPa)
#
#
# Indices 1 2 3 4 5 6 
#
# 1 0.028266 -0.008365 -0.005801 0.000000 -0.002038 0.000000
# 2 -0.008365 0.017916 -0.002793 0.000000 -0.006251 0.000000
# 3 -0.005801 -0.002793 0.015904 0.000000 0.011520 0.000000
# 4 0.000000 0.000000 0.000000 0.051687 0.000000 0.023883
# 5 -0.002038 -0.006251 0.011520 0.000000 0.054381 0.000000
# 6 0.000000 0.000000 0.000000 0.023883 0.000000 0.060383
#
#
# Mechanical properties :
#
#
# Convention : Reuss Voigt Hill
#
# Bulk Modulus (GPa) = 35.50192 37.27386 36.38789
# Shear Modulus (GPa) = 18.39283 22.52659 20.45971
#
# Velocity S-wave (km/s) = 3.08480 3.41390 3.25351
# Velocity P-wave (km/s) = 5.57277 5.90120 5.73934
#
# Compressibility (1/GPa) = 0.02816749
#
# Stress axis : x y z
#
# Youngs Moduli (GPa) = 35.37758 55.81680 62.87749
#
# Poissons Ratio (x) = 0.46693 0.36476
# Poissons Ratio (y) = 0.29595 0.17560
# Poissons Ratio (z) = 0.20523 0.15588
#
# Static dielectric constant tensor:
#      x y z
#    x 3.400980 0.000000 -0.375260 
#    y 0.000000 3.604330 0.000000 
#    z -0.375260 0.000000 3.607660 
# 
# 
# High freq. dielectric constant tensor:
#      x y z
#    x 1.727460 0.000000 -0.037700 
#    y 0.000000 1.764530 0.000000 
#    z -0.037700 0.000000 1.747090 
# 
# From -- ./inp_files/78474.got.cif
#   From: 2010.06.25/outbox.cif.g09.slc.cpg/sg13_40_cif.got.tgz:78474.got - 2010.06.28 04:50:58.
