data_PCOD8118257
_publ_section_title
;
Structure prediction by ZEFSAII (Michael W. Deem and Ramdas Pophale) SiO2 
 PCOD8118257
Probable space group: P 2/C
;
_chemical_formula_sum "Si O2"
_cell_formula_units_Z 32
_cell_length_a 13.933176
_cell_length_b 16.778601
_cell_length_c 19.576019
_cell_angle_alpha 90.000000
_cell_angle_beta 158.832007
_cell_angle_gamma 90.000000
_cell_volume 1652.578796
_symmetry_space_group_name_H-M "P 2/C"
_symmetry_group_IT_number 13
_symmetry_cell_setting 'monoclinic'
loop_
_space_group_symop_operation_xyz
x,y,z
-x,y,1/2-z
-x,-y,-z
x,-y,1/2+z
loop_
_atom_site_type_symbol
_atom_site_label
_atom_site_fract_x
_atom_site_fract_y
_atom_site_fract_z
Si Si1 0.240551 0.391852 0.048077
Si Si2 0.541046 0.697127 0.204208
Si Si3 0.652137 0.423187 0.665889
Si Si4 0.150613 0.280212 0.104834
Si Si5 0.874798 0.112690 0.368311
Si Si6 0.403820 0.965911 0.262420
Si Si7 0.505023 0.604190 0.921334
Si Si8 0.837289 0.844866 0.575169
O O1 0.500000 0.440266 0.250000
O O2 0.243353 0.308000 0.091242
O O3 0.266039 0.379610 0.983456
O O4 0.967686 0.435193 0.886357
O O5 0.500000 0.654989 0.250000
O O6 0.500895 0.630344 0.120594
O O7 0.836030 0.731676 0.397230
O O8 0.327218 0.767638 0.056983
O O9 0.537469 0.510142 0.599316
O O10 0.603027 0.374614 0.562431
O O11 0.264239 0.192359 0.194064
O O12 0.248549 0.344154 0.227952
O O13 0.140237 0.088312 0.585428
O O14 0.947006 0.129038 0.337761
O O15 0.653360 0.044117 0.230205
O O16 0.500000 0.989090 0.250000
O O17 0.634039 0.917246 0.453823
O O18 0.000000 0.823107 0.750000
#
# Coordination Sequence:
#
# PCOD8118257 Si02
#       8
#     4   4   4   4   4   4   4   4
#     4   9  20  37  58  80 113 153 188 244 287 340
#     4  11  21  37  58  85 115 151 203 250 287 351
#     4  10  23  38  60  85 116 158 198 238 308 363
#     4  10  20  35  60  85 115 151 202 242 291 350
#     4  10  19  37  62  88 117 157 201 244 282 364
#     4   9  19  37  62  88 120 158 196 237 296 347
#     4  10  22  40  57  86 122 153 192 250 302 355
#     4  11  22  37  60  89 127 155 191 251 305 343
#
# _framework density 19.363676000000002
#
# number of rings (size 3 to 8) (size 9 to 14) (size 15 to 20)
#    0.000    2.000    2.500    0.750    1.750    9.000 
#    0.000    1.250    0.000    0.000    0.000    0.000 
#    0.000    0.000    0.000    0.000    0.000    0.000 
#
# Total GULP energy -396558.371280 kJ/mol
# GULP energy per Si atom -12392.449103 kJ/mol
# Density = 1.931960 g / cm^3
# Si number density = 19.363676 Si / 1000 Ang^3
#
#
#
# Elastic Constant Matrix: (Units=GPa)
#
#
# Indices 1 2 3 4 5 6 
#
# 1 135.9892 54.4405 40.5423 0.0000 -9.5052 0.0000
# 2 54.4405 100.0616 23.9711 0.0000 -6.2399 0.0000
# 3 40.5423 23.9711 66.0253 0.0000 -5.0711 0.0000
# 4 0.0000 0.0000 0.0000 18.4827 0.0000 3.5664
# 5 -9.5052 -6.2399 -5.0711 0.0000 28.9148 0.0000
# 6 0.0000 0.0000 0.0000 3.5664 0.0000 27.3072
#
#
#
# Elastic Compliance Matrix: (Units=1/GPa)
#
#
# Indices 1 2 3 4 5 6 
#
# 1 0.010739 -0.004587 -0.004798 0.000000 0.001699 0.000000
# 2 -0.004587 0.012987 -0.001823 0.000000 0.000975 0.000000
# 3 -0.004798 -0.001823 0.018857 0.000000 0.001336 0.000000
# 4 0.000000 0.000000 0.000000 0.055504 0.000000 -0.007249
# 5 0.001699 0.000975 0.001336 0.000000 0.035588 0.000000
# 6 0.000000 0.000000 0.000000 -0.007249 0.000000 0.037567
#
#
# Mechanical properties :
#
#
# Convention : Reuss Voigt Hill
#
# Bulk Modulus (GPa) = 49.59113 59.99819 54.79466
# Shear Modulus (GPa) = 24.95237 27.14908 26.05072
#
# Velocity S-wave (km/s) = 3.59363 3.74847 3.67187
# Velocity P-wave (km/s) = 6.54865 7.05599 6.80705
#
# Compressibility (1/GPa) = 0.02016490
#
# Stress axis : x y z
#
# Youngs Moduli (GPa) = 93.11594 76.99793 53.03146
#
# Poissons Ratio (x) = 0.35323 0.25446
# Poissons Ratio (y) = 0.42717 0.09670
# Poissons Ratio (z) = 0.44680 0.14040
#
# Static dielectric constant tensor:
#      x y z
#    x 3.789650 0.000000 0.057140 
#    y 0.000000 3.460500 0.000000 
#    z 0.057140 0.000000 3.607530 
# 
# 
# High freq. dielectric constant tensor:
#      x y z
#    x 1.761560 0.000000 0.007080 
#    y 0.000000 1.741970 0.000000 
#    z 0.007080 0.000000 1.744460 
# 
# From -- ./inp_files/76607.got.cif
#   From: 2010.06.25/outbox.cif.g09.slc.cpg/sg13_39_cif.got.tgz:76607.got - 2010.06.28 04:50:58.
