data_PCOD8118410
_publ_section_title
;
Structure prediction by ZEFSAII (Michael W. Deem and Ramdas Pophale) SiO2 
 PCOD8118410
Probable space group: P 2/C
;
_chemical_formula_sum "Si O2"
_cell_formula_units_Z 16
_cell_length_a 9.318887
_cell_length_b 7.157866
_cell_length_c 18.034838
_cell_angle_alpha 90.000000
_cell_angle_beta 45.382858
_cell_angle_gamma 90.000000
_cell_volume 856.303195
_symmetry_space_group_name_H-M "P 2/C"
_symmetry_group_IT_number 13
_symmetry_cell_setting 'monoclinic'
loop_
_space_group_symop_operation_xyz
x,y,z
-x,y,1/2-z
-x,-y,-z
x,-y,1/2+z
loop_
_atom_site_type_symbol
_atom_site_label
_atom_site_fract_x
_atom_site_fract_y
_atom_site_fract_z
Si Si1 0.782066 0.131775 0.310210
Si Si2 0.067779 0.509326 0.305349
Si Si3 0.598385 0.206893 0.792020
Si Si4 0.650945 0.366311 0.487768
O O1 0.806381 0.318554 0.251835
O O2 0.678026 0.183298 0.426364
O O3 0.000000 0.043795 0.250000
O O4 0.650731 0.985996 0.312852
O O5 0.205321 0.664850 0.294622
O O6 0.000000 0.588202 0.250000
O O7 0.865218 0.468577 0.425885
O O8 0.500000 0.155308 0.750000
O O9 0.437940 0.315660 0.900388
O O10 0.500000 0.500000 0.500000
#
# Coordination Sequence:
#
# PCOD8118410 Si02
#       4
#     4   4   4   4
#     4   9  20  38  61  83 114 152 201 232 275 353
#     4   9  19  39  60  85 114 151 203 237 273 346
#     4  12  23  36  59  91 121 151 187 245 303 332
#     4  10  19  39  65  86 107 160 203 231 281 349
#
# _framework density 18.684971000000001
#
# number of rings (size 3 to 8) (size 9 to 14) (size 15 to 20)
#    0.000    2.500    5.000    1.500    0.000    2.000 
#    0.000    5.000    0.000    0.000    0.000    0.000 
#    0.000    0.000    0.000    0.000    0.000    0.000 
#
# Total GULP energy -198352.217447 kJ/mol
# GULP energy per Si atom -12397.013590 kJ/mol
# Density = 1.864244 g / cm^3
# Si number density = 18.684971 Si / 1000 Ang^3
#
#
#
# Elastic Constant Matrix: (Units=GPa)
#
#
# Indices 1 2 3 4 5 6 
#
# 1 102.7370 46.9204 50.2201 0.0000 1.1357 0.0000
# 2 46.9204 62.4860 28.8659 0.0000 -4.0490 0.0000
# 3 50.2201 28.8659 107.6552 0.0000 -7.5474 0.0000
# 4 0.0000 0.0000 0.0000 13.9584 0.0000 -3.5522
# 5 1.1357 -4.0490 -7.5474 0.0000 26.9547 0.0000
# 6 0.0000 0.0000 0.0000 -3.5522 0.0000 12.7238
#
#
#
# Elastic Compliance Matrix: (Units=1/GPa)
#
#
# Indices 1 2 3 4 5 6 
#
# 1 0.017377 -0.010763 -0.005493 0.000000 -0.003887 0.000000
# 2 -0.010763 0.024984 -0.001411 0.000000 0.003811 0.000000
# 3 -0.005493 -0.001411 0.012476 0.000000 0.003513 0.000000
# 4 0.000000 0.000000 0.000000 0.077120 0.000000 0.021530
# 5 -0.003887 0.003811 0.003513 0.000000 0.038819 0.000000
# 6 0.000000 0.000000 0.000000 0.021530 0.000000 0.084604
#
#
# Mechanical properties :
#
#
# Convention : Reuss Voigt Hill
#
# Bulk Modulus (GPa) = 51.27265 58.32121 54.79693
# Shear Modulus (GPa) = 16.82286 20.51883 18.67085
#
# Velocity S-wave (km/s) = 3.00382 3.31742 3.16451
# Velocity P-wave (km/s) = 6.28735 6.77897 6.53778
#
# Compressibility (1/GPa) = 0.01950358
#
# Stress axis : x y z
#
# Youngs Moduli (GPa) = 57.54760 40.02550 80.15435
#
# Poissons Ratio (x) = 0.43078 0.44027
# Poissons Ratio (y) = 0.61936 0.11311
# Poissons Ratio (z) = 0.31610 0.05648
#
# Static dielectric constant tensor:
#      x y z
#    x 3.255020 0.000000 -0.367940 
#    y 0.000000 3.309740 0.000000 
#    z -0.367940 0.000000 4.019210 
# 
# 
# High freq. dielectric constant tensor:
#      x y z
#    x 1.707090 0.000000 -0.026130 
#    y 0.000000 1.722470 0.000000 
#    z -0.026130 0.000000 1.722580 
# 
# From -- ./inp_files/45356.got.cif
#   From: 2010.06.25/outbox.cif.g09.slc.cpg/sg13_23_cif.got.tgz:45356.got - 2010.06.28 04:50:58.
