data_PCOD8118618
_publ_section_title
;
Structure prediction by ZEFSAII (Michael W. Deem and Ramdas Pophale) SiO2 
 PCOD8118618
Probable space group: P 2/C
;
_chemical_formula_sum "Si O2"
_cell_formula_units_Z 32
_cell_length_a 12.512941
_cell_length_b 11.541824
_cell_length_c 11.954454
_cell_angle_alpha 90.000000
_cell_angle_beta 90.000114
_cell_angle_gamma 90.000000
_cell_volume 1726.488101
_symmetry_space_group_name_H-M "P 2/C"
_symmetry_group_IT_number 13
_symmetry_cell_setting 'monoclinic'
loop_
_space_group_symop_operation_xyz
x,y,z
-x,y,1/2-z
-x,-y,-z
x,-y,1/2+z
loop_
_atom_site_type_symbol
_atom_site_label
_atom_site_fract_x
_atom_site_fract_y
_atom_site_fract_z
Si Si1 0.119927 0.299280 0.120211
Si Si2 0.711173 0.870125 0.963351
Si Si3 0.119927 0.700724 0.879789
Si Si4 0.711175 0.870125 0.536648
Si Si5 0.246085 0.500000 0.000000
Si Si6 0.620722 0.315411 0.619139
Si Si7 0.620720 0.315416 0.880863
Si Si8 0.499999 0.064422 0.375853
O O1 0.185980 0.182271 0.097727
O O2 0.117762 0.326464 0.250000
O O3 0.171629 0.409638 0.062350
O O4 1.000000 0.281067 0.073737
O O5 0.609693 0.862738 0.878336
O O6 0.683631 0.795521 0.072660
O O7 0.739319 0.000002 0.999993
O O8 0.185975 0.817737 0.902270
O O9 0.171638 0.590371 0.937653
O O10 0.683635 0.795511 0.427345
O O11 0.609696 0.862742 0.621665
O O12 0.321920 0.565040 0.087715
O O13 0.321911 0.434950 0.912284
O O14 0.621160 0.301509 0.750001
O O15 0.500001 0.316529 0.571837
O O16 0.500000 0.000619 0.250000
O O17 0.500000 0.000000 0.500000
#
# Coordination Sequence:
#
# PCOD8118618 Si02
#       8
#     4   4   4   4   4   4   4   4
#     4  10  21  37  57  79 105 142 186 232 280 330
#     4  10  21  36  55  82 115 147 186 225 278 334
#     4  10  21  37  57  79 105 142 186 232 280 330
#     4  10  21  36  55  82 115 147 186 225 278 334
#     4  10  20  36  56  78 108 139 187 232 288 330
#     4  10  20  34  54  81 114 148 184 228 282 344
#     4  10  20  34  54  81 114 148 184 228 282 344
#     4  10  20  34  54  81 112 149 188 229 277 333
#
# _framework density 18.534735000000001
#
# number of rings (size 3 to 8) (size 9 to 14) (size 15 to 20)
#    0.000    2.000    1.250    2.250    0.000    5.500 
#    0.000    0.000    0.000    6.750    0.000    0.000 
#    0.000    0.000    0.000    0.000    0.000    0.000 
#
# Total GULP energy -396565.777691 kJ/mol
# GULP energy per Si atom -12392.680553 kJ/mol
# Density = 1.849255 g / cm^3
# Si number density = 18.534735 Si / 1000 Ang^3
#
#
#
# Elastic Constant Matrix: (Units=GPa)
#
#
# Indices 1 2 3 4 5 6 
#
# 1 129.0949 55.1699 33.0593 0.0000 -0.0018 0.0000
# 2 55.1699 113.2443 26.0141 0.0000 -0.0021 0.0000
# 3 33.0593 26.0141 83.6024 0.0000 -0.0020 0.0000
# 4 0.0000 0.0000 0.0000 18.5052 0.0000 0.0019
# 5 -0.0018 -0.0021 -0.0020 0.0000 24.6041 0.0000
# 6 0.0000 0.0000 0.0000 0.0019 0.0000 26.6500
#
#
#
# Elastic Compliance Matrix: (Units=1/GPa)
#
#
# Indices 1 2 3 4 5 6 
#
# 1 0.010324 -0.004407 -0.002711 0.000000 0.000000 0.000000
# 2 -0.004407 0.011391 -0.001802 0.000000 0.000000 0.000000
# 3 -0.002711 -0.001802 0.013594 0.000000 0.000001 0.000000
# 4 0.000000 0.000000 0.000000 0.054039 0.000000 -0.000004
# 5 0.000000 0.000000 0.000001 0.000000 0.040644 0.000000
# 6 0.000000 0.000000 0.000000 -0.000004 0.000000 0.037523
#
#
# Mechanical properties :
#
#
# Convention : Reuss Voigt Hill
#
# Bulk Modulus (GPa) = 57.24266 61.60315 59.42290
# Shear Modulus (GPa) = 26.15363 28.06508 27.10936
#
# Velocity S-wave (km/s) = 3.76048 3.89548 3.82858
# Velocity P-wave (km/s) = 7.05734 7.31722 7.18846
#
# Compressibility (1/GPa) = 0.01746949
#
# Stress axis : x y z
#
# Youngs Moduli (GPa) = 96.86380 87.78662 73.56089
#
# Poissons Ratio (x) = 0.38685 0.19944
# Poissons Ratio (y) = 0.42685 0.13256
# Poissons Ratio (z) = 0.26261 0.15819
#
# Static dielectric constant tensor:
#      x y z
#    x 3.824090 0.000000 0.000020 
#    y 0.000000 3.407940 0.000000 
#    z 0.000020 0.000000 3.391080 
# 
# 
# High freq. dielectric constant tensor:
#      x y z
#    x 1.727850 0.000000 0.000000 
#    y 0.000000 1.714680 0.000000 
#    z 0.000000 0.000000 1.720500 
# 
# From -- ./inp_files/33839.got.cif
#   From: 2010.06.25/outbox.cif.g09.slc.cpg/sg13_17_cif.got.tgz:33839.got - 2010.06.28 04:50:58.
