data_PCOD8118407
_publ_section_title
;
Structure prediction by ZEFSAII (Michael W. Deem and Ramdas Pophale) SiO2 
 PCOD8118407
Probable space group: P 2/C
;
_chemical_formula_sum "Si O2"
_cell_formula_units_Z 32
_cell_length_a 24.970109
_cell_length_b 9.030895
_cell_length_c 19.662763
_cell_angle_alpha 90.000000
_cell_angle_beta 19.341151
_cell_angle_gamma 90.000000
_cell_volume 1468.506351
_symmetry_space_group_name_H-M "P 2/C"
_symmetry_group_IT_number 13
_symmetry_cell_setting 'monoclinic'
loop_
_space_group_symop_operation_xyz
x,y,z
-x,y,1/2-z
-x,-y,-z
x,-y,1/2+z
loop_
_atom_site_type_symbol
_atom_site_label
_atom_site_fract_x
_atom_site_fract_y
_atom_site_fract_z
Si Si1 0.443572 0.153060 0.036302
Si Si2 0.652922 0.153792 0.105607
Si Si3 0.816864 0.653219 0.298063
Si Si4 0.443297 0.343149 0.712165
Si Si5 0.928373 0.103353 0.027062
Si Si6 0.233763 0.654536 0.588451
Si Si7 0.502541 0.659772 0.592540
Si Si8 0.931060 0.929003 0.760718
O O1 0.257902 0.138752 0.235241
O O2 0.471509 0.288491 0.053620
O O3 0.554075 0.197377 0.839031
O O4 0.500000 0.000000 0.000000
O O5 0.500000 0.083243 0.250000
O O6 0.601759 0.226947 0.237359
O O7 0.727948 0.283089 0.970418
O O8 0.775040 0.021016 0.970597
O O9 0.863369 0.486404 0.265147
O O10 0.692527 0.663772 0.384006
O O11 0.977995 0.740214 0.084544
O O12 0.603409 0.330813 0.564815
O O13 0.439908 0.492962 0.672591
O O14 0.282528 0.351054 0.950325
O O15 0.947128 0.029295 0.929899
O O16 0.000000 0.000000 0.000000
O O17 0.115190 0.795154 0.734983
O O18 0.000000 0.872256 0.750000
#
# Coordination Sequence:
#
# PCOD8118407 Si02
#       8
#     4   4   4   4   4   4   4   4
#     4  12  26  40  63  94 131 172 214 269 328 384
#     4   9  18  34  63  89 119 159 210 256 316 388
#     4   9  19  41  66  93 120 169 210 266 319 393
#     4  10  22  40  67  92 126 165 220 265 319 394
#     4  11  24  45  64  91 136 178 220 261 331 408
#     4  10  21  41  67  95 122 165 221 270 317 386
#     4  10  19  39  64  95 122 157 212 265 331 382
#     4  11  24  39  59  94 131 168 218 276 327 376
#
# _framework density 21.790848
#
# number of rings (size 3 to 8) (size 9 to 14) (size 15 to 20)
#    0.000    1.750    1.250    2.625    5.250    1.000 
#    2.250    7.500    0.000    0.000    0.000    0.000 
#    0.000    0.000    0.000    0.000    0.000    0.000 
#
# Total GULP energy -396766.781828 kJ/mol
# GULP energy per Si atom -12398.961932 kJ/mol
# Density = 2.174125 g / cm^3
# Si number density = 21.790848 Si / 1000 Ang^3
#
#
#
# Elastic Constant Matrix: (Units=GPa)
#
#
# Indices 1 2 3 4 5 6 
#
# 1 78.6024 32.7468 16.1110 0.0000 6.2183 0.0000
# 2 32.7468 126.0659 26.9872 0.0000 -2.9233 0.0000
# 3 16.1110 26.9872 66.5062 0.0000 0.1646 0.0000
# 4 0.0000 0.0000 0.0000 25.6429 0.0000 -4.6774
# 5 6.2183 -2.9233 0.1646 0.0000 28.0390 0.0000
# 6 0.0000 0.0000 0.0000 -4.6774 0.0000 33.1498
#
#
#
# Elastic Compliance Matrix: (Units=1/GPa)
#
#
# Indices 1 2 3 4 5 6 
#
# 1 0.014914 -0.003491 -0.002187 0.000000 -0.003659 0.000000
# 2 -0.003491 0.009528 -0.003025 0.000000 0.001785 0.000000
# 3 -0.002187 -0.003025 0.016793 0.000000 0.000071 0.000000
# 4 0.000000 0.000000 0.000000 0.040027 0.000000 0.005648
# 5 -0.003659 0.001785 0.000071 0.000000 0.036662 0.000000
# 6 0.000000 0.000000 0.000000 0.005648 0.000000 0.030963
#
#
# Mechanical properties :
#
#
# Convention : Reuss Voigt Hill
#
# Bulk Modulus (GPa) = 41.96513 46.98494 44.47504
# Shear Modulus (GPa) = 28.69645 30.38832 29.54238
#
# Velocity S-wave (km/s) = 3.63285 3.73841 3.68601
# Velocity P-wave (km/s) = 6.07427 6.34373 6.21046
#
# Compressibility (1/GPa) = 0.02382931
#
# Stress axis : x y z
#
# Youngs Moduli (GPa) = 67.04967 104.95267 59.54691
#
# Poissons Ratio (x) = 0.36636 0.13025
# Poissons Ratio (y) = 0.23405 0.18014
# Poissons Ratio (z) = 0.14667 0.31750
#
# Static dielectric constant tensor:
#      x y z
#    x 3.886520 0.000000 0.102490 
#    y 0.000000 4.025460 0.000000 
#    z 0.102490 0.000000 3.984360 
# 
# 
# High freq. dielectric constant tensor:
#      x y z
#    x 1.856080 0.000000 0.010740 
#    y 0.000000 1.865630 0.000000 
#    z 0.010740 0.000000 1.842670 
# 
# From -- ./inp_files/82503.got.cif
#   From: 2010.06.25/outbox.cif.g09.slc.cpg/sg13_42_cif.got.tgz:82503.got - 2010.06.28 04:50:58.
