data_PCOD8118861
_publ_section_title
;
Structure prediction by ZEFSAII (Michael W. Deem and Ramdas Pophale) SiO2 
 PCOD8118861
Probable space group: P 2/C
;
_chemical_formula_sum "Si O2"
_cell_formula_units_Z 32
_cell_length_a 16.007156
_cell_length_b 13.790467
_cell_length_c 9.749247
_cell_angle_alpha 90.000000
_cell_angle_beta 124.778679
_cell_angle_gamma 90.000000
_cell_volume 1767.659375
_symmetry_space_group_name_H-M "P 2/C"
_symmetry_group_IT_number 13
_symmetry_cell_setting 'monoclinic'
loop_
_space_group_symop_operation_xyz
x,y,z
-x,y,1/2-z
-x,-y,-z
x,-y,1/2+z
loop_
_atom_site_type_symbol
_atom_site_label
_atom_site_fract_x
_atom_site_fract_y
_atom_site_fract_z
Si Si1 0.386222 0.308290 0.087361
Si Si2 0.426543 0.513525 0.057638
Si Si3 0.112865 0.100125 0.692380
Si Si4 0.427544 0.007282 0.806249
Si Si5 0.613525 0.718998 0.416666
Si Si6 0.114947 0.088894 0.011430
Si Si7 0.695740 0.193740 0.737290
Si Si8 0.686234 0.184397 0.251495
O O1 0.500000 0.305455 0.250000
O O2 0.356520 0.418263 0.014084
O O3 0.316152 0.275738 0.147715
O O4 0.376734 0.237971 0.948167
O O5 0.500000 0.532003 0.250000
O O6 0.362738 0.613557 0.992528
O O7 0.500000 0.500000 0.000000
O O8 0.189381 0.184694 0.713317
O O9 0.996480 0.137073 0.575920
O O10 0.124587 0.010946 0.600991
O O11 0.139869 0.069818 0.873927
O O12 0.500000 0.036391 0.750000
O O13 0.369656 0.905936 0.726624
O O14 0.343346 0.088815 0.753189
O O15 0.500000 0.000000 0.000000
O O16 0.500000 0.733957 0.250000
O O17 0.693109 0.735875 0.367184
O O18 0.633333 0.796270 0.555943
O O19 0.194701 0.162023 0.155698
#
# Coordination Sequence:
#
# PCOD8118861 Si02
#       8
#     4   4   4   4   4   4   4   4
#     4  11  21  35  56  79 109 150 191 231 274 337
#     4  10  20  36  56  78 109 148 194 242 279 316
#     4  10  22  40  59  82 109 147 193 245 283 323
#     4  12  24  32  45  72 115 151 176 207 254 329
#     4  11  23  37  54  83 116 151 187 233 278 333
#     4  10  22  40  60  81 109 146 195 244 282 325
#     4  12  22  36  54  80 115 151 186 227 283 334
#     4  12  22  36  55  80 111 153 191 224 278 342
#
# _framework density 18.103034999999998
#
# number of rings (size 3 to 8) (size 9 to 14) (size 15 to 20)
#    0.000    1.000    2.500    7.500    1.750    0.000 
#    0.000    0.000    0.000    0.000    0.000    5.250 
#    0.000    0.000    0.000    0.000    0.000    0.000 
#
# Total GULP energy -396725.078302 kJ/mol
# GULP energy per Si atom -12397.658697 kJ/mol
# Density = 1.806183 g / cm^3
# Si number density = 18.103035 Si / 1000 Ang^3
#
#
#
# Elastic Constant Matrix: (Units=GPa)
#
#
# Indices 1 2 3 4 5 6 
#
# 1 106.7846 47.8801 41.9215 0.0000 -7.4366 0.0000
# 2 47.8801 94.3351 37.4608 0.0000 2.0900 0.0000
# 3 41.9215 37.4608 89.1338 0.0000 -13.3777 0.0000
# 4 0.0000 0.0000 0.0000 19.0142 0.0000 -10.1067
# 5 -7.4366 2.0900 -13.3777 0.0000 34.7498 0.0000
# 6 0.0000 0.0000 0.0000 -10.1067 0.0000 27.1895
#
#
#
# Elastic Compliance Matrix: (Units=1/GPa)
#
#
# Indices 1 2 3 4 5 6 
#
# 1 0.013354 -0.005310 -0.003791 0.000000 0.001718 0.000000
# 2 -0.005310 0.015137 -0.004427 0.000000 -0.003751 0.000000
# 3 -0.003791 -0.004427 0.015687 0.000000 0.005494 0.000000
# 4 0.000000 0.000000 0.000000 0.065542 0.000000 0.024363
# 5 0.001718 -0.003751 0.005494 0.000000 0.031485 0.000000
# 6 0.000000 0.000000 0.000000 0.024363 0.000000 0.045835
#
#
# Mechanical properties :
#
#
# Convention : Reuss Voigt Hill
#
# Bulk Modulus (GPa) = 58.40753 60.53092 59.46923
# Shear Modulus (GPa) = 22.74763 27.05679 24.90221
#
# Velocity S-wave (km/s) = 3.54865 3.87020 3.71291
# Velocity P-wave (km/s) = 7.00889 7.31305 7.16259
#
# Compressibility (1/GPa) = 0.01712108
#
# Stress axis : x y z
#
# Youngs Moduli (GPa) = 74.88661 66.06371 63.74629
#
# Poissons Ratio (x) = 0.35082 0.24165
# Poissons Ratio (y) = 0.39767 0.28221
# Poissons Ratio (z) = 0.28388 0.29247
#
# Static dielectric constant tensor:
#      x y z
#    x 3.770030 0.000000 -0.074740 
#    y 0.000000 3.762880 0.000000 
#    z -0.074740 0.000000 3.437760 
# 
# 
# High freq. dielectric constant tensor:
#      x y z
#    x 1.690280 0.000000 -0.027260 
#    y 0.000000 1.689530 0.000000 
#    z -0.027260 0.000000 1.707350 
# 
# From -- ./inp_files/19652.got.cif
#   From: 2010.06.25/outbox.cif.g09.slc.cpg/sg13_10_cif.got.tgz:19652.got - 2010.06.28 04:50:58.
