data_PCOD8118689
_publ_section_title
;
Structure prediction by ZEFSAII (Michael W. Deem and Ramdas Pophale) SiO2 
 PCOD8118689
Probable space group: P 2/C
;
_chemical_formula_sum "Si O2"
_cell_formula_units_Z 30
_cell_length_a 13.197285
_cell_length_b 11.006697
_cell_length_c 14.897499
_cell_angle_alpha 90.000000
_cell_angle_beta 135.779957
_cell_angle_gamma 90.000000
_cell_volume 1509.199953
_symmetry_space_group_name_H-M "P 2/C"
_symmetry_group_IT_number 13
_symmetry_cell_setting 'monoclinic'
loop_
_space_group_symop_operation_xyz
x,y,z
-x,y,1/2-z
-x,-y,-z
x,-y,1/2+z
loop_
_atom_site_type_symbol
_atom_site_label
_atom_site_fract_x
_atom_site_fract_y
_atom_site_fract_z
Si Si1 0.656665 0.674138 0.808527
Si Si2 0.864065 0.891010 0.978432
Si Si3 0.343751 0.556772 0.879456
Si Si4 0.000000 0.164581 0.750000
Si Si5 0.137318 0.321033 0.386894
Si Si6 0.917061 0.542324 0.034115
Si Si7 0.151929 0.842236 0.064780
Si Si8 0.830575 0.689094 0.260712
O O1 0.500000 0.668151 0.750000
O O2 0.646669 0.651957 0.695790
O O3 0.729733 0.799732 0.884477
O O4 0.747468 0.562766 0.908259
O O5 0.945825 0.909055 0.127378
O O6 0.979573 0.851349 0.975332
O O7 0.790065 0.020875 0.908107
O O8 0.276694 0.639477 0.916166
O O9 0.244739 0.440347 0.794930
O O10 0.500000 0.500000 0.000000
O O11 0.848848 0.237665 0.679373
O O12 0.063481 0.442583 0.377852
O O13 0.189446 0.231990 0.498559
O O14 0.000000 0.257295 0.250000
O O15 0.994963 0.668188 0.110676
O O16 0.000000 0.500000 0.000000
O O17 0.233343 0.770610 0.198499
#
# Coordination Sequence:
#
# PCOD8118689 Si02
#       8
#     4   4   4   2   4   4   4   4
#     4  12  24  41  62  86 130 174 205 257 323 391
#     4  10  22  40  61  95 122 163 218 259 315 362
#     4  12  26  39  59  98 129 158 207 266 324 383
#     4  10  20  34  62  92 122 152 204 270 294 366
#     4  12  21  34  61  93 127 158 200 258 312 374
#     4  12  18  36  60  90 122 161 207 245 318 384
#     4  10  21  39  65  90 121 165 213 262 305 372
#     4  11  20  38  62  89 125 158 206 255 317 374
#
# _framework density 19.878081999999999
#
# number of rings (size 3 to 8) (size 9 to 14) (size 15 to 20)
#    0.000    0.800    6.667    2.400    2.800    0.000 
#    2.400    1.333    0.000    1.600    0.000    0.000 
#    0.000    0.000    0.000    0.000    0.000    0.000 
#
# Total GULP energy -371738.051211 kJ/mol
# GULP energy per Si atom -12391.268374 kJ/mol
# Density = 1.983284 g / cm^3
# Si number density = 19.878082 Si / 1000 Ang^3
#
#
#
# Elastic Constant Matrix: (Units=GPa)
#
#
# Indices 1 2 3 4 5 6 
#
# 1 128.9483 44.7999 46.3532 0.0000 -9.4197 0.0000
# 2 44.7999 100.9591 30.3672 0.0000 -10.6001 0.0000
# 3 46.3532 30.3672 79.0015 0.0000 -3.1480 0.0000
# 4 0.0000 0.0000 0.0000 26.2655 0.0000 -4.2862
# 5 -9.4197 -10.6001 -3.1480 0.0000 39.2886 0.0000
# 6 0.0000 0.0000 0.0000 -4.2862 0.0000 22.1650
#
#
#
# Elastic Compliance Matrix: (Units=1/GPa)
#
#
# Indices 1 2 3 4 5 6 
#
# 1 0.010752 -0.003109 -0.005060 0.000000 0.001334 0.000000
# 2 -0.003109 0.012389 -0.002844 0.000000 0.002369 0.000000
# 3 -0.005060 -0.002844 0.016694 0.000000 -0.000643 0.000000
# 4 0.000000 0.000000 0.000000 0.039313 0.000000 0.007602
# 5 0.001334 0.002369 -0.000643 0.000000 0.026360 0.000000
# 6 0.000000 0.000000 0.000000 0.007602 0.000000 0.046586
#
#
# Mechanical properties :
#
#
# Convention : Reuss Voigt Hill
#
# Bulk Modulus (GPa) = 56.15024 61.32773 58.73899
# Shear Modulus (GPa) = 27.76915 30.03639 28.90277
#
# Velocity S-wave (km/s) = 3.74167 3.89142 3.81727
# Velocity P-wave (km/s) = 6.85386 7.14911 7.00304
#
# Compressibility (1/GPa) = 0.01780936
#
# Stress axis : x y z
#
# Youngs Moduli (GPa) = 93.00977 80.71945 59.90031
#
# Poissons Ratio (x) = 0.25095 0.30311
# Poissons Ratio (y) = 0.28916 0.17033
# Poissons Ratio (z) = 0.47065 0.22953
#
# Static dielectric constant tensor:
#      x y z
#    x 3.602700 0.000000 -0.083710 
#    y 0.000000 3.568430 0.000000 
#    z -0.083710 0.000000 3.187890 
# 
# 
# High freq. dielectric constant tensor:
#      x y z
#    x 1.775940 0.000000 -0.027890 
#    y 0.000000 1.773600 0.000000 
#    z -0.027890 0.000000 1.758880 
# 
# From -- ./inp_files/51189.got.cif
#   From: 2010.06.25/outbox.cif.g09.slc.cpg/sg13_26_cif.got.tgz:51189.got - 2010.06.28 04:50:58.
