data_PCOD8118993
_publ_section_title
;
Structure prediction by ZEFSAII (Michael W. Deem and Ramdas Pophale) SiO2 
 PCOD8118993
Probable space group: P 2/C
;
_chemical_formula_sum "Si O2"
_cell_formula_units_Z 30
_cell_length_a 13.479861
_cell_length_b 14.464285
_cell_length_c 14.706209
_cell_angle_alpha 90.000000
_cell_angle_beta 149.763475
_cell_angle_gamma 90.000000
_cell_volume 1443.921757
_symmetry_space_group_name_H-M "P 2/C"
_symmetry_group_IT_number 13
_symmetry_cell_setting 'monoclinic'
loop_
_space_group_symop_operation_xyz
x,y,z
-x,y,1/2-z
-x,-y,-z
x,-y,1/2+z
loop_
_atom_site_type_symbol
_atom_site_label
_atom_site_fract_x
_atom_site_fract_y
_atom_site_fract_z
Si Si1 0.970183 0.920952 0.625848
Si Si2 0.261616 0.818088 0.204524
Si Si3 0.963924 0.354610 0.986190
Si Si4 0.412869 0.101476 0.434991
Si Si5 0.914478 0.480350 0.581097
Si Si6 0.952290 0.133184 0.611584
Si Si7 0.500000 0.606229 0.750000
Si Si8 0.327812 0.243803 0.229544
O O1 0.179851 0.910176 0.744243
O O2 0.000000 0.880662 0.750000
O O3 0.806967 0.863006 0.443953
O O4 0.892297 0.025777 0.566930
O O5 0.490793 0.846226 0.401603
O O6 0.138960 0.857264 0.193071
O O7 0.234255 0.707371 0.176048
O O8 0.150540 0.286589 0.150695
O O9 0.947497 0.421175 0.059520
O O10 0.984346 0.404720 0.904522
O O11 0.460181 0.168464 0.387217
O O12 0.500000 0.000000 0.500000
O O13 0.684303 0.460505 0.410252
O O14 0.000000 0.479563 0.750000
O O15 0.767429 0.194358 0.433622
O O16 0.000000 0.169421 0.750000
O O17 0.530673 0.672088 0.686972
#
# Coordination Sequence:
#
# PCOD8118993 Si02
#       8
#     4   4   4   4   4   4   2   4
#     4  11  23  41  59  85 130 176 222 263 308 362
#     4  11  22  39  63  88 129 168 217 261 309 382
#     4   9  21  43  63  94 124 168 207 254 333 393
#     4  12  23  38  64  95 130 179 216 262 314 362
#     4  10  22  44  69  91 129 157 201 272 335 387
#     4  10  20  36  61  90 124 174 213 261 315 360
#     4  10  24  40  64 104 122 150 220 268 322 392
#     4  10  22  38  62  95 136 163 213 265 315 383
#
# _framework density 20.776748999999999
#
# number of rings (size 3 to 8) (size 9 to 14) (size 15 to 20)
#    0.000    1.600    4.000    1.200    3.733    4.800 
#    2.400    2.000    0.000    0.000    0.000    0.000 
#    0.000    0.000    0.000    0.000    0.000    0.000 
#
# Total GULP energy -371913.989305 kJ/mol
# GULP energy per Si atom -12397.132977 kJ/mol
# Density = 2.072946 g / cm^3
# Si number density = 20.776749 Si / 1000 Ang^3
#
#
#
# Elastic Constant Matrix: (Units=GPa)
#
#
# Indices 1 2 3 4 5 6 
#
# 1 64.8911 32.1790 35.4445 0.0000 -23.1432 0.0000
# 2 32.1790 129.0369 65.4809 0.0000 -12.2210 0.0000
# 3 35.4445 65.4809 130.1192 0.0000 -22.2565 0.0000
# 4 0.0000 0.0000 0.0000 29.3064 0.0000 -0.2676
# 5 -23.1432 -12.2210 -22.2565 0.0000 37.1345 0.0000
# 6 0.0000 0.0000 0.0000 -0.2676 0.0000 29.8575
#
#
#
# Elastic Compliance Matrix: (Units=1/GPa)
#
#
# Indices 1 2 3 4 5 6 
#
# 1 0.022475 -0.003233 -0.002542 0.000000 0.011419 0.000000
# 2 -0.003233 0.010876 -0.004819 0.000000 -0.001324 0.000000
# 3 -0.002542 -0.004819 0.011433 0.000000 0.003682 0.000000
# 4 0.000000 0.000000 0.000000 0.034125 0.000000 0.000306
# 5 0.011419 -0.001324 0.003682 0.000000 0.035817 0.000000
# 6 0.000000 0.000000 0.000000 0.000306 0.000000 0.033495
#
#
# Mechanical properties :
#
#
# Convention : Reuss Voigt Hill
#
# Bulk Modulus (GPa) = 42.38126 65.58398 53.98262
# Shear Modulus (GPa) = 28.20489 31.98918 30.09704
#
# Velocity S-wave (km/s) = 3.68845 3.92811 3.81017
# Velocity P-wave (km/s) = 6.21146 7.22551 6.73759
#
# Compressibility (1/GPa) = 0.02359533
#
# Stress axis : x y z
#
# Youngs Moduli (GPa) = 44.49410 91.94491 87.46984
#
# Poissons Ratio (x) = 0.29729 0.22232
# Poissons Ratio (y) = 0.14387 0.42151
# Poissons Ratio (z) = 0.11309 0.44308
#
# Static dielectric constant tensor:
#      x y z
#    x 3.695110 0.000000 0.015030 
#    y 0.000000 3.953470 0.000000 
#    z 0.015030 0.000000 3.838530 
# 
# 
# High freq. dielectric constant tensor:
#      x y z
#    x 1.796090 0.000000 -0.006420 
#    y 0.000000 1.821670 0.000000 
#    z -0.006420 0.000000 1.810110 
# 
# From -- ./inp_files/53877.got.cif
#   From: 2010.06.25/outbox.cif.g09.slc.cpg/sg13_27_cif.got.tgz:53877.got - 2010.06.28 04:50:58.
