data_PCOD8118291
_publ_section_title
;
Structure prediction by ZEFSAII (Michael W. Deem and Ramdas Pophale) SiO2 
 PCOD8118291
Probable space group: P 2/C
;
_chemical_formula_sum "Si O2"
_cell_formula_units_Z 28
_cell_length_a 10.470977
_cell_length_b 9.541027
_cell_length_c 13.299990
_cell_angle_alpha 90.000000
_cell_angle_beta 66.260418
_cell_angle_gamma 90.000000
_cell_volume 1216.290436
_symmetry_space_group_name_H-M "P 2/C"
_symmetry_group_IT_number 13
_symmetry_cell_setting 'monoclinic'
loop_
_space_group_symop_operation_xyz
x,y,z
-x,y,1/2-z
-x,-y,-z
x,-y,1/2+z
loop_
_atom_site_type_symbol
_atom_site_label
_atom_site_fract_x
_atom_site_fract_y
_atom_site_fract_z
Si Si1 0.653520 0.136307 0.681635
Si Si2 0.165383 0.982743 0.624865
Si Si3 0.955774 0.393804 0.101938
Si Si4 0.790672 0.440475 0.342998
Si Si5 0.603349 0.779766 0.987651
Si Si6 0.294466 0.746191 0.124259
Si Si7 0.109499 0.913504 0.868274
O O1 0.500000 0.066555 0.750000
O O2 0.643194 0.245452 0.592218
O O3 0.695230 0.237559 0.759123
O O4 0.767003 0.011279 0.626056
O O5 0.172703 0.150109 0.628313
O O6 0.322254 0.928130 0.556641
O O7 0.123499 0.908830 0.742709
O O8 0.052715 0.965547 0.568860
O O9 0.839761 0.460870 0.212353
O O10 0.890536 0.244682 0.085570
O O11 0.093825 0.365027 0.124159
O O12 0.000000 0.500000 0.000000
O O13 0.655942 0.342135 0.396512
O O14 0.751464 0.593045 0.396140
O O15 0.438520 0.787295 0.023784
#
# Coordination Sequence:
#
# PCOD8118291 Si02
#       7
#     4   4   4   4   4   4   4
#     4   9  22  39  64  95 132 168 219 273 323 385
#     4  10  19  37  65  91 126 165 219 265 322 382
#     4  11  24  42  66  92 130 169 215 271 327 385
#     4  11  23  42  64  93 132 170 214 263 327 393
#     4  11  20  40  64  91 130 175 212 262 330 385
#     4  10  23  38  62  97 129 171 217 266 318 389
#     4  10  19  40  63  90 127 169 214 272 327 382
#
# _framework density 23.020817000000001
#
# number of rings (size 3 to 8) (size 9 to 14) (size 15 to 20)
#    0.000    1.714    2.857    1.714    2.000    6.286 
#    0.000    0.000    0.000    0.000    0.000    0.000 
#    0.000    0.000    0.000    0.000    0.000    0.000 
#
# Total GULP energy -346937.839540 kJ/mol
# GULP energy per Si atom -12390.637126 kJ/mol
# Density = 2.296842 g / cm^3
# Si number density = 23.020817 Si / 1000 Ang^3
#
#
#
# Elastic Constant Matrix: (Units=GPa)
#
#
# Indices 1 2 3 4 5 6 
#
# 1 65.9613 32.1465 26.0658 0.0000 -16.6280 0.0000
# 2 32.1465 113.1267 26.9041 0.0000 -8.6633 0.0000
# 3 26.0658 26.9041 91.3556 0.0000 -23.1090 0.0000
# 4 0.0000 0.0000 0.0000 28.8143 0.0000 -5.8900
# 5 -16.6280 -8.6633 -23.1090 0.0000 27.9007 0.0000
# 6 0.0000 0.0000 0.0000 -5.8900 0.0000 31.9132
#
#
#
# Elastic Compliance Matrix: (Units=1/GPa)
#
#
# Indices 1 2 3 4 5 6 
#
# 1 0.020557 -0.004623 -0.002236 0.000000 0.008963 0.000000
# 2 -0.004623 0.010559 -0.002098 0.000000 -0.001214 0.000000
# 3 -0.002236 -0.002098 0.014801 0.000000 0.010275 0.000000
# 4 0.000000 0.000000 0.000000 0.036066 0.000000 0.006656
# 5 0.008963 -0.001214 0.010275 0.000000 0.049317 0.000000
# 6 0.000000 0.000000 0.000000 0.006656 0.000000 0.032564
#
#
# Mechanical properties :
#
#
# Convention : Reuss Voigt Hill
#
# Bulk Modulus (GPa) = 35.71083 48.96405 42.33744
# Shear Modulus (GPa) = 26.16263 30.08079 28.12171
#
# Velocity S-wave (km/s) = 3.37482 3.61872 3.49890
# Velocity P-wave (km/s) = 5.54365 6.22702 5.89525
#
# Compressibility (1/GPa) = 0.02800271
#
# Stress axis : x y z
#
# Youngs Moduli (GPa) = 48.64551 94.70327 67.56193
#
# Poissons Ratio (x) = 0.43783 0.15110
# Poissons Ratio (y) = 0.22490 0.14172
# Poissons Ratio (z) = 0.10879 0.19866
#
# Static dielectric constant tensor:
#      x y z
#    x 4.075350 0.000000 -0.293350 
#    y 0.000000 3.775940 0.000000 
#    z -0.293350 0.000000 4.446840 
# 
# 
# High freq. dielectric constant tensor:
#      x y z
#    x 1.897600 0.000000 -0.018730 
#    y 0.000000 1.894830 0.000000 
#    z -0.018730 0.000000 1.926700 
# 
# From -- ./inp_files/50224.got.cif
#   From: 2010.06.25/outbox.cif.g09.slc.cpg/sg13_26_cif.got.tgz:50224.got - 2010.06.28 04:50:58.
