data_PCOD8118653
_publ_section_title
;
Structure prediction by ZEFSAII (Michael W. Deem and Ramdas Pophale) SiO2 
 PCOD8118653
Probable space group: P 2/C
;
_chemical_formula_sum "Si O2"
_cell_formula_units_Z 22
_cell_length_a 22.753761
_cell_length_b 10.720418
_cell_length_c 25.104138
_cell_angle_alpha 90.000000
_cell_angle_beta 169.450567
_cell_angle_gamma 90.000000
_cell_volume 1121.140634
_symmetry_space_group_name_H-M "P 2/C"
_symmetry_group_IT_number 13
_symmetry_cell_setting 'monoclinic'
loop_
_space_group_symop_operation_xyz
x,y,z
-x,y,1/2-z
-x,-y,-z
x,-y,1/2+z
loop_
_atom_site_type_symbol
_atom_site_label
_atom_site_fract_x
_atom_site_fract_y
_atom_site_fract_z
Si Si1 0.709421 0.101341 0.531629
Si Si2 0.366642 0.832112 0.071997
Si Si3 0.911644 0.754198 0.055007
Si Si4 0.215540 0.520240 0.287108
Si Si5 0.500000 0.578721 0.750000
Si Si6 0.463062 0.577966 0.321650
O O1 0.000000 0.123768 0.750000
O O2 0.866341 0.130298 0.728884
O O3 0.582271 0.960588 0.414857
O O4 0.414355 0.196507 0.262220
O O5 0.500000 0.848871 0.250000
O O6 0.534445 0.725687 0.186851
O O7 0.000000 0.793471 0.750000
O O8 0.127119 0.667783 0.208572
O O9 0.808259 0.665656 0.012549
O O10 0.500000 0.500000 0.500000
O O11 0.300316 0.464744 0.420657
O O12 0.900742 0.449862 0.985588
O O13 0.425679 0.492949 0.632754
#
# Coordination Sequence:
#
# PCOD8118653 Si02
#       6
#     4   4   4   4   2   4
#     4  11  20  35  54  87 122 155 180 230 291 360
#     4  11  22  37  56  86 127 156 186 227 292 367
#     4  11  21  34  59  83 119 148 187 244 285 357
#     4  11  25  42  60  85 115 162 202 244 293 334
#     4  10  20  34  56  92 120 138 192 230 318 340
#     4  11  23  38  63  85 120 155 189 251 283 365
#
# _framework density 19.622872999999998
#
# number of rings (size 3 to 8) (size 9 to 14) (size 15 to 20)
#    0.000    1.091    2.727    6.000    2.545    0.000 
#    0.000    0.000    0.000    6.545    0.000    0.000 
#    0.000    0.000    0.000    0.000    0.000    0.000 
#
# Total GULP energy -272757.162380 kJ/mol
# GULP energy per Si atom -12398.052835 kJ/mol
# Density = 1.957821 g / cm^3
# Si number density = 19.622873 Si / 1000 Ang^3
#
#
#
# Elastic Constant Matrix: (Units=GPa)
#
#
# Indices 1 2 3 4 5 6 
#
# 1 40.9080 18.0778 5.7940 0.0000 -0.4930 0.0000
# 2 18.0778 121.9433 27.1948 0.0000 -3.1555 0.0000
# 3 5.7940 27.1948 84.9980 0.0000 -11.5545 0.0000
# 4 0.0000 0.0000 0.0000 31.9239 0.0000 -6.8932
# 5 -0.4930 -3.1555 -11.5545 0.0000 34.4933 0.0000
# 6 0.0000 0.0000 0.0000 -6.8932 0.0000 19.4647
#
#
#
# Elastic Compliance Matrix: (Units=1/GPa)
#
#
# Indices 1 2 3 4 5 6 
#
# 1 0.026187 -0.003751 -0.000608 0.000000 -0.000173 0.000000
# 2 -0.003751 0.009369 -0.002758 0.000000 -0.000120 0.000000
# 3 -0.000608 -0.002758 0.013257 0.000000 0.004180 0.000000
# 4 0.000000 0.000000 0.000000 0.033918 0.000000 0.012012
# 5 -0.000173 -0.000120 0.004180 0.000000 0.030378 0.000000
# 6 0.000000 0.000000 0.000000 0.012012 0.000000 0.055629
#
#
# Mechanical properties :
#
#
# Convention : Reuss Voigt Hill
#
# Bulk Modulus (GPa) = 28.92055 38.88696 33.90375
# Shear Modulus (GPa) = 25.70716 30.29520 28.00118
#
# Velocity S-wave (km/s) = 3.62340 3.93348 3.78162
# Velocity P-wave (km/s) = 5.68116 6.36316 6.03181
#
# Compressibility (1/GPa) = 0.03457749
#
# Stress axis : x y z
#
# Youngs Moduli (GPa) = 38.18721 106.73976 75.43118
#
# Poissons Ratio (x) = 0.40037 0.04590
# Poissons Ratio (y) = 0.14324 0.20805
# Poissons Ratio (z) = 0.02323 0.29440
#
# Static dielectric constant tensor:
#      x y z
#    x 3.258600 0.000000 -0.194760 
#    y 0.000000 3.773500 0.000000 
#    z -0.194760 0.000000 3.663880 
# 
# 
# High freq. dielectric constant tensor:
#      x y z
#    x 1.720940 0.000000 -0.021070 
#    y 0.000000 1.774780 0.000000 
#    z -0.021070 0.000000 1.781280 
# 
# From -- ./inp_files/93852.got.cif
#   From: 2010.06.25/outbox.cif.g09.slc.cpg/sg13_47_cif.got.tgz:93852.got - 2010.06.28 04:50:58.
