data_PCOD8118390
_publ_section_title
;
Structure prediction by ZEFSAII (Michael W. Deem and Ramdas Pophale) SiO2 
 PCOD8118390
Probable space group: P 2/C
;
_chemical_formula_sum "Si O2"
_cell_formula_units_Z 28
_cell_length_a 9.039286
_cell_length_b 10.961885
_cell_length_c 14.829834
_cell_angle_alpha 90.000000
_cell_angle_beta 59.964985
_cell_angle_gamma 90.000000
_cell_volume 1272.134259
_symmetry_space_group_name_H-M "P 2/C"
_symmetry_group_IT_number 13
_symmetry_cell_setting 'monoclinic'
loop_
_space_group_symop_operation_xyz
x,y,z
-x,y,1/2-z
-x,-y,-z
x,-y,1/2+z
loop_
_atom_site_type_symbol
_atom_site_label
_atom_site_fract_x
_atom_site_fract_y
_atom_site_fract_z
Si Si1 0.838855 0.688495 0.864658
Si Si2 0.471944 0.341466 0.394284
Si Si3 0.000000 0.113909 0.750000
Si Si4 0.166721 0.431289 0.593624
Si Si5 0.828609 0.667763 0.218537
Si Si6 0.240699 0.051050 0.074392
Si Si7 0.475617 0.070279 0.359510
Si Si8 0.500000 0.553172 0.250000
O O1 0.667655 0.665673 0.860682
O O2 0.851493 0.573695 0.929321
O O3 0.822816 0.811942 0.927760
O O4 0.000000 0.700125 0.750000
O O5 0.341078 0.361801 0.515880
O O6 0.422250 0.212516 0.363754
O O7 0.439473 0.461912 0.346007
O O8 0.847220 0.196152 0.754033
O O9 0.921891 0.032409 0.853552
O O10 0.169364 0.430773 0.701528
O O11 0.999280 0.360032 0.606628
O O12 0.654243 0.647736 0.218589
O O13 0.357646 0.054108 0.128805
O O14 0.327024 0.002878 0.956735
O O15 0.500000 0.017788 0.250000
#
# Coordination Sequence:
#
# PCOD8118390 Si02
#       8
#     4   4   2   4   4   4   4   2
#     4  11  19  37  65  96 128 173 225 277 323 406
#     4  11  22  36  67  91 132 171 212 271 338 407
#     4  10  20  44  64  90 130 182 224 276 324 410
#     4  10  19  39  61  94 124 172 217 257 335 408
#     4  10  22  37  64  89 131 166 210 278 330 394
#     4  10  22  39  70  93 125 191 228 272 339 397
#     4  10  21  42  63  97 131 174 231 280 333 403
#     4  12  22  38  56 104 126 170 212 270 352 394
#
# _framework density 22.010255999999998
#
# number of rings (size 3 to 8) (size 9 to 14) (size 15 to 20)
#    0.000    1.714    4.286    2.143    0.000    0.571 
#    1.286    0.714    0.000    0.000    0.000    0.000 
#    0.000    0.000    0.000    0.000    0.000    0.000 
#
# Total GULP energy -346954.873363 kJ/mol
# GULP energy per Si atom -12391.245477 kJ/mol
# Density = 2.196016 g / cm^3
# Si number density = 22.010256 Si / 1000 Ang^3
#
#
#
# Elastic Constant Matrix: (Units=GPa)
#
#
# Indices 1 2 3 4 5 6 
#
# 1 102.0610 28.3771 42.9415 0.0000 -26.0042 0.0000
# 2 28.3771 129.7029 43.2547 0.0000 -12.5146 0.0000
# 3 42.9415 43.2547 131.6161 0.0000 -22.1446 0.0000
# 4 0.0000 0.0000 0.0000 31.2971 0.0000 -11.8015
# 5 -26.0042 -12.5146 -22.1446 0.0000 35.8266 0.0000
# 6 0.0000 0.0000 0.0000 -11.8015 0.0000 29.5831
#
#
#
# Elastic Compliance Matrix: (Units=1/GPa)
#
#
# Indices 1 2 3 4 5 6 
#
# 1 0.013163 -0.001286 -0.002612 0.000000 0.007491 0.000000
# 2 -0.001286 0.008849 -0.002372 0.000000 0.000691 0.000000
# 3 -0.002612 -0.002372 0.009789 0.000000 0.003327 0.000000
# 4 0.000000 0.000000 0.000000 0.037609 0.000000 0.015003
# 5 0.007491 0.000691 0.003327 0.000000 0.035647 0.000000
# 6 0.000000 0.000000 0.000000 0.015003 0.000000 0.039788
#
#
# Mechanical properties :
#
#
# Convention : Reuss Voigt Hill
#
# Bulk Modulus (GPa) = 51.91757 65.83628 58.87692
# Shear Modulus (GPa) = 30.52386 35.92848 33.22617
#
# Velocity S-wave (km/s) = 3.72802 4.04462 3.88954
# Velocity P-wave (km/s) = 6.49384 7.19642 6.85414
#
# Compressibility (1/GPa) = 0.01926130
#
# Stress axis : x y z
#
# Youngs Moduli (GPa) = 75.97032 113.00515 102.15288
#
# Poissons Ratio (x) = 0.14535 0.26678
# Poissons Ratio (y) = 0.09771 0.24233
# Poissons Ratio (z) = 0.19840 0.26808
#
# Static dielectric constant tensor:
#      x y z
#    x 3.773460 0.000000 -0.373980 
#    y 0.000000 4.275420 0.000000 
#    z -0.373980 0.000000 3.929600 
# 
# 
# High freq. dielectric constant tensor:
#      x y z
#    x 1.838870 0.000000 -0.034800 
#    y 0.000000 1.883220 0.000000 
#    z -0.034800 0.000000 1.856180 
# 
# From -- ./inp_files/47165.got.cif
#   From: 2010.06.25/outbox.cif.g09.slc.cpg/sg13_24_cif.got.tgz:47165.got - 2010.06.28 04:50:58.
