data_PCOD8118118
_publ_section_title
;
Structure prediction by ZEFSAII (Michael W. Deem and Ramdas Pophale) SiO2 
 PCOD8118118
Probable space group: P 2/C
;
_chemical_formula_sum "Si O2"
_cell_formula_units_Z 22
_cell_length_a 8.337546
_cell_length_b 11.638115
_cell_length_c 11.238633
_cell_angle_alpha 90.000000
_cell_angle_beta 108.208615
_cell_angle_gamma 90.000000
_cell_volume 1035.914066
_symmetry_space_group_name_H-M "P 2/C"
_symmetry_group_IT_number 13
_symmetry_cell_setting 'monoclinic'
loop_
_space_group_symop_operation_xyz
x,y,z
-x,y,1/2-z
-x,-y,-z
x,-y,1/2+z
loop_
_atom_site_type_symbol
_atom_site_label
_atom_site_fract_x
_atom_site_fract_y
_atom_site_fract_z
Si Si1 0.102947 0.155569 0.067544
Si Si2 0.499176 0.617901 0.936022
Si Si3 0.787524 0.382335 0.306237
Si Si4 0.725587 0.234653 0.617124
Si Si5 0.000000 0.579533 0.250000
Si Si6 0.865051 0.080144 0.822683
O O1 0.091242 0.273579 0.138945
O O2 0.167273 0.055822 0.173038
O O3 0.234116 0.157434 0.989150
O O4 0.920778 0.126775 0.965899
O O5 0.315674 0.643046 0.838807
O O6 0.649986 0.607924 0.876609
O O7 0.500000 0.500000 0.000000
O O8 0.541244 0.713132 0.046640
O O9 0.902993 0.496653 0.322121
O O10 0.710048 0.156654 0.734096
O O11 0.863146 0.338938 0.654540
O O12 0.000000 0.106603 0.750000
#
# Coordination Sequence:
#
# PCOD8118118 Si02
#       6
#     4   4   4   4   2   4
#     4   9  18  33  53  81 111 149 184 238 283 331
#     4  10  20  40  57  80 121 159 183 224 294 349
#     4  10  23  35  58  88 117 152 190 232 287 348
#     4  10  19  36  58  82 116 151 186 239 289 331
#     4  12  20  36  54  94 120 140 194 240 276 342
#     4   9  17  33  55  81 112 145 190 239 290 329
#
# _framework density 21.237283000000001
#
# number of rings (size 3 to 8) (size 9 to 14) (size 15 to 20)
#    0.000    2.182    4.545    0.000    1.273    2.909 
#    0.000    0.909    0.000    0.000    0.000    0.000 
#    0.000    0.000    0.000    0.000    0.000    0.000 
#
# Total GULP energy -272545.507344 kJ/mol
# GULP energy per Si atom -12388.432152 kJ/mol
# Density = 2.118895 g / cm^3
# Si number density = 21.237283 Si / 1000 Ang^3
#
#
#
# Elastic Constant Matrix: (Units=GPa)
#
#
# Indices 1 2 3 4 5 6 
#
# 1 22.8060 14.5912 10.3724 0.0000 4.1947 0.0000
# 2 14.5912 137.5233 67.4407 0.0000 1.7126 0.0000
# 3 10.3724 67.4407 121.8781 0.0000 18.0417 0.0000
# 4 0.0000 0.0000 0.0000 54.7782 0.0000 -2.9325
# 5 4.1947 1.7126 18.0417 0.0000 14.1393 0.0000
# 6 0.0000 0.0000 0.0000 -2.9325 0.0000 22.8369
#
#
#
# Elastic Compliance Matrix: (Units=1/GPa)
#
#
# Indices 1 2 3 4 5 6 
#
# 1 0.049811 -0.005692 0.001228 0.000000 -0.015655 0.000000
# 2 -0.005692 0.011262 -0.007145 0.000000 0.009441 0.000000
# 3 0.001228 -0.007145 0.014770 0.000000 -0.018345 0.000000
# 4 0.000000 0.000000 0.000000 0.018382 0.000000 0.002360
# 5 -0.015655 0.009441 -0.018345 0.000000 0.097634 0.000000
# 6 0.000000 0.000000 0.000000 0.002360 0.000000 0.044092
#
#
# Mechanical properties :
#
#
# Convention : Reuss Voigt Hill
#
# Bulk Modulus (GPa) = 19.00269 51.89068 35.44669
# Shear Modulus (GPa) = 18.06955 31.00442 24.53699
#
# Velocity S-wave (km/s) = 2.92008 3.82502 3.40277
# Velocity P-wave (km/s) = 4.50959 6.63283 5.67146
#
# Compressibility (1/GPa) = 0.05262414
#
# Stress axis : x y z
#
# Youngs Moduli (GPa) = 20.07596 88.79735 67.70702
#
# Poissons Ratio (x) = 0.50545 -0.08314
# Poissons Ratio (y) = 0.11428 0.48375
# Poissons Ratio (z) = -0.02465 0.63443
#
# Static dielectric constant tensor:
#      x y z
#    x 3.142740 0.000000 0.117800 
#    y 0.000000 3.835090 0.000000 
#    z 0.117800 0.000000 4.129970 
# 
# 
# High freq. dielectric constant tensor:
#      x y z
#    x 1.775410 0.000000 0.009990 
#    y 0.000000 1.841710 0.000000 
#    z 0.009990 0.000000 1.848080 
# 
# From -- ./inp_files/29538.got.cif
#   From: 2010.06.25/outbox.cif.g09.slc.cpg/sg13_15_cif.got.tgz:29538.got - 2010.06.28 04:50:58.
