data_PCOD8118846
_publ_section_title
;
Structure prediction by ZEFSAII (Michael W. Deem and Ramdas Pophale) SiO2 
 PCOD8118846
Probable space group: P 2/C
;
_chemical_formula_sum "Si O2"
_cell_formula_units_Z 18
_cell_length_a 12.390349
_cell_length_b 9.165266
_cell_length_c 20.580981
_cell_angle_alpha 90.000000
_cell_angle_beta 22.762016
_cell_angle_gamma 90.000000
_cell_volume 904.270377
_symmetry_space_group_name_H-M "P 2/C"
_symmetry_group_IT_number 13
_symmetry_cell_setting 'monoclinic'
loop_
_space_group_symop_operation_xyz
x,y,z
-x,y,1/2-z
-x,-y,-z
x,-y,1/2+z
loop_
_atom_site_type_symbol
_atom_site_label
_atom_site_fract_x
_atom_site_fract_y
_atom_site_fract_z
Si Si1 0.601604 0.952142 0.622215
Si Si2 0.048798 0.544679 0.399516
Si Si3 0.185494 0.137333 0.779364
Si Si4 0.000000 0.746161 0.250000
Si Si5 0.431295 0.366412 0.414286
O O1 0.500000 0.992788 0.750000
O O2 0.519143 0.788499 0.647818
O O3 0.934846 0.971198 0.438855
O O4 0.474539 0.062860 0.639346
O O5 0.155598 0.710142 0.333848
O O6 0.270176 0.440370 0.239771
O O7 0.000000 0.500000 0.500000
O O8 0.748290 0.527452 0.532577
O O9 0.155840 0.157574 0.718121
O O10 0.750484 0.649669 0.419052
#
# Coordination Sequence:
#
# PCOD8118846 Si02
#       5
#     4   4   4   2   4
#     4  10  20  36  54  83 112 143 182 233 287 326
#     4  10  20  36  55  83 109 143 184 229 284 328
#     4  10  22  35  58  79 112 147 182 234 272 338
#     4   8  20  40  54  82 112 148 192 224 282 328
#     4  10  21  35  58  78 114 148 180 234 274 337
#
# _framework density 19.905550000000002
#
# number of rings (size 3 to 8) (size 9 to 14) (size 15 to 20)
#    0.000    2.667    0.000    4.000    0.000   10.667 
#    0.000    0.000    0.000   21.333    0.000    0.000 
#    0.000    0.000    0.000    0.000    0.000    0.000 
#
# Total GULP energy -223104.343199 kJ/mol
# GULP energy per Si atom -12394.685733 kJ/mol
# Density = 1.986024 g / cm^3
# Si number density = 19.905550 Si / 1000 Ang^3
#
#
#
# Elastic Constant Matrix: (Units=GPa)
#
#
# Indices 1 2 3 4 5 6 
#
# 1 109.9896 38.3020 27.8267 0.0000 25.0709 0.0000
# 2 38.3020 61.3531 22.8739 0.0000 -8.5532 0.0000
# 3 27.8267 22.8739 69.1344 0.0000 17.4169 0.0000
# 4 0.0000 0.0000 0.0000 27.8925 0.0000 -17.3736
# 5 25.0709 -8.5532 17.4169 0.0000 39.7324 0.0000
# 6 0.0000 0.0000 0.0000 -17.3736 0.0000 31.9569
#
#
#
# Elastic Compliance Matrix: (Units=1/GPa)
#
#
# Indices 1 2 3 4 5 6 
#
# 1 0.016146 -0.012251 0.000883 0.000000 -0.013213 0.000000
# 2 -0.012251 0.030135 -0.009691 0.000000 0.018466 0.000000
# 3 0.000883 -0.009691 0.020214 0.000000 -0.011504 0.000000
# 4 0.000000 0.000000 0.000000 0.054209 0.000000 0.029471
# 5 -0.013213 0.018466 -0.011504 0.000000 0.042524 0.000000
# 6 0.000000 0.000000 0.000000 0.029471 0.000000 0.047314
#
#
# Mechanical properties :
#
#
# Convention : Reuss Voigt Hill
#
# Bulk Modulus (GPa) = 41.02356 46.49803 43.76079
# Shear Modulus (GPa) = 19.17285 30.01465 24.59375
#
# Velocity S-wave (km/s) = 3.10690 3.88732 3.51881
# Velocity P-wave (km/s) = 5.79002 6.59988 6.20817
#
# Compressibility (1/GPa) = 0.02437624
#
# Stress axis : x y z
#
# Youngs Moduli (GPa) = 61.93390 33.18425 49.47093
#
# Poissons Ratio (x) = 0.40654 -0.04369
# Poissons Ratio (y) = 0.75876 0.47944
# Poissons Ratio (z) = -0.05470 0.32160
#
# Static dielectric constant tensor:
#      x y z
#    x 3.631640 0.000000 -0.081050 
#    y 0.000000 3.404030 0.000000 
#    z -0.081050 0.000000 3.749820 
# 
# 
# High freq. dielectric constant tensor:
#      x y z
#    x 1.778230 0.000000 0.000870 
#    y 0.000000 1.757730 0.000000 
#    z 0.000870 0.000000 1.783540 
# 
# From -- ./inp_files/87099.got.cif
#   From: 2010.06.25/outbox.cif.g09.slc.cpg/sg13_44_cif.got.tgz:87099.got - 2010.06.28 04:50:58.
