data_PCOD8118168
_publ_section_title
;
Structure prediction by ZEFSAII (Michael W. Deem and Ramdas Pophale) SiO2 
 PCOD8118168
Probable space group: P 2/C
;
_chemical_formula_sum "Si O2"
_cell_formula_units_Z 28
_cell_length_a 14.969033
_cell_length_b 9.206881
_cell_length_c 18.920592
_cell_angle_alpha 90.000000
_cell_angle_beta 144.811761
_cell_angle_gamma 90.000000
_cell_volume 1502.667577
_symmetry_space_group_name_H-M "P 2/C"
_symmetry_group_IT_number 13
_symmetry_cell_setting 'monoclinic'
loop_
_space_group_symop_operation_xyz
x,y,z
-x,y,1/2-z
-x,-y,-z
x,-y,1/2+z
loop_
_atom_site_type_symbol
_atom_site_label
_atom_site_fract_x
_atom_site_fract_y
_atom_site_fract_z
Si Si1 0.581886 0.475201 0.480151
Si Si2 0.186354 0.856443 0.184051
Si Si3 0.173631 0.233185 0.838246
Si Si4 0.674732 0.043528 0.447043
Si Si5 0.510059 0.257648 0.838647
Si Si6 0.149531 0.868998 0.573769
Si Si7 0.435393 0.709145 0.775951
O O1 0.500000 0.500000 0.500000
O O2 0.743219 0.389380 0.595465
O O3 0.595214 0.619515 0.441022
O O4 0.460105 0.370315 0.364331
O O5 0.182143 0.824536 0.264217
O O6 0.333440 0.770876 0.248600
O O7 0.187043 0.028548 0.165901
O O8 0.025147 0.807263 0.042640
O O9 0.000000 0.261605 0.750000
O O10 0.249635 0.104975 0.932881
O O11 0.802670 0.047010 0.467384
O O12 0.523138 0.135963 0.329691
O O13 0.618744 0.880300 0.422228
O O14 0.500000 0.301625 0.750000
O O15 0.252041 0.725888 0.648951
O O16 0.500000 0.617877 0.750000
#
# Coordination Sequence:
#
# PCOD8118168 Si02
#       7
#     4   4   4   4   4   4   4
#     4  11  24  39  60  84 121 162 202 241 297 359
#     4  11  21  35  64  91 123 153 195 251 304 346
#     4  11  23  42  63  87 122 162 201 244 298 361
#     4  10  19  36  65  87 118 156 194 249 304 346
#     4  12  22  40  60  93 125 155 197 253 302 350
#     4  10  19  36  61  94 116 151 201 257 295 351
#     4   9  18  36  59  87 112 155 202 240 288 364
#
# _framework density 18.633527999999998
#
# number of rings (size 3 to 8) (size 9 to 14) (size 15 to 20)
#    0.000    1.429    5.714    0.857    0.000    1.714 
#    0.000    2.857    0.000    0.000    0.000    0.000 
#    0.000    0.000    0.000    0.000    0.000    0.000 
#
# Total GULP energy -346962.410476 kJ/mol
# GULP energy per Si atom -12391.514660 kJ/mol
# Density = 1.859112 g / cm^3
# Si number density = 18.633528 Si / 1000 Ang^3
#
#
#
# Elastic Constant Matrix: (Units=GPa)
#
#
# Indices 1 2 3 4 5 6 
#
# 1 133.6167 46.1286 68.4703 0.0000 -7.8298 0.0000
# 2 46.1286 98.9972 53.5841 0.0000 -8.8882 0.0000
# 3 68.4703 53.5841 114.6130 0.0000 -3.6604 0.0000
# 4 0.0000 0.0000 0.0000 35.6756 0.0000 -13.1529
# 5 -7.8298 -8.8882 -3.6604 0.0000 43.6241 0.0000
# 6 0.0000 0.0000 0.0000 -13.1529 0.0000 22.7365
#
#
#
# Elastic Compliance Matrix: (Units=1/GPa)
#
#
# Indices 1 2 3 4 5 6 
#
# 1 0.011162 -0.002023 -0.005687 0.000000 0.001114 0.000000
# 2 -0.002023 0.014110 -0.005322 0.000000 0.002065 0.000000
# 3 -0.005687 -0.005322 0.014583 0.000000 -0.000882 0.000000
# 4 0.000000 0.000000 0.000000 0.035629 0.000000 0.020611
# 5 0.001114 0.002065 -0.000882 0.000000 0.023470 0.000000
# 6 0.000000 0.000000 0.000000 0.020611 0.000000 0.055906
#
#
# Mechanical properties :
#
#
# Convention : Reuss Voigt Hill
#
# Bulk Modulus (GPa) = 72.51427 75.95478 74.23452
# Shear Modulus (GPa) = 26.95120 32.34349 29.64734
#
# Velocity S-wave (km/s) = 3.80726 4.17078 3.99316
# Velocity P-wave (km/s) = 7.63724 8.00280 7.82215
#
# Compressibility (1/GPa) = 0.01379039
#
# Stress axis : x y z
#
# Youngs Moduli (GPa) = 89.59057 70.87112 68.57511
#
# Poissons Ratio (x) = 0.14336 0.38998
# Poissons Ratio (y) = 0.18123 0.36498
# Poissons Ratio (z) = 0.50949 0.37720
#
# Static dielectric constant tensor:
#      x y z
#    x 3.592950 0.000000 0.002420 
#    y 0.000000 3.311700 0.000000 
#    z 0.002420 0.000000 3.410590 
# 
# 
# High freq. dielectric constant tensor:
#      x y z
#    x 1.735290 0.000000 -0.005360 
#    y 0.000000 1.703020 0.000000 
#    z -0.005360 0.000000 1.734020 
# 
# From -- ./inp_files/68152.got.cif
#   From: 2010.06.25/outbox.cif.g09.slc.cpg/sg13_35_cif.got.tgz:68152.got - 2010.06.28 04:50:58.
