data_PCOD8118308
_publ_section_title
;
Structure prediction by ZEFSAII (Michael W. Deem and Ramdas Pophale) SiO2 
 PCOD8118308
Probable space group: P 2/C
;
_chemical_formula_sum "Si O2"
_cell_formula_units_Z 26
_cell_length_a 6.481506
_cell_length_b 14.534694
_cell_length_c 13.487814
_cell_angle_alpha 90.000000
_cell_angle_beta 80.313375
_cell_angle_gamma 90.000000
_cell_volume 1252.526695
_symmetry_space_group_name_H-M "P 2/C"
_symmetry_group_IT_number 13
_symmetry_cell_setting 'monoclinic'
loop_
_space_group_symop_operation_xyz
x,y,z
-x,y,1/2-z
-x,-y,-z
x,-y,1/2+z
loop_
_atom_site_type_symbol
_atom_site_label
_atom_site_fract_x
_atom_site_fract_y
_atom_site_fract_z
Si Si1 0.130525 0.208524 0.956559
Si Si2 0.527733 0.712724 0.934841
Si Si3 0.132718 0.371408 0.547581
Si Si4 0.555749 0.069122 0.635324
Si Si5 0.723076 0.890800 0.521793
Si Si6 0.500000 0.589491 0.750000
Si Si7 0.928598 0.456321 0.153536
O O1 0.251692 0.261682 0.034321
O O2 0.969138 0.131898 0.010959
O O3 0.297044 0.158971 0.872731
O O4 0.995225 0.282214 0.904865
O O5 0.404828 0.806560 0.918423
O O6 0.580404 0.655476 0.832076
O O7 0.380979 0.650935 0.021756
O O8 0.047784 0.391298 0.443068
O O9 0.074995 0.453960 0.626230
O O10 0.500000 0.042244 0.750000
O O11 0.351883 0.092546 0.585778
O O12 0.684880 0.983484 0.583998
O O13 0.318334 0.523105 0.808223
O O14 0.000000 0.407409 0.250000
#
# Coordination Sequence:
#
# PCOD8118308 Si02
#       7
#     4   4   4   4   4   2   4
#     4  10  19  38  58  81 114 155 191 238 287 341
#     4   9  19  35  59  82 114 150 188 243 292 338
#     4   9  20  37  54  79 116 149 189 237 292 350
#     4  10  21  37  59  85 118 155 191 235 283 338
#     4   9  20  38  58  83 119 151 193 234 285 343
#     4  10  20  34  58  88 110 146 198 246 292 354
#     4  10  20  36  55  81 112 149 191 241 294 348
#
# _framework density 20.758037999999999
#
# number of rings (size 3 to 8) (size 9 to 14) (size 15 to 20)
#    0.000    2.462    0.000    1.385    1.077    1.846 
#    9.692    4.615    0.000    0.000    0.000    0.000 
#    0.000    0.000    0.000    0.000    0.000    0.000 
#
# Total GULP energy -322193.329135 kJ/mol
# GULP energy per Si atom -12392.051121 kJ/mol
# Density = 2.071079 g / cm^3
# Si number density = 20.758038 Si / 1000 Ang^3
#
#
#
# Elastic Constant Matrix: (Units=GPa)
#
#
# Indices 1 2 3 4 5 6 
#
# 1 118.4761 35.2721 35.6664 0.0000 -8.0410 0.0000
# 2 35.2721 74.7020 23.3289 0.0000 -7.0290 0.0000
# 3 35.6664 23.3289 85.8877 0.0000 1.5795 0.0000
# 4 0.0000 0.0000 0.0000 16.8965 0.0000 -5.7144
# 5 -8.0410 -7.0290 1.5795 0.0000 18.9237 0.0000
# 6 0.0000 0.0000 0.0000 -5.7144 0.0000 37.1028
#
#
#
# Elastic Compliance Matrix: (Units=1/GPa)
#
#
# Indices 1 2 3 4 5 6 
#
# 1 0.010851 -0.003674 -0.003573 0.000000 0.003544 0.000000
# 2 -0.003674 0.016529 -0.003053 0.000000 0.004833 0.000000
# 3 -0.003573 -0.003053 0.014026 0.000000 -0.003823 0.000000
# 4 0.000000 0.000000 0.000000 0.062436 0.000000 0.009616
# 5 0.003544 0.004833 -0.003823 0.000000 0.056464 0.000000
# 6 0.000000 0.000000 0.000000 0.009616 0.000000 0.028433
#
#
# Mechanical properties :
#
#
# Convention : Reuss Voigt Hill
#
# Bulk Modulus (GPa) = 48.06221 51.95563 50.00892
# Shear Modulus (GPa) = 23.11868 26.90450 25.01159
#
# Velocity S-wave (km/s) = 3.34087 3.60404 3.47495
# Velocity P-wave (km/s) = 6.17136 6.51171 6.34382
#
# Compressibility (1/GPa) = 0.02080637
#
# Stress axis : x y z
#
# Youngs Moduli (GPa) = 92.16143 60.49802 71.29370
#
# Poissons Ratio (x) = 0.22227 0.25474
# Poissons Ratio (y) = 0.33860 0.21766
# Poissons Ratio (z) = 0.32931 0.18470
#
# Static dielectric constant tensor:
#      x y z
#    x 3.881810 0.000000 -0.114170 
#    y 0.000000 3.792520 0.000000 
#    z -0.114170 0.000000 3.496620 
# 
# 
# High freq. dielectric constant tensor:
#      x y z
#    x 1.821730 0.000000 -0.011270 
#    y 0.000000 1.814490 0.000000 
#    z -0.011270 0.000000 1.783890 
# 
# From -- ./inp_files/43983.got.cif
#   From: 2010.06.25/outbox.cif.g09.slc.cpg/sg13_22_cif.got.tgz:43983.got - 2010.06.28 04:50:58.
