data_PCOD8118931
_publ_section_title
;
Structure prediction by ZEFSAII (Michael W. Deem and Ramdas Pophale) SiO2 
 PCOD8118931
Probable space group: P 2/C
;
_chemical_formula_sum "Si O2"
_cell_formula_units_Z 24
_cell_length_a 22.584590
_cell_length_b 9.517198
_cell_length_c 16.462987
_cell_angle_alpha 90.000000
_cell_angle_beta 160.367886
_cell_angle_gamma 90.000000
_cell_volume 1188.893017
_symmetry_space_group_name_H-M "P 2/C"
_symmetry_group_IT_number 13
_symmetry_cell_setting 'monoclinic'
loop_
_space_group_symop_operation_xyz
x,y,z
-x,y,1/2-z
-x,-y,-z
x,-y,1/2+z
loop_
_atom_site_type_symbol
_atom_site_label
_atom_site_fract_x
_atom_site_fract_y
_atom_site_fract_z
Si Si1 0.827602 0.993781 0.721015
Si Si2 0.985759 0.484018 0.385792
Si Si3 0.015524 0.795374 0.363818
Si Si4 0.831422 0.256329 0.975905
Si Si5 0.688613 0.994148 0.703435
Si Si6 0.308231 0.279376 0.539829
O O1 0.664791 0.008797 0.574491
O O2 0.846987 0.125715 0.686033
O O3 0.805624 0.851985 0.640833
O O4 0.000000 0.000000 0.000000
O O5 0.000000 0.500000 0.500000
O O6 0.001912 0.632368 0.363774
O O7 0.143093 0.388444 0.551606
O O8 0.794960 0.419797 0.118875
O O9 0.000000 0.826256 0.250000
O O10 0.205841 0.850627 0.641115
O O11 0.000000 0.235504 0.250000
O O12 0.807462 0.120935 0.889557
O O13 0.672690 0.275169 0.836605
O O14 0.500000 0.000000 0.500000
O O15 0.500000 0.281892 0.750000
#
# Coordination Sequence:
#
# PCOD8118931 Si02
#       6
#     4   4   4   4   4   4
#     4  10  20  36  59  86 114 152 193 231 284 350
#     4  11  22  40  61  82 112 155 195 231 282 351
#     4  11  21  37  58  83 112 149 191 234 280 337
#     4  10  20  38  60  81 111 155 191 223 282 357
#     4  11  21  36  58  88 116 145 188 241 284 327
#     4  11  22  39  60  86 116 152 193 238 285 340
#
# _framework density 20.186845000000002
#
# number of rings (size 3 to 8) (size 9 to 14) (size 15 to 20)
#    0.000    1.333    0.000   11.000    0.000    0.000 
#    0.000    9.167    0.000    0.000    0.000    0.000 
#    0.000    0.000    0.000    0.000    0.000    0.000 
#
# Total GULP energy -297527.452618 kJ/mol
# GULP energy per Si atom -12396.977192 kJ/mol
# Density = 2.014090 g / cm^3
# Si number density = 20.186845 Si / 1000 Ang^3
#
#
#
# Elastic Constant Matrix: (Units=GPa)
#
#
# Indices 1 2 3 4 5 6 
#
# 1 165.1757 40.0085 17.4245 0.0000 1.8337 0.0000
# 2 40.0085 145.2614 30.7905 0.0000 1.8264 0.0000
# 3 17.4245 30.7905 48.1404 0.0000 16.5880 0.0000
# 4 0.0000 0.0000 0.0000 17.0489 0.0000 -1.4652
# 5 1.8337 1.8264 16.5880 0.0000 38.2372 0.0000
# 6 0.0000 0.0000 0.0000 -1.4652 0.0000 42.9885
#
#
#
# Elastic Compliance Matrix: (Units=1/GPa)
#
#
# Indices 1 2 3 4 5 6 
#
# 1 0.006575 -0.001480 -0.001586 0.000000 0.000443 0.000000
# 2 -0.001480 0.008450 -0.005590 0.000000 0.002092 0.000000
# 3 -0.001586 -0.005590 0.029163 0.000000 -0.012308 0.000000
# 4 0.000000 0.000000 0.000000 0.058827 0.000000 0.002005
# 5 0.000443 0.002092 -0.012308 0.000000 0.031371 0.000000
# 6 0.000000 0.000000 0.000000 0.002005 0.000000 0.023330
#
#
# Mechanical properties :
#
#
# Convention : Reuss Voigt Hill
#
# Bulk Modulus (GPa) = 37.20764 59.44715 48.32739
# Shear Modulus (GPa) = 27.17565 37.67853 32.42709
#
# Velocity S-wave (km/s) = 3.67305 4.32498 4.01227
# Velocity P-wave (km/s) = 6.03821 7.37922 6.74214
#
# Compressibility (1/GPa) = 0.02687620
#
# Stress axis : x y z
#
# Youngs Moduli (GPa) = 152.08901 118.33657 34.28993
#
# Poissons Ratio (x) = 0.17518 0.05438
# Poissons Ratio (y) = 0.22515 0.19168
# Poissons Ratio (z) = 0.24118 0.66151
#
# Static dielectric constant tensor:
#      x y z
#    x 4.952230 0.000000 0.156840 
#    y 0.000000 3.524310 0.000000 
#    z 0.156840 0.000000 3.332880 
# 
# 
# High freq. dielectric constant tensor:
#      x y z
#    x 1.831680 0.000000 0.005100 
#    y 0.000000 1.789060 0.000000 
#    z 0.005100 0.000000 1.752170 
# 
# From -- ./inp_files/71307.got.cif
#   From: 2010.06.25/outbox.cif.g09.slc.cpg/sg13_36_cif.got.tgz:71307.got - 2010.06.28 04:50:58.
