data_PCOD8118265
_publ_section_title
;
Structure prediction by ZEFSAII (Michael W. Deem and Ramdas Pophale) SiO2 
 PCOD8118265
Probable space group: P 2/C
;
_chemical_formula_sum "Si O2"
_cell_formula_units_Z 30
_cell_length_a 11.094823
_cell_length_b 11.723181
_cell_length_c 17.369792
_cell_angle_alpha 90.000000
_cell_angle_beta 42.914513
_cell_angle_gamma 90.000000
_cell_volume 1538.324237
_symmetry_space_group_name_H-M "P 2/C"
_symmetry_group_IT_number 13
_symmetry_cell_setting 'monoclinic'
loop_
_space_group_symop_operation_xyz
x,y,z
-x,y,1/2-z
-x,-y,-z
x,-y,1/2+z
loop_
_atom_site_type_symbol
_atom_site_label
_atom_site_fract_x
_atom_site_fract_y
_atom_site_fract_z
Si Si1 0.814341 0.558431 0.167275
Si Si2 0.658868 0.002165 0.583157
Si Si3 0.031405 0.120785 0.144530
Si Si4 0.500000 0.429835 0.250000
Si Si5 0.737715 0.254190 0.068280
Si Si6 0.258941 0.961045 0.282986
Si Si7 0.006272 0.330997 0.057307
Si Si8 0.948034 0.749893 0.189036
O O1 0.620797 0.510844 0.244995
O O2 0.950385 0.454244 0.116313
O O3 0.823181 0.637759 0.239502
O O4 0.856078 0.641878 0.075274
O O5 0.729969 0.053287 0.630144
O O6 0.458941 0.040147 0.655322
O O7 0.798090 0.039596 0.452278
O O8 0.645392 0.866513 0.598899
O O9 0.080412 0.247515 0.089343
O O10 0.000000 0.127913 0.250000
O O11 0.852738 0.072753 0.188516
O O12 0.591978 0.353281 0.141293
O O13 0.840491 0.260357 0.101174
O O14 0.868859 0.282116 0.937744
O O15 0.149654 0.855574 0.302802
O O16 0.000000 0.782947 0.250000
#
# Coordination Sequence:
#
# PCOD8118265 Si02
#       8
#     4   4   4   2   4   4   4   4
#     4   9  20  37  64  84 113 154 209 259 307 363
#     4  11  22  38  65  92 120 166 217 257 310 371
#     4  12  24  39  60  94 136 167 200 259 319 378
#     4  10  20  36  64  98 114 144 212 288 304 356
#     4  10  19  37  63  87 118 159 207 253 314 370
#     4  11  23  39  62  91 121 165 218 262 299 371
#     4   9  19  38  60  86 114 158 206 253 306 361
#     4  11  23  41  59  84 127 174 202 244 317 385
#
# _framework density 19.501742
#
# number of rings (size 3 to 8) (size 9 to 14) (size 15 to 20)
#    0.000    1.600    2.667    4.000    1.867    3.200 
#    0.000    0.667    0.000    0.000    0.000    0.000 
#    0.000    0.000    0.000    0.000    0.000    0.000 
#
# Total GULP energy -371855.228922 kJ/mol
# GULP energy per Si atom -12395.174297 kJ/mol
# Density = 1.945736 g / cm^3
# Si number density = 19.501742 Si / 1000 Ang^3
#
#
#
# Elastic Constant Matrix: (Units=GPa)
#
#
# Indices 1 2 3 4 5 6 
#
# 1 74.5282 45.3572 47.8045 0.0000 -8.3732 0.0000
# 2 45.3572 119.3936 37.0979 0.0000 -1.9541 0.0000
# 3 47.8045 37.0979 102.9863 0.0000 -11.8710 0.0000
# 4 0.0000 0.0000 0.0000 21.8759 0.0000 -8.8644
# 5 -8.3732 -1.9541 -11.8710 0.0000 28.4083 0.0000
# 6 0.0000 0.0000 0.0000 -8.8644 0.0000 25.4006
#
#
#
# Elastic Compliance Matrix: (Units=1/GPa)
#
#
# Indices 1 2 3 4 5 6 
#
# 1 0.022511 -0.006037 -0.007940 0.000000 0.002902 0.000000
# 2 -0.006037 0.011068 -0.001368 0.000000 -0.001590 0.000000
# 3 -0.007940 -0.001368 0.014296 0.000000 0.003540 0.000000
# 4 0.000000 0.000000 0.000000 0.053241 0.000000 0.018580
# 5 0.002902 -0.001590 0.003540 0.000000 0.037426 0.000000
# 6 0.000000 0.000000 0.000000 0.018580 0.000000 0.045853
#
#
# Mechanical properties :
#
#
# Convention : Reuss Voigt Hill
#
# Bulk Modulus (GPa) = 58.18905 61.93637 60.06271
# Shear Modulus (GPa) = 22.64342 26.24687 24.44514
#
# Velocity S-wave (km/s) = 3.41118 3.67259 3.54430
# Velocity P-wave (km/s) = 6.73925 7.05778 6.90036
#
# Compressibility (1/GPa) = 0.01718536
#
# Stress axis : x y z
#
# Youngs Moduli (GPa) = 44.42300 90.34910 69.94787
#
# Poissons Ratio (x) = 0.54546 0.55538
# Poissons Ratio (y) = 0.26819 0.09568
# Poissons Ratio (z) = 0.35272 0.12359
#
# Static dielectric constant tensor:
#      x y z
#    x 3.448680 0.000000 -0.179070 
#    y 0.000000 3.740960 0.000000 
#    z -0.179070 0.000000 3.548350 
# 
# 
# High freq. dielectric constant tensor:
#      x y z
#    x 1.736310 0.000000 -0.015080 
#    y 0.000000 1.776560 0.000000 
#    z -0.015080 0.000000 1.747320 
# 
# From -- ./inp_files/66653.got.cif
#   From: 2010.06.25/outbox.cif.g09.slc.cpg/sg13_34_cif.got.tgz:66653.got - 2010.06.28 04:50:58.
