data_PCOD8118571
_publ_section_title
;
Structure prediction by ZEFSAII (Michael W. Deem and Ramdas Pophale) SiO2 
 PCOD8118571
Probable space group: P 2/C
;
_chemical_formula_sum "Si O2"
_cell_formula_units_Z 22
_cell_length_a 10.871570
_cell_length_b 8.990230
_cell_length_c 11.178512
_cell_angle_alpha 90.000000
_cell_angle_beta 106.820781
_cell_angle_gamma 90.000000
_cell_volume 1045.818650
_symmetry_space_group_name_H-M "P 2/C"
_symmetry_group_IT_number 13
_symmetry_cell_setting 'monoclinic'
loop_
_space_group_symop_operation_xyz
x,y,z
-x,y,1/2-z
-x,-y,-z
x,-y,1/2+z
loop_
_atom_site_type_symbol
_atom_site_label
_atom_site_fract_x
_atom_site_fract_y
_atom_site_fract_z
Si Si1 0.660499 0.446473 0.579422
Si Si2 0.264449 0.722768 0.053880
Si Si3 0.500000 0.628339 0.250000
Si Si4 0.474209 0.792099 0.605358
Si Si5 0.296844 0.009819 0.428510
Si Si6 0.148007 0.232210 0.762757
O O1 0.724669 0.591189 0.539509
O O2 0.593551 0.471561 0.691257
O O3 0.549626 0.370129 0.464354
O O4 0.784179 0.341254 0.624611
O O5 0.409232 0.740401 0.148993
O O6 0.165064 0.698814 0.134857
O O7 0.210264 0.873915 0.978548
O O8 0.500000 0.760449 0.750000
O O9 0.596464 0.878964 0.592007
O O10 0.350630 0.891627 0.539701
O O11 0.217451 0.929129 0.300402
O O12 0.000000 0.215826 0.750000
#
# Coordination Sequence:
#
# PCOD8118571 Si02
#       6
#     4   4   2   4   4   4
#     4  10  22  38  62  93 124 164 200 256 317 371
#     4  11  22  37  61  91 124 161 207 256 311 371
#     4  10  20  36  58  92 134 154 190 254 322 382
#     4  10  20  33  57  92 128 159 196 247 315 388
#     4  10  21  37  58  89 122 165 205 254 314 363
#     4  10  24  44  61  84 125 171 216 261 299 356
#
# _framework density 21.036152000000001
#
# number of rings (size 3 to 8) (size 9 to 14) (size 15 to 20)
#    0.000    1.818    1.818    1.636    5.091    2.909 
#    0.000    0.909    0.000    0.000    0.000    0.000 
#    0.000    0.000    0.000    0.000    0.000    0.000 
#
# Total GULP energy -272537.253962 kJ/mol
# GULP energy per Si atom -12388.056998 kJ/mol
# Density = 2.098827 g / cm^3
# Si number density = 21.036152 Si / 1000 Ang^3
#
#
#
# Elastic Constant Matrix: (Units=GPa)
#
#
# Indices 1 2 3 4 5 6 
#
# 1 96.7654 40.1394 36.0608 0.0000 -5.4768 0.0000
# 2 40.1394 114.8556 50.8676 0.0000 -13.0162 0.0000
# 3 36.0608 50.8676 107.7862 0.0000 -20.4992 0.0000
# 4 0.0000 0.0000 0.0000 21.6040 0.0000 8.2230
# 5 -5.4768 -13.0162 -20.4992 0.0000 29.1673 0.0000
# 6 0.0000 0.0000 0.0000 8.2230 0.0000 -1.7790
#
#
#
# Elastic Compliance Matrix: (Units=1/GPa)
#
#
# Indices 1 2 3 4 5 6 
#
# 1 0.012720 -0.003279 -0.002923 0.000000 -0.001129 0.000000
# 2 -0.003279 0.011906 -0.004188 0.000000 0.001754 0.000000
# 3 -0.002923 -0.004188 0.013589 0.000000 0.007132 0.000000
# 4 0.000000 0.000000 0.000000 0.016775 0.000000 0.077538
# 5 -0.001129 0.001754 0.007132 0.000000 0.039868 0.000000
# 6 0.000000 0.000000 0.000000 0.077538 0.000000 -0.203712
#
#
# Mechanical properties :
#
#
# Convention : Reuss Voigt Hill
#
# Bulk Modulus (GPa) = 57.35762 63.72698 60.54230
# Shear Modulus (GPa) = -60.78059 22.62108 -19.07975
#
# Velocity S-wave (km/s) = -5.38109 3.28280 -3.01491
# Velocity P-wave (km/s) = 3.35898 6.68796 4.08938
#
# Compressibility (1/GPa) = 0.01743448
#
# Stress axis : x y z
#
# Youngs Moduli (GPa) = 78.61857 83.99028 73.59116
#
# Poissons Ratio (x) = 0.27538 0.21510
# Poissons Ratio (y) = 0.25776 0.30823
# Poissons Ratio (z) = 0.22979 0.35178
#
# Static dielectric constant tensor:
#      x y z
#    x 3.500900 0.000000 -0.203980 
#    y 0.000000 3.971550 0.000000 
#    z -0.203980 0.000000 4.111840 
# 
# 
# High freq. dielectric constant tensor:
#      x y z
#    x 1.785340 0.000000 -0.019190 
#    y 0.000000 1.834650 0.000000 
#    z -0.019190 0.000000 1.828490 
# 
# From -- ./inp_files/32694.got.cif
#   From: 2010.06.25/outbox.cif.g09.slc.cpg/sg13_17_cif.got.tgz:32694.got - 2010.06.28 04:50:58.
