data_PCOD8118295
_publ_section_title
;
Structure prediction by ZEFSAII (Michael W. Deem and Ramdas Pophale) SiO2 
 PCOD8118295
Probable space group: P 2/C
;
_chemical_formula_sum "Si O2"
_cell_formula_units_Z 32
_cell_length_a 11.837839
_cell_length_b 8.990617
_cell_length_c 14.192571
_cell_angle_alpha 90.000000
_cell_angle_beta 101.086597
_cell_angle_gamma 90.000000
_cell_volume 1482.318310
_symmetry_space_group_name_H-M "P 2/C"
_symmetry_group_IT_number 13
_symmetry_cell_setting 'monoclinic'
loop_
_space_group_symop_operation_xyz
x,y,z
-x,y,1/2-z
-x,-y,-z
x,-y,1/2+z
loop_
_atom_site_type_symbol
_atom_site_label
_atom_site_fract_x
_atom_site_fract_y
_atom_site_fract_z
Si Si1 0.974820 0.358099 0.845977
Si Si2 0.031088 0.833451 0.526206
Si Si3 0.746026 0.553755 0.408317
Si Si4 0.317749 0.181165 0.344753
Si Si5 0.462049 0.662134 0.022977
Si Si6 0.384734 0.088678 0.964237
Si Si7 0.872553 0.370005 0.106124
Si Si8 0.723095 0.218131 0.367795
O O1 0.838426 0.373930 0.849720
O O2 0.000000 0.277347 0.750000
O O3 0.045538 0.263112 0.933327
O O4 0.027483 0.523466 0.840113
O O5 0.141102 0.816076 0.610953
O O6 0.921825 0.773774 0.563304
O O7 0.000000 0.000000 0.500000
O O8 0.635384 0.661041 0.409951
O O9 0.803800 0.530453 0.519421
O O10 0.699986 0.394418 0.368204
O O11 0.419764 0.260242 0.418946
O O12 0.208948 0.295124 0.328908
O O13 0.340544 0.160152 0.237102
O O14 0.300409 0.014130 0.386108
O O15 0.573422 0.755739 0.078072
O O16 0.500000 0.500000 0.000000
O O17 0.324613 0.124564 0.052870
O O18 0.500000 0.000000 0.000000
#
# Coordination Sequence:
#
# PCOD8118295 Si02
#       8
#     4   4   4   4   4   4   4   4
#     4  11  21  39  65  96 138 167 219 276 331 396
#     4  11  23  40  62  92 134 180 211 268 332 395
#     4  10  19  37  66  99 123 172 213 274 326 387
#     4  10  24  39  68  98 126 180 222 260 343 413
#     4  10  20  40  70  92 128 168 220 283 328 383
#     4  10  23  43  65  87 133 172 215 282 330 381
#     4  10  19  39  63  95 136 166 219 264 328 393
#     4  12  21  41  69  91 130 173 225 267 333 407
#
# _framework density 21.587806
#
# number of rings (size 3 to 8) (size 9 to 14) (size 15 to 20)
#    0.000    1.500    3.750    2.250    0.000    3.000 
#    4.500    0.000   19.250    0.000    0.000    0.000 
#    0.000    0.000    0.000    0.000    0.000    0.000 
#
# Total GULP energy -396488.264664 kJ/mol
# GULP energy per Si atom -12390.258271 kJ/mol
# Density = 2.153867 g / cm^3
# Si number density = 21.587806 Si / 1000 Ang^3
#
#
#
# Elastic Constant Matrix: (Units=GPa)
#
#
# Indices 1 2 3 4 5 6 
#
# 1 74.4879 33.5599 35.7004 0.0000 -14.4269 0.0000
# 2 33.5599 129.9694 40.9342 0.0000 2.2442 0.0000
# 3 35.7004 40.9342 112.4973 0.0000 -8.0225 0.0000
# 4 0.0000 0.0000 0.0000 23.1799 0.0000 1.9558
# 5 -14.4269 2.2442 -8.0225 0.0000 24.5589 0.0000
# 6 0.0000 0.0000 0.0000 1.9558 0.0000 35.6141
#
#
#
# Elastic Compliance Matrix: (Units=1/GPa)
#
#
# Indices 1 2 3 4 5 6 
#
# 1 0.019018 -0.003860 -0.003900 0.000000 0.010251 0.000000
# 2 -0.003860 0.009558 -0.002536 0.000000 -0.003969 0.000000
# 3 -0.003900 -0.002536 0.011163 0.000000 0.001587 0.000000
# 4 0.000000 0.000000 0.000000 0.043342 0.000000 -0.002380
# 5 0.010251 -0.003969 0.001587 0.000000 0.047621 0.000000
# 6 0.000000 0.000000 0.000000 -0.002380 0.000000 0.028209
#
#
# Mechanical properties :
#
#
# Convention : Reuss Voigt Hill
#
# Bulk Modulus (GPa) = 52.22499 59.70483 55.96491
# Shear Modulus (GPa) = 26.89825 30.45458 28.67641
#
# Velocity S-wave (km/s) = 3.53369 3.76004 3.64862
# Velocity P-wave (km/s) = 6.39482 6.82403 6.61291
#
# Compressibility (1/GPa) = 0.01914792
#
# Stress axis : x y z
#
# Youngs Moduli (GPa) = 52.58043 104.62458 89.58364
#
# Poissons Ratio (x) = 0.40380 0.34938
# Poissons Ratio (y) = 0.20293 0.22719
# Poissons Ratio (z) = 0.20507 0.26534
#
# Static dielectric constant tensor:
#      x y z
#    x 4.211320 0.000000 -0.316260 
#    y 0.000000 4.309150 0.000000 
#    z -0.316260 0.000000 3.757750 
# 
# 
# High freq. dielectric constant tensor:
#      x y z
#    x 1.849780 0.000000 -0.013200 
#    y 0.000000 1.851060 0.000000 
#    z -0.013200 0.000000 1.824520 
# 
# From -- ./inp_files/50352.got.cif
#   From: 2010.06.25/outbox.cif.g09.slc.cpg/sg13_26_cif.got.tgz:50352.got - 2010.06.28 04:50:58.
