data_PCOD8118242
_publ_section_title
;
Structure prediction by ZEFSAII (Michael W. Deem and Ramdas Pophale) SiO2 
 PCOD8118242
Probable space group: P 2/C
;
_chemical_formula_sum "Si O2"
_cell_formula_units_Z 28
_cell_length_a 22.277423
_cell_length_b 11.022490
_cell_length_c 16.252526
_cell_angle_alpha 90.000000
_cell_angle_beta 20.581630
_cell_angle_gamma 90.000000
_cell_volume 1402.949868
_symmetry_space_group_name_H-M "P 2/C"
_symmetry_group_IT_number 13
_symmetry_cell_setting 'monoclinic'
loop_
_space_group_symop_operation_xyz
x,y,z
-x,y,1/2-z
-x,-y,-z
x,-y,1/2+z
loop_
_atom_site_type_symbol
_atom_site_label
_atom_site_fract_x
_atom_site_fract_y
_atom_site_fract_z
Si Si1 0.376827 0.474045 0.978633
Si Si2 0.488168 0.085466 0.862889
Si Si3 0.847021 0.972366 0.882987
Si Si4 0.166480 0.072722 0.764052
Si Si5 0.397594 0.321689 0.709490
Si Si6 0.803082 0.670905 0.191096
Si Si7 0.151287 0.297107 0.168757
O O1 0.500000 0.531358 0.750000
O O2 0.493813 0.440758 0.907090
O O3 0.235154 0.569497 0.190907
O O4 0.289298 0.351792 0.055150
O O5 0.500000 0.112455 0.750000
O O6 0.668176 0.025990 0.661531
O O7 0.478075 0.210185 0.926171
O O8 0.332976 0.997653 0.084704
O O9 0.866877 0.849123 0.802033
O O10 0.000000 0.989256 0.750000
O O11 0.836472 0.082747 0.831581
O O12 0.164515 0.205728 0.802656
O O13 0.000000 0.000000 0.000000
O O14 0.357107 0.318518 0.664898
O O15 0.217284 0.321843 0.991185
O O16 0.971034 0.639344 0.921673
#
# Coordination Sequence:
#
# PCOD8118242 Si02
#       7
#     4   4   4   4   4   4   4
#     4  10  22  39  59  81 117 155 194 240 297 359
#     4   9  19  36  59  82 113 153 195 243 297 342
#     4  10  19  38  63  85 110 152 202 247 291 345
#     4  11  23  36  54  86 126 153 190 242 296 356
#     4  10  20  37  62  87 111 146 202 253 287 344
#     4  12  23  36  58  88 121 154 190 240 303 357
#     4  10  19  37  61  86 111 146 197 253 292 339
#
# _framework density 19.957948999999999
#
# number of rings (size 3 to 8) (size 9 to 14) (size 15 to 20)
#    0.000    1.714    1.429    6.000    0.000    2.286 
#    0.000    0.000    0.000    4.286    0.000    0.000 
#    0.000    0.000    0.000    0.000    0.000    0.000 
#
# Total GULP energy -347014.349070 kJ/mol
# GULP energy per Si atom -12393.369610 kJ/mol
# Density = 1.991252 g / cm^3
# Si number density = 19.957949 Si / 1000 Ang^3
#
#
#
# Elastic Constant Matrix: (Units=GPa)
#
#
# Indices 1 2 3 4 5 6 
#
# 1 97.4833 41.9081 23.6096 0.0000 -15.0124 0.0000
# 2 41.9081 73.6886 32.7250 0.0000 0.6918 0.0000
# 3 23.6096 32.7250 105.8600 0.0000 -16.8234 0.0000
# 4 0.0000 0.0000 0.0000 23.1581 0.0000 -2.5330
# 5 -15.0124 0.6918 -16.8234 0.0000 26.7276 0.0000
# 6 0.0000 0.0000 0.0000 -2.5330 0.0000 17.9811
#
#
#
# Elastic Compliance Matrix: (Units=1/GPa)
#
#
# Indices 1 2 3 4 5 6 
#
# 1 0.015511 -0.009329 0.000942 0.000000 0.009546 0.000000
# 2 -0.009329 0.021707 -0.006169 0.000000 -0.009685 0.000000
# 3 0.000942 -0.006169 0.012504 0.000000 0.008559 0.000000
# 4 0.000000 0.000000 0.000000 0.043857 0.000000 0.006178
# 5 0.009546 -0.009685 0.008559 0.000000 0.048415 0.000000
# 6 0.000000 0.000000 0.000000 0.006178 0.000000 0.056484
#
#
# Mechanical properties :
#
#
# Convention : Reuss Voigt Hill
#
# Bulk Modulus (GPa) = 48.52292 52.61303 50.56797
# Shear Modulus (GPa) = 21.32568 25.49263 23.40916
#
# Velocity S-wave (km/s) = 3.27239 3.57783 3.42851
# Velocity P-wave (km/s) = 6.21638 6.59447 6.40821
#
# Compressibility (1/GPa) = 0.02060882
#
# Stress axis : x y z
#
# Youngs Moduli (GPa) = 64.47112 46.06862 79.97712
#
# Poissons Ratio (x) = 0.42978 -0.07532
# Poissons Ratio (y) = 0.60146 0.49336
# Poissons Ratio (z) = -0.06072 0.28419
#
# Static dielectric constant tensor:
#      x y z
#    x 3.560010 0.000000 -0.155220 
#    y 0.000000 3.532990 0.000000 
#    z -0.155220 0.000000 3.980020 
# 
# 
# High freq. dielectric constant tensor:
#      x y z
#    x 1.773490 0.000000 -0.014380 
#    y 0.000000 1.746270 0.000000 
#    z -0.014380 0.000000 1.788110 
# 
# From -- ./inp_files/71393.got.cif
#   From: 2010.06.25/outbox.cif.g09.slc.cpg/sg13_36_cif.got.tgz:71393.got - 2010.06.28 04:50:58.
