data_PCOD8118105
_publ_section_title
;
Structure prediction by ZEFSAII (Michael W. Deem and Ramdas Pophale) SiO2 
 PCOD8118105
Probable space group: P 2/C
;
_chemical_formula_sum "Si O2"
_cell_formula_units_Z 30
_cell_length_a 28.996430
_cell_length_b 8.846773
_cell_length_c 9.868210
_cell_angle_alpha 90.000000
_cell_angle_beta 140.644133
_cell_angle_gamma 90.000000
_cell_volume 1605.275585
_symmetry_space_group_name_H-M "P 2/C"
_symmetry_group_IT_number 13
_symmetry_cell_setting 'monoclinic'
loop_
_space_group_symop_operation_xyz
x,y,z
-x,y,1/2-z
-x,-y,-z
x,-y,1/2+z
loop_
_atom_site_type_symbol
_atom_site_label
_atom_site_fract_x
_atom_site_fract_y
_atom_site_fract_z
Si Si1 0.992563 0.639446 0.081588
Si Si2 0.597215 0.618674 0.303990
Si Si3 0.500000 0.837157 0.250000
Si Si4 0.360633 0.028808 0.863895
Si Si5 0.928632 0.074602 0.773572
Si Si6 0.419738 0.348316 0.036800
Si Si7 0.873548 0.882526 0.861733
Si Si8 0.709656 0.867350 0.559315
O O1 0.000000 0.575790 0.250000
O O2 0.061349 0.744749 0.197483
O O3 0.917605 0.736993 0.903242
O O4 0.000000 0.500000 0.000000
O O5 0.533257 0.730497 0.209219
O O6 0.606265 0.469502 0.413053
O O7 0.674075 0.702718 0.486082
O O8 0.580239 0.572495 0.110925
O O9 0.562557 0.940729 0.458696
O O10 0.329890 0.027051 0.641816
O O11 0.300212 0.952478 0.821007
O O12 0.368218 0.202916 0.926683
O O13 0.915229 0.039050 0.583919
O O14 0.864409 0.009769 0.722742
O O15 0.000000 0.000000 0.000000
O O16 0.500000 0.290556 0.250000
O O17 0.793640 0.833266 0.723382
#
# Coordination Sequence:
#
# PCOD8118105 Si02
#       8
#     4   4   2   4   4   4   4   4
#     4   9  19  34  53  83 111 138 179 219 256 307
#     4  10  23  35  54  76 108 136 185 220 286 321
#     4  10  20  36  56  80 100 140 174 248 276 316
#     4  10  22  35  57  78 108 134 192 224 281 321
#     4   9  18  33  57  84 106 138 179 225 257 310
#     4  11  21  35  54  78 101 136 176 238 275 322
#     4  10  19  36  57  78 115 143 179 218 273 318
#     4  10  22  38  53  80 109 148 174 224 271 344
#
# _framework density 18.688379000000001
#
# number of rings (size 3 to 8) (size 9 to 14) (size 15 to 20)
#    0.000    2.133    1.333    2.400    1.867    4.800 
#    0.000    6.667    0.000    0.000    0.000    0.000 
#    0.000    0.000    0.000    0.000    0.000    0.000 
#
# Total GULP energy -371854.519373 kJ/mol
# GULP energy per Si atom -12395.150646 kJ/mol
# Density = 1.864584 g / cm^3
# Si number density = 18.688379 Si / 1000 Ang^3
#
#
#
# Elastic Constant Matrix: (Units=GPa)
#
#
# Indices 1 2 3 4 5 6 
#
# 1 98.1703 39.8827 23.6555 0.0000 7.2842 0.0000
# 2 39.8827 80.4832 22.0641 0.0000 -12.1049 0.0000
# 3 23.6555 22.0641 61.9895 0.0000 -5.9910 0.0000
# 4 0.0000 0.0000 0.0000 21.6041 0.0000 -14.8146
# 5 7.2842 -12.1049 -5.9910 0.0000 37.0310 0.0000
# 6 0.0000 0.0000 0.0000 -14.8146 0.0000 25.0102
#
#
#
# Elastic Compliance Matrix: (Units=1/GPa)
#
#
# Indices 1 2 3 4 5 6 
#
# 1 0.014283 -0.006964 -0.003518 0.000000 -0.005655 0.000000
# 2 -0.006964 0.017701 -0.002998 0.000000 0.006671 0.000000
# 3 -0.003518 -0.002998 0.018808 0.000000 0.002755 0.000000
# 4 0.000000 0.000000 0.000000 0.077950 0.000000 0.046173
# 5 -0.005655 0.006671 0.002755 0.000000 0.030743 0.000000
# 6 0.000000 0.000000 0.000000 0.046173 0.000000 0.067334
#
#
# Mechanical properties :
#
#
# Convention : Reuss Voigt Hill
#
# Bulk Modulus (GPa) = 41.96210 45.76085 43.86148
# Shear Modulus (GPa) = 19.10415 27.06511 23.08463
#
# Velocity S-wave (km/s) = 3.20073 3.80969 3.51841
# Velocity P-wave (km/s) = 6.01347 6.62504 6.32665
#
# Compressibility (1/GPa) = 0.02383103
#
# Stress axis : x y z
#
# Youngs Moduli (GPa) = 70.01390 56.49371 53.16952
#
# Poissons Ratio (x) = 0.39341 0.18707
# Poissons Ratio (y) = 0.48756 0.15942
# Poissons Ratio (z) = 0.24633 0.16938
#
# Static dielectric constant tensor:
#      x y z
#    x 3.757410 0.000000 -0.213410 
#    y 0.000000 3.336110 0.000000 
#    z -0.213410 0.000000 3.462420 
# 
# 
# High freq. dielectric constant tensor:
#      x y z
#    x 1.727960 0.000000 -0.014940 
#    y 0.000000 1.715200 0.000000 
#    z -0.014940 0.000000 1.724060 
# 
# From -- ./inp_files/24448.got.cif
#   From: 2010.06.25/outbox.cif.g09.slc.cpg/sg13_13_cif.got.tgz:24448.got - 2010.06.28 04:50:58.
