data_PCOD8118005
_publ_section_title
;
Structure prediction by ZEFSAII (Michael W. Deem and Ramdas Pophale) SiO2 
 PCOD8118005
Probable space group: P 2/C
;
_chemical_formula_sum "Si O2"
_cell_formula_units_Z 20
_cell_length_a 9.931640
_cell_length_b 6.696948
_cell_length_c 16.387783
_cell_angle_alpha 90.000000
_cell_angle_beta 53.835844
_cell_angle_gamma 90.000000
_cell_volume 879.972286
_symmetry_space_group_name_H-M "P 2/C"
_symmetry_group_IT_number 13
_symmetry_cell_setting 'monoclinic'
loop_
_space_group_symop_operation_xyz
x,y,z
-x,y,1/2-z
-x,-y,-z
x,-y,1/2+z
loop_
_atom_site_type_symbol
_atom_site_label
_atom_site_fract_x
_atom_site_fract_y
_atom_site_fract_z
Si Si1 0.808733 0.145951 0.153796
Si Si2 0.350631 0.604396 0.652104
Si Si3 0.355461 0.872593 0.954536
Si Si4 0.599043 0.804757 0.292204
Si Si5 0.878942 0.128452 0.364438
O O1 0.760696 0.922883 0.201168
O O2 0.696408 0.302024 0.243682
O O3 0.006572 0.182087 0.098085
O O4 0.226382 0.819841 0.928656
O O5 0.346760 0.366949 0.664169
O O6 0.217877 0.672618 0.630767
O O7 0.537232 0.676800 0.559653
O O8 0.481591 0.044698 0.882849
O O9 0.251781 0.952162 0.069279
O O10 0.500000 0.713666 0.250000
O O11 0.000000 0.048315 0.250000
#
# Coordination Sequence:
#
# PCOD8118005 Si02
#       5
#     4   4   4   4   4
#     4   9  19  36  57  80 109 142 180 223 269 324
#     4  10  19  35  57  82 110 139 178 226 274 323
#     4  10  19  35  58  79 105 145 186 222 263 321
#     4   9  18  34  59  85 106 139 186 227 267 322
#     4  10  21  36  52  77 113 146 177 222 276 319
#
# _framework density 22.727988
#
# number of rings (size 3 to 8) (size 9 to 14) (size 15 to 20)
#    0.000    2.400    0.000    4.200    0.000    0.800 
#    0.000   19.000    0.000   14.400    0.000    0.000 
#    0.000    0.000    0.000    0.000    0.000    0.000 
#
# Total GULP energy -247992.926751 kJ/mol
# GULP energy per Si atom -12399.646338 kJ/mol
# Density = 2.267626 g / cm^3
# Si number density = 22.727988 Si / 1000 Ang^3
#
#
#
# Elastic Constant Matrix: (Units=GPa)
#
#
# Indices 1 2 3 4 5 6 
#
# 1 144.6733 41.0958 12.2890 0.0000 -19.4570 0.0000
# 2 41.0958 76.2439 -7.0214 0.0000 -10.5004 0.0000
# 3 12.2890 -7.0214 55.5581 0.0000 -10.8991 0.0000
# 4 0.0000 0.0000 0.0000 6.5058 0.0000 0.8106
# 5 -19.4570 -10.5004 -10.8991 0.0000 20.2841 0.0000
# 6 0.0000 0.0000 0.0000 0.8106 0.0000 29.2263
#
#
#
# Elastic Compliance Matrix: (Units=1/GPa)
#
#
# Indices 1 2 3 4 5 6 
#
# 1 0.008987 -0.004188 -0.001399 0.000000 0.005701 0.000000
# 2 -0.004188 0.016748 0.004422 0.000000 0.007029 0.000000
# 3 -0.001399 0.004422 0.021298 0.000000 0.012391 0.000000
# 4 0.000000 0.000000 0.000000 0.154242 0.000000 -0.004278
# 5 0.005701 0.007029 0.012391 0.000000 0.065065 0.000000
# 6 0.000000 0.000000 0.000000 -0.004278 0.000000 0.034334
#
#
# Mechanical properties :
#
#
# Convention : Reuss Voigt Hill
#
# Bulk Modulus (GPa) = 22.36909 41.02245 31.69577
# Shear Modulus (GPa) = 15.72788 26.54404 21.13596
#
# Velocity S-wave (km/s) = 2.63345 3.42116 3.05282
# Velocity P-wave (km/s) = 4.37152 5.80468 5.13831
#
# Compressibility (1/GPa) = 0.04470455
#
# Stress axis : x y z
#
# Youngs Moduli (GPa) = 111.26818 59.70755 46.95223
#
# Poissons Ratio (x) = 0.25004 0.06567
# Poissons Ratio (y) = 0.46597 -0.20762
# Poissons Ratio (z) = 0.15563 -0.26402
#
# Static dielectric constant tensor:
#      x y z
#    x 4.452080 0.000000 -0.142080 
#    y 0.000000 3.685820 0.000000 
#    z -0.142080 0.000000 4.002230 
# 
# 
# High freq. dielectric constant tensor:
#      x y z
#    x 1.913930 0.000000 -0.001780 
#    y 0.000000 1.863980 0.000000 
#    z -0.001780 0.000000 1.884440 
# 
# From -- ./inp_files/58151.got.cif
#   From: 2010.06.25/outbox.cif.g09.slc.cpg/sg13_30_cif.got.tgz:58151.got - 2010.06.28 04:50:58.
