data_PCOD8118202
_publ_section_title
;
Structure prediction by ZEFSAII (Michael W. Deem and Ramdas Pophale) SiO2 
 PCOD8118202
Probable space group: P 2/C
;
_chemical_formula_sum "Si O2"
_cell_formula_units_Z 16
_cell_length_a 7.685726
_cell_length_b 9.558427
_cell_length_c 10.562189
_cell_angle_alpha 90.000000
_cell_angle_beta 57.765741
_cell_angle_gamma 90.000000
_cell_volume 656.343421
_symmetry_space_group_name_H-M "P 2/C"
_symmetry_group_IT_number 13
_symmetry_cell_setting 'monoclinic'
loop_
_space_group_symop_operation_xyz
x,y,z
-x,y,1/2-z
-x,-y,-z
x,-y,1/2+z
loop_
_atom_site_type_symbol
_atom_site_label
_atom_site_fract_x
_atom_site_fract_y
_atom_site_fract_z
Si Si1 0.742423 0.611114 0.172844
Si Si2 0.772035 0.888614 0.303463
Si Si3 0.725214 0.565103 0.906939
Si Si4 0.450240 0.826149 0.633020
O O1 0.500000 0.586789 0.250000
O O2 0.782444 0.774565 0.186888
O O3 0.842053 0.520252 0.249731
O O4 0.839455 0.562356 0.999703
O O5 0.660284 0.826240 0.470572
O O6 0.000000 0.936937 0.250000
O O7 0.643789 0.021309 0.305713
O O8 0.714279 0.728280 0.873308
O O9 0.500000 0.500000 0.000000
O O10 0.500000 0.758860 0.750000
#
# Coordination Sequence:
#
# PCOD8118202 Si02
#       4
#     4   4   4   4
#     4  10  19  39  66  93 126 170 219 267 319 382
#     4  11  25  42  63  94 134 173 215 270 327 381
#     4  10  19  36  70  95 121 169 222 261 322 386
#     4  11  23  41  68  92 129 175 218 263 325 390
#
# _framework density 24.377483000000002
#
# number of rings (size 3 to 8) (size 9 to 14) (size 15 to 20)
#    0.000    1.500    5.000    3.000    3.500    1.000 
#    0.000    2.500    0.000    0.000    0.000    0.000 
#    0.000    0.000    0.000    0.000    0.000    0.000 
#
# Total GULP energy -198357.109148 kJ/mol
# GULP energy per Si atom -12397.319322 kJ/mol
# Density = 2.432200 g / cm^3
# Si number density = 24.377483 Si / 1000 Ang^3
#
#
#
# Elastic Constant Matrix: (Units=GPa)
#
#
# Indices 1 2 3 4 5 6 
#
# 1 81.3001 14.6331 60.9410 0.0000 30.8665 0.0000
# 2 14.6331 122.3570 52.1860 0.0000 26.1139 0.0000
# 3 60.9410 52.1860 129.3289 0.0000 45.1264 0.0000
# 4 0.0000 0.0000 0.0000 8.5908 0.0000 33.4325
# 5 30.8665 26.1139 45.1264 0.0000 51.7945 0.0000
# 6 0.0000 0.0000 0.0000 33.4325 0.0000 9.9984
#
#
#
# Elastic Compliance Matrix: (Units=1/GPa)
#
#
# Indices 1 2 3 4 5 6 
#
# 1 0.020591 0.002495 -0.008605 0.000000 -0.006032 0.000000
# 2 0.002495 0.010346 -0.004327 0.000000 -0.002933 0.000000
# 3 -0.008605 -0.004327 0.015779 0.000000 -0.006439 0.000000
# 4 0.000000 0.000000 0.000000 -0.009690 0.000000 0.032401
# 5 -0.006032 -0.002933 -0.006439 0.000000 0.029990 0.000000
# 6 0.000000 0.000000 0.000000 0.032401 0.000000 -0.008326
#
#
# Mechanical properties :
#
#
# Convention : Reuss Voigt Hill
#
# Bulk Modulus (GPa) = 38.69530 65.38956 52.04243
# Shear Modulus (GPa) = 56.70311 27.75846 42.23078
#
# Velocity S-wave (km/s) = 4.82814 3.37811 4.16669
# Velocity P-wave (km/s) = 6.85486 6.48826 6.67408
#
# Compressibility (1/GPa) = 0.02584293
#
# Stress axis : x y z
#
# Youngs Moduli (GPa) = 48.56468 96.65707 63.37416
#
# Poissons Ratio (x) = -0.24114 0.54531
# Poissons Ratio (y) = -0.12116 0.27421
# Poissons Ratio (z) = 0.41788 0.41821
#
# Static dielectric constant tensor:
#      x y z
#    x 4.135840 0.000000 0.574780 
#    y 0.000000 4.394280 0.000000 
#    z 0.574780 0.000000 5.251300 
# 
# 
# High freq. dielectric constant tensor:
#      x y z
#    x 1.955730 0.000000 0.020110 
#    y 0.000000 1.971940 0.000000 
#    z 0.020110 0.000000 1.976120 
# 
# From -- ./inp_files/28019.got.cif
#   From: 2010.06.25/outbox.cif.g09.slc.cpg/sg13_15_cif.got.tgz:28019.got - 2010.06.28 04:50:58.
