data_PCOD8118856
_publ_section_title
;
Structure prediction by ZEFSAII (Michael W. Deem and Ramdas Pophale) SiO2 
 PCOD8118856
Probable space group: P 2/C
;
_chemical_formula_sum "Si O2"
_cell_formula_units_Z 28
_cell_length_a 6.645332
_cell_length_b 7.529349
_cell_length_c 30.122800
_cell_angle_alpha 90.000000
_cell_angle_beta 119.435099
_cell_angle_gamma 90.000000
_cell_volume 1312.635618
_symmetry_space_group_name_H-M "P 2/C"
_symmetry_group_IT_number 13
_symmetry_cell_setting 'monoclinic'
loop_
_space_group_symop_operation_xyz
x,y,z
-x,y,1/2-z
-x,-y,-z
x,-y,1/2+z
loop_
_atom_site_type_symbol
_atom_site_label
_atom_site_fract_x
_atom_site_fract_y
_atom_site_fract_z
Si Si1 0.381835 0.721288 0.375872
Si Si2 0.875815 0.608124 0.690269
Si Si3 0.220474 0.179150 0.948100
Si Si4 0.611084 0.805795 0.549501
Si Si5 0.505221 0.103745 0.366405
Si Si6 0.145486 0.593002 0.054699
Si Si7 0.907314 0.325835 0.375352
O O1 0.274733 0.569507 0.333542
O O2 0.197818 0.776741 0.393492
O O3 0.595434 0.649036 0.429407
O O4 0.450840 0.893685 0.353534
O O5 0.708614 0.779499 0.675017
O O6 0.000000 0.583863 0.750000
O O7 0.081259 0.632253 0.675931
O O8 0.981786 0.226262 0.945641
O O9 0.266037 0.972520 0.960752
O O10 0.429666 0.283694 0.996048
O O11 0.468922 0.858551 0.578322
O O12 0.820940 0.675899 0.582560
O O13 0.745655 0.152773 0.366921
O O14 0.189900 0.478809 0.103965
O O15 0.000000 0.500000 0.000000
#
# Coordination Sequence:
#
# PCOD8118856 Si02
#       7
#     4   4   4   4   4   4   4
#     4  11  23  42  64  92 131 168 211 266 318 386
#     4  11  25  45  69  91 121 164 218 274 334 382
#     4  10  20  36  55  89 128 171 210 253 306 377
#     4   9  20  35  58  86 126 170 212 250 309 378
#     4  10  22  42  65  91 127 163 212 270 321 382
#     4  12  23  33  61  96 132 171 211 249 315 387
#     4  11  21  39  62  88 127 163 207 264 314 374
#
# _framework density 21.331130000000002
#
# number of rings (size 3 to 8) (size 9 to 14) (size 15 to 20)
#    0.000    1.429    2.857    2.571    2.000    2.286 
#    0.000    5.714    3.143    0.000    0.000    0.000 
#    0.000    0.000    0.000    0.000    0.000    0.000 
#
# Total GULP energy -347016.717424 kJ/mol
# GULP energy per Si atom -12393.454194 kJ/mol
# Density = 2.128258 g / cm^3
# Si number density = 21.331130 Si / 1000 Ang^3
#
#
#
# Elastic Constant Matrix: (Units=GPa)
#
#
# Indices 1 2 3 4 5 6 
#
# 1 95.6944 20.7128 26.0717 0.0000 -9.0451 0.0000
# 2 20.7128 86.0442 31.7920 0.0000 -0.3177 0.0000
# 3 26.0717 31.7920 114.5613 0.0000 -3.3949 0.0000
# 4 0.0000 0.0000 0.0000 19.9284 0.0000 3.9706
# 5 -9.0451 -0.3177 -3.3949 0.0000 24.2460 0.0000
# 6 0.0000 0.0000 0.0000 3.9706 0.0000 36.3604
#
#
#
# Elastic Compliance Matrix: (Units=1/GPa)
#
#
# Indices 1 2 3 4 5 6 
#
# 1 0.011834 -0.002099 -0.001989 0.000000 0.004109 0.000000
# 2 -0.002099 0.013325 -0.003252 0.000000 -0.001064 0.000000
# 3 -0.001989 -0.003252 0.010103 0.000000 0.000630 0.000000
# 4 0.000000 0.000000 0.000000 0.051296 0.000000 -0.005602
# 5 0.004109 -0.001064 0.000630 0.000000 0.042851 0.000000
# 6 0.000000 0.000000 0.000000 -0.005602 0.000000 0.028114
#
#
# Mechanical properties :
#
#
# Convention : Reuss Voigt Hill
#
# Bulk Modulus (GPa) = 48.58404 50.38368 49.48386
# Shear Modulus (GPa) = 27.92319 30.62184 29.27251
#
# Velocity S-wave (km/s) = 3.62198 3.79297 3.70846
# Velocity P-wave (km/s) = 6.34959 6.54624 6.44866
#
# Compressibility (1/GPa) = 0.02058289
#
# Stress axis : x y z
#
# Youngs Moduli (GPa) = 84.49876 75.04888 98.98386
#
# Poissons Ratio (x) = 0.15751 0.19689
# Poissons Ratio (y) = 0.17734 0.32186
# Poissons Ratio (z) = 0.16808 0.24403
#
# Static dielectric constant tensor:
#      x y z
#    x 4.080250 0.000000 -0.074510 
#    y 0.000000 3.905340 0.000000 
#    z -0.074510 0.000000 3.682670 
# 
# 
# High freq. dielectric constant tensor:
#      x y z
#    x 1.845200 0.000000 0.000940 
#    y 0.000000 1.838450 0.000000 
#    z 0.000940 0.000000 1.802400 
# 
# From -- ./inp_files/95115.got.cif
#   From: 2010.06.25/outbox.cif.g09.slc.cpg/sg13_48_cif.got.tgz:95115.got - 2010.06.28 04:50:58.
