data_PCOD8118023
_publ_section_title
;
Structure prediction by ZEFSAII (Michael W. Deem and Ramdas Pophale) SiO2 
 PCOD8118023
Probable space group: P 2/C
;
_chemical_formula_sum "Si O2"
_cell_formula_units_Z 22
_cell_length_a 5.236700
_cell_length_b 7.310961
_cell_length_c 24.461279
_cell_angle_alpha 90.000000
_cell_angle_beta 83.145673
_cell_angle_gamma 90.000000
_cell_volume 929.814222
_symmetry_space_group_name_H-M "P 2/C"
_symmetry_group_IT_number 13
_symmetry_cell_setting 'monoclinic'
loop_
_space_group_symop_operation_xyz
x,y,z
-x,y,1/2-z
-x,-y,-z
x,-y,1/2+z
loop_
_atom_site_type_symbol
_atom_site_label
_atom_site_fract_x
_atom_site_fract_y
_atom_site_fract_z
Si Si1 0.526789 0.833088 0.925403
Si Si2 0.000000 0.743755 0.750000
Si Si3 0.538757 0.259128 0.953828
Si Si4 0.767626 0.396966 0.726783
Si Si5 0.057539 0.118234 0.366100
Si Si6 0.075189 0.695024 0.394334
O O1 0.315634 0.788300 0.883886
O O2 0.812267 0.778812 0.898546
O O3 0.532375 0.046233 0.939605
O O4 0.457870 0.714301 0.980808
O O5 0.757256 0.601822 0.753945
O O6 0.977842 0.872055 0.698008
O O7 0.281646 0.350858 0.936171
O O8 0.789337 0.359212 0.921731
O O9 0.500000 0.298043 0.750000
O O10 0.830349 0.416668 0.661093
O O11 0.000000 0.283557 0.750000
O O12 0.072529 0.907377 0.380256
#
# Coordination Sequence:
#
# PCOD8118023 Si02
#       6
#     4   2   4   4   4   4
#     4   9  18  33  54  86 116 139 174 226 285 333
#     4  10  26  38  58  76 116 156 186 228 282 326
#     4   9  17  32  57  85 114 140 172 228 286 328
#     4  10  23  39  56  78 108 157 186 228 274 329
#     4  10  21  34  57  85 111 143 185 229 273 327
#     4  10  19  35  58  87 108 140 187 231 271 327
#
# _framework density 23.660641999999999
#
# number of rings (size 3 to 8) (size 9 to 14) (size 15 to 20)
#    0.545    1.818    0.000    2.182    3.818    4.364 
#    0.000    0.000    0.000    6.545    0.000    0.000 
#    0.000    0.000    0.000    0.000    0.000    0.000 
#
# Total GULP energy -272606.976609 kJ/mol
# GULP energy per Si atom -12391.226209 kJ/mol
# Density = 2.360679 g / cm^3
# Si number density = 23.660642 Si / 1000 Ang^3
#
#
#
# Elastic Constant Matrix: (Units=GPa)
#
#
# Indices 1 2 3 4 5 6 
#
# 1 215.0950 10.5399 79.8133 0.0000 0.8953 0.0000
# 2 10.5399 8.9331 4.8199 0.0000 7.0025 0.0000
# 3 79.8133 4.8199 169.8960 0.0000 15.6971 0.0000
# 4 0.0000 0.0000 0.0000 26.1906 0.0000 4.1151
# 5 0.8953 7.0025 15.6971 0.0000 44.1719 0.0000
# 6 0.0000 0.0000 0.0000 4.1151 0.0000 3.8415
#
#
#
# Elastic Compliance Matrix: (Units=1/GPa)
#
#
# Indices 1 2 3 4 5 6 
#
# 1 0.006039 -0.007187 -0.002820 0.000000 0.002019 0.000000
# 2 -0.007187 0.136923 0.001534 0.000000 -0.022106 0.000000
# 3 -0.002820 0.001534 0.007428 0.000000 -0.002826 0.000000
# 4 0.000000 0.000000 0.000000 0.045909 0.000000 -0.049179
# 5 0.002019 -0.022106 -0.002826 0.000000 0.027106 0.000000
# 6 0.000000 0.000000 0.000000 -0.049179 0.000000 0.313000
#
#
# Mechanical properties :
#
#
# Convention : Reuss Voigt Hill
#
# Bulk Modulus (GPa) = 7.49367 64.91891 36.20629
# Shear Modulus (GPa) = 8.36356 34.75754 21.56055
#
# Velocity S-wave (km/s) = 1.88215 3.83691 3.02195
# Velocity P-wave (km/s) = 2.81022 6.86486 5.24517
#
# Compressibility (1/GPa) = 0.13344599
#
# Stress axis : x y z
#
# Youngs Moduli (GPa) = 165.58665 7.30336 134.62329
#
# Poissons Ratio (x) = 0.05249 0.37960
# Poissons Ratio (y) = 1.19001 -0.20652
# Poissons Ratio (z) = 0.46690 -0.01120
#
# Static dielectric constant tensor:
#      x y z
#    x 4.575260 0.000000 0.163750 
#    y 0.000000 3.731110 0.000000 
#    z 0.163750 0.000000 4.219600 
# 
# 
# High freq. dielectric constant tensor:
#      x y z
#    x 1.948000 0.000000 0.013370 
#    y 0.000000 1.904610 0.000000 
#    z 0.013370 0.000000 1.937990 
# 
# From -- ./inp_files/73048.got.cif
#   From: 2010.06.25/outbox.cif.g09.slc.cpg/sg13_37_cif.got.tgz:73048.got - 2010.06.28 04:50:58.
