data_PCOD8118026
_publ_section_title
;
Structure prediction by ZEFSAII (Michael W. Deem and Ramdas Pophale) SiO2 
 PCOD8118026
Probable space group: P 2/C
;
_chemical_formula_sum "Si O2"
_cell_formula_units_Z 24
_cell_length_a 15.734617
_cell_length_b 8.909721
_cell_length_c 16.886212
_cell_angle_alpha 90.000000
_cell_angle_beta 31.507909
_cell_angle_gamma 90.000000
_cell_volume 1237.187242
_symmetry_space_group_name_H-M "P 2/C"
_symmetry_group_IT_number 13
_symmetry_cell_setting 'monoclinic'
loop_
_space_group_symop_operation_xyz
x,y,z
-x,y,1/2-z
-x,-y,-z
x,-y,1/2+z
loop_
_atom_site_type_symbol
_atom_site_label
_atom_site_fract_x
_atom_site_fract_y
_atom_site_fract_z
Si Si1 0.367255 0.584010 0.554007
Si Si2 0.373706 0.695128 0.956429
Si Si3 0.926596 0.354961 0.098315
Si Si4 0.143040 0.092275 0.925008
Si Si5 0.582700 0.844140 0.415403
Si Si6 0.273479 0.802292 0.878845
O O1 0.500000 0.500000 0.500000
O O2 0.354507 0.486316 0.483086
O O3 0.195313 0.597382 0.735194
O O4 0.441711 0.749142 0.482462
O O5 0.243950 0.742237 0.991804
O O6 0.548515 0.753093 0.789909
O O7 0.339780 0.771755 0.067405
O O8 0.845498 0.267924 0.090332
O O9 0.000000 0.500000 0.000000
O O10 0.065324 0.243853 0.025616
O O11 0.264535 0.144329 0.761382
O O12 0.243044 0.983303 0.905684
O O13 0.000000 0.000000 0.000000
O O14 0.500000 0.000000 0.500000
#
# Coordination Sequence:
#
# PCOD8118026 Si02
#       6
#     4   4   4   4   4   4
#     4  10  19  35  58  89 112 155 207 236 289 363
#     4  10  20  36  62  87 117 147 204 258 295 346
#     4  11  20  36  60  86 121 156 194 244 297 368
#     4  10  21  36  57  89 118 158 196 238 302 370
#     4  11  18  35  61  87 116 155 202 242 287 366
#     4  10  20  38  58  89 117 152 199 252 306 343
#
# _framework density 19.398842999999999
#
# number of rings (size 3 to 8) (size 9 to 14) (size 15 to 20)
#    0.000    1.667    5.000    3.000    0.000    0.000 
#    0.000    9.167    0.000    4.000    0.000    0.000 
#    0.000    0.000    0.000    0.000    0.000    0.000 
#
# Total GULP energy -297328.389555 kJ/mol
# GULP energy per Si atom -12388.682898 kJ/mol
# Density = 1.935469 g / cm^3
# Si number density = 19.398843 Si / 1000 Ang^3
#
#
#
# Elastic Constant Matrix: (Units=GPa)
#
#
# Indices 1 2 3 4 5 6 
#
# 1 77.8060 41.0490 25.0521 0.0000 18.5236 0.0000
# 2 41.0490 154.0359 58.9395 0.0000 -0.3395 0.0000
# 3 25.0521 58.9395 133.5818 0.0000 -8.3564 0.0000
# 4 0.0000 0.0000 0.0000 45.1239 0.0000 -2.2406
# 5 18.5236 -0.3395 -8.3564 0.0000 20.3659 0.0000
# 6 0.0000 0.0000 0.0000 -2.2406 0.0000 28.8845
#
#
#
# Elastic Compliance Matrix: (Units=1/GPa)
#
#
# Indices 1 2 3 4 5 6 
#
# 1 0.021181 -0.004421 -0.003316 0.000000 -0.020699 0.000000
# 2 -0.004421 0.008768 -0.002852 0.000000 0.002997 0.000000
# 3 -0.003316 -0.002852 0.009804 0.000000 0.006992 0.000000
# 4 0.000000 0.000000 0.000000 0.022247 0.000000 0.001726
# 5 -0.020699 0.002997 0.006992 0.000000 0.070847 0.000000
# 6 0.000000 0.000000 0.000000 0.001726 0.000000 0.034755
#
#
# Mechanical properties :
#
#
# Convention : Reuss Voigt Hill
#
# Bulk Modulus (GPa) = 53.84039 68.38942 61.11491
# Shear Modulus (GPa) = 25.64475 34.90038 30.27257
#
# Velocity S-wave (km/s) = 3.63984 4.24618 3.95465
# Velocity P-wave (km/s) = 6.74383 7.70525 7.24052
#
# Compressibility (1/GPa) = 0.01857342
#
# Stress axis : x y z
#
# Youngs Moduli (GPa) = 47.21264 114.05022 102.00138
#
# Poissons Ratio (x) = 0.50423 0.33828
# Poissons Ratio (y) = 0.20873 0.29091
# Poissons Ratio (z) = 0.15658 0.32528
#
# Static dielectric constant tensor:
#      x y z
#    x 4.206110 0.000000 0.009520 
#    y 0.000000 4.848050 0.000000 
#    z 0.009520 0.000000 3.655010 
# 
# 
# High freq. dielectric constant tensor:
#      x y z
#    x 1.719220 0.000000 -0.007750 
#    y 0.000000 1.777580 0.000000 
#    z -0.007750 0.000000 1.758240 
# 
# From -- ./inp_files/69404.got.cif
#   From: 2010.06.25/outbox.cif.g09.slc.cpg/sg13_35_cif.got.tgz:69404.got - 2010.06.28 04:50:58.
