data_PCOD8118166
_publ_section_title
;
Structure prediction by ZEFSAII (Michael W. Deem and Ramdas Pophale) SiO2 
 PCOD8118166
Probable space group: P 2/C
;
_chemical_formula_sum "Si O2"
_cell_formula_units_Z 20
_cell_length_a 15.960044
_cell_length_b 4.985266
_cell_length_c 25.784316
_cell_angle_alpha 90.000000
_cell_angle_beta 157.521248
_cell_angle_gamma 90.000000
_cell_volume 784.383891
_symmetry_space_group_name_H-M "P 2/C"
_symmetry_group_IT_number 13
_symmetry_cell_setting 'monoclinic'
loop_
_space_group_symop_operation_xyz
x,y,z
-x,y,1/2-z
-x,-y,-z
x,-y,1/2+z
loop_
_atom_site_type_symbol
_atom_site_label
_atom_site_fract_x
_atom_site_fract_y
_atom_site_fract_z
Si Si1 0.211201 0.506104 0.587094
Si Si2 0.647746 0.013097 0.777248
Si Si3 0.515650 0.477295 0.948004
Si Si4 0.927099 0.769917 0.347499
Si Si5 0.712223 0.000412 0.508478
O O1 0.368061 0.721816 0.705598
O O2 0.000000 0.500000 0.500000
O O3 0.131603 0.580355 0.483282
O O4 0.326213 0.218492 0.659374
O O5 0.418496 0.074240 0.618417
O O6 0.848108 0.039942 0.850011
O O7 0.276628 0.403891 0.788701
O O8 0.589456 0.756889 0.966500
O O9 0.698820 0.253933 0.039129
O O10 0.500000 0.500000 0.000000
O O11 0.033213 0.942015 0.360887
#
# Coordination Sequence:
#
# PCOD8118166 Si02
#       5
#     4   4   4   4   4
#     4  10  19  36  61  90 133 178 209 256 323 382
#     4  10  21  39  60  93 136 172 212 263 317 387
#     4  11  26  48  69  97 135 169 223 293 344 396
#     4  10  23  42  68  98 134 175 222 273 325 396
#     4  11  24  43  70 100 129 176 226 272 338 403
#
# _framework density 25.497720000000001
#
# number of rings (size 3 to 8) (size 9 to 14) (size 15 to 20)
#    0.000    1.600    0.000    6.600    0.000   11.200 
#    0.000   10.000    0.000    0.000    0.000    0.000 
#    0.000    0.000    0.000    0.000    0.000    0.000 
#
# Total GULP energy -247949.545607 kJ/mol
# GULP energy per Si atom -12397.477280 kJ/mol
# Density = 2.543969 g / cm^3
# Si number density = 25.497720 Si / 1000 Ang^3
#
#
#
# Elastic Constant Matrix: (Units=GPa)
#
#
# Indices 1 2 3 4 5 6 
#
# 1 138.5689 6.6461 26.6467 0.0000 -7.7768 0.0000
# 2 6.6461 95.7313 -10.3458 0.0000 -19.9083 0.0000
# 3 26.6467 -10.3458 52.4518 0.0000 -1.6100 0.0000
# 4 0.0000 0.0000 0.0000 65.7799 0.0000 82.2544
# 5 -7.7768 -19.9083 -1.6100 0.0000 40.2232 0.0000
# 6 0.0000 0.0000 0.0000 82.2544 0.0000 196.2952
#
#
#
# Elastic Compliance Matrix: (Units=1/GPa)
#
#
# Indices 1 2 3 4 5 6 
#
# 1 0.008131 -0.000818 -0.004262 0.000000 0.000997 0.000000
# 2 -0.000818 0.012057 0.002976 0.000000 0.005929 0.000000
# 3 -0.004262 0.002976 0.021864 0.000000 0.001524 0.000000
# 4 0.000000 0.000000 0.000000 0.031936 0.000000 -0.013382
# 5 0.000997 0.005929 0.001524 0.000000 0.028049 0.000000
# 6 0.000000 0.000000 0.000000 -0.013382 0.000000 0.010702
#
#
# Mechanical properties :
#
#
# Convention : Reuss Voigt Hill
#
# Bulk Modulus (GPa) = 26.42372 36.96067 31.69220
# Shear Modulus (GPa) = 38.59151 78.04665 58.31908
#
# Velocity S-wave (km/s) = 3.89463 5.53857 4.78768
# Velocity P-wave (km/s) = 5.53262 7.44501 6.55889
#
# Compressibility (1/GPa) = 0.03784479
#
# Stress axis : x y z
#
# Youngs Moduli (GPa) = 122.98162 82.93824 45.73765
#
# Poissons Ratio (x) = 0.06782 0.19492
# Poissons Ratio (y) = 0.10057 -0.13610
# Poissons Ratio (z) = 0.52410 -0.24679
#
# Static dielectric constant tensor:
#      x y z
#    x 5.001400 0.000000 -0.958690 
#    y 0.000000 7.162950 0.000000 
#    z -0.958690 0.000000 10.909690 
# 
# 
# High freq. dielectric constant tensor:
#      x y z
#    x 2.039390 0.000000 0.026180 
#    y 0.000000 2.019920 0.000000 
#    z 0.026180 0.000000 2.006490 
# 
# From -- ./inp_files/93198.got.cif
#   From: 2010.06.25/outbox.cif.g09.slc.cpg/sg13_47_cif.got.tgz:93198.got - 2010.06.28 04:50:58.
