data_PCOD8118668
_publ_section_title
;
Structure prediction by ZEFSAII (Michael W. Deem and Ramdas Pophale) SiO2 
 PCOD8118668
Probable space group: P 2/C
;
_chemical_formula_sum "Si O2"
_cell_formula_units_Z 30
_cell_length_a 15.302713
_cell_length_b 14.867909
_cell_length_c 16.474517
_cell_angle_alpha 90.000000
_cell_angle_beta 24.998935
_cell_angle_gamma 90.000000
_cell_volume 1584.024759
_symmetry_space_group_name_H-M "P 2/C"
_symmetry_group_IT_number 13
_symmetry_cell_setting 'monoclinic'
loop_
_space_group_symop_operation_xyz
x,y,z
-x,y,1/2-z
-x,-y,-z
x,-y,1/2+z
loop_
_atom_site_type_symbol
_atom_site_label
_atom_site_fract_x
_atom_site_fract_y
_atom_site_fract_z
Si Si1 0.371413 0.787503 0.438518
Si Si2 0.942649 0.460081 0.706210
Si Si3 0.612977 0.442710 0.230810
Si Si4 0.623081 0.398739 0.498779
Si Si5 0.595164 0.331021 0.966394
Si Si6 0.000000 0.920189 0.750000
Si Si7 0.851575 0.986450 0.703329
Si Si8 0.520407 0.140413 0.976429
O O1 0.500000 0.772614 0.250000
O O2 0.278646 0.689838 0.541855
O O3 0.518678 0.827989 0.384500
O O4 0.193398 0.857606 0.568822
O O5 0.797804 0.544483 0.802817
O O6 0.000000 0.477563 0.750000
O O7 0.143796 0.459311 0.481378
O O8 0.822779 0.364830 0.800653
O O9 0.500000 0.394365 0.250000
O O10 0.489190 0.536357 0.342960
O O11 0.585139 0.375490 0.328618
O O12 0.441429 0.365505 0.593357
O O13 0.571946 0.223744 0.992314
O O14 0.968464 0.977670 0.692716
O O15 0.704524 0.071732 0.835526
O O16 0.705660 0.899555 0.810137
O O17 0.000000 0.000000 0.500000
#
# Coordination Sequence:
#
# PCOD8118668 Si02
#       8
#     4   4   4   4   4   2   4   4
#     4  10  20  34  58  86 116 147 180 234 284 340
#     4  11  21  35  56  77 110 152 193 237 272 321
#     4  11  20  35  55  77 109 153 194 231 280 324
#     4  10  22  35  54  82 115 146 190 236 284 335
#     4  10  22  39  53  82 114 146 191 237 280 338
#     4  10  22  36  58  94 112 138 196 230 276 360
#     4  10  20  40  65  86 117 152 181 235 296 353
#     4   9  21  40  58  84 120 146 184 234 288 343
#
# _framework density 18.939098000000001
#
# number of rings (size 3 to 8) (size 9 to 14) (size 15 to 20)
#    0.000    1.867    2.667    2.800    0.933    3.200 
#    1.200    6.667    0.000    0.000    0.000    0.000 
#    0.000    0.000    0.000    0.000    0.000    0.000 
#
# Total GULP energy -371847.181469 kJ/mol
# GULP energy per Si atom -12394.906049 kJ/mol
# Density = 1.889599 g / cm^3
# Si number density = 18.939098 Si / 1000 Ang^3
#
#
#
# Elastic Constant Matrix: (Units=GPa)
#
#
# Indices 1 2 3 4 5 6 
#
# 1 70.5197 49.0239 31.2142 0.0000 1.0919 0.0000
# 2 49.0239 125.8244 40.2742 0.0000 -3.8160 0.0000
# 3 31.2142 40.2742 124.0999 0.0000 -3.0913 0.0000
# 4 0.0000 0.0000 0.0000 11.6289 0.0000 2.7770
# 5 1.0919 -3.8160 -3.0913 0.0000 30.0886 0.0000
# 6 0.0000 0.0000 0.0000 2.7770 0.0000 13.3743
#
#
#
# Elastic Compliance Matrix: (Units=1/GPa)
#
#
# Indices 1 2 3 4 5 6 
#
# 1 0.020415 -0.007090 -0.002882 0.000000 -0.001936 0.000000
# 2 -0.007090 0.011352 -0.001863 0.000000 0.001506 0.000000
# 3 -0.002882 -0.001863 0.009408 0.000000 0.000835 0.000000
# 4 0.000000 0.000000 0.000000 0.090479 0.000000 -0.018787
# 5 -0.001936 0.001506 0.000835 0.000000 0.033582 0.000000
# 6 0.000000 0.000000 0.000000 -0.018787 0.000000 0.078671
#
#
# Mechanical properties :
#
#
# Convention : Reuss Voigt Hill
#
# Bulk Modulus (GPa) = 57.12859 62.38540 59.75699
# Shear Modulus (GPa) = 18.28727 24.34713 21.31720
#
# Velocity S-wave (km/s) = 3.11075 3.58934 3.35858
# Velocity P-wave (km/s) = 6.56751 7.08445 6.83087
#
# Compressibility (1/GPa) = 0.01750437
#
# Stress axis : x y z
#
# Youngs Moduli (GPa) = 48.98291 88.08844 106.28782
#
# Poissons Ratio (x) = 0.62459 0.30633
# Poissons Ratio (y) = 0.34731 0.19804
# Poissons Ratio (z) = 0.14117 0.16413
#
# Static dielectric constant tensor:
#      x y z
#    x 3.697790 0.000000 -0.063080 
#    y 0.000000 3.584160 0.000000 
#    z -0.063080 0.000000 3.500350 
# 
# 
# High freq. dielectric constant tensor:
#      x y z
#    x 1.743170 0.000000 -0.000480 
#    y 0.000000 1.732880 0.000000 
#    z -0.000480 0.000000 1.730380 
# 
# From -- ./inp_files/53831.got.cif
#   From: 2010.06.25/outbox.cif.g09.slc.cpg/sg13_27_cif.got.tgz:53831.got - 2010.06.28 04:50:58.
