data_PCOD8118857
_publ_section_title
;
Structure prediction by ZEFSAII (Michael W. Deem and Ramdas Pophale) SiO2 
 PCOD8118857
Probable space group: P 2/C
;
_chemical_formula_sum "Si O2"
_cell_formula_units_Z 18
_cell_length_a 18.384897
_cell_length_b 9.902990
_cell_length_c 8.737702
_cell_angle_alpha 90.000000
_cell_angle_beta 148.735693
_cell_angle_gamma 90.000000
_cell_volume 825.621537
_symmetry_space_group_name_H-M "P 2/C"
_symmetry_group_IT_number 13
_symmetry_cell_setting 'monoclinic'
loop_
_space_group_symop_operation_xyz
x,y,z
-x,y,1/2-z
-x,-y,-z
x,-y,1/2+z
loop_
_atom_site_type_symbol
_atom_site_label
_atom_site_fract_x
_atom_site_fract_y
_atom_site_fract_z
Si Si1 0.000000 0.045166 0.250000
Si Si2 0.318935 0.383427 0.251110
Si Si3 0.648851 0.353080 0.844246
Si Si4 0.601105 0.930782 0.296254
Si Si5 0.170216 0.132323 0.828876
O O1 0.885439 0.945213 0.120719
O O2 0.056500 0.143594 0.487528
O O3 0.482956 0.364423 0.518110
O O4 0.288885 0.374533 0.375248
O O5 0.274455 0.535887 0.122182
O O6 0.229445 0.276633 0.990262
O O7 0.682971 0.196631 0.866375
O O8 0.500000 0.875165 0.250000
O O9 0.711446 0.043302 0.544234
O O10 0.500000 0.000000 0.000000
#
# Coordination Sequence:
#
# PCOD8118857 Si02
#       5
#     2   4   4   4   4
#     4  10  24  40  66  88 122 174 230 254 300 344
#     4  10  20  37  59  84 129 159 199 246 315 377
#     4  10  20  36  55  93 124 161 188 244 328 394
#     4  12  21  36  60  95 129 157 196 257 330 379
#     4  11  22  42  63  91 124 167 214 268 297 373
#
# _framework density 21.801756000000001
#
# number of rings (size 3 to 8) (size 9 to 14) (size 15 to 20)
#    0.000    1.333    4.444    2.667    0.000    3.556 
#    0.000    0.000    0.000   22.667    0.000    0.000 
#    0.000    0.000    0.000    0.000    0.000    0.000 
#
# Total GULP energy -222998.900443 kJ/mol
# GULP energy per Si atom -12388.827802 kJ/mol
# Density = 2.175213 g / cm^3
# Si number density = 21.801756 Si / 1000 Ang^3
#
#
#
# Elastic Constant Matrix: (Units=GPa)
#
#
# Indices 1 2 3 4 5 6 
#
# 1 49.1862 33.4736 25.9727 0.0000 -10.5652 0.0000
# 2 33.4736 182.2179 65.7437 0.0000 -22.1783 0.0000
# 3 25.9727 65.7437 110.1570 0.0000 -29.9979 0.0000
# 4 0.0000 0.0000 0.0000 35.6651 0.0000 -5.6339
# 5 -10.5652 -22.1783 -29.9979 0.0000 30.6532 0.0000
# 6 0.0000 0.0000 0.0000 -5.6339 0.0000 26.4886
#
#
#
# Elastic Compliance Matrix: (Units=1/GPa)
#
#
# Indices 1 2 3 4 5 6 
#
# 1 0.024745 -0.003013 -0.003146 0.000000 0.003271 0.000000
# 2 -0.003013 0.007401 -0.003451 0.000000 0.000939 0.000000
# 3 -0.003146 -0.003451 0.014866 0.000000 0.010967 0.000000
# 4 0.000000 0.000000 0.000000 0.029013 0.000000 0.006171
# 5 0.003271 0.000939 0.010967 0.000000 0.045162 0.000000
# 6 0.000000 0.000000 0.000000 0.006171 0.000000 0.039065
#
#
# Mechanical properties :
#
#
# Convention : Reuss Voigt Hill
#
# Bulk Modulus (GPa) = 35.98031 65.77122 50.87576
# Shear Modulus (GPa) = 26.49232 32.98611 29.73922
#
# Velocity S-wave (km/s) = 3.48968 3.89395 3.69734
# Velocity P-wave (km/s) = 5.72506 7.10285 6.45085
#
# Compressibility (1/GPa) = 0.02779298
#
# Stress axis : x y z
#
# Youngs Moduli (GPa) = 40.41267 135.12220 67.26918
#
# Poissons Ratio (x) = 0.40707 0.21160
# Poissons Ratio (y) = 0.12175 0.23213
# Poissons Ratio (z) = 0.12712 0.46628
#
# Static dielectric constant tensor:
#      x y z
#    x 3.556340 0.000000 -0.071100 
#    y 0.000000 4.265850 0.000000 
#    z -0.071100 0.000000 3.812380 
# 
# 
# High freq. dielectric constant tensor:
#      x y z
#    x 1.825130 0.000000 -0.023330 
#    y 0.000000 1.864140 0.000000 
#    z -0.023330 0.000000 1.859120 
# 
# From -- ./inp_files/14558.got.cif
#   From: 2010.06.25/outbox.cif.g09.slc.cpg/sg13_8_cif.got.tgz:14558.got - 2010.06.28 04:50:58.
