data_PCOD8118351
_publ_section_title
;
Structure prediction by ZEFSAII (Michael W. Deem and Ramdas Pophale) SiO2 
 PCOD8118351
Probable space group: P 2/C
;
_chemical_formula_sum "Si O2"
_cell_formula_units_Z 16
_cell_length_a 16.333870
_cell_length_b 9.552905
_cell_length_c 8.723519
_cell_angle_alpha 90.000000
_cell_angle_beta 32.149042
_cell_angle_gamma 90.000000
_cell_volume 724.317007
_symmetry_space_group_name_H-M "P 2/C"
_symmetry_group_IT_number 13
_symmetry_cell_setting 'monoclinic'
loop_
_space_group_symop_operation_xyz
x,y,z
-x,y,1/2-z
-x,-y,-z
x,-y,1/2+z
loop_
_atom_site_type_symbol
_atom_site_label
_atom_site_fract_x
_atom_site_fract_y
_atom_site_fract_z
Si Si1 0.685136 0.681605 0.949269
Si Si2 0.657962 0.570068 0.304261
Si Si3 0.818433 0.919187 0.542107
Si Si4 0.332700 0.850577 0.038213
O O1 0.747916 0.559585 0.737210
O O2 0.761990 0.824869 0.773853
O O3 0.500000 0.697380 0.250000
O O4 0.746318 0.639682 0.020984
O O5 0.500000 0.500000 0.500000
O O6 0.639248 0.688672 0.463464
O O7 0.759449 0.860803 0.474400
O O8 0.000000 0.924985 0.250000
O O9 0.753915 0.073116 0.683897
O O10 0.500000 0.921161 0.750000
#
# Coordination Sequence:
#
# PCOD8118351 Si02
#       4
#     4   4   4   4
#     4  10  19  38  63  92 125 167 214 265 317 382
#     4  10  20  37  66  99 125 159 217 278 321 372
#     4  12  26  43  63  98 139 175 215 267 325 388
#     4  12  23  42  68  95 127 175 223 270 320 384
#
# _framework density 22.089777000000002
#
# number of rings (size 3 to 8) (size 9 to 14) (size 15 to 20)
#    0.000    1.000    0.000   10.500    0.000    0.000 
#    0.000    6.250    0.000    0.000    0.000    0.000 
#    0.000    0.000    0.000    0.000    0.000    0.000 
#
# Total GULP energy -198351.200677 kJ/mol
# GULP energy per Si atom -12396.950042 kJ/mol
# Density = 2.203950 g / cm^3
# Si number density = 22.089777 Si / 1000 Ang^3
#
#
#
# Elastic Constant Matrix: (Units=GPa)
#
#
# Indices 1 2 3 4 5 6 
#
# 1 100.9964 15.6579 34.0078 0.0000 -3.6569 0.0000
# 2 15.6579 104.5458 33.9329 0.0000 -8.4986 0.0000
# 3 34.0078 33.9329 93.1215 0.0000 -15.6285 0.0000
# 4 0.0000 0.0000 0.0000 11.9997 0.0000 3.3664
# 5 -3.6569 -8.4986 -15.6285 0.0000 33.7685 0.0000
# 6 0.0000 0.0000 0.0000 3.3664 0.0000 -1.4986
#
#
#
# Elastic Compliance Matrix: (Units=1/GPa)
#
#
# Indices 1 2 3 4 5 6 
#
# 1 0.011323 -0.000425 -0.004112 0.000000 -0.000784 0.000000
# 2 -0.000425 0.010894 -0.003645 0.000000 0.001009 0.000000
# 3 -0.004112 -0.003645 0.014463 0.000000 0.005331 0.000000
# 4 0.000000 0.000000 0.000000 0.051121 0.000000 0.114833
# 5 -0.000784 0.001009 0.005331 0.000000 0.032250 0.000000
# 6 0.000000 0.000000 0.000000 0.114833 0.000000 -0.409332
#
#
# Mechanical properties :
#
#
# Convention : Reuss Voigt Hill
#
# Bulk Modulus (GPa) = 49.22130 51.76233 50.49182
# Shear Modulus (GPa) = -18.78679 23.19158 2.20240
#
# Velocity S-wave (km/s) = -2.91945 3.24370 0.99959
# Velocity P-wave (km/s) = 3.31157 6.12473 4.92335
#
# Compressibility (1/GPa) = 0.02031641
#
# Stress axis : x y z
#
# Youngs Moduli (GPa) = 88.31228 91.79385 69.14019
#
# Poissons Ratio (x) = 0.03901 0.28430
# Poissons Ratio (y) = 0.03753 0.25203
# Poissons Ratio (z) = 0.36314 0.33461
#
# Static dielectric constant tensor:
#      x y z
#    x 4.643160 0.000000 0.523850 
#    y 0.000000 4.197300 0.000000 
#    z 0.523850 0.000000 3.865290 
# 
# 
# High freq. dielectric constant tensor:
#      x y z
#    x 1.866380 0.000000 0.037210 
#    y 0.000000 1.887410 0.000000 
#    z 0.037210 0.000000 1.845910 
# 
# From -- ./inp_files/14625.got.cif
#   From: 2010.06.25/outbox.cif.g09.slc.cpg/sg13_8_cif.got.tgz:14625.got - 2010.06.28 04:50:58.
