data_PCOD8118317
_publ_section_title
;
Structure prediction by ZEFSAII (Michael W. Deem and Ramdas Pophale) SiO2 
 PCOD8118317
Probable space group: P 2/C
;
_chemical_formula_sum "Si O2"
_cell_formula_units_Z 30
_cell_length_a 7.989548
_cell_length_b 9.441454
_cell_length_c 23.408591
_cell_angle_alpha 90.000000
_cell_angle_beta 52.019631
_cell_angle_gamma 90.000000
_cell_volume 1391.825292
_symmetry_space_group_name_H-M "P 2/C"
_symmetry_group_IT_number 13
_symmetry_cell_setting 'monoclinic'
loop_
_space_group_symop_operation_xyz
x,y,z
-x,y,1/2-z
-x,-y,-z
x,-y,1/2+z
loop_
_atom_site_type_symbol
_atom_site_label
_atom_site_fract_x
_atom_site_fract_y
_atom_site_fract_z
Si Si1 0.126074 0.391484 0.548312
Si Si2 0.668973 0.485846 0.785506
Si Si3 0.089414 0.425300 0.153876
Si Si4 0.768070 0.404245 0.096491
Si Si5 0.064820 0.164815 0.361686
Si Si6 0.500000 0.031525 0.250000
Si Si7 0.676532 0.835608 0.299073
Si Si8 0.093249 0.875543 0.135697
O O1 0.278757 0.377030 0.461116
O O2 0.115552 0.242765 0.583082
O O3 0.217850 0.508440 0.573488
O O4 0.897043 0.448332 0.574684
O O5 0.843399 0.512103 0.698810
O O6 0.457513 0.580161 0.823154
O O7 0.597007 0.324400 0.807746
O O8 0.798955 0.530825 0.813034
O O9 0.069053 0.255804 0.156352
O O10 0.902810 0.266826 0.089944
O O11 0.295901 0.130006 0.289254
O O12 0.925371 0.021689 0.397077
O O13 0.495653 0.935863 0.308981
O O14 0.713075 0.873113 0.358633
O O15 0.886495 0.853412 0.217280
#
# Coordination Sequence:
#
# PCOD8118317 Si02
#       8
#     4   4   4   4   4   2   4   4
#     4  10  20  41  58  84 118 165 194 249 283 367
#     4  11  20  35  63  91 113 153 196 260 286 360
#     4  10  20  37  61  86 120 149 205 236 313 337
#     4  10  24  36  59  89 122 152 205 240 307 334
#     4  10  22  36  54  87 118 162 183 250 290 362
#     4  10  22  34  58  90 130 140 200 244 304 342
#     4  10  20  34  59  94 109 154 193 251 291 346
#     4  10  19  38  60  78 121 154 201 228 301 353
#
# _framework density 21.554427
#
# number of rings (size 3 to 8) (size 9 to 14) (size 15 to 20)
#    0.000    1.867    2.667    1.600    3.733    8.000 
#    0.000    0.000    0.000    1.600    0.000    0.000 
#    0.000    0.000    0.000    0.000    0.000    0.000 
#
# Total GULP energy -371671.429930 kJ/mol
# GULP energy per Si atom -12389.047664 kJ/mol
# Density = 2.150537 g / cm^3
# Si number density = 21.554427 Si / 1000 Ang^3
#
#
#
# Elastic Constant Matrix: (Units=GPa)
#
#
# Indices 1 2 3 4 5 6 
#
# 1 39.9732 23.1632 13.0829 0.0000 17.3035 0.0000
# 2 23.1632 152.0592 23.2744 0.0000 15.7061 0.0000
# 3 13.0829 23.2744 36.9453 0.0000 15.3920 0.0000
# 4 0.0000 0.0000 0.0000 21.3124 0.0000 7.6865
# 5 17.3035 15.7061 15.3920 0.0000 25.3696 0.0000
# 6 0.0000 0.0000 0.0000 7.6865 0.0000 26.1437
#
#
#
# Elastic Compliance Matrix: (Units=1/GPa)
#
#
# Indices 1 2 3 4 5 6 
#
# 1 0.037024 -0.003051 -0.001948 0.000000 -0.022182 0.000000
# 2 -0.003051 0.007632 -0.003514 0.000000 -0.000512 0.000000
# 3 -0.001948 -0.003514 0.038155 0.000000 -0.019645 0.000000
# 4 0.000000 0.000000 0.000000 0.052487 0.000000 -0.015432
# 5 -0.022182 -0.000512 -0.019645 0.000000 0.066783 0.000000
# 6 0.000000 0.000000 0.000000 -0.015432 0.000000 0.042787
#
#
# Mechanical properties :
#
#
# Convention : Reuss Voigt Hill
#
# Bulk Modulus (GPa) = 15.20075 38.66874 26.93474
# Shear Modulus (GPa) = 17.61675 25.86230 21.73952
#
# Velocity S-wave (km/s) = 2.86197 3.46766 3.17927
# Velocity P-wave (km/s) = 4.24132 5.83197 5.09905
#
# Compressibility (1/GPa) = 0.06578624
#
# Stress axis : x y z
#
# Youngs Moduli (GPa) = 27.00944 131.02954 26.20889
#
# Poissons Ratio (x) = 0.39972 0.05104
# Poissons Ratio (y) = 0.08240 0.09210
# Poissons Ratio (z) = 0.05260 0.46047
#
# Static dielectric constant tensor:
#      x y z
#    x 4.091090 0.000000 0.232470 
#    y 0.000000 4.185070 0.000000 
#    z 0.232470 0.000000 3.897120 
# 
# 
# High freq. dielectric constant tensor:
#      x y z
#    x 1.846020 0.000000 0.029580 
#    y 0.000000 1.852940 0.000000 
#    z 0.029580 0.000000 1.812690 
# 
# From -- ./inp_files/84955.got.cif
#   From: 2010.06.25/outbox.cif.g09.slc.cpg/sg13_43_cif.got.tgz:84955.got - 2010.06.28 04:50:58.
