data_PCOD8118560
_publ_section_title
;
Structure prediction by ZEFSAII (Michael W. Deem and Ramdas Pophale) SiO2 
 PCOD8118560
Probable space group: P 2/C
;
_chemical_formula_sum "Si O2"
_cell_formula_units_Z 22
_cell_length_a 11.704202
_cell_length_b 11.799488
_cell_length_c 9.304383
_cell_angle_alpha 90.000000
_cell_angle_beta 60.494330
_cell_angle_gamma 90.000000
_cell_volume 1118.317209
_symmetry_space_group_name_H-M "P 2/C"
_symmetry_group_IT_number 13
_symmetry_cell_setting 'monoclinic'
loop_
_space_group_symop_operation_xyz
x,y,z
-x,y,1/2-z
-x,-y,-z
x,-y,1/2+z
loop_
_atom_site_type_symbol
_atom_site_label
_atom_site_fract_x
_atom_site_fract_y
_atom_site_fract_z
Si Si1 0.000000 0.005460 0.250000
Si Si2 0.570046 0.406682 0.054769
Si Si3 0.883050 0.142780 0.579765
Si Si4 0.023481 0.346968 0.389807
Si Si5 0.372986 0.718916 0.232171
Si Si6 0.211687 0.500862 0.912359
O O1 0.907753 0.076541 0.415247
O O2 0.903934 0.931454 0.209128
O O3 0.500000 0.386677 0.250000
O O4 0.719048 0.444333 0.992770
O O5 0.500000 0.500000 0.000000
O O6 0.576418 0.286827 0.964517
O O7 0.982288 0.250421 0.530144
O O8 0.731610 0.183004 0.672193
O O9 0.924155 0.451974 0.447783
O O10 0.000000 0.287559 0.250000
O O11 0.170257 0.396438 0.327441
O O12 0.500000 0.739049 0.250000
O O13 0.309593 0.593565 0.289375
#
# Coordination Sequence:
#
# PCOD8118560 Si02
#       6
#     2   4   4   4   4   4
#     4  10  22  48  64  90 110 150 196 282 324 350
#     4  12  21  35  54  83 126 177 198 229 271 349
#     4  10  23  41  68  88 118 150 206 256 321 362
#     4  10  20  33  55  91 119 165 196 244 290 355
#     4  11  22  40  59  92 127 169 201 236 292 368
#     4  10  20  33  54  83 134 164 201 226 277 352
#
# _framework density 19.672415000000001
#
# number of rings (size 3 to 8) (size 9 to 14) (size 15 to 20)
#    0.000    1.455    4.545    1.091    2.545    0.000 
#    3.273    0.909    0.000    0.000    0.000    0.000 
#    0.000    0.000    0.000    0.000    0.000    0.000 
#
# Total GULP energy -272581.239409 kJ/mol
# GULP energy per Si atom -12390.056337 kJ/mol
# Density = 1.962764 g / cm^3
# Si number density = 19.672415 Si / 1000 Ang^3
#
#
#
# Elastic Constant Matrix: (Units=GPa)
#
#
# Indices 1 2 3 4 5 6 
#
# 1 160.1569 69.4146 61.7415 0.0000 9.3462 0.0000
# 2 69.4146 88.8465 50.8352 0.0000 3.1865 0.0000
# 3 61.7415 50.8352 129.4168 0.0000 12.3492 0.0000
# 4 0.0000 0.0000 0.0000 27.6544 0.0000 -2.7080
# 5 9.3462 3.1865 12.3492 0.0000 31.2142 0.0000
# 6 0.0000 0.0000 0.0000 -2.7080 0.0000 25.3293
#
#
#
# Elastic Compliance Matrix: (Units=1/GPa)
#
#
# Indices 1 2 3 4 5 6 
#
# 1 0.009960 -0.006567 -0.002028 0.000000 -0.001509 0.000000
# 2 -0.006567 0.018868 -0.004450 0.000000 0.001801 0.000000
# 3 -0.002028 -0.004450 0.010747 0.000000 -0.003190 0.000000
# 4 0.000000 0.000000 0.000000 0.036543 0.000000 0.003907
# 5 -0.001509 0.001801 -0.003190 0.000000 0.033567 0.000000
# 6 0.000000 0.000000 0.000000 0.003907 0.000000 0.039898
#
#
# Mechanical properties :
#
#
# Convention : Reuss Voigt Hill
#
# Bulk Modulus (GPa) = 74.16113 82.48921 78.32517
# Shear Modulus (GPa) = 27.75182 29.93483 28.84332
#
# Velocity S-wave (km/s) = 3.76000 3.90508 3.83323
# Velocity P-wave (km/s) = 7.52529 7.89654 7.71315
#
# Compressibility (1/GPa) = 0.01348415
#
# Stress axis : x y z
#
# Youngs Moduli (GPa) = 100.40038 53.00023 93.04951
#
# Poissons Ratio (x) = 0.34806 0.18871
# Poissons Ratio (y) = 0.65935 0.41408
# Poissons Ratio (z) = 0.20362 0.23586
#
# Static dielectric constant tensor:
#      x y z
#    x 3.799680 0.000000 0.168500 
#    y 0.000000 3.498920 0.000000 
#    z 0.168500 0.000000 3.873400 
# 
# 
# High freq. dielectric constant tensor:
#      x y z
#    x 1.772530 0.000000 0.008000 
#    y 0.000000 1.734100 0.000000 
#    z 0.008000 0.000000 1.776090 
# 
# From -- ./inp_files/15578.got.cif
#   From: 2010.06.25/outbox.cif.g09.slc.cpg/sg13_8_cif.got.tgz:15578.got - 2010.06.28 04:50:58.
