data_PCOD8118100
_publ_section_title
;
Structure prediction by ZEFSAII (Michael W. Deem and Ramdas Pophale) SiO2 
 PCOD8118100
Probable space group: P 2/C
;
_chemical_formula_sum "Si O2"
_cell_formula_units_Z 26
_cell_length_a 14.331319
_cell_length_b 9.824399
_cell_length_c 15.333391
_cell_angle_alpha 90.000000
_cell_angle_beta 139.513523
_cell_angle_gamma 90.000000
_cell_volume 1401.698917
_symmetry_space_group_name_H-M "P 2/C"
_symmetry_group_IT_number 13
_symmetry_cell_setting 'monoclinic'
loop_
_space_group_symop_operation_xyz
x,y,z
-x,y,1/2-z
-x,-y,-z
x,-y,1/2+z
loop_
_atom_site_type_symbol
_atom_site_label
_atom_site_fract_x
_atom_site_fract_y
_atom_site_fract_z
Si Si1 0.836658 0.113921 0.401721
Si Si2 0.276090 0.011322 0.358998
Si Si3 0.000000 0.892024 0.750000
Si Si4 0.383250 0.647655 0.239846
Si Si5 0.486771 0.223849 0.986436
Si Si6 0.116032 0.834675 0.005498
Si Si7 0.391566 0.335040 0.249207
O O1 0.766058 0.037372 0.270116
O O2 0.745583 0.241932 0.367614
O O3 0.996218 0.170445 0.496228
O O4 0.837484 0.993857 0.474574
O O5 0.135187 0.014186 0.319127
O O6 0.389882 0.127800 0.467137
O O7 0.349679 0.864141 0.419849
O O8 0.953691 0.792847 0.637187
O O9 0.500000 0.686187 0.250000
O O10 0.443451 0.673704 0.379069
O O11 0.242867 0.735664 0.121572
O O12 0.340388 0.490065 0.204409
O O13 0.541502 0.309536 0.107973
O O14 0.500000 0.296384 0.250000
#
# Coordination Sequence:
#
# PCOD8118100 Si02
#       7
#     4   4   2   4   4   4   4
#     4   9  19  37  54  79 110 141 181 233 277 329
#     4   9  18  33  54  84 110 138 186 227 279 329
#     4  10  20  32  54  86 110 142 178 248 272 328
#     4  11  22  37  57  83 112 150 191 229 273 336
#     4  10  19  36  56  80 113 149 181 228 280 331
#     4  10  20  35  58  80 109 141 189 230 282 327
#     4  10  23  37  55  82 117 148 186 227 276 334
#
# _framework density 18.548918
#
# number of rings (size 3 to 8) (size 9 to 14) (size 15 to 20)
#    0.000    2.154    1.538    1.385    2.154    1.231 
#    0.000    0.000    0.000    0.923    0.000    0.000 
#    0.000    0.000    0.000    0.000    0.000    0.000 
#
# Total GULP energy -322361.642141 kJ/mol
# GULP energy per Si atom -12398.524698 kJ/mol
# Density = 1.850670 g / cm^3
# Si number density = 18.548918 Si / 1000 Ang^3
#
#
#
# Elastic Constant Matrix: (Units=GPa)
#
#
# Indices 1 2 3 4 5 6 
#
# 1 103.8502 62.6238 44.4199 0.0000 15.7477 0.0000
# 2 62.6238 102.6027 43.8942 0.0000 17.3937 0.0000
# 3 44.4199 43.8942 86.3170 0.0000 8.2093 0.0000
# 4 0.0000 0.0000 0.0000 6.8816 0.0000 8.2638
# 5 15.7477 17.3937 8.2093 0.0000 37.2629 0.0000
# 6 0.0000 0.0000 0.0000 8.2638 0.0000 23.5563
#
#
#
# Elastic Compliance Matrix: (Units=1/GPa)
#
#
# Indices 1 2 3 4 5 6 
#
# 1 0.016579 -0.007875 -0.004300 0.000000 -0.002383 0.000000
# 2 -0.007875 0.016987 -0.004237 0.000000 -0.003668 0.000000
# 3 -0.004300 -0.004237 0.015926 0.000000 0.000287 0.000000
# 4 0.000000 0.000000 0.000000 0.251095 0.000000 -0.088086
# 5 -0.002383 -0.003668 0.000287 0.000000 0.029492 0.000000
# 6 0.000000 0.000000 0.000000 -0.088086 0.000000 0.073353
#
#
# Mechanical properties :
#
#
# Convention : Reuss Voigt Hill
#
# Bulk Modulus (GPa) = 59.99965 66.07174 63.03569
# Shear Modulus (GPa) = 11.31700 22.99561 17.15630
#
# Velocity S-wave (km/s) = 2.47273 3.52480 3.04455
# Velocity P-wave (km/s) = 6.36942 7.22933 6.81295
#
# Compressibility (1/GPa) = 0.01666676
#
# Stress axis : x y z
#
# Youngs Moduli (GPa) = 60.31730 58.86703 62.79226
#
# Poissons Ratio (x) = 0.46360 0.27003
# Poissons Ratio (y) = 0.47502 0.26605
# Poissons Ratio (z) = 0.25939 0.24941
#
# Static dielectric constant tensor:
#      x y z
#    x 3.450190 0.000000 0.073560 
#    y 0.000000 3.223480 0.000000 
#    z 0.073560 0.000000 3.600190 
# 
# 
# High freq. dielectric constant tensor:
#      x y z
#    x 1.721830 0.000000 0.002870 
#    y 0.000000 1.699510 0.000000 
#    z 0.002870 0.000000 1.732490 
# 
# From -- ./inp_files/53388.got.cif
#   From: 2010.06.25/outbox.cif.g09.slc.cpg/sg13_27_cif.got.tgz:53388.got - 2010.06.28 04:50:58.
