data_PCOD8118792
_publ_section_title
;
Structure prediction by ZEFSAII (Michael W. Deem and Ramdas Pophale) SiO2 
 PCOD8118792
Probable space group: P 2/C
;
_chemical_formula_sum "Si O2"
_cell_formula_units_Z 30
_cell_length_a 5.186996
_cell_length_b 13.526805
_cell_length_c 23.216838
_cell_angle_alpha 90.000000
_cell_angle_beta 68.524536
_cell_angle_gamma 90.000000
_cell_volume 1515.881765
_symmetry_space_group_name_H-M "P 2/C"
_symmetry_group_IT_number 13
_symmetry_cell_setting 'monoclinic'
loop_
_space_group_symop_operation_xyz
x,y,z
-x,y,1/2-z
-x,-y,-z
x,-y,1/2+z
loop_
_atom_site_type_symbol
_atom_site_label
_atom_site_fract_x
_atom_site_fract_y
_atom_site_fract_z
Si Si1 0.400453 0.603496 0.534122
Si Si2 0.359134 0.675704 0.093272
Si Si3 0.766946 0.617554 0.615358
Si Si4 0.500000 0.730886 0.250000
Si Si5 0.772820 0.155917 0.818004
Si Si6 0.639937 0.175554 0.176622
Si Si7 0.788832 0.592559 0.150697
Si Si8 0.140396 0.068325 0.177010
O O1 0.500000 0.500000 0.500000
O O2 0.504258 0.688389 0.480878
O O3 0.534494 0.620942 0.585138
O O4 0.069878 0.612016 0.562718
O O5 0.210758 0.777646 0.125909
O O6 0.591571 0.638401 0.118123
O O7 0.112097 0.595908 0.107634
O O8 0.734903 0.713834 0.656994
O O9 0.715196 0.523658 0.661435
O O10 0.492644 0.804576 0.195542
O O11 0.747944 0.653142 0.214229
O O12 0.000000 0.176459 0.750000
O O13 0.764271 0.044279 0.840617
O O14 0.500000 0.169599 0.250000
O O15 0.414475 0.136051 0.149109
O O16 0.911007 0.104512 0.149993
O O17 0.000000 0.079011 0.250000
#
# Coordination Sequence:
#
# PCOD8118792 Si02
#       8
#     4   4   4   2   4   4   4   4
#     4  12  22  39  59  83 114 156 203 234 270 339
#     4  11  22  36  56  85 120 145 193 230 284 337
#     4  12  23  38  62  80 117 159 192 236 286 322
#     4  10  22  32  54  88 128 140 186 218 304 366
#     4  10  20  35  59  87 115 149 179 238 298 346
#     4  10  22  40  58  89 113 151 195 237 281 343
#     4  11  21  35  53  85 117 157 175 234 277 350
#     4   9  20  35  61  82 114 144 191 236 283 341
#
# _framework density 19.790461000000001
#
# number of rings (size 3 to 8) (size 9 to 14) (size 15 to 20)
#    0.000    1.333    4.000    2.000    5.600    0.000 
#    0.000    0.000    0.000    4.800    0.000    0.000 
#    0.000    0.000    0.000    0.000    0.000    0.000 
#
# Total GULP energy -371715.495776 kJ/mol
# GULP energy per Si atom -12390.516526 kJ/mol
# Density = 1.974542 g / cm^3
# Si number density = 19.790461 Si / 1000 Ang^3
#
#
#
# Elastic Constant Matrix: (Units=GPa)
#
#
# Indices 1 2 3 4 5 6 
#
# 1 92.4868 27.2882 13.7139 0.0000 -1.2694 0.0000
# 2 27.2882 132.0992 24.8847 0.0000 4.5627 0.0000
# 3 13.7139 24.8847 29.9776 0.0000 -5.6386 0.0000
# 4 0.0000 0.0000 0.0000 21.7241 0.0000 -0.0182
# 5 -1.2694 4.5627 -5.6386 0.0000 21.7495 0.0000
# 6 0.0000 0.0000 0.0000 -0.0182 0.0000 25.8175
#
#
#
# Elastic Compliance Matrix: (Units=1/GPa)
#
#
# Indices 1 2 3 4 5 6 
#
# 1 0.011913 -0.001701 -0.004037 0.000000 0.000005 0.000000
# 2 -0.001701 0.009561 -0.007942 0.000000 -0.004164 0.000000
# 3 -0.004037 -0.007942 0.044224 0.000000 0.012896 0.000000
# 4 0.000000 0.000000 0.000000 0.046032 0.000000 0.000033
# 5 0.000005 -0.004164 0.012896 0.000000 0.050195 0.000000
# 6 0.000000 0.000000 0.000000 0.000033 0.000000 0.038733
#
#
# Mechanical properties :
#
#
# Convention : Reuss Voigt Hill
#
# Bulk Modulus (GPa) = 26.08383 42.92636 34.50510
# Shear Modulus (GPa) = 20.76434 26.43666 23.60050
#
# Velocity S-wave (km/s) = 3.24266 3.65886 3.45703
# Velocity P-wave (km/s) = 5.21809 6.29184 5.77995
#
# Compressibility (1/GPa) = 0.03833793
#
# Stress axis : x y z
#
# Youngs Moduli (GPa) = 83.94333 104.58781 22.61235
#
# Poissons Ratio (x) = 0.17786 0.09129
# Poissons Ratio (y) = 0.14275 0.17959
# Poissons Ratio (z) = 0.33889 0.83066
#
# Static dielectric constant tensor:
#      x y z
#    x 3.896600 0.000000 -0.065430 
#    y 0.000000 3.640700 0.000000 
#    z -0.065430 0.000000 3.667330 
# 
# 
# High freq. dielectric constant tensor:
#      x y z
#    x 1.785030 0.000000 -0.013050 
#    y 0.000000 1.769620 0.000000 
#    z -0.013050 0.000000 1.738960 
# 
# From -- ./inp_files/90468.got.cif
#   From: 2010.06.25/outbox.cif.g09.slc.cpg/sg13_46_cif.got.tgz:90468.got - 2010.06.28 04:50:58.
