data_PCOD8118716
_publ_section_title
;
Structure prediction by ZEFSAII (Michael W. Deem and Ramdas Pophale) SiO2 
 PCOD8118716
Probable space group: P 2/C
;
_chemical_formula_sum "Si O2"
_cell_formula_units_Z 26
_cell_length_a 15.294918
_cell_length_b 6.461750
_cell_length_c 28.929317
_cell_angle_alpha 90.000000
_cell_angle_beta 25.641096
_cell_angle_gamma 90.000000
_cell_volume 1237.242942
_symmetry_space_group_name_H-M "P 2/C"
_symmetry_group_IT_number 13
_symmetry_cell_setting 'monoclinic'
loop_
_space_group_symop_operation_xyz
x,y,z
-x,y,1/2-z
-x,-y,-z
x,-y,1/2+z
loop_
_atom_site_type_symbol
_atom_site_label
_atom_site_fract_x
_atom_site_fract_y
_atom_site_fract_z
Si Si1 0.484311 0.730938 0.493968
Si Si2 0.257346 0.982345 0.305940
Si Si3 0.835094 0.974631 0.366365
Si Si4 0.466638 0.735392 0.133136
Si Si5 0.541439 0.644041 0.652067
Si Si6 0.166078 0.976556 0.027382
Si Si7 0.500000 0.325694 0.750000
O O1 0.500000 0.500000 0.500000
O O2 0.623256 0.850688 0.464354
O O3 0.577548 0.767771 0.399144
O O4 0.245263 0.793816 0.607857
O O5 0.293760 0.865436 0.240454
O O6 0.323482 0.826831 0.315518
O O7 0.018437 0.028684 0.419318
O O8 0.374983 0.200145 0.252383
O O9 0.911088 0.946614 0.382723
O O10 0.000000 0.903062 0.250000
O O11 0.454034 0.490964 0.151085
O O12 0.682040 0.830040 0.046838
O O13 0.733521 0.768843 0.541365
O O14 0.597448 0.473190 0.664376
#
# Coordination Sequence:
#
# PCOD8118716 Si02
#       7
#     4   4   4   4   4   4   2
#     4  10  20  35  55  80 115 156 194 236 280 326
#     4  10  21  39  61  83 113 149 185 233 287 342
#     4  10  21  36  55  84 119 154 195 238 278 326
#     4   9  20  36  56  84 114 152 195 229 280 338
#     4  10  21  40  60  84 119 147 183 238 284 340
#     4  10  21  37  59  86 115 152 193 233 282 335
#     4  10  22  40  62  88 112 144 186 228 290 352
#
# _framework density 21.014465999999999
#
# number of rings (size 3 to 8) (size 9 to 14) (size 15 to 20)
#    0.000    2.154    0.000    2.308    0.000    7.385 
#    0.000   13.846    0.000    0.000    0.000    0.000 
#    0.000    0.000    0.000    0.000    0.000    0.000 
#
# Total GULP energy -322212.006635 kJ/mol
# GULP energy per Si atom -12392.769486 kJ/mol
# Density = 2.096664 g / cm^3
# Si number density = 21.014466 Si / 1000 Ang^3
#
#
#
# Elastic Constant Matrix: (Units=GPa)
#
#
# Indices 1 2 3 4 5 6 
#
# 1 93.1800 38.1222 17.8060 0.0000 -13.1393 0.0000
# 2 38.1222 120.6193 20.4036 0.0000 -2.9852 0.0000
# 3 17.8060 20.4036 57.5816 0.0000 -7.0303 0.0000
# 4 0.0000 0.0000 0.0000 19.9432 0.0000 6.3526
# 5 -13.1393 -2.9852 -7.0303 0.0000 30.6636 0.0000
# 6 0.0000 0.0000 0.0000 6.3526 0.0000 27.3201
#
#
#
# Elastic Compliance Matrix: (Units=1/GPa)
#
#
# Indices 1 2 3 4 5 6 
#
# 1 0.013366 -0.003729 -0.002219 0.000000 0.004856 0.000000
# 2 -0.003729 0.009860 -0.002488 0.000000 -0.001208 0.000000
# 3 -0.002219 -0.002488 0.019330 0.000000 0.003239 0.000000
# 4 0.000000 0.000000 0.000000 0.054153 0.000000 -0.012592
# 5 0.004856 -0.001208 0.003239 0.000000 0.035317 0.000000
# 6 0.000000 0.000000 0.000000 -0.012592 0.000000 0.039531
#
#
# Mechanical properties :
#
#
# Convention : Reuss Voigt Hill
#
# Bulk Modulus (GPa) = 38.93518 47.11607 43.02562
# Shear Modulus (GPa) = 25.38174 28.58866 26.98520
#
# Velocity S-wave (km/s) = 3.47914 3.69240 3.58736
# Velocity P-wave (km/s) = 5.89129 6.37557 6.13821
#
# Compressibility (1/GPa) = 0.02568372
#
# Stress axis : x y z
#
# Youngs Moduli (GPa) = 74.81524 101.41901 51.73306
#
# Poissons Ratio (x) = 0.37818 0.11480
# Poissons Ratio (y) = 0.27898 0.12873
# Poissons Ratio (z) = 0.16602 0.25236
#
# Static dielectric constant tensor:
#      x y z
#    x 3.725590 0.000000 0.024440 
#    y 0.000000 3.994580 0.000000 
#    z 0.024440 0.000000 3.405830 
# 
# 
# High freq. dielectric constant tensor:
#      x y z
#    x 1.829530 0.000000 0.011290 
#    y 0.000000 1.829140 0.000000 
#    z 0.011290 0.000000 1.803220 
# 
# From -- ./inp_files/96832.got.cif
#   From: 2010.06.25/outbox.cif.g09.slc.cpg/sg13_49_cif.got.tgz:96832.got - 2010.06.28 04:50:58.
