data_PCOD8118408
_publ_section_title
;
Structure prediction by ZEFSAII (Michael W. Deem and Ramdas Pophale) SiO2 
 PCOD8118408
Probable space group: P 2/C
;
_chemical_formula_sum "Si O2"
_cell_formula_units_Z 20
_cell_length_a 6.312008
_cell_length_b 21.422650
_cell_length_c 9.181260
_cell_angle_alpha 90.000000
_cell_angle_beta 130.697101
_cell_angle_gamma 90.000000
_cell_volume 941.256710
_symmetry_space_group_name_H-M "P 2/C"
_symmetry_group_IT_number 13
_symmetry_cell_setting 'monoclinic'
loop_
_space_group_symop_operation_xyz
x,y,z
-x,y,1/2-z
-x,-y,-z
x,-y,1/2+z
loop_
_atom_site_type_symbol
_atom_site_label
_atom_site_fract_x
_atom_site_fract_y
_atom_site_fract_z
Si Si1 0.500000 0.481109 0.750000
Si Si2 0.313604 0.939266 0.408611
Si Si3 0.500000 0.678575 0.750000
Si Si4 0.048352 0.227335 0.111884
Si Si5 0.500000 0.158955 0.750000
Si Si6 0.697516 0.582071 0.627354
Si Si7 0.500000 0.866236 0.750000
O O1 0.710402 0.524424 0.749131
O O2 0.368245 0.437194 0.567852
O O3 0.417253 0.886914 0.343021
O O4 0.312218 0.908227 0.563964
O O5 0.000000 0.962846 0.250000
O O6 0.500000 0.000000 0.500000
O O7 0.783173 0.719163 0.901529
O O8 0.498308 0.635904 0.603042
O O9 0.270321 0.172056 0.237018
O O10 0.000000 0.255014 0.250000
O O11 0.763572 0.204278 0.905428
O O12 0.000000 0.612176 0.750000
#
# Coordination Sequence:
#
# PCOD8118408 Si02
#       7
#     2   4   2   4   2   4   2
#     4   9  20  35  67 100 132 180 219 262 324 398
#     4  12  27  42  66 102 132 164 209 267 334 405
#     4  10  24  42  65  92 135 172 220 282 324 378
#     4  11  23  44  69  90 122 174 223 271 325 381
#     4  12  25  44  72  94 124 172 221 266 330 404
#     4  10  19  39  64  99 137 175 218 268 327 381
#     4  11  23  43  68  92 127 164 212 260 324 398
#
# _framework density 21.248187000000001
#
# number of rings (size 3 to 8) (size 9 to 14) (size 15 to 20)
#    0.000    1.200    4.000    1.800    2.800    1.600 
#    0.000    6.000    0.000    0.000    0.000    0.000 
#    0.000    0.000    0.000    0.000    0.000    0.000 
#
# Total GULP energy -247766.193185 kJ/mol
# GULP energy per Si atom -12388.309659 kJ/mol
# Density = 2.119983 g / cm^3
# Si number density = 21.248187 Si / 1000 Ang^3
#
#
#
# Elastic Constant Matrix: (Units=GPa)
#
#
# Indices 1 2 3 4 5 6 
#
# 1 125.6991 62.2390 76.1493 0.0000 6.6551 0.0000
# 2 62.2390 124.7939 70.8924 0.0000 5.4257 0.0000
# 3 76.1493 70.8924 136.8840 0.0000 4.0844 0.0000
# 4 0.0000 0.0000 0.0000 3.4117 0.0000 16.2028
# 5 6.6551 5.4257 4.0844 0.0000 48.8577 0.0000
# 6 0.0000 0.0000 0.0000 16.2028 0.0000 19.2271
#
#
#
# Elastic Compliance Matrix: (Units=1/GPa)
#
#
# Indices 1 2 3 4 5 6 
#
# 1 0.012957 -0.003319 -0.005461 0.000000 -0.000940 0.000000
# 2 -0.003319 0.012233 -0.004473 0.000000 -0.000532 0.000000
# 3 -0.005461 -0.004473 0.012655 0.000000 0.000183 0.000000
# 4 0.000000 0.000000 0.000000 -0.097633 0.000000 0.082276
# 5 -0.000940 -0.000532 0.000183 0.000000 0.020639 0.000000
# 6 0.000000 0.000000 0.000000 0.082276 0.000000 -0.017324
#
#
# Mechanical properties :
#
#
# Convention : Reuss Voigt Hill
#
# Bulk Modulus (GPa) = 88.19845 89.54869 88.87357
# Shear Modulus (GPa) = -190.92741 26.17240 -82.37750
#
# Velocity S-wave (km/s) = -9.48952 3.51343 -6.23325
# Velocity P-wave (km/s) = 8.85828 7.66124 3.14440
#
# Compressibility (1/GPa) = 0.01133807
#
# Stress axis : x y z
#
# Youngs Moduli (GPa) = 77.17857 81.74835 79.02208
#
# Poissons Ratio (x) = 0.27131 0.43155
# Poissons Ratio (y) = 0.25615 0.35347
# Poissons Ratio (z) = 0.42148 0.36567
#
# Static dielectric constant tensor:
#      x y z
#    x 4.071380 0.000000 -0.060980 
#    y 0.000000 3.980040 0.000000 
#    z -0.060980 0.000000 3.834060 
# 
# 
# High freq. dielectric constant tensor:
#      x y z
#    x 1.854800 0.000000 -0.003580 
#    y 0.000000 1.840030 0.000000 
#    z -0.003580 0.000000 1.816890 
# 
# From -- ./inp_files/10264.got.cif
#   From: 2010.06.25/outbox.cif.g09.slc.cpg/sg13_6_cif.got.tgz:10264.got - 2010.06.28 04:50:58.
