data_PCOD8118871
_publ_section_title
;
Structure prediction by ZEFSAII (Michael W. Deem and Ramdas Pophale) SiO2 
 PCOD8118871
Probable space group: P 2/C
;
_chemical_formula_sum "Si O2"
_cell_formula_units_Z 32
_cell_length_a 12.177350
_cell_length_b 14.224173
_cell_length_c 14.419352
_cell_angle_alpha 90.000000
_cell_angle_beta 140.791321
_cell_angle_gamma 90.000000
_cell_volume 1578.859268
_symmetry_space_group_name_H-M "P 2/C"
_symmetry_group_IT_number 13
_symmetry_cell_setting 'monoclinic'
loop_
_space_group_symop_operation_xyz
x,y,z
-x,y,1/2-z
-x,-y,-z
x,-y,1/2+z
loop_
_atom_site_type_symbol
_atom_site_label
_atom_site_fract_x
_atom_site_fract_y
_atom_site_fract_z
Si Si1 0.201853 0.333569 0.218651
Si Si2 0.512828 0.005821 0.617189
Si Si3 0.655342 0.802031 0.176906
Si Si4 0.181830 0.663933 0.085270
Si Si5 0.810030 0.893816 0.093943
Si Si6 0.680144 0.165632 0.325925
Si Si7 0.348483 0.338648 0.498829
Si Si8 0.574656 0.499566 0.701439
O O1 0.247740 0.234154 0.204536
O O2 0.191364 0.326177 0.323404
O O3 0.355271 0.408075 0.302201
O O4 0.016078 0.365793 0.060203
O O5 0.314407 0.981667 0.517136
O O6 0.647025 0.933716 0.752578
O O7 0.500000 0.000000 0.500000
O O8 0.580685 0.109402 0.686735
O O9 0.805377 0.752970 0.336825
O O10 0.727514 0.831033 0.122615
O O11 0.500293 0.729132 0.062120
O O12 0.282669 0.691400 0.057045
O O13 0.267598 0.573013 0.186050
O O14 0.000000 0.928971 0.250000
O O15 0.819501 0.837406 0.002492
O O16 0.500000 0.204345 0.250000
O O17 0.418966 0.446571 0.544893
O O18 0.500000 0.534145 0.750000
#
# Coordination Sequence:
#
# PCOD8118871 Si02
#       8
#     4   4   4   4   4   4   4   4
#     4  12  20  35  57  83 113 143 178 234 283 320
#     4   9  19  37  56  76 108 151 187 219 268 337
#     4  10  20  40  61  75 109 157 186 214 277 344
#     4  10  22  37  56  83 110 141 187 235 270 319
#     4  10  20  36  56  85 115 142 185 243 282 319
#     4  10  21  35  55  84 115 148 186 229 280 339
#     4  10  21  37  56  82 110 147 189 223 268 335
#     4   9  20  37  57  78 107 147 185 219 276 345
#
# _framework density 20.267797999999999
#
# number of rings (size 3 to 8) (size 9 to 14) (size 15 to 20)
#    0.000    2.000    0.000    5.625    0.000    3.000 
#    0.000   11.875    0.000    0.000    0.000    0.000 
#    0.000    0.000    0.000    0.000    0.000    0.000 
#
# Total GULP energy -396551.101727 kJ/mol
# GULP energy per Si atom -12392.221929 kJ/mol
# Density = 2.022167 g / cm^3
# Si number density = 20.267798 Si / 1000 Ang^3
#
#
#
# Elastic Constant Matrix: (Units=GPa)
#
#
# Indices 1 2 3 4 5 6 
#
# 1 57.8034 25.3021 23.3376 0.0000 -13.9035 0.0000
# 2 25.3021 87.3229 30.0977 0.0000 -8.3650 0.0000
# 3 23.3376 30.0977 117.1238 0.0000 -17.6572 0.0000
# 4 0.0000 0.0000 0.0000 16.5883 0.0000 -3.2219
# 5 -13.9035 -8.3650 -17.6572 0.0000 32.4022 0.0000
# 6 0.0000 0.0000 0.0000 -3.2219 0.0000 20.6428
#
#
#
# Elastic Compliance Matrix: (Units=1/GPa)
#
#
# Indices 1 2 3 4 5 6 
#
# 1 0.022005 -0.004999 -0.002039 0.000000 0.007041 0.000000
# 2 -0.004999 0.013778 -0.002540 0.000000 0.000028 0.000000
# 3 -0.002039 -0.002540 0.010205 0.000000 0.004030 0.000000
# 4 0.000000 0.000000 0.000000 0.062168 0.000000 0.009703
# 5 0.007041 0.000028 0.004030 0.000000 0.036087 0.000000
# 6 0.000000 0.000000 0.000000 0.009703 0.000000 0.049958
#
#
# Mechanical properties :
#
#
# Convention : Reuss Voigt Hill
#
# Bulk Modulus (GPa) = 37.26902 46.63613 41.95257
# Shear Modulus (GPa) = 22.49214 26.16082 24.32648
#
# Velocity S-wave (km/s) = 3.33490 3.59661 3.46822
# Velocity P-wave (km/s) = 5.76689 6.34881 6.06483
#
# Compressibility (1/GPa) = 0.02683194
#
# Stress axis : x y z
#
# Youngs Moduli (GPa) = 45.44487 72.57701 97.99500
#
# Poissons Ratio (x) = 0.36280 0.19977
# Poissons Ratio (y) = 0.22717 0.24895
# Poissons Ratio (z) = 0.09264 0.18438
#
# Static dielectric constant tensor:
#      x y z
#    x 3.749190 0.000000 -0.142150 
#    y 0.000000 3.890810 0.000000 
#    z -0.142150 0.000000 3.878320 
# 
# 
# High freq. dielectric constant tensor:
#      x y z
#    x 1.786860 0.000000 -0.016350 
#    y 0.000000 1.778660 0.000000 
#    z -0.016350 0.000000 1.802060 
# 
# From -- ./inp_files/51492.got.cif
#   From: 2010.06.25/outbox.cif.g09.slc.cpg/sg13_26_cif.got.tgz:51492.got - 2010.06.28 04:50:58.
