data_PCOD8118109
_publ_section_title
;
Structure prediction by ZEFSAII (Michael W. Deem and Ramdas Pophale) SiO2 
 PCOD8118109
Probable space group: P 2/C
;
_chemical_formula_sum "Si O2"
_cell_formula_units_Z 32
_cell_length_a 15.429966
_cell_length_b 15.411153
_cell_length_c 11.637755
_cell_angle_alpha 90.000000
_cell_angle_beta 34.181836
_cell_angle_gamma 90.000000
_cell_volume 1554.774444
_symmetry_space_group_name_H-M "P 2/C"
_symmetry_group_IT_number 13
_symmetry_cell_setting 'monoclinic'
loop_
_space_group_symop_operation_xyz
x,y,z
-x,y,1/2-z
-x,-y,-z
x,-y,1/2+z
loop_
_atom_site_type_symbol
_atom_site_label
_atom_site_fract_x
_atom_site_fract_y
_atom_site_fract_z
Si Si1 0.322133 0.312415 0.928471
Si Si2 0.640856 0.617203 0.355357
Si Si3 0.834990 0.772314 0.219482
Si Si4 0.166627 0.857561 0.520590
Si Si5 0.588004 0.991266 0.777632
Si Si6 0.106507 0.682003 0.028846
Si Si7 0.333474 0.187217 0.385222
Si Si8 0.301151 0.424326 0.168938
O O1 0.500000 0.287127 0.750000
O O2 0.293983 0.367991 0.844297
O O3 0.229693 0.221497 0.029948
O O4 0.262761 0.375676 0.092799
O O5 0.707447 0.694910 0.359098
O O6 0.695791 0.527279 0.351971
O O7 0.456350 0.615087 0.554041
O O8 0.779465 0.834867 0.383475
O O9 0.845677 0.826916 0.094795
O O10 0.007006 0.738598 0.050071
O O11 0.282117 0.937511 0.385336
O O12 0.000000 0.887951 0.750000
O O13 0.500000 0.992908 0.750000
O O14 0.660936 0.895540 0.705352
O O15 0.500000 0.000000 0.000000
O O16 0.259418 0.734414 0.895509
O O17 0.161239 0.594116 0.908605
O O18 0.000000 0.652976 0.250000
O O19 0.500000 0.215207 0.250000
#
# Coordination Sequence:
#
# PCOD8118109 Si02
#       8
#     4   4   4   4   4   4   4   4
#     4   9  19  35  56  82 114 153 196 242 295 353
#     4   9  20  35  58  84 112 154 202 247 292 347
#     4  10  21  39  56  83 123 161 199 243 303 365
#     4  11  22  37  60  89 121 158 198 247 306 363
#     4  11  25  44  67  95 124 159 206 255 307 371
#     4  10  22  36  56  85 117 155 196 238 296 360
#     4  10  21  40  63  85 114 156 201 248 295 356
#     4  10  19  36  57  83 115 151 199 250 292 340
#
# _framework density 20.581764
#
# number of rings (size 3 to 8) (size 9 to 14) (size 15 to 20)
#    0.000    2.000    0.000    3.375    0.000    8.000 
#    0.000    8.125    0.000    0.000    0.000    0.000 
#    0.000    0.000    0.000    0.000    0.000    0.000 
#
# Total GULP energy -396556.113204 kJ/mol
# GULP energy per Si atom -12392.378538 kJ/mol
# Density = 2.053492 g / cm^3
# Si number density = 20.581764 Si / 1000 Ang^3
#
#
#
# Elastic Constant Matrix: (Units=GPa)
#
#
# Indices 1 2 3 4 5 6 
#
# 1 65.1268 15.6141 19.6073 0.0000 9.4557 0.0000
# 2 15.6141 59.2651 65.9487 0.0000 10.7883 0.0000
# 3 19.6073 65.9487 108.5841 0.0000 7.6264 0.0000
# 4 0.0000 0.0000 0.0000 30.3638 0.0000 -0.6640
# 5 9.4557 10.7883 7.6264 0.0000 26.9146 0.0000
# 6 0.0000 0.0000 0.0000 -0.6640 0.0000 -19.8476
#
#
#
# Elastic Compliance Matrix: (Units=1/GPa)
#
#
# Indices 1 2 3 4 5 6 
#
# 1 0.016970 -0.001738 -0.001672 0.000000 -0.004792 0.000000
# 2 -0.001738 0.056439 -0.033077 0.000000 -0.012640 0.000000
# 3 -0.001672 -0.033077 0.029210 0.000000 0.005569 0.000000
# 4 0.000000 0.000000 0.000000 0.032910 0.000000 -0.001101
# 5 -0.004792 -0.012640 0.005569 0.000000 0.042326 0.000000
# 6 0.000000 0.000000 0.000000 -0.001101 0.000000 -0.050347
#
#
# Mechanical properties :
#
#
# Convention : Reuss Voigt Hill
#
# Bulk Modulus (GPa) = 33.73243 48.36845 41.05044
# Shear Modulus (GPa) = 23.76833 16.27323 20.02078
#
# Velocity S-wave (km/s) = 3.40196 2.81492 3.12227
# Velocity P-wave (km/s) = 5.64412 5.84095 5.74338
#
# Compressibility (1/GPa) = 0.02964506
#
# Stress axis : x y z
#
# Youngs Moduli (GPa) = 58.92582 17.71822 34.23539
#
# Poissons Ratio (x) = 0.03079 0.05725
# Poissons Ratio (y) = 0.10240 1.13240
# Poissons Ratio (z) = 0.09855 0.58606
#
# Static dielectric constant tensor:
#      x y z
#    x 3.867080 0.000000 0.140940 
#    y 0.000000 3.684440 0.000000 
#    z 0.140940 0.000000 3.710910 
# 
# 
# High freq. dielectric constant tensor:
#      x y z
#    x 1.810530 0.000000 0.004940 
#    y 0.000000 1.797410 0.000000 
#    z 0.004940 0.000000 1.811550 
# 
# From -- ./inp_files/39450.got.cif
#   From: 2010.06.25/outbox.cif.g09.slc.cpg/sg13_20_cif.got.tgz:39450.got - 2010.06.28 04:50:58.
