data_PCOD8118600
_publ_section_title
;
Structure prediction by ZEFSAII (Michael W. Deem and Ramdas Pophale) SiO2 
 PCOD8118600
Probable space group: P 2/C
;
_chemical_formula_sum "Si O2"
_cell_formula_units_Z 24
_cell_length_a 15.563861
_cell_length_b 9.689291
_cell_length_c 8.514612
_cell_angle_alpha 90.000000
_cell_angle_beta 90.052575
_cell_angle_gamma 90.000000
_cell_volume 1284.026605
_symmetry_space_group_name_H-M "P 2/C"
_symmetry_group_IT_number 13
_symmetry_cell_setting 'monoclinic'
loop_
_space_group_symop_operation_xyz
x,y,z
-x,y,1/2-z
-x,-y,-z
x,-y,1/2+z
loop_
_atom_site_type_symbol
_atom_site_label
_atom_site_fract_x
_atom_site_fract_y
_atom_site_fract_z
Si Si1 0.228868 0.377690 0.322748
Si Si2 0.418801 0.387357 0.336947
Si Si3 0.416072 0.680892 0.194347
Si Si4 0.090487 0.883956 0.326714
Si Si5 0.908588 0.177203 0.307391
Si Si6 0.773086 0.678372 0.313383
O O1 0.326126 0.327767 0.280874
O O2 0.164312 0.291158 0.215379
O O3 0.217257 0.538960 0.286257
O O4 0.208408 0.355095 0.505366
O O5 0.500000 0.314683 0.250000
O O6 0.581818 0.449874 0.690639
O O7 0.431086 0.367810 0.519333
O O8 0.500000 0.772982 0.250000
O O9 0.321793 0.748575 0.209948
O O10 0.085574 0.863160 0.511628
O O11 0.161023 0.788935 0.248274
O O12 0.000000 0.844544 0.250000
O O13 0.114590 0.042664 0.294877
O O14 0.000000 0.238129 0.250000
#
# Coordination Sequence:
#
# PCOD8118600 Si02
#       6
#     4   4   4   4   4   4
#     4  10  20  34  52  79 109 138 173 215 259 303
#     4   9  16  26  44  69 101 135 169 207 249 298
#     4   9  16  26  44  69 101 135 169 207 249 298
#     4  11  22  38  58  78 102 135 172 212 256 310
#     4  11  22  38  58  78 102 135 172 212 256 310
#     4  10  20  34  52  79 109 138 173 215 259 303
#
# _framework density 18.691203999999999
#
# number of rings (size 3 to 8) (size 9 to 14) (size 15 to 20)
#    0.000    2.000    0.000    7.000    0.000    4.667 
#    0.000    3.333    0.000    1.000    0.000    7.000 
#    0.000    0.000    0.000    0.000    0.000    0.000 
#
# Total GULP energy -297434.314402 kJ/mol
# GULP energy per Si atom -12393.096433 kJ/mol
# Density = 1.864866 g / cm^3
# Si number density = 18.691204 Si / 1000 Ang^3
#
#
#
# Elastic Constant Matrix: (Units=GPa)
#
#
# Indices 1 2 3 4 5 6 
#
# 1 142.1047 46.6020 27.3774 0.0000 2.8158 0.0000
# 2 46.6020 36.4958 3.1495 0.0000 5.1386 0.0000
# 3 27.3774 3.1495 52.8335 0.0000 4.1395 0.0000
# 4 0.0000 0.0000 0.0000 23.7472 0.0000 -31.6121
# 5 2.8158 5.1386 4.1395 0.0000 35.3605 0.0000
# 6 0.0000 0.0000 0.0000 -31.6121 0.0000 524.6956
#
#
#
# Elastic Compliance Matrix: (Units=1/GPa)
#
#
# Indices 1 2 3 4 5 6 
#
# 1 0.014010 -0.017649 -0.006380 0.000000 0.002196 0.000000
# 2 -0.017649 0.050302 0.006671 0.000000 -0.006685 0.000000
# 3 -0.006380 0.006671 0.022074 0.000000 -0.003046 0.000000
# 4 0.000000 0.000000 0.000000 0.045782 0.000000 0.002758
# 5 0.002196 -0.006685 -0.003046 0.000000 0.029433 0.000000
# 6 0.000000 0.000000 0.000000 0.002758 0.000000 0.002072
#
#
# Mechanical properties :
#
#
# Convention : Reuss Voigt Hill
#
# Bulk Modulus (GPa) = 19.35345 42.85465 31.10405
# Shear Modulus (GPa) = 23.18958 127.04767 75.11863
#
# Velocity S-wave (km/s) = 3.52613 8.25345 6.34638
# Velocity P-wave (km/s) = 5.19181 10.66787 8.38923
#
# Compressibility (1/GPa) = 0.05167038
#
# Stress axis : x y z
#
# Youngs Moduli (GPa) = 71.37525 19.87991 45.30150
#
# Poissons Ratio (x) = 0.35086 0.28902
# Poissons Ratio (y) = 1.25969 -0.30218
# Poissons Ratio (z) = 0.45537 -0.13261
#
# Static dielectric constant tensor:
#      x y z
#    x 4.126290 0.000000 0.038620 
#    y 0.000000 3.011890 0.000000 
#    z 0.038620 0.000000 3.586610 
# 
# 
# High freq. dielectric constant tensor:
#      x y z
#    x 1.754160 0.000000 0.001840 
#    y 0.000000 1.667050 0.000000 
#    z 0.001840 0.000000 1.747480 
# 
# From -- ./inp_files/18172.got.cif
#   From: 2010.06.25/outbox.cif.g09.slc.cpg/sg13_10_cif.got.tgz:18172.got - 2010.06.28 04:50:58.
