data_PCOD8118339
_publ_section_title
;
Structure prediction by ZEFSAII (Michael W. Deem and Ramdas Pophale) SiO2 
 PCOD8118339
Probable space group: P 2/C
;
_chemical_formula_sum "Si O2"
_cell_formula_units_Z 20
_cell_length_a 20.226236
_cell_length_b 7.440227
_cell_length_c 13.707166
_cell_angle_alpha 90.000000
_cell_angle_beta 153.483322
_cell_angle_gamma 90.000000
_cell_volume 920.936799
_symmetry_space_group_name_H-M "P 2/C"
_symmetry_group_IT_number 13
_symmetry_cell_setting 'monoclinic'
loop_
_space_group_symop_operation_xyz
x,y,z
-x,y,1/2-z
-x,-y,-z
x,-y,1/2+z
loop_
_atom_site_type_symbol
_atom_site_label
_atom_site_fract_x
_atom_site_fract_y
_atom_site_fract_z
Si Si1 0.186025 0.258279 0.905654
Si Si2 0.855228 0.696405 0.931309
Si Si3 0.676025 0.337274 0.692571
Si Si4 0.430328 0.534549 0.253490
Si Si5 0.175985 0.020810 0.725090
O O1 0.176037 0.208513 0.005668
O O2 0.240317 0.082857 0.915293
O O3 0.031408 0.318434 0.651832
O O4 0.289874 0.428463 0.025706
O O5 0.791117 0.499695 0.840582
O O6 0.773076 0.821802 0.741981
O O7 0.537365 0.380812 0.440114
O O8 0.615215 0.319856 0.724068
O O9 0.765397 0.160628 0.779505
O O10 0.500000 0.631792 0.250000
O O11 0.000000 0.000000 0.500000
#
# Coordination Sequence:
#
# PCOD8118339 Si02
#       5
#     4   4   4   4   4
#     4   9  18  37  60  82 124 161 196 258 314 359
#     4   9  20  38  59  90 116 158 209 255 309 367
#     4  10  21  38  64  88 121 162 210 261 307 373
#     4  10  19  38  62  86 125 168 202 250 321 372
#     4  10  20  37  61  87 121 155 203 260 312 364
#
# _framework density 21.717016999999998
#
# number of rings (size 3 to 8) (size 9 to 14) (size 15 to 20)
#    0.000    2.400    2.000    0.000    0.000    3.200 
#    3.600   23.000    0.000    0.000    0.000    0.000 
#    0.000    0.000    0.000    0.000    0.000    0.000 
#
# Total GULP energy -247782.955128 kJ/mol
# GULP energy per Si atom -12389.147756 kJ/mol
# Density = 2.166759 g / cm^3
# Si number density = 21.717017 Si / 1000 Ang^3
#
#
#
# Elastic Constant Matrix: (Units=GPa)
#
#
# Indices 1 2 3 4 5 6 
#
# 1 126.9053 19.2104 33.5876 0.0000 11.9386 0.0000
# 2 19.2104 49.2092 25.6798 0.0000 6.9469 0.0000
# 3 33.5876 25.6798 68.5225 0.0000 1.3848 0.0000
# 4 0.0000 0.0000 0.0000 23.7839 0.0000 0.2982
# 5 11.9386 6.9469 1.3848 0.0000 22.2575 0.0000
# 6 0.0000 0.0000 0.0000 0.2982 0.0000 40.9637
#
#
#
# Elastic Compliance Matrix: (Units=1/GPa)
#
#
# Indices 1 2 3 4 5 6 
#
# 1 0.009575 -0.000855 -0.004280 0.000000 -0.004603 0.000000
# 2 -0.000855 0.026583 -0.009397 0.000000 -0.007254 0.000000
# 3 -0.004280 -0.009397 0.020133 0.000000 0.003976 0.000000
# 4 0.000000 0.000000 0.000000 0.042049 0.000000 -0.000306
# 5 -0.004603 -0.007254 0.003976 0.000000 0.049414 0.000000
# 6 0.000000 0.000000 0.000000 -0.000306 0.000000 0.024414
#
#
# Mechanical properties :
#
#
# Convention : Reuss Voigt Hill
#
# Bulk Modulus (GPa) = 36.72712 44.62138 40.67425
# Shear Modulus (GPa) = 23.77477 28.47831 26.12654
#
# Velocity S-wave (km/s) = 3.31229 3.62517 3.47226
# Velocity P-wave (km/s) = 5.61932 6.17364 5.90299
#
# Compressibility (1/GPa) = 0.02722784
#
# Stress axis : x y z
#
# Youngs Moduli (GPa) = 104.43783 37.61842 49.66983
#
# Poissons Ratio (x) = 0.03215 0.21259
# Poissons Ratio (y) = 0.08925 0.46674
# Poissons Ratio (z) = 0.44701 0.35349
#
# Static dielectric constant tensor:
#      x y z
#    x 4.562120 0.000000 0.048240 
#    y 0.000000 3.613900 0.000000 
#    z 0.048240 0.000000 3.910650 
# 
# 
# High freq. dielectric constant tensor:
#      x y z
#    x 1.881430 0.000000 0.006410 
#    y 0.000000 1.811520 0.000000 
#    z 0.006410 0.000000 1.844710 
# 
# From -- ./inp_files/56400.got.cif
#   From: 2010.06.25/outbox.cif.g09.slc.cpg/sg13_29_cif.got.tgz:56400.got - 2010.06.28 04:50:58.
