data_PCOD8118017
_publ_section_title
;
Structure prediction by ZEFSAII (Michael W. Deem and Ramdas Pophale) SiO2 
 PCOD8118017
Probable space group: P 2/C
;
_chemical_formula_sum "Si O2"
_cell_formula_units_Z 32
_cell_length_a 23.671586
_cell_length_b 12.015360
_cell_length_c 11.175133
_cell_angle_alpha 90.000000
_cell_angle_beta 148.238635
_cell_angle_gamma 90.000000
_cell_volume 1673.086359
_symmetry_space_group_name_H-M "P 2/C"
_symmetry_group_IT_number 13
_symmetry_cell_setting 'monoclinic'
loop_
_space_group_symop_operation_xyz
x,y,z
-x,y,1/2-z
-x,-y,-z
x,-y,1/2+z
loop_
_atom_site_type_symbol
_atom_site_label
_atom_site_fract_x
_atom_site_fract_y
_atom_site_fract_z
Si Si1 0.643457 0.732633 0.689358
Si Si2 0.406372 0.218470 0.720998
Si Si3 0.059994 0.868421 0.740272
Si Si4 0.030804 0.108556 0.928417
Si Si5 0.624893 0.567923 0.466749
Si Si6 0.293889 0.842805 0.244957
Si Si7 0.728900 0.082418 0.200713
Si Si8 0.378052 0.323408 0.076276
O O1 0.533784 0.774801 0.426466
O O2 0.671812 0.614187 0.677738
O O3 0.731334 0.826609 0.813640
O O4 0.627580 0.718197 0.799158
O O5 0.351625 0.338520 0.592050
O O6 0.389820 0.191821 0.830052
O O7 0.352279 0.120152 0.548659
O O8 0.016554 0.825548 0.530305
O O9 0.000000 0.818811 0.750000
O O10 0.182778 0.833154 0.973230
O O11 0.048835 0.002271 0.717321
O O12 0.000000 0.177544 0.750000
O O13 0.153345 0.066768 0.142762
O O14 0.500000 0.543039 0.250000
O O15 0.674116 0.447230 0.525249
O O16 0.297502 0.756571 0.360424
O O17 0.314677 0.966063 0.329848
O O18 0.500000 0.314841 0.250000
#
# Coordination Sequence:
#
# PCOD8118017 Si02
#       8
#     4   4   4   4   4   4   4   4
#     4  10  22  39  55  81 122 164 195 229 286 344
#     4  10  21  39  55  80 119 162 193 228 290 340
#     4  10  20  36  56  81 111 146 191 245 293 337
#     4  10  19  35  58  81 107 148 195 242 284 342
#     4   8  19  37  60  78 107 154 203 247 280 318
#     4  12  23  34  57  86 118 153 194 235 288 350
#     4  11  22  36  56  83 120 158 188 228 288 360
#     4  11  23  35  57  88 114 153 205 246 274 328
#
# _framework density 19.126328000000001
#
# number of rings (size 3 to 8) (size 9 to 14) (size 15 to 20)
#    0.000    1.750    5.000    1.125    3.500    4.000 
#    0.000    0.000    0.000    0.000    0.000    4.375 
#    0.000    0.000    0.000    0.000    0.000    0.000 
#
# Total GULP energy -396548.420961 kJ/mol
# GULP energy per Si atom -12392.138155 kJ/mol
# Density = 1.908280 g / cm^3
# Si number density = 19.126328 Si / 1000 Ang^3
#
#
#
# Elastic Constant Matrix: (Units=GPa)
#
#
# Indices 1 2 3 4 5 6 
#
# 1 105.1154 30.4910 22.2862 0.0000 -30.9481 0.0000
# 2 30.4910 99.3629 23.7067 0.0000 -14.9079 0.0000
# 3 22.2862 23.7067 69.7118 0.0000 -20.7735 0.0000
# 4 0.0000 0.0000 0.0000 9.3988 0.0000 -6.0178
# 5 -30.9481 -14.9079 -20.7735 0.0000 39.6236 0.0000
# 6 0.0000 0.0000 0.0000 -6.0178 0.0000 16.6693
#
#
#
# Elastic Compliance Matrix: (Units=1/GPa)
#
#
# Indices 1 2 3 4 5 6 
#
# 1 0.012986 -0.002498 -0.000663 0.000000 0.008855 0.000000
# 2 -0.002498 0.011659 -0.002892 0.000000 0.000919 0.000000
# 3 -0.000663 -0.002892 0.017850 0.000000 0.007752 0.000000
# 4 0.000000 0.000000 0.000000 0.138382 0.000000 0.049957
# 5 0.008855 0.000919 0.007752 0.000000 0.036564 0.000000
# 6 0.000000 0.000000 0.000000 0.049957 0.000000 0.078025
#
#
# Mechanical properties :
#
#
# Convention : Reuss Voigt Hill
#
# Bulk Modulus (GPa) = 32.90806 47.46198 40.18502
# Shear Modulus (GPa) = 15.73801 26.31877 21.02839
#
# Velocity S-wave (km/s) = 2.87164 3.71354 3.31939
# Velocity P-wave (km/s) = 5.31395 6.57693 5.97888
#
# Compressibility (1/GPa) = 0.03038769
#
# Stress axis : x y z
#
# Youngs Moduli (GPa) = 77.00806 85.77343 56.02094
#
# Poissons Ratio (x) = 0.21427 0.03715
# Poissons Ratio (y) = 0.19237 0.16203
# Poissons Ratio (z) = 0.05107 0.24808
#
# Static dielectric constant tensor:
#      x y z
#    x 3.752620 0.000000 -0.274850 
#    y 0.000000 3.376030 0.000000 
#    z -0.274850 0.000000 3.415700 
# 
# 
# High freq. dielectric constant tensor:
#      x y z
#    x 1.758890 0.000000 -0.023480 
#    y 0.000000 1.709030 0.000000 
#    z -0.023480 0.000000 1.725360 
# 
# From -- ./inp_files/41871.got.cif
#   From: 2010.06.25/outbox.cif.g09.slc.cpg/sg13_21_cif.got.tgz:41871.got - 2010.06.28 04:50:58.
