data_PCOD8118859
_publ_section_title
;
Structure prediction by ZEFSAII (Michael W. Deem and Ramdas Pophale) SiO2 
 PCOD8118859
Probable space group: P 2/C
;
_chemical_formula_sum "Si O2"
_cell_formula_units_Z 22
_cell_length_a 16.263681
_cell_length_b 15.694493
_cell_length_c 5.010391
_cell_angle_alpha 90.000000
_cell_angle_beta 69.799553
_cell_angle_gamma 90.000000
_cell_volume 1200.238513
_symmetry_space_group_name_H-M "P 2/C"
_symmetry_group_IT_number 13
_symmetry_cell_setting 'monoclinic'
loop_
_space_group_symop_operation_xyz
x,y,z
-x,y,1/2-z
-x,-y,-z
x,-y,1/2+z
loop_
_atom_site_type_symbol
_atom_site_label
_atom_site_fract_x
_atom_site_fract_y
_atom_site_fract_z
Si Si1 0.179047 0.271304 0.673004
Si Si2 0.398355 0.056446 0.850268
Si Si3 0.251239 0.818170 0.604929
Si Si4 0.098445 0.943350 0.798119
Si Si5 0.000000 0.818893 0.250000
Si Si6 0.899433 0.445035 0.867996
O O1 0.247955 0.233810 0.383511
O O2 0.169544 0.372223 0.638962
O O3 0.081639 0.235723 0.754040
O O4 0.216171 0.246549 0.919868
O O5 0.500000 0.080950 0.750000
O O6 0.372843 0.013054 0.600653
O O7 0.348222 0.146647 0.937362
O O8 0.194655 0.903978 0.703209
O O9 0.084970 0.976929 0.513370
O O10 0.027353 0.872688 0.958834
O O11 0.882329 0.523919 0.688159
O O12 0.000000 0.411982 0.750000
#
# Coordination Sequence:
#
# PCOD8118859 Si02
#       6
#     4   4   4   4   2   4
#     4  11  22  36  51  75 106 134 171 213 261 313
#     4  10  20  36  57  79 106 140 180 222 266 316
#     4  11  22  34  52  75 103 136 169 221 266 304
#     4  11  21  33  45  62  91 132 178 213 242 285
#     4  10  22  34  46  68  96 140 174 218 252 294
#     4  10  20  36  56  77 100 135 174 214 257 315
#
# _framework density 18.329689999999999
#
# number of rings (size 3 to 8) (size 9 to 14) (size 15 to 20)
#    0.000    1.455    0.909    6.000    0.000    5.818 
#    0.000    0.000    0.000    0.000    0.000    0.000 
#    0.000   14.545    0.000    0.000    0.000    0.000 
#
# Total GULP energy -272799.285249 kJ/mol
# GULP energy per Si atom -12399.967511 kJ/mol
# Density = 1.828797 g / cm^3
# Si number density = 18.329690 Si / 1000 Ang^3
#
#
#
# Elastic Constant Matrix: (Units=GPa)
#
#
# Indices 1 2 3 4 5 6 
#
# 1 52.6588 24.0720 19.0456 0.0000 -7.7209 0.0000
# 2 24.0720 70.4820 12.8015 0.0000 -10.0862 0.0000
# 3 19.0456 12.8015 82.6978 0.0000 0.4207 0.0000
# 4 0.0000 0.0000 0.0000 9.6722 0.0000 -2.2195
# 5 -7.7209 -10.0862 0.4207 0.0000 24.1394 0.0000
# 6 0.0000 0.0000 0.0000 -2.2195 0.0000 16.1214
#
#
#
# Elastic Compliance Matrix: (Units=1/GPa)
#
#
# Indices 1 2 3 4 5 6 
#
# 1 0.024517 -0.006808 -0.004618 0.000000 0.005078 0.000000
# 2 -0.006808 0.017459 -0.001161 0.000000 0.005138 0.000000
# 3 -0.004618 -0.001161 0.013347 0.000000 -0.002195 0.000000
# 4 0.000000 0.000000 0.000000 0.106762 0.000000 0.014698
# 5 0.005078 0.005138 -0.002195 0.000000 0.045235 0.000000
# 6 0.000000 0.000000 0.000000 0.014698 0.000000 0.064053
#
#
# Mechanical properties :
#
#
# Convention : Reuss Voigt Hill
#
# Bulk Modulus (GPa) = 33.16897 35.29742 34.23320
# Shear Modulus (GPa) = 16.30807 19.98125 18.14466
#
# Velocity S-wave (km/s) = 2.98603 3.30525 3.14969
# Velocity P-wave (km/s) = 5.47938 5.81937 5.65193
#
# Compressibility (1/GPa) = 0.03014866
#
# Stress axis : x y z
#
# Youngs Moduli (GPa) = 40.78773 57.27616 74.92482
#
# Poissons Ratio (x) = 0.38994 0.34603
# Poissons Ratio (y) = 0.27768 0.08698
# Poissons Ratio (z) = 0.18837 0.06649
#
# Static dielectric constant tensor:
#      x y z
#    x 3.236710 0.000000 0.022390 
#    y 0.000000 3.214330 0.000000 
#    z 0.022390 0.000000 3.598270 
# 
# 
# High freq. dielectric constant tensor:
#      x y z
#    x 1.681160 0.000000 0.016350 
#    y 0.000000 1.692800 0.000000 
#    z 0.016350 0.000000 1.730610 
# 
# From -- ./inp_files/6082.got.cif
#   From: 2010.06.25/outbox.cif.g09.slc.cpg/sg13_4_cif.got.tgz:6082.got - 2010.06.28 04:50:58.
