data_PCOD8118726
_publ_section_title
;
Structure prediction by ZEFSAII (Michael W. Deem and Ramdas Pophale) SiO2 
 PCOD8118726
Probable space group: P 2/C
;
_chemical_formula_sum "Si O2"
_cell_formula_units_Z 28
_cell_length_a 9.502210
_cell_length_b 27.571898
_cell_length_c 5.257772
_cell_angle_alpha 90.000000
_cell_angle_beta 61.433833
_cell_angle_gamma 90.000000
_cell_volume 1209.814691
_symmetry_space_group_name_H-M "P 2/C"
_symmetry_group_IT_number 13
_symmetry_cell_setting 'monoclinic'
loop_
_space_group_symop_operation_xyz
x,y,z
-x,y,1/2-z
-x,-y,-z
x,-y,1/2+z
loop_
_atom_site_type_symbol
_atom_site_label
_atom_site_fract_x
_atom_site_fract_y
_atom_site_fract_z
Si Si1 0.073797 0.671423 0.436268
Si Si2 0.565169 0.555114 0.940769
Si Si3 0.808779 0.972896 0.905440
Si Si4 0.190859 0.192250 0.594064
Si Si5 0.810858 0.864235 0.907919
Si Si6 0.603408 0.715506 0.417067
Si Si7 0.937259 0.563098 0.557590
O O1 0.267103 0.673938 0.269585
O O2 0.000000 0.697360 0.250000
O O3 0.015554 0.616191 0.489916
O O4 0.000000 0.698151 0.750000
O O5 0.500000 0.582861 0.750000
O O6 0.750620 0.560968 0.749681
O O7 0.500000 0.581796 0.250000
O O8 0.500000 0.500000 0.000000
O O9 0.740812 0.918311 0.936042
O O10 0.000000 0.972758 0.750000
O O11 0.743542 0.003335 0.721717
O O12 0.247959 0.169980 0.274292
O O13 0.291692 0.239818 0.571965
O O14 0.000000 0.202727 0.750000
O O15 0.242784 0.155562 0.772260
O O16 0.000000 0.866935 0.750000
O O17 0.500000 0.726643 0.250000
O O18 0.500000 0.697770 0.750000
O O19 0.000000 0.534252 0.750000
O O20 0.000000 0.536170 0.250000
#
# Coordination Sequence:
#
# PCOD8118726 Si02
#       7
#     4   4   4   4   4   4   4
#     4  10  22  43  66  91 122 163 207 247 302 376
#     4  10  21  40  63  95 132 168 211 265 317 361
#     4   9  15  23  38  64 104 146 182 231 295 355
#     4  10  20  35  56  78 111 152 192 238 295 370
#     4   9  17  29  47  75 107 149 196 237 292 363
#     4  12  25  41  62  91 122 153 197 256 314 367
#     4  10  21  41  65  92 125 169 214 255 304 372
#
# _framework density 23.144041000000001
#
# number of rings (size 3 to 8) (size 9 to 14) (size 15 to 20)
#    0.000    2.000    0.000    3.857    0.000    5.143 
#    0.000   25.714    0.000    0.000    0.000    0.000 
#    0.000   40.000    0.000    0.000    0.000    0.000 
#
# Total GULP energy -346875.624993 kJ/mol
# GULP energy per Si atom -12388.415178 kJ/mol
# Density = 2.309136 g / cm^3
# Si number density = 23.144041 Si / 1000 Ang^3
#
#
#
# Elastic Constant Matrix: (Units=GPa)
#
#
# Indices 1 2 3 4 5 6 
#
# 1 149.9330 49.7526 92.0775 0.0000 18.9533 0.0000
# 2 49.7526 88.5180 31.9740 0.0000 -10.8601 0.0000
# 3 92.0775 31.9740 210.0280 0.0000 30.3528 0.0000
# 4 0.0000 0.0000 0.0000 14.7735 0.0000 4.7790
# 5 18.9533 -10.8601 30.3528 0.0000 59.7599 0.0000
# 6 0.0000 0.0000 0.0000 4.7790 0.0000 13.4921
#
#
#
# Elastic Compliance Matrix: (Units=1/GPa)
#
#
# Indices 1 2 3 4 5 6 
#
# 1 0.010936 -0.005145 -0.003642 0.000000 -0.002553 0.000000
# 2 -0.005145 0.015027 -0.000715 0.000000 0.004726 0.000000
# 3 -0.003642 -0.000715 0.006819 0.000000 -0.002438 0.000000
# 4 0.000000 0.000000 0.000000 0.076448 0.000000 -0.027079
# 5 -0.002553 0.004726 -0.002438 0.000000 0.019641 0.000000
# 6 0.000000 0.000000 0.000000 -0.027079 0.000000 0.083709
#
#
# Mechanical properties :
#
#
# Convention : Reuss Voigt Hill
#
# Bulk Modulus (GPa) = 72.57738 88.45414 80.51576
# Shear Modulus (GPa) = 21.17051 35.91677 28.54364
#
# Velocity S-wave (km/s) = 3.02773 3.94366 3.51565
# Velocity P-wave (km/s) = 6.60681 7.68366 7.16549
#
# Compressibility (1/GPa) = 0.01377840
#
# Stress axis : x y z
#
# Youngs Moduli (GPa) = 91.43747 66.54773 146.64089
#
# Poissons Ratio (x) = 0.34236 0.53412
# Poissons Ratio (y) = 0.47040 0.10487
# Poissons Ratio (z) = 0.33305 0.04759
#
# Static dielectric constant tensor:
#      x y z
#    x 4.678150 0.000000 1.162480 
#    y 0.000000 4.017810 0.000000 
#    z 1.162480 0.000000 5.703090 
# 
# 
# High freq. dielectric constant tensor:
#      x y z
#    x 1.906560 0.000000 0.031800 
#    y 0.000000 1.905070 0.000000 
#    z 0.031800 0.000000 1.930080 
# 
# From -- ./inp_files/2669.got.cif
#   From: 2010.06.25/outbox.cif.g09.slc.cpg/sg13_2_cif.got.tgz:2669.got - 2010.06.28 04:50:58.
