data_PCOD8118621
_publ_section_title
;
Structure prediction by ZEFSAII (Michael W. Deem and Ramdas Pophale) SiO2 
 PCOD8118621
Probable space group: P 2/C
;
_chemical_formula_sum "Si O2"
_cell_formula_units_Z 32
_cell_length_a 16.751896
_cell_length_b 20.000046
_cell_length_c 16.439655
_cell_angle_alpha 90.000000
_cell_angle_beta 17.236004
_cell_angle_gamma 90.000000
_cell_volume 1632.042431
_symmetry_space_group_name_H-M "P 2/C"
_symmetry_group_IT_number 13
_symmetry_cell_setting 'monoclinic'
loop_
_space_group_symop_operation_xyz
x,y,z
-x,y,1/2-z
-x,-y,-z
x,-y,1/2+z
loop_
_atom_site_type_symbol
_atom_site_label
_atom_site_fract_x
_atom_site_fract_y
_atom_site_fract_z
Si Si1 0.489819 0.293767 0.351658
Si Si2 0.478678 0.840579 0.598145
Si Si3 0.221129 0.514364 0.475527
Si Si4 0.447082 0.062676 0.991950
Si Si5 0.996082 0.113163 0.666261
Si Si6 0.014606 0.377217 0.863773
Si Si7 0.916231 0.039020 0.419281
Si Si8 0.748757 0.544847 0.229243
O O1 0.500000 0.264301 0.250000
O O2 0.421852 0.235227 0.483097
O O3 0.239560 0.344621 0.587344
O O4 0.760286 0.328662 0.122313
O O5 0.477806 0.865037 0.505839
O O6 0.687949 0.890973 0.437631
O O7 0.179105 0.845122 0.926279
O O8 0.500000 0.500886 0.250000
O O9 0.089701 0.445051 0.574728
O O10 0.278016 0.561267 0.341241
O O11 0.000000 0.549274 0.750000
O O12 0.137098 0.058258 0.270095
O O13 0.631960 0.064885 0.731298
O O14 0.500000 0.000000 0.000000
O O15 0.000000 0.149444 0.750000
O O16 0.120015 0.039959 0.554138
O O17 0.186064 0.388912 0.781261
O O18 0.000000 0.070102 0.250000
O O19 0.500000 0.500000 0.500000
O O20 0.000000 0.500000 0.000000
#
# Coordination Sequence:
#
# PCOD8118621 Si02
#       8
#     4   4   4   4   4   4   4   4
#     4  12  24  37  53  79 112 155 197 223 260 327
#     4  12  24  36  54  78 111 148 187 232 273 326
#     4  11  20  33  56  87 116 146 184 235 284 323
#     4  12  21  38  57  83 111 143 182 232 292 350
#     4  11  20  34  52  76 110 143 173 217 278 334
#     4  11  22  37  55  77 115 159 193 223 266 329
#     4  11  22  36  57  83 107 139 178 222 287 357
#     4  10  20  34  54  82 113 148 189 232 281 326
#
# _framework density 19.607332
#
# number of rings (size 3 to 8) (size 9 to 14) (size 15 to 20)
#    0.000    0.750    2.500    8.625    0.000    2.000 
#    0.000    0.000    0.000    0.000    0.000    8.750 
#    0.000    0.000    0.000    0.000    0.000    0.000 
#
# Total GULP energy -396627.151562 kJ/mol
# GULP energy per Si atom -12394.598486 kJ/mol
# Density = 1.956271 g / cm^3
# Si number density = 19.607332 Si / 1000 Ang^3
#
#
#
# Elastic Constant Matrix: (Units=GPa)
#
#
# Indices 1 2 3 4 5 6 
#
# 1 97.4674 21.7531 29.2727 0.0000 5.7109 0.0000
# 2 21.7531 46.1643 13.0810 0.0000 1.6354 0.0000
# 3 29.2727 13.0810 119.6742 0.0000 1.7773 0.0000
# 4 0.0000 0.0000 0.0000 18.7131 0.0000 -0.3902
# 5 5.7109 1.6354 1.7773 0.0000 40.4774 0.0000
# 6 0.0000 0.0000 0.0000 -0.3902 0.0000 20.7922
#
#
#
# Elastic Compliance Matrix: (Units=1/GPa)
#
#
# Indices 1 2 3 4 5 6 
#
# 1 0.012185 -0.005008 -0.002412 0.000000 -0.001411 0.000000
# 2 -0.005008 0.024438 -0.001443 0.000000 -0.000217 0.000000
# 3 -0.002412 -0.001443 0.009104 0.000000 -0.000001 0.000000
# 4 0.000000 0.000000 0.000000 0.053460 0.000000 0.001003
# 5 -0.001411 -0.000217 -0.000001 0.000000 0.024913 0.000000
# 6 0.000000 0.000000 0.000000 0.001003 0.000000 0.048114
#
#
# Mechanical properties :
#
#
# Convention : Reuss Voigt Hill
#
# Bulk Modulus (GPa) = 35.71383 43.50218 39.60800
# Shear Modulus (GPa) = 25.09125 29.27647 27.18386
#
# Velocity S-wave (km/s) = 3.58115 3.86831 3.72750
# Velocity P-wave (km/s) = 5.94589 6.49512 6.22656
#
# Compressibility (1/GPa) = 0.02800036
#
# Stress axis : x y z
#
# Youngs Moduli (GPa) = 82.07051 40.91956 109.84474
#
# Poissons Ratio (x) = 0.20493 0.26495
# Poissons Ratio (y) = 0.41102 0.15850
# Poissons Ratio (z) = 0.19796 0.05905
#
# Static dielectric constant tensor:
#      x y z
#    x -3.984520 0.000000 -1.481380 
#    y 0.000000 3.567390 0.000000 
#    z -1.481380 0.000000 3.516960 
# 
# 
# High freq. dielectric constant tensor:
#      x y z
#    x 1.766350 0.000000 -0.006360 
#    y 0.000000 1.709350 0.000000 
#    z -0.006360 0.000000 1.790460 
# 
# From -- ./inp_files/53980.got.cif
#   From: 2010.06.25/outbox.cif.g09.slc.cpg/sg13_27_cif.got.tgz:53980.got - 2010.06.28 04:50:58.
