data_PCOD8118582
_publ_section_title
;
Structure prediction by ZEFSAII (Michael W. Deem and Ramdas Pophale) SiO2 
 PCOD8118582
Probable space group: P 2/C
;
_chemical_formula_sum "Si O2"
_cell_formula_units_Z 30
_cell_length_a 16.565534
_cell_length_b 15.243137
_cell_length_c 9.903433
_cell_angle_alpha 90.000000
_cell_angle_beta 40.722844
_cell_angle_gamma 90.000000
_cell_volume 1631.473138
_symmetry_space_group_name_H-M "P 2/C"
_symmetry_group_IT_number 13
_symmetry_cell_setting 'monoclinic'
loop_
_space_group_symop_operation_xyz
x,y,z
-x,y,1/2-z
-x,-y,-z
x,-y,1/2+z
loop_
_atom_site_type_symbol
_atom_site_label
_atom_site_fract_x
_atom_site_fract_y
_atom_site_fract_z
Si Si1 0.644185 0.915050 0.409288
Si Si2 0.649182 0.935697 0.705293
Si Si3 0.500000 0.514982 0.250000
Si Si4 0.702028 0.389219 0.041565
Si Si5 0.301835 0.650152 0.507286
Si Si6 0.915150 0.524825 0.731470
Si Si7 0.628942 0.720120 0.373080
Si Si8 0.342686 0.247643 0.202269
O O1 0.694877 0.942869 0.492622
O O2 0.497397 0.925221 0.598734
O O3 0.689751 0.816607 0.315224
O O4 0.697757 0.980016 0.226582
O O5 0.706628 0.848699 0.699891
O O6 0.414340 0.451680 0.264721
O O7 0.399655 0.579451 0.448037
O O8 0.826143 0.444040 0.874031
O O9 0.670441 0.344593 0.938789
O O10 0.733775 0.318153 0.114503
O O11 0.164352 0.612259 0.696964
O O12 0.331830 0.674013 0.315382
O O13 0.316803 0.738039 0.576539
O O14 0.000000 0.546756 0.750000
O O15 0.000000 0.500000 0.500000
O O16 0.483915 0.737380 0.564965
#
# Coordination Sequence:
#
# PCOD8118582 Si02
#       8
#     4   4   2   4   4   4   4   4
#     4   9  18  30  47  71 108 153 181 205 252 321
#     4   9  18  30  47  71 108 153 181 204 253 322
#     4  10  20  34  48  82 102 136 178 214 286 308
#     4  11  21  34  59  75 108 143 181 229 271 330
#     4  11  23  34  53  81 110 141 183 228 272 327
#     4  11  24  43  56  75 106 147 190 233 272 317
#     4  11  19  33  50  81 115 143 179 222 271 323
#     4  11  19  33  50  81 115 143 179 221 269 326
#
# _framework density 18.388289
#
# number of rings (size 3 to 8) (size 9 to 14) (size 15 to 20)
#    0.000    1.600    4.000    1.600    1.867    4.267 
#    0.000    0.000    0.000    0.000    0.000    0.000 
#    0.000   21.333    0.000    0.000    0.000    0.000 
#
# Total GULP energy -371826.926466 kJ/mol
# GULP energy per Si atom -12394.230882 kJ/mol
# Density = 1.834644 g / cm^3
# Si number density = 18.388289 Si / 1000 Ang^3
#
#
#
# Elastic Constant Matrix: (Units=GPa)
#
#
# Indices 1 2 3 4 5 6 
#
# 1 83.4895 37.8872 20.6656 0.0000 13.3849 0.0000
# 2 37.8872 113.2518 20.6826 0.0000 9.0299 0.0000
# 3 20.6656 20.6826 49.9995 0.0000 2.0604 0.0000
# 4 0.0000 0.0000 0.0000 20.1155 0.0000 8.4441
# 5 13.3849 9.0299 2.0604 0.0000 34.4328 0.0000
# 6 0.0000 0.0000 0.0000 8.4441 0.0000 23.7135
#
#
#
# Elastic Compliance Matrix: (Units=1/GPa)
#
#
# Indices 1 2 3 4 5 6 
#
# 1 0.015720 -0.004032 -0.004633 0.000000 -0.004776 0.000000
# 2 -0.004032 0.010767 -0.002742 0.000000 -0.001092 0.000000
# 3 -0.004633 -0.002742 0.023002 0.000000 0.001143 0.000000
# 4 0.000000 0.000000 0.000000 0.058450 0.000000 -0.020813
# 5 -0.004776 -0.001092 0.001143 0.000000 0.031117 0.000000
# 6 0.000000 0.000000 0.000000 -0.020813 0.000000 0.049581
#
#
# Mechanical properties :
#
#
# Convention : Reuss Voigt Hill
#
# Bulk Modulus (GPa) = 37.48834 45.02350 41.25592
# Shear Modulus (GPa) = 22.69208 26.81938 24.75573
#
# Velocity S-wave (km/s) = 3.51672 3.82318 3.67315
# Velocity P-wave (km/s) = 6.07627 6.63528 6.36192
#
# Compressibility (1/GPa) = 0.02667496
#
# Stress axis : x y z
#
# Youngs Moduli (GPa) = 63.61479 92.87978 43.47428
#
# Poissons Ratio (x) = 0.37449 0.20139
# Poissons Ratio (y) = 0.25650 0.11921
# Poissons Ratio (z) = 0.29470 0.25469
#
# Static dielectric constant tensor:
#      x y z
#    x 3.305330 0.000000 0.195560 
#    y 0.000000 3.709830 0.000000 
#    z 0.195560 0.000000 3.126700 
# 
# 
# High freq. dielectric constant tensor:
#      x y z
#    x 1.700440 0.000000 0.030360 
#    y 0.000000 1.723640 0.000000 
#    z 0.030360 0.000000 1.673830 
# 
# From -- ./inp_files/39309.got.cif
#   From: 2010.06.25/outbox.cif.g09.slc.cpg/sg13_20_cif.got.tgz:39309.got - 2010.06.28 04:50:58.
