data_PCOD8118683
_publ_section_title
;
Structure prediction by ZEFSAII (Michael W. Deem and Ramdas Pophale) SiO2 
 PCOD8118683
Probable space group: P 2/C
;
_chemical_formula_sum "Si O2"
_cell_formula_units_Z 26
_cell_length_a 9.483821
_cell_length_b 9.938354
_cell_length_c 13.213588
_cell_angle_alpha 90.000000
_cell_angle_beta 109.638143
_cell_angle_gamma 90.000000
_cell_volume 1172.986199
_symmetry_space_group_name_H-M "P 2/C"
_symmetry_group_IT_number 13
_symmetry_cell_setting 'monoclinic'
loop_
_space_group_symop_operation_xyz
x,y,z
-x,y,1/2-z
-x,-y,-z
x,-y,1/2+z
loop_
_atom_site_type_symbol
_atom_site_label
_atom_site_fract_x
_atom_site_fract_y
_atom_site_fract_z
Si Si1 0.773015 0.385214 0.624954
Si Si2 0.668656 0.861257 0.581649
Si Si3 0.325854 0.598537 0.038908
Si Si4 0.500000 0.469293 0.250000
Si Si5 0.325150 0.866154 0.517499
Si Si6 0.097847 0.532483 0.144462
Si Si7 0.771931 0.266053 0.302926
O O1 0.664757 0.501561 0.555986
O O2 0.702971 0.243835 0.575879
O O3 0.782749 0.400666 0.747986
O O4 0.938966 0.398938 0.618840
O O5 0.666623 0.751443 0.493042
O O6 0.501226 0.880975 0.584523
O O7 0.775957 0.823978 0.702331
O O8 0.734432 0.994319 0.543874
O O9 0.465396 0.565384 0.145899
O O10 0.164051 0.568023 0.050990
O O11 0.636938 0.370843 0.263692
O O12 0.238771 0.828632 0.600443
O O13 0.085748 0.368627 0.157224
#
# Coordination Sequence:
#
# PCOD8118683 Si02
#       7
#     4   4   4   2   4   4   4
#     4  11  21  41  66  89 124 163 211 261 310 359
#     4  11  24  40  60  94 130 169 202 249 323 389
#     4  11  22  37  63  91 122 156 215 258 308 366
#     4  10  20  34  60  94 118 158 204 264 308 364
#     4  11  24  39  63  89 131 168 201 257 316 382
#     4  10  23  37  66  96 118 160 216 265 305 366
#     4  11  19  40  61  91 125 165 210 259 319 370
#
# _framework density 22.165648999999998
#
# number of rings (size 3 to 8) (size 9 to 14) (size 15 to 20)
#    0.000    1.231    6.154    0.462    4.308    2.462 
#    2.769    0.769    6.769    0.000    0.000    0.000 
#    0.000    0.000    0.000    0.000    0.000    0.000 
#
# Total GULP energy -322389.326931 kJ/mol
# GULP energy per Si atom -12399.589497 kJ/mol
# Density = 2.211520 g / cm^3
# Si number density = 22.165649 Si / 1000 Ang^3
#
#
#
# Elastic Constant Matrix: (Units=GPa)
#
#
# Indices 1 2 3 4 5 6 
#
# 1 20.8678 8.1133 -5.1304 0.0000 -8.0089 0.0000
# 2 8.1133 145.8771 35.2155 0.0000 -15.4996 0.0000
# 3 -5.1304 35.2155 103.4770 0.0000 -18.6763 0.0000
# 4 0.0000 0.0000 0.0000 24.5214 0.0000 -7.8691
# 5 -8.0089 -15.4996 -18.6763 0.0000 30.4591 0.0000
# 6 0.0000 0.0000 0.0000 -7.8691 0.0000 24.7353
#
#
#
# Elastic Compliance Matrix: (Units=1/GPa)
#
#
# Indices 1 2 3 4 5 6 
#
# 1 0.057776 -0.003023 0.007149 0.000000 0.018037 0.000000
# 2 -0.003023 0.007803 -0.002510 0.000000 0.001637 0.000000
# 3 0.007149 -0.002510 0.012348 0.000000 0.008174 0.000000
# 4 0.000000 0.000000 0.000000 0.045417 0.000000 0.014449
# 5 0.018037 0.001637 0.008174 0.000000 0.043418 0.000000
# 6 0.000000 0.000000 0.000000 0.014449 0.000000 0.045025
#
#
# Mechanical properties :
#
#
# Convention : Reuss Voigt Hill
#
# Bulk Modulus (GPa) = 12.32153 38.51320 25.41736
# Shear Modulus (GPa) = 21.22167 31.41139 26.31653
#
# Velocity S-wave (km/s) = 3.09757 3.76855 3.44941
# Velocity P-wave (km/s) = 4.28534 6.02900 5.23034
#
# Compressibility (1/GPa) = 0.08115877
#
# Stress axis : x y z
#
# Youngs Moduli (GPa) = 17.30825 128.15519 80.98583
#
# Poissons Ratio (x) = 0.38737 -0.57893
# Poissons Ratio (y) = 0.05232 0.20327
# Poissons Ratio (z) = -0.12373 0.32166
#
# Static dielectric constant tensor:
#      x y z
#    x 4.016950 0.000000 0.145320 
#    y 0.000000 3.925980 0.000000 
#    z 0.145320 0.000000 4.454820 
# 
# 
# High freq. dielectric constant tensor:
#      x y z
#    x 1.865650 0.000000 -0.004840 
#    y 0.000000 1.851060 0.000000 
#    z -0.004840 0.000000 1.890900 
# 
# From -- ./inp_files/50147.got.cif
#   From: 2010.06.25/outbox.cif.g09.slc.cpg/sg13_26_cif.got.tgz:50147.got - 2010.06.28 04:50:58.
