data_PCOD8118641
_publ_section_title
;
Structure prediction by ZEFSAII (Michael W. Deem and Ramdas Pophale) SiO2 
 PCOD8118641
Probable space group: P 2/C
;
_chemical_formula_sum "Si O2"
_cell_formula_units_Z 32
_cell_length_a 22.081070
_cell_length_b 14.139702
_cell_length_c 16.486368
_cell_angle_alpha 90.000000
_cell_angle_beta 18.631985
_cell_angle_gamma 90.000000
_cell_volume 1644.524624
_symmetry_space_group_name_H-M "P 2/C"
_symmetry_group_IT_number 13
_symmetry_cell_setting 'monoclinic'
loop_
_space_group_symop_operation_xyz
x,y,z
-x,y,1/2-z
-x,-y,-z
x,-y,1/2+z
loop_
_atom_site_type_symbol
_atom_site_label
_atom_site_fract_x
_atom_site_fract_y
_atom_site_fract_z
Si Si1 0.531181 0.347660 0.030303
Si Si2 0.655879 0.992562 0.492095
Si Si3 0.934126 0.078496 0.248111
Si Si4 0.565919 0.836061 0.283031
Si Si5 0.486557 0.378586 0.633865
Si Si6 0.688711 0.853158 0.302590
Si Si7 0.790898 0.484388 0.794677
Si Si8 0.209957 0.545900 0.019769
O O1 0.337351 0.366491 0.325909
O O2 0.477639 0.372631 0.006947
O O3 0.620397 0.244045 0.930255
O O4 0.695224 0.416280 0.851396
O O5 0.859103 0.997034 0.280903
O O6 0.599796 0.101477 0.545680
O O7 0.658905 0.935836 0.404986
O O8 0.500000 0.945931 0.750000
O O9 0.764621 0.146911 0.487421
O O10 0.000000 0.030079 0.250000
O O11 0.092096 0.143457 0.003917
O O12 0.534777 0.726286 0.305136
O O13 0.564024 0.866304 0.380147
O O14 0.669666 0.419014 0.448370
O O15 0.302058 0.444027 0.882549
O O16 0.795616 0.438796 0.877159
O O17 0.000000 0.500000 0.500000
O O18 0.000000 0.550867 0.250000
#
# Coordination Sequence:
#
# PCOD8118641 Si02
#       8
#     4   4   4   4   4   4   4   4
#     4  10  21  37  56  82 111 144 184 227 272 332
#     4  10  20  34  56  82 111 148 184 225 272 327
#     4   9  19  35  54  82 111 140 182 233 276 319
#     4   9  20  35  56  83 112 138 179 233 279 324
#     4  10  20  36  57  83 110 141 181 229 283 335
#     4  10  20  36  58  79 109 148 181 220 276 332
#     4  11  22  36  56  81 110 145 184 227 274 331
#     4  11  22  37  57  80 111 148 183 228 275 324
#
# _framework density 19.45851
#
# number of rings (size 3 to 8) (size 9 to 14) (size 15 to 20)
#    0.000    2.000    0.000    5.250    0.000    8.500 
#    0.000    0.000    0.000   12.750    0.000    0.000 
#    0.000    0.000    0.000    0.000    0.000    0.000 
#
# Total GULP energy -396611.358785 kJ/mol
# GULP energy per Si atom -12394.104962 kJ/mol
# Density = 1.941422 g / cm^3
# Si number density = 19.458510 Si / 1000 Ang^3
#
#
#
# Elastic Constant Matrix: (Units=GPa)
#
#
# Indices 1 2 3 4 5 6 
#
# 1 86.0890 22.6979 36.2295 0.0000 -6.2549 0.0000
# 2 22.6979 86.6794 36.3194 0.0000 -1.2817 0.0000
# 3 36.2295 36.3194 115.7255 0.0000 -7.1552 0.0000
# 4 0.0000 0.0000 0.0000 18.7597 0.0000 7.2016
# 5 -6.2549 -1.2817 -7.1552 0.0000 39.5232 0.0000
# 6 0.0000 0.0000 0.0000 7.2016 0.0000 21.1516
#
#
#
# Elastic Compliance Matrix: (Units=1/GPa)
#
#
# Indices 1 2 3 4 5 6 
#
# 1 0.013774 -0.002091 -0.003565 0.000000 0.001467 0.000000
# 2 -0.002091 0.013605 -0.003649 0.000000 -0.000550 0.000000
# 3 -0.003565 -0.003649 0.010983 0.000000 0.001306 0.000000
# 4 0.000000 0.000000 0.000000 0.061320 0.000000 -0.020878
# 5 0.001467 -0.000550 0.001306 0.000000 0.025752 0.000000
# 6 0.000000 0.000000 0.000000 -0.020878 0.000000 0.054386
#
#
# Mechanical properties :
#
#
# Convention : Reuss Voigt Hill
#
# Bulk Modulus (GPa) = 50.62965 53.22085 51.92525
# Shear Modulus (GPa) = 24.38822 28.77005 26.57914
#
# Velocity S-wave (km/s) = 3.54410 3.84934 3.69987
# Velocity P-wave (km/s) = 6.54395 6.86782 6.70784
#
# Compressibility (1/GPa) = 0.01975127
#
# Stress axis : x y z
#
# Youngs Moduli (GPa) = 72.59948 73.50064 91.04761
#
# Poissons Ratio (x) = 0.15372 0.32460
# Poissons Ratio (y) = 0.15184 0.33225
# Poissons Ratio (z) = 0.25883 0.26822
#
# Static dielectric constant tensor:
#      x y z
#    x 3.859880 0.000000 -0.020590 
#    y 0.000000 3.328970 0.000000 
#    z -0.020590 0.000000 3.598640 
# 
# 
# High freq. dielectric constant tensor:
#      x y z
#    x 1.785060 0.000000 0.006500 
#    y 0.000000 1.731500 0.000000 
#    z 0.006500 0.000000 1.758980 
# 
# From -- ./inp_files/57864.got.cif
#   From: 2010.06.25/outbox.cif.g09.slc.cpg/sg13_29_cif.got.tgz:57864.got - 2010.06.28 04:50:58.
