data_PCOD8118809
_publ_section_title
;
Structure prediction by ZEFSAII (Michael W. Deem and Ramdas Pophale) SiO2 
 PCOD8118809
Probable space group: P 2/C
;
_chemical_formula_sum "Si O2"
_cell_formula_units_Z 20
_cell_length_a 14.086974
_cell_length_b 8.440713
_cell_length_c 17.014682
_cell_angle_alpha 90.000000
_cell_angle_beta 150.810536
_cell_angle_gamma 90.000000
_cell_volume 986.671685
_symmetry_space_group_name_H-M "P 2/C"
_symmetry_group_IT_number 13
_symmetry_cell_setting 'monoclinic'
loop_
_space_group_symop_operation_xyz
x,y,z
-x,y,1/2-z
-x,-y,-z
x,-y,1/2+z
loop_
_atom_site_type_symbol
_atom_site_label
_atom_site_fract_x
_atom_site_fract_y
_atom_site_fract_z
Si Si1 0.500000 0.372397 0.750000
Si Si2 0.238715 0.373806 0.849758
Si Si3 0.065679 0.825411 0.716434
Si Si4 0.079744 0.544878 0.973581
Si Si5 0.443774 0.310166 0.539105
Si Si6 0.000000 0.874013 0.250000
O O1 0.311532 0.481891 0.633216
O O2 0.461742 0.263685 0.644647
O O3 0.348189 0.300843 0.853026
O O4 0.030260 0.441869 0.671439
O O5 0.192422 0.234529 0.879056
O O6 0.369406 0.507682 0.984487
O O7 0.000000 0.737412 0.750000
O O8 0.969001 0.732590 0.574084
O O9 0.301168 0.807916 0.887961
O O10 0.992705 0.009310 0.667547
O O11 0.000000 0.500000 0.000000
#
# Coordination Sequence:
#
# PCOD8118809 Si02
#       6
#     2   4   4   4   4   2
#     4  12  18  32  58  86 114 148 182 256 298 318
#     4  10  21  37  58  89 109 153 200 244 287 355
#     4   9  20  38  55  81 114 153 188 237 294 349
#     4  11  21  36  60  87 114 148 201 248 291 345
#     4  10  20  35  61  83 113 149 206 238 289 347
#     4  10  20  36  60  80 120 156 190 240 298 358
#
# _framework density 20.270166
#
# number of rings (size 3 to 8) (size 9 to 14) (size 15 to 20)
#    0.600    1.200    4.000    1.200    2.800    0.800 
#    0.000    1.000    0.000   10.800    0.000    0.000 
#    0.000    0.000    0.000    0.000    0.000    0.000 
#
# Total GULP energy -247768.936529 kJ/mol
# GULP energy per Si atom -12388.446826 kJ/mol
# Density = 2.022403 g / cm^3
# Si number density = 20.270166 Si / 1000 Ang^3
#
#
#
# Elastic Constant Matrix: (Units=GPa)
#
#
# Indices 1 2 3 4 5 6 
#
# 1 106.0653 46.2775 39.2082 0.0000 18.2475 0.0000
# 2 46.2775 105.3273 23.8265 0.0000 8.1482 0.0000
# 3 39.2082 23.8265 100.4049 0.0000 20.3657 0.0000
# 4 0.0000 0.0000 0.0000 10.0807 0.0000 1.0970
# 5 18.2475 8.1482 20.3657 0.0000 41.8751 0.0000
# 6 0.0000 0.0000 0.0000 1.0970 0.0000 37.0380
#
#
#
# Elastic Compliance Matrix: (Units=1/GPa)
#
#
# Indices 1 2 3 4 5 6 
#
# 1 0.013359 -0.004848 -0.003413 0.000000 -0.003218 0.000000
# 2 -0.004848 0.011822 -0.000970 0.000000 0.000284 0.000000
# 3 -0.003413 -0.000970 0.012407 0.000000 -0.004358 0.000000
# 4 0.000000 0.000000 0.000000 0.099520 0.000000 -0.002948
# 5 -0.003218 0.000284 -0.004358 0.000000 0.027347 0.000000
# 6 0.000000 0.000000 0.000000 -0.002948 0.000000 0.027087
#
#
# Mechanical properties :
#
#
# Convention : Reuss Voigt Hill
#
# Bulk Modulus (GPa) = 52.28933 58.93580 55.61256
# Shear Modulus (GPa) = 23.10765 31.29779 27.20272
#
# Velocity S-wave (km/s) = 3.38003 3.93368 3.66732
# Velocity P-wave (km/s) = 6.40976 7.05479 6.73999
#
# Compressibility (1/GPa) = 0.01912436
#
# Stress axis : x y z
#
# Youngs Moduli (GPa) = 74.85603 84.58927 80.60195
#
# Poissons Ratio (x) = 0.41012 0.27513
# Poissons Ratio (y) = 0.36293 0.07816
# Poissons Ratio (z) = 0.25552 0.08202
#
# Static dielectric constant tensor:
#      x y z
#    x 3.831110 0.000000 0.242410 
#    y 0.000000 3.377440 0.000000 
#    z 0.242410 0.000000 3.629660 
# 
# 
# High freq. dielectric constant tensor:
#      x y z
#    x 1.804470 0.000000 0.022980 
#    y 0.000000 1.748320 0.000000 
#    z 0.022980 0.000000 1.775420 
# 
# From -- ./inp_files/62812.got.cif
#   From: 2010.06.25/outbox.cif.g09.slc.cpg/sg13_32_cif.got.tgz:62812.got - 2010.06.28 04:50:58.
