data_PCOD8118679
_publ_section_title
;
Structure prediction by ZEFSAII (Michael W. Deem and Ramdas Pophale) SiO2 
 PCOD8118679
Probable space group: P 2/C
;
_chemical_formula_sum "Si O2"
_cell_formula_units_Z 26
_cell_length_a 24.202780
_cell_length_b 5.114742
_cell_length_c 17.647302
_cell_angle_alpha 90.000000
_cell_angle_beta 30.489800
_cell_angle_gamma 90.000000
_cell_volume 1108.421386
_symmetry_space_group_name_H-M "P 2/C"
_symmetry_group_IT_number 13
_symmetry_cell_setting 'monoclinic'
loop_
_space_group_symop_operation_xyz
x,y,z
-x,y,1/2-z
-x,-y,-z
x,-y,1/2+z
loop_
_atom_site_type_symbol
_atom_site_label
_atom_site_fract_x
_atom_site_fract_y
_atom_site_fract_z
Si Si1 0.701122 0.325468 0.060970
Si Si2 0.541772 0.802065 0.861143
Si Si3 0.367520 0.301150 0.670114
Si Si4 0.832685 0.562615 0.548645
Si Si5 0.074974 0.752429 0.914297
Si Si6 0.000000 0.709670 0.750000
Si Si7 0.805310 0.837895 0.879359
O O1 0.722029 0.616160 0.006766
O O2 0.740686 0.111605 0.953498
O O3 0.574237 0.278735 0.236082
O O4 0.766457 0.281426 0.062607
O O5 0.595300 0.598450 0.856913
O O6 0.583478 0.096083 0.827318
O O7 0.411142 0.781278 0.033871
O O8 0.236285 0.316288 0.834239
O O9 0.858628 0.761750 0.585800
O O10 0.946071 0.464389 0.379409
O O11 0.159800 0.757307 0.745384
O O12 0.000000 0.500000 0.000000
O O13 0.000000 0.000000 0.000000
O O14 0.092526 0.876618 0.683848
#
# Coordination Sequence:
#
# PCOD8118679 Si02
#       7
#     4   4   4   4   4   2   4
#     4  10  21  36  60  86 110 147 195 245 296 355
#     4   9  16  32  55  86 118 140 184 243 302 347
#     4   9  18  31  54  86 116 147 183 241 296 356
#     4  10  22  38  58  85 116 157 203 244 299 359
#     4  12  26  41  55  80 118 163 199 246 298 360
#     4  10  20  34  60  78 114 146 202 248 286 344
#     4  11  23  37  56  83 115 154 193 246 298 350
#
# _framework density 23.456782
#
# number of rings (size 3 to 8) (size 9 to 14) (size 15 to 20)
#    0.000    1.846    1.538    3.692    4.308    3.077 
#    0.000    0.000    0.000    0.923    0.000    2.154 
#    0.000    0.000    0.000    0.000    0.000    0.000 
#
# Total GULP energy -322188.659272 kJ/mol
# GULP energy per Si atom -12391.871510 kJ/mol
# Density = 2.340339 g / cm^3
# Si number density = 23.456782 Si / 1000 Ang^3
#
#
#
# Elastic Constant Matrix: (Units=GPa)
#
#
# Indices 1 2 3 4 5 6 
#
# 1 41.8021 5.9906 7.6286 0.0000 18.2459 0.0000
# 2 5.9906 114.5058 36.6693 0.0000 -4.1045 0.0000
# 3 7.6286 36.6693 199.3892 0.0000 13.5746 0.0000
# 4 0.0000 0.0000 0.0000 42.7148 0.0000 -0.6504
# 5 18.2459 -4.1045 13.5746 0.0000 20.7849 0.0000
# 6 0.0000 0.0000 0.0000 -0.6504 0.0000 17.3846
#
#
#
# Elastic Compliance Matrix: (Units=1/GPa)
#
#
# Indices 1 2 3 4 5 6 
#
# 1 0.040571 -0.004027 0.001745 0.000000 -0.037549 0.000000
# 2 -0.004027 0.009872 -0.002130 0.000000 0.006876 0.000000
# 3 0.001745 -0.002130 0.005728 0.000000 -0.005693 0.000000
# 4 0.000000 0.000000 0.000000 0.023424 0.000000 0.000876
# 5 -0.037549 0.006876 -0.005693 0.000000 0.086150 0.000000
# 6 0.000000 0.000000 0.000000 0.000876 0.000000 0.057555
#
#
# Mechanical properties :
#
#
# Convention : Reuss Voigt Hill
#
# Bulk Modulus (GPa) = 21.12085 50.69712 35.90898
# Shear Modulus (GPa) = 20.16892 36.53745 28.35319
#
# Velocity S-wave (km/s) = 2.93547 3.95099 3.48047
# Velocity P-wave (km/s) = 4.52913 6.51718 5.61189
#
# Compressibility (1/GPa) = 0.04734658
#
# Stress axis : x y z
#
# Youngs Moduli (GPa) = 24.64842 101.29324 174.58700
#
# Poissons Ratio (x) = 0.40793 -0.30462
# Poissons Ratio (y) = 0.09927 0.37180
# Poissons Ratio (z) = -0.04301 0.21572
#
# Static dielectric constant tensor:
#      x y z
#    x 3.687620 0.000000 -0.048940 
#    y 0.000000 4.002930 0.000000 
#    z -0.048940 0.000000 5.311220 
# 
# 
# High freq. dielectric constant tensor:
#      x y z
#    x 1.861100 0.000000 0.014760 
#    y 0.000000 1.927980 0.000000 
#    z 0.014760 0.000000 1.969550 
# 
# From -- ./inp_files/71684.got.cif
#   From: 2010.06.25/outbox.cif.g09.slc.cpg/sg13_36_cif.got.tgz:71684.got - 2010.06.28 04:50:58.
