data_PCOD8118869
_publ_section_title
;
Structure prediction by ZEFSAII (Michael W. Deem and Ramdas Pophale) SiO2 
 PCOD8118869
Probable space group: P 2/C
;
_chemical_formula_sum "Si O2"
_cell_formula_units_Z 28
_cell_length_a 27.864099
_cell_length_b 9.777912
_cell_length_c 8.669594
_cell_angle_alpha 90.000000
_cell_angle_beta 141.063793
_cell_angle_gamma 90.000000
_cell_volume 1484.444233
_symmetry_space_group_name_H-M "P 2/C"
_symmetry_group_IT_number 13
_symmetry_cell_setting 'monoclinic'
loop_
_space_group_symop_operation_xyz
x,y,z
-x,y,1/2-z
-x,-y,-z
x,-y,1/2+z
loop_
_atom_site_type_symbol
_atom_site_label
_atom_site_fract_x
_atom_site_fract_y
_atom_site_fract_z
Si Si1 0.500000 0.650548 0.067499
Si Si2 0.802042 0.144870 0.687542
Si Si3 0.921012 0.350859 0.485371
Si Si4 0.372573 0.143216 0.250648
Si Si5 0.078988 0.649137 0.880309
Si Si6 0.627427 0.856785 0.387783
Si Si7 0.802042 0.144866 0.322671
O O1 0.500000 0.637737 0.250000
O O2 0.574732 0.732798 0.195320
O O3 0.500000 0.500000 0.000000
O O4 0.425268 0.732798 0.821658
O O5 0.714439 0.174821 0.514113
O O6 0.815520 0.147706 0.538801
O O7 0.828335 0.000003 0.820842
O O8 0.850866 0.259206 0.893036
O O9 0.906187 0.499997 0.515471
O O10 0.926557 0.358053 0.316393
O O11 0.850867 0.259199 0.361295
O O12 0.000000 0.289733 0.750000
O O13 0.381390 0.127743 0.453475
O O14 0.400960 0.000000 0.252400
O O15 0.000000 0.710261 0.750000
O O16 0.714439 0.825182 0.558083
#
# Coordination Sequence:
#
# PCOD8118869 Si02
#       7
#     4   4   4   4   4   4   4
#     4  10  21  36  52  78 110 142 179 222 266 314
#     4  10  20  36  56  82 111 142 180 225 271 321
#     4  11  22  38  58  81 109 144 181 222 269 323
#     4   9  19  35  56  79 107 140 179 221 266 318
#     4  11  22  38  58  81 109 144 181 222 269 323
#     4   9  19  35  56  79 107 140 179 221 266 318
#     4  10  20  36  56  82 111 142 180 225 271 321
#
# _framework density 18.862276999999999
#
# number of rings (size 3 to 8) (size 9 to 14) (size 15 to 20)
#    0.000    2.000    0.000    4.714    0.000    4.000 
#    0.000    5.714    0.000    0.000    0.000    0.000 
#    0.000    0.000    0.000    0.000    0.000    0.000 
#
# Total GULP energy -347259.347523 kJ/mol
# GULP energy per Si atom -12402.119554 kJ/mol
# Density = 1.881935 g / cm^3
# Si number density = 18.862277 Si / 1000 Ang^3
#
#
#
# Elastic Constant Matrix: (Units=GPa)
#
#
# Indices 1 2 3 4 5 6 
#
# 1 102.1012 64.7514 53.8405 0.0000 3.4630 0.0000
# 2 64.7514 141.6539 75.5208 0.0000 18.9583 0.0000
# 3 53.8405 75.5208 107.7557 0.0000 6.4841 0.0000
# 4 0.0000 0.0000 0.0000 42.8975 0.0000 3.3076
# 5 3.4630 18.9583 6.4841 0.0000 30.4351 0.0000
# 6 0.0000 0.0000 0.0000 3.3076 0.0000 41.0193
#
#
#
# Elastic Compliance Matrix: (Units=1/GPa)
#
#
# Indices 1 2 3 4 5 6 
#
# 1 0.015072 -0.004958 -0.004193 0.000000 0.002267 0.000000
# 2 -0.004958 0.013854 -0.006835 0.000000 -0.006610 0.000000
# 3 -0.004193 -0.006835 0.016087 0.000000 0.001307 0.000000
# 4 0.000000 0.000000 0.000000 0.023457 0.000000 -0.001891
# 5 0.002267 -0.006610 0.001307 0.000000 0.036438 0.000000
# 6 0.000000 0.000000 0.000000 -0.001891 0.000000 0.024531
#
#
# Mechanical properties :
#
#
# Convention : Reuss Voigt Hill
#
# Bulk Modulus (GPa) = 76.67149 82.19290 79.43219
# Shear Modulus (GPa) = 30.16451 33.36359 31.76405
#
# Velocity S-wave (km/s) = 4.00334 4.21027 4.10811
# Velocity P-wave (km/s) = 7.88069 8.20397 8.04395
#
# Compressibility (1/GPa) = 0.01304266
#
# Stress axis : x y z
#
# Youngs Moduli (GPa) = 66.34634 72.18001 62.16328
#
# Poissons Ratio (x) = 0.35786 0.26063
# Poissons Ratio (y) = 0.32893 0.42488
# Poissons Ratio (z) = 0.27817 0.49334
#
# Static dielectric constant tensor:
#      x y z
#    x 3.597220 0.000000 0.133970 
#    y 0.000000 3.570030 0.000000 
#    z 0.133970 0.000000 3.673310 
# 
# 
# High freq. dielectric constant tensor:
#      x y z
#    x 1.740990 0.000000 0.001980 
#    y 0.000000 1.732740 0.000000 
#    z 0.001980 0.000000 1.742120 
# 
# From -- ./inp_files/21122.got.cif
#   From: 2010.06.25/outbox.cif.g09.slc.cpg/sg13_11_cif.got.tgz:21122.got - 2010.06.28 04:50:58.
