data_PCOD8118449
_publ_section_title
;
Structure prediction by ZEFSAII (Michael W. Deem and Ramdas Pophale) SiO2 
 PCOD8118449
Probable space group: P 2/C
;
_chemical_formula_sum "Si O2"
_cell_formula_units_Z 32
_cell_length_a 13.789914
_cell_length_b 8.953750
_cell_length_c 21.704964
_cell_angle_alpha 90.000000
_cell_angle_beta 143.571336
_cell_angle_gamma 90.000000
_cell_volume 1591.407861
_symmetry_space_group_name_H-M "P 2/C"
_symmetry_group_IT_number 13
_symmetry_cell_setting 'monoclinic'
loop_
_space_group_symop_operation_xyz
x,y,z
-x,y,1/2-z
-x,-y,-z
x,-y,1/2+z
loop_
_atom_site_type_symbol
_atom_site_label
_atom_site_fract_x
_atom_site_fract_y
_atom_site_fract_z
Si Si1 0.916845 0.130791 0.384911
Si Si2 0.688753 0.746244 0.223805
Si Si3 0.023159 0.799059 0.450744
Si Si4 0.443128 0.016596 0.288186
Si Si5 0.567496 0.546365 0.600194
Si Si6 0.313074 0.952626 0.394868
Si Si7 0.679791 0.212320 0.481754
Si Si8 0.872302 0.247318 0.234346
O O1 0.724545 0.100761 0.283359
O O2 0.963775 0.217793 0.346296
O O3 0.958487 0.230734 0.466456
O O4 0.017590 0.977307 0.438061
O O5 0.863891 0.712922 0.344482
O O6 0.598612 0.595558 0.159433
O O7 0.713007 0.856631 0.179184
O O8 0.576947 0.837500 0.215385
O O9 0.177730 0.737347 0.491855
O O10 0.500000 0.059996 0.250000
O O11 0.577634 0.072895 0.404246
O O12 0.500000 0.500000 0.500000
O O13 0.436045 0.645602 0.568580
O O14 0.736044 0.629550 0.675485
O O15 0.248148 0.847574 0.416933
O O16 0.500000 0.000000 0.500000
O O17 0.202618 0.098311 0.333540
O O18 0.000000 0.312422 0.250000
#
# Coordination Sequence:
#
# PCOD8118449 Si02
#       8
#     4   4   4   4   4   4   4   4
#     4  10  19  41  63  97 130 156 206 274 331 370
#     4  11  23  42  59  90 140 167 209 263 326 380
#     4  10  22  37  66  96 124 164 209 271 325 383
#     4  11  20  39  70  98 124 168 216 269 321 379
#     4  12  25  44  61  90 136 181 210 263 320 385
#     4  12  19  38  63  92 122 159 213 272 318 364
#     4  12  22  37  69  97 123 167 224 266 318 385
#     4  12  24  41  66  95 127 168 214 268 324 381
#
# _framework density 20.107982
#
# number of rings (size 3 to 8) (size 9 to 14) (size 15 to 20)
#    0.000    0.750    8.750    0.750    0.000    1.000 
#    0.000    2.500    0.000    0.000    0.000    0.000 
#    0.000    0.000    0.000    0.000    0.000    0.000 
#
# Total GULP energy -396884.224224 kJ/mol
# GULP energy per Si atom -12402.632007 kJ/mol
# Density = 2.006222 g / cm^3
# Si number density = 20.107982 Si / 1000 Ang^3
#
#
#
# Elastic Constant Matrix: (Units=GPa)
#
#
# Indices 1 2 3 4 5 6 
#
# 1 110.2480 10.6503 32.6805 0.0000 -7.0549 0.0000
# 2 10.6503 62.8741 21.9815 0.0000 2.1740 0.0000
# 3 32.6805 21.9815 103.1662 0.0000 -13.2465 0.0000
# 4 0.0000 0.0000 0.0000 94.6571 0.0000 63.0846
# 5 -7.0549 2.1740 -13.2465 0.0000 34.5489 0.0000
# 6 0.0000 0.0000 0.0000 63.0846 0.0000 81.1937
#
#
#
# Elastic Compliance Matrix: (Units=1/GPa)
#
#
# Indices 1 2 3 4 5 6 
#
# 1 0.010065 -0.000722 -0.002908 0.000000 0.000986 0.000000
# 2 -0.000722 0.017464 -0.003841 0.000000 -0.002719 0.000000
# 3 -0.002908 -0.003841 0.011977 0.000000 0.004240 0.000000
# 4 0.000000 0.000000 0.000000 0.021909 0.000000 -0.017023
# 5 0.000986 -0.002719 0.004240 0.000000 0.030943 0.000000
# 6 0.000000 0.000000 0.000000 -0.017023 0.000000 0.025542
#
#
# Mechanical properties :
#
#
# Convention : Reuss Voigt Hill
#
# Bulk Modulus (GPa) = 40.71126 45.21252 42.96189
# Shear Modulus (GPa) = 35.45290 56.14502 45.79896
#
# Velocity S-wave (km/s) = 4.20351 5.28984 4.77765
# Velocity P-wave (km/s) = 6.62191 7.73586 7.20046
#
# Compressibility (1/GPa) = 0.02456323
#
# Stress axis : x y z
#
# Youngs Moduli (GPa) = 99.35099 57.26004 83.49217
#
# Poissons Ratio (x) = 0.04137 0.24279
# Poissons Ratio (y) = 0.07177 0.32073
# Poissons Ratio (z) = 0.28891 0.21996
#
# Static dielectric constant tensor:
#      x y z
#    x 3.781400 0.000000 -0.156540 
#    y 0.000000 3.549580 0.000000 
#    z -0.156540 0.000000 3.873280 
# 
# 
# High freq. dielectric constant tensor:
#      x y z
#    x 1.791040 0.000000 -0.012790 
#    y 0.000000 1.756140 0.000000 
#    z -0.012790 0.000000 1.798010 
# 
# From -- ./inp_files/87433.got.cif
#   From: 2010.06.25/outbox.cif.g09.slc.cpg/sg13_44_cif.got.tgz:87433.got - 2010.06.28 04:50:58.
