data_PCOD8118034
_publ_section_title
;
Structure prediction by ZEFSAII (Michael W. Deem and Ramdas Pophale) SiO2 
 PCOD8118034
Probable space group: P 2/C
;
_chemical_formula_sum "Si O2"
_cell_formula_units_Z 30
_cell_length_a 9.118177
_cell_length_b 10.518693
_cell_length_c 28.387023
_cell_angle_alpha 90.000000
_cell_angle_beta 145.650412
_cell_angle_gamma 90.000000
_cell_volume 1536.222557
_symmetry_space_group_name_H-M "P 2/C"
_symmetry_group_IT_number 13
_symmetry_cell_setting 'monoclinic'
loop_
_space_group_symop_operation_xyz
x,y,z
-x,y,1/2-z
-x,-y,-z
x,-y,1/2+z
loop_
_atom_site_type_symbol
_atom_site_label
_atom_site_fract_x
_atom_site_fract_y
_atom_site_fract_z
Si Si1 0.350838 0.479219 0.665336
Si Si2 0.736037 0.833360 0.047597
Si Si3 0.411709 0.577308 0.859426
Si Si4 0.062540 0.295518 0.985224
Si Si5 0.025657 0.711017 0.932662
Si Si6 0.576289 0.398301 0.558952
Si Si7 0.137001 0.100527 0.382853
Si Si8 0.000000 0.207288 0.250000
O O1 0.500000 0.424132 0.750000
O O2 0.578596 0.527146 0.691091
O O3 0.160956 0.594002 0.630377
O O4 0.198763 0.366777 0.599169
O O5 0.879192 0.818455 0.035410
O O6 0.773100 0.706174 0.089181
O O7 0.871325 0.950712 0.109415
O O8 0.432128 0.852612 0.957582
O O9 0.284228 0.473111 0.860911
O O10 0.255501 0.707322 0.819796
O O11 0.705624 0.601470 0.955406
O O12 0.038514 0.238961 0.031624
O O13 0.984616 0.823342 0.883625
O O14 0.324212 0.671341 0.012107
O O15 0.500000 0.500000 0.500000
O O16 0.992825 0.120864 0.294829
#
# Coordination Sequence:
#
# PCOD8118034 Si02
#       8
#     4   4   4   4   4   4   4   2
#     4  11  21  34  56  89 128 155 193 257 310 358
#     4  10  21  37  62  84 117 164 203 240 299 359
#     4  11  20  35  58  92 116 156 196 246 313 354
#     4  11  19  38  61  86 119 161 200 248 307 369
#     4  10  19  35  59  84 117 157 204 242 294 367
#     4  11  17  33  60  90 115 150 197 247 293 367
#     4  10  22  39  58  88 116 161 207 248 290 359
#     4  12  22  38  62  90 122 150 202 258 296 354
#
# _framework density 19.528421000000002
#
# number of rings (size 3 to 8) (size 9 to 14) (size 15 to 20)
#    0.000    1.333    5.333    2.400    0.000    1.600 
#    0.000    2.000    0.000    0.800    0.000    0.000 
#    0.000    0.000    0.000    0.000    0.000    0.000 
#
# Total GULP energy -372032.059425 kJ/mol
# GULP energy per Si atom -12401.068647 kJ/mol
# Density = 1.948397 g / cm^3
# Si number density = 19.528421 Si / 1000 Ang^3
#
#
#
# Elastic Constant Matrix: (Units=GPa)
#
#
# Indices 1 2 3 4 5 6 
#
# 1 107.2824 45.2650 35.1887 0.0000 -32.7653 0.0000
# 2 45.2650 109.1202 38.9337 0.0000 -28.9939 0.0000
# 3 35.1887 38.9337 95.2639 0.0000 -32.5956 0.0000
# 4 0.0000 0.0000 0.0000 27.5154 0.0000 -7.7382
# 5 -32.7653 -28.9939 -32.5956 0.0000 34.5818 0.0000
# 6 0.0000 0.0000 0.0000 -7.7382 0.0000 26.9230
#
#
#
# Elastic Compliance Matrix: (Units=1/GPa)
#
#
# Indices 1 2 3 4 5 6 
#
# 1 0.013803 -0.002840 -0.000410 0.000000 0.010310 0.000000
# 2 -0.002840 0.012673 -0.002089 0.000000 0.005965 0.000000
# 3 -0.000410 -0.002089 0.015897 0.000000 0.012844 0.000000
# 4 0.000000 0.000000 0.000000 0.039539 0.000000 0.011364
# 5 0.010310 0.005965 0.012844 0.000000 0.055793 0.000000
# 6 0.000000 0.000000 0.000000 0.011364 0.000000 0.040409
#
#
# Mechanical properties :
#
#
# Convention : Reuss Voigt Hill
#
# Bulk Modulus (GPa) = 31.55148 61.16014 46.35581
# Shear Modulus (GPa) = 25.08061 30.62264 27.85163
#
# Velocity S-wave (km/s) = 3.58762 3.96423 3.78062
# Velocity P-wave (km/s) = 5.77522 7.23464 6.54573
#
# Compressibility (1/GPa) = 0.03169423
#
# Stress axis : x y z
#
# Youngs Moduli (GPa) = 72.44924 78.91060 62.90424
#
# Poissons Ratio (x) = 0.22409 0.02580
# Poissons Ratio (y) = 0.20574 0.13142
# Poissons Ratio (z) = 0.02971 0.16486
#
# Static dielectric constant tensor:
#      x y z
#    x 3.926450 0.000000 -0.199240 
#    y 0.000000 3.464700 0.000000 
#    z -0.199240 0.000000 3.358170 
# 
# 
# High freq. dielectric constant tensor:
#      x y z
#    x 1.775010 0.000000 -0.020900 
#    y 0.000000 1.738320 0.000000 
#    z -0.020900 0.000000 1.741080 
# 
# From -- ./inp_files/85220.got.cif
#   From: 2010.06.25/outbox.cif.g09.slc.cpg/sg13_43_cif.got.tgz:85220.got - 2010.06.28 04:50:58.
