data_PCOD8118569
_publ_section_title
;
Structure prediction by ZEFSAII (Michael W. Deem and Ramdas Pophale) SiO2 
 PCOD8118569
Probable space group: P 2/C
;
_chemical_formula_sum "Si O2"
_cell_formula_units_Z 24
_cell_length_a 11.158907
_cell_length_b 6.851016
_cell_length_c 17.388195
_cell_angle_alpha 90.000000
_cell_angle_beta 114.819412
_cell_angle_gamma 90.000000
_cell_volume 1206.542230
_symmetry_space_group_name_H-M "P 2/C"
_symmetry_group_IT_number 13
_symmetry_cell_setting 'monoclinic'
loop_
_space_group_symop_operation_xyz
x,y,z
-x,y,1/2-z
-x,-y,-z
x,-y,1/2+z
loop_
_atom_site_type_symbol
_atom_site_label
_atom_site_fract_x
_atom_site_fract_y
_atom_site_fract_z
Si Si1 0.974020 0.798982 0.531887
Si Si2 0.249416 0.160315 0.411466
Si Si3 0.185207 0.509256 0.118294
Si Si4 0.594638 0.443507 0.936360
Si Si5 0.657532 0.274421 0.581514
Si Si6 0.154756 0.474084 0.283584
O O1 0.895009 0.848048 0.588559
O O2 0.897205 0.669048 0.449707
O O3 0.113888 0.700070 0.590263
O O4 0.000000 0.000000 0.500000
O O5 0.338614 0.277522 0.494507
O O6 0.229891 0.271090 0.324625
O O7 0.323129 0.957021 0.415275
O O8 0.333854 0.513521 0.125126
O O9 0.194319 0.554944 0.210827
O O10 0.446557 0.359506 0.882662
O O11 0.601861 0.649289 0.984458
O O12 0.799962 0.366119 0.640735
O O13 0.000000 0.446877 0.250000
#
# Coordination Sequence:
#
# PCOD8118569 Si02
#       6
#     4   4   4   4   4   4
#     4  10  20  33  57  84 110 153 195 239 293 341
#     4  10  20  36  58  86 117 148 196 246 289 352
#     4  10  21  37  54  80 121 148 190 246 285 351
#     4   9  20  39  60  84 111 149 201 244 288 348
#     4  10  21  37  62  85 111 155 194 241 299 348
#     4  11  23  37  54  86 122 155 192 238 296 356
#
# _framework density 19.891553999999999
#
# number of rings (size 3 to 8) (size 9 to 14) (size 15 to 20)
#    0.000    2.000    1.667    1.500    4.667    2.667 
#    0.000    0.000    0.000    6.000    0.000    0.000 
#    0.000    0.000    0.000    0.000    0.000    0.000 
#
# Total GULP energy -297460.057280 kJ/mol
# GULP energy per Si atom -12394.169053 kJ/mol
# Density = 1.984628 g / cm^3
# Si number density = 19.891554 Si / 1000 Ang^3
#
#
#
# Elastic Constant Matrix: (Units=GPa)
#
#
# Indices 1 2 3 4 5 6 
#
# 1 106.3061 37.8696 22.9833 0.0000 -11.7525 0.0000
# 2 37.8696 74.4458 7.9443 0.0000 -1.1666 0.0000
# 3 22.9833 7.9443 60.4459 0.0000 -9.8496 0.0000
# 4 0.0000 0.0000 0.0000 13.0663 0.0000 0.2758
# 5 -11.7525 -1.1666 -9.8496 0.0000 33.7241 0.0000
# 6 0.0000 0.0000 0.0000 0.2758 0.0000 29.8753
#
#
#
# Elastic Compliance Matrix: (Units=1/GPa)
#
#
# Indices 1 2 3 4 5 6 
#
# 1 0.012659 -0.006016 -0.003505 0.000000 0.003180 0.000000
# 2 -0.006016 0.016482 -0.000134 0.000000 -0.001565 0.000000
# 3 -0.003505 -0.000134 0.018578 0.000000 0.004200 0.000000
# 4 0.000000 0.000000 0.000000 0.076548 0.000000 -0.000707
# 5 0.003180 -0.001565 0.004200 0.000000 0.031933 0.000000
# 6 0.000000 0.000000 0.000000 -0.000707 0.000000 0.033479
#
#
# Mechanical properties :
#
#
# Convention : Reuss Voigt Hill
#
# Bulk Modulus (GPa) = 35.19725 42.08802 38.64263
# Shear Modulus (GPa) = 22.88767 26.82653 24.85710
#
# Velocity S-wave (km/s) = 3.39576 3.67637 3.53885
# Velocity P-wave (km/s) = 5.75395 6.26303 6.01388
#
# Compressibility (1/GPa) = 0.02841131
#
# Stress axis : x y z
#
# Youngs Moduli (GPa) = 78.99519 60.67062 53.82637
#
# Poissons Ratio (x) = 0.36497 0.18864
# Poissons Ratio (y) = 0.47521 0.00721
# Poissons Ratio (z) = 0.27684 0.00813
#
# Static dielectric constant tensor:
#      x y z
#    x 3.865660 0.000000 0.070540 
#    y 0.000000 3.548900 0.000000 
#    z 0.070540 0.000000 3.479360 
# 
# 
# High freq. dielectric constant tensor:
#      x y z
#    x 1.784410 0.000000 0.006950 
#    y 0.000000 1.771220 0.000000 
#    z 0.006950 0.000000 1.757650 
# 
# From -- ./inp_files/77305.got.cif
#   From: 2010.06.25/outbox.cif.g09.slc.cpg/sg13_39_cif.got.tgz:77305.got - 2010.06.28 04:50:58.
