data_PCOD8118780
_publ_section_title
;
Structure prediction by ZEFSAII (Michael W. Deem and Ramdas Pophale) SiO2 
 PCOD8118780
Probable space group: P 2/C
;
_chemical_formula_sum "Si O2"
_cell_formula_units_Z 30
_cell_length_a 20.862455
_cell_length_b 6.649536
_cell_length_c 25.695881
_cell_angle_alpha 90.000000
_cell_angle_beta 155.414194
_cell_angle_gamma 90.000000
_cell_volume 1483.103871
_symmetry_space_group_name_H-M "P 2/C"
_symmetry_group_IT_number 13
_symmetry_cell_setting 'monoclinic'
loop_
_space_group_symop_operation_xyz
x,y,z
-x,y,1/2-z
-x,-y,-z
x,-y,1/2+z
loop_
_atom_site_type_symbol
_atom_site_label
_atom_site_fract_x
_atom_site_fract_y
_atom_site_fract_z
Si Si1 0.888961 0.108366 0.851755
Si Si2 0.173589 0.174571 0.813579
Si Si3 0.559376 0.523472 0.986712
Si Si4 0.282540 0.434542 0.713230
Si Si5 0.786905 0.851042 0.866342
Si Si6 0.743246 0.793538 0.563658
Si Si7 0.532569 0.879967 0.214089
Si Si8 0.000000 0.515185 0.250000
O O1 0.854451 0.098733 0.765377
O O2 0.832960 0.322494 0.832872
O O3 0.794252 0.935928 0.812515
O O4 0.069990 0.066001 0.994196
O O5 0.340559 0.274734 0.943550
O O6 0.046710 0.341083 0.736240
O O7 0.164396 0.981050 0.844096
O O8 0.648567 0.317356 0.039179
O O9 0.500000 0.500000 0.000000
O O10 0.417412 0.549532 0.843321
O O11 0.191589 0.611361 0.617219
O O12 0.350863 0.289558 0.719995
O O13 0.623651 0.910681 0.772240
O O14 0.630742 0.875071 0.435797
O O15 0.861797 0.628367 0.627824
O O16 0.500000 0.843993 0.250000
#
# Coordination Sequence:
#
# PCOD8118780 Si02
#       8
#     4   4   4   4   4   4   4   2
#     4  10  22  37  58  90 118 155 196 242 299 356
#     4  11  22  38  61  86 121 161 194 246 310 346
#     4  10  20  35  58  92 119 148 200 244 292 371
#     4  10  20  39  59  86 122 153 195 249 298 348
#     4  10  22  38  58  87 121 151 201 244 288 359
#     4  10  23  40  59  88 119 154 197 248 295 351
#     4  10  23  41  60  85 116 157 203 242 287 352
#     4  10  24  40  56  86 120 150 204 242 284 372
#
# _framework density 20.227848000000002
#
# number of rings (size 3 to 8) (size 9 to 14) (size 15 to 20)
#    0.000    1.867    1.333    1.600    1.867    4.267 
#    0.000    0.000    0.000    0.000    0.000    0.000 
#    0.000    0.000    0.000    0.000    0.000    0.000 
#
# Total GULP energy -372024.006484 kJ/mol
# GULP energy per Si atom -12400.800216 kJ/mol
# Density = 2.018181 g / cm^3
# Si number density = 20.227848 Si / 1000 Ang^3
#
#
#
# Elastic Constant Matrix: (Units=GPa)
#
#
# Indices 1 2 3 4 5 6 
#
# 1 110.0545 29.2785 50.7258 0.0000 -10.2667 0.0000
# 2 29.2785 97.9656 32.0399 0.0000 -6.4315 0.0000
# 3 50.7258 32.0399 95.6370 0.0000 -2.8532 0.0000
# 4 0.0000 0.0000 0.0000 30.4690 0.0000 4.1110
# 5 -10.2667 -6.4315 -2.8532 0.0000 32.2767 0.0000
# 6 0.0000 0.0000 0.0000 4.1110 0.0000 23.3030
#
#
#
# Elastic Compliance Matrix: (Units=1/GPa)
#
#
# Indices 1 2 3 4 5 6 
#
# 1 0.012591 -0.001575 -0.006057 0.000000 0.003156 0.000000
# 2 -0.001575 0.011784 -0.003066 0.000000 0.001576 0.000000
# 3 -0.006057 -0.003066 0.014659 0.000000 -0.001242 0.000000
# 4 0.000000 0.000000 0.000000 0.033621 0.000000 -0.005931
# 5 0.003156 0.001576 -0.001242 0.000000 0.032190 0.000000
# 6 0.000000 0.000000 0.000000 -0.005931 0.000000 0.043959
#
#
# Mechanical properties :
#
#
# Convention : Reuss Voigt Hill
#
# Bulk Modulus (GPa) = 56.68949 58.63838 57.66393
# Shear Modulus (GPa) = 28.39630 29.98392 29.19011
#
# Velocity S-wave (km/s) = 3.75083 3.85425 3.80289
# Velocity P-wave (km/s) = 6.84431 6.98991 6.91749
#
# Compressibility (1/GPa) = 0.01763996
#
# Stress axis : x y z
#
# Youngs Moduli (GPa) = 79.41891 84.85736 68.21926
#
# Poissons Ratio (x) = 0.13366 0.41318
# Poissons Ratio (y) = 0.12509 0.20913
# Poissons Ratio (z) = 0.48101 0.26013
#
# Static dielectric constant tensor:
#      x y z
#    x 3.592200 0.000000 0.204530 
#    y 0.000000 3.743510 0.000000 
#    z 0.204530 0.000000 3.618860 
# 
# 
# High freq. dielectric constant tensor:
#      x y z
#    x 1.783750 0.000000 0.015200 
#    y 0.000000 1.795960 0.000000 
#    z 0.015200 0.000000 1.788320 
# 
# From -- ./inp_files/88380.got.cif
#   From: 2010.06.25/outbox.cif.g09.slc.cpg/sg13_45_cif.got.tgz:88380.got - 2010.06.28 04:50:58.
