data_PCOD8118665
_publ_section_title
;
Structure prediction by ZEFSAII (Michael W. Deem and Ramdas Pophale) SiO2 
 PCOD8118665
Probable space group: P 2/C
;
_chemical_formula_sum "Si O2"
_cell_formula_units_Z 28
_cell_length_a 15.867819
_cell_length_b 8.760722
_cell_length_c 15.404769
_cell_angle_alpha 90.000000
_cell_angle_beta 134.418198
_cell_angle_gamma 90.000000
_cell_volume 1529.547019
_symmetry_space_group_name_H-M "P 2/C"
_symmetry_group_IT_number 13
_symmetry_cell_setting 'monoclinic'
loop_
_space_group_symop_operation_xyz
x,y,z
-x,y,1/2-z
-x,-y,-z
x,-y,1/2+z
loop_
_atom_site_type_symbol
_atom_site_label
_atom_site_fract_x
_atom_site_fract_y
_atom_site_fract_z
Si Si1 0.850244 0.421858 0.478439
Si Si2 0.875267 0.588666 0.328408
Si Si3 0.533266 0.914533 0.185025
Si Si4 0.741525 0.906084 0.894833
Si Si5 0.274263 0.071407 0.443465
Si Si6 0.757531 0.898435 0.252689
Si Si7 0.136970 0.383149 0.344280
O O1 0.815792 0.535643 0.375612
O O2 0.771249 0.271375 0.412624
O O3 0.827954 0.500549 0.554368
O O4 0.986330 0.382547 0.564099
O O5 0.829233 0.754600 0.272267
O O6 0.840030 0.467515 0.229722
O O7 0.500000 0.819745 0.250000
O O8 0.626882 0.836065 0.187063
O O9 0.601339 0.067842 0.271854
O O10 0.415916 0.940394 0.045712
O O11 0.813533 0.006080 0.874253
O O12 0.777227 0.969807 0.015244
O O13 0.224446 0.241511 0.416792
O O14 0.236912 0.012008 0.323628
O O15 0.000000 0.330829 0.250000
#
# Coordination Sequence:
#
# PCOD8118665 Si02
#       7
#     4   4   4   4   4   4   4
#     4  10  20  37  56  77 117 149 170 229 279 323
#     4  10  21  36  54  82 114 144 181 222 279 325
#     4   8  19  36  56  78 106 139 183 228 274 314
#     4   9  20  34  57  81 104 144 191 221 269 325
#     4  11  19  36  60  77 111 146 182 230 275 314
#     4  10  20  34  58  81 109 139 191 228 263 329
#     4  10  22  36  55  84 115 147 182 221 278 336
#
# _framework density 18.306073999999999
#
# number of rings (size 3 to 8) (size 9 to 14) (size 15 to 20)
#    0.857    1.429    0.000    3.000    0.000    1.714 
#    0.000    0.714    9.429    0.000    0.000    0.000 
#    0.000    0.000    0.000    0.000    0.000    0.000 
#
# Total GULP energy -346891.823669 kJ/mol
# GULP energy per Si atom -12388.993702 kJ/mol
# Density = 1.826441 g / cm^3
# Si number density = 18.306074 Si / 1000 Ang^3
#
#
#
# Elastic Constant Matrix: (Units=GPa)
#
#
# Indices 1 2 3 4 5 6 
#
# 1 63.2843 30.6906 35.9770 0.0000 -11.6436 0.0000
# 2 30.6906 87.7798 35.0794 0.0000 15.2391 0.0000
# 3 35.9770 35.0794 70.8114 0.0000 -10.5951 0.0000
# 4 0.0000 0.0000 0.0000 18.5136 0.0000 -6.5540
# 5 -11.6436 15.2391 -10.5951 0.0000 27.4435 0.0000
# 6 0.0000 0.0000 0.0000 -6.5540 0.0000 16.3249
#
#
#
# Elastic Compliance Matrix: (Units=1/GPa)
#
#
# Indices 1 2 3 4 5 6 
#
# 1 0.026580 -0.008748 -0.007171 0.000000 0.013367 0.000000
# 2 -0.008748 0.021340 -0.008974 0.000000 -0.019026 0.000000
# 3 -0.007171 -0.008974 0.023881 0.000000 0.011160 0.000000
# 4 0.000000 0.000000 0.000000 0.062963 0.000000 0.025278
# 5 0.013367 -0.019026 0.011160 0.000000 0.056983 0.000000
# 6 0.000000 0.000000 0.000000 0.025278 0.000000 0.071404
#
#
# Mechanical properties :
#
#
# Convention : Reuss Voigt Hill
#
# Bulk Modulus (GPa) = 45.42275 47.26327 46.34301
# Shear Modulus (GPa) = 15.61158 20.46497 18.03828
#
# Velocity S-wave (km/s) = 2.92346 3.34718 3.14247
# Velocity P-wave (km/s) = 6.02182 6.38847 6.20785
#
# Compressibility (1/GPa) = 0.02201540
#
# Stress axis : x y z
#
# Youngs Moduli (GPa) = 37.62206 46.86043 41.87485
#
# Poissons Ratio (x) = 0.40994 0.30028
# Poissons Ratio (y) = 0.32912 0.37578
# Poissons Ratio (z) = 0.26978 0.42051
#
# Static dielectric constant tensor:
#      x y z
#    x 3.520270 0.000000 -0.188010 
#    y 0.000000 3.048510 0.000000 
#    z -0.188010 0.000000 3.397650 
# 
# 
# High freq. dielectric constant tensor:
#      x y z
#    x 1.717350 0.000000 -0.022420 
#    y 0.000000 1.687070 0.000000 
#    z -0.022420 0.000000 1.710440 
# 
# From -- ./inp_files/53118.got.cif
#   From: 2010.06.25/outbox.cif.g09.slc.cpg/sg13_27_cif.got.tgz:53118.got - 2010.06.28 04:50:58.
