data_PCOD8118663
_publ_section_title
;
Structure prediction by ZEFSAII (Michael W. Deem and Ramdas Pophale) SiO2 
 PCOD8118663
Probable space group: P 2/C
;
_chemical_formula_sum "Si O2"
_cell_formula_units_Z 22
_cell_length_a 9.489500
_cell_length_b 21.440572
_cell_length_c 5.160522
_cell_angle_alpha 90.000000
_cell_angle_beta 98.931687
_cell_angle_gamma 90.000000
_cell_volume 1037.229725
_symmetry_space_group_name_H-M "P 2/C"
_symmetry_group_IT_number 13
_symmetry_cell_setting 'monoclinic'
loop_
_space_group_symop_operation_xyz
x,y,z
-x,y,1/2-z
-x,-y,-z
x,-y,1/2+z
loop_
_atom_site_type_symbol
_atom_site_label
_atom_site_fract_x
_atom_site_fract_y
_atom_site_fract_z
Si Si1 0.832784 0.962042 0.204215
Si Si2 0.000000 0.747758 0.250000
Si Si3 0.148044 0.342820 0.164158
Si Si4 0.663949 0.539177 0.793071
Si Si5 0.652207 0.238955 0.196581
Si Si6 0.747401 0.175483 0.746718
O O1 0.748973 0.898825 0.239875
O O2 0.000000 0.947585 0.250000
O O3 0.788215 0.011256 0.412450
O O4 0.899224 0.794411 0.388824
O O5 0.110937 0.701829 0.417459
O O6 0.232224 0.404296 0.104266
O O7 0.253521 0.299332 0.364717
O O8 0.000000 0.363582 0.250000
O O9 0.500000 0.561654 0.750000
O O10 0.696293 0.513793 0.515221
O O11 0.500000 0.263963 0.250000
O O12 0.719138 0.198292 0.447054
O O13 0.633452 0.196375 0.933678
#
# Coordination Sequence:
#
# PCOD8118663 Si02
#       6
#     4   2   4   4   4   4
#     4  10  20  34  57  91 123 159 204 253 311 367
#     4  10  22  38  58  98 124 162 192 260 322 366
#     4  11  23  40  64  93 128 156 205 258 315 361
#     4  10  24  44  65  89 123 169 210 247 296 362
#     4  11  24  40  63  91 122 166 207 251 312 377
#     4  11  21  39  63  86 130 157 205 257 311 368
#
# _framework density 21.210346000000001
#
# number of rings (size 3 to 8) (size 9 to 14) (size 15 to 20)
#    0.000    1.455    2.727    2.182    2.545    0.727 
#    0.000    3.636    0.000   10.909    0.000    0.000 
#    0.000    0.000    0.000    0.000    0.000    0.000 
#
# Total GULP energy -272657.912440 kJ/mol
# GULP energy per Si atom -12393.541475 kJ/mol
# Density = 2.116207 g / cm^3
# Si number density = 21.210346 Si / 1000 Ang^3
#
#
#
# Elastic Constant Matrix: (Units=GPa)
#
#
# Indices 1 2 3 4 5 6 
#
# 1 86.9922 48.8820 13.9997 0.0000 -5.6621 0.0000
# 2 48.8820 114.2526 20.7749 0.0000 -0.6382 0.0000
# 3 13.9997 20.7749 86.5862 0.0000 -14.9731 0.0000
# 4 0.0000 0.0000 0.0000 74.2025 0.0000 75.7892
# 5 -5.6621 -0.6382 -14.9731 0.0000 29.7277 0.0000
# 6 0.0000 0.0000 0.0000 75.7892 0.0000 155.1425
#
#
#
# Elastic Compliance Matrix: (Units=1/GPa)
#
#
# Indices 1 2 3 4 5 6 
#
# 1 0.015379 -0.006476 -0.000493 0.000000 0.002542 0.000000
# 2 -0.006476 0.011906 -0.002167 0.000000 -0.002070 0.000000
# 3 -0.000493 -0.002167 0.013281 0.000000 0.006549 0.000000
# 4 0.000000 0.000000 0.000000 0.026897 0.000000 -0.013140
# 5 0.002542 -0.002070 0.006549 0.000000 0.037377 0.000000
# 6 0.000000 0.000000 0.000000 -0.013140 0.000000 0.012865
#
#
# Mechanical properties :
#
#
# Convention : Reuss Voigt Hill
#
# Bulk Modulus (GPa) = 44.85683 50.57157 47.71420
# Shear Modulus (GPa) = 34.86528 65.42616 50.14572
#
# Velocity S-wave (km/s) = 4.05876 5.55997 4.86759
# Velocity P-wave (km/s) = 6.56957 8.06922 7.35770
#
# Compressibility (1/GPa) = 0.02229315
#
# Stress axis : x y z
#
# Youngs Moduli (GPa) = 65.02376 83.99307 75.29279
#
# Poissons Ratio (x) = 0.54393 0.03714
# Poissons Ratio (y) = 0.42109 0.16319
# Poissons Ratio (z) = 0.03207 0.18205
#
# Static dielectric constant tensor:
#      x y z
#    x 3.995110 0.000000 0.105410 
#    y 0.000000 3.667230 0.000000 
#    z 0.105410 0.000000 3.857120 
# 
# 
# High freq. dielectric constant tensor:
#      x y z
#    x 1.828260 0.000000 -0.005790 
#    y 0.000000 1.830630 0.000000 
#    z -0.005790 0.000000 1.824820 
# 
# From -- ./inp_files/2137.got.cif
#   From: 2010.06.25/outbox.cif.g09.slc.cpg/sg13_2_cif.got.tgz:2137.got - 2010.06.28 04:50:58.
