data_PCOD8118401
_publ_section_title
;
Structure prediction by ZEFSAII (Michael W. Deem and Ramdas Pophale) SiO2 
 PCOD8118401
Probable space group: P 2/C
;
_chemical_formula_sum "Si O2"
_cell_formula_units_Z 32
_cell_length_a 13.773023
_cell_length_b 19.749923
_cell_length_c 9.409769
_cell_angle_alpha 90.000000
_cell_angle_beta 140.765650
_cell_angle_gamma 90.000000
_cell_volume 1618.936831
_symmetry_space_group_name_H-M "P 2/C"
_symmetry_group_IT_number 13
_symmetry_cell_setting 'monoclinic'
loop_
_space_group_symop_operation_xyz
x,y,z
-x,y,1/2-z
-x,-y,-z
x,-y,1/2+z
loop_
_atom_site_type_symbol
_atom_site_label
_atom_site_fract_x
_atom_site_fract_y
_atom_site_fract_z
Si Si1 0.962340 0.829194 0.369715
Si Si2 0.141727 0.328382 0.316505
Si Si3 0.158857 0.181007 0.343264
Si Si4 0.655484 0.424373 0.507088
Si Si5 0.346578 0.553403 0.163564
Si Si6 0.166025 0.033360 0.709621
Si Si7 0.933891 0.676875 0.329976
Si Si8 0.669006 0.947823 0.381954
O O1 0.840668 0.885902 0.274546
O O2 0.894227 0.754359 0.327905
O O3 0.000000 0.837224 0.250000
O O4 0.119299 0.840064 0.636348
O O5 0.233264 0.256830 0.417788
O O6 0.233035 0.386339 0.499322
O O7 0.000000 0.308209 0.250000
O O8 0.071847 0.352144 0.085564
O O9 0.285861 0.131043 0.550339
O O10 0.000000 0.174362 0.250000
O O11 0.723105 0.483939 0.481943
O O12 0.622265 0.451465 0.630806
O O13 0.776817 0.364649 0.661048
O O14 0.500000 0.398882 0.250000
O O15 0.500000 0.568315 0.250000
O O16 0.298092 0.025671 0.739711
O O17 0.000000 0.000000 0.500000
O O18 0.218920 0.996479 0.908607
O O19 0.000000 0.672170 0.250000
O O20 0.500000 0.958876 0.250000
#
# Coordination Sequence:
#
# PCOD8118401 Si02
#       8
#     4   4   4   4   4   4   4   4
#     4  10  20  38  64  91 115 151 212 243 291 362
#     4  10  21  39  63  92 120 150 206 259 303 360
#     4  10  19  39  64  85 116 160 201 243 297 376
#     4  11  24  42  61  86 123 164 205 248 308 380
#     4  11  24  40  62  87 121 163 203 249 310 376
#     4  12  22  40  66  87 116 167 209 244 300 373
#     4  10  23  39  64  91 121 157 197 264 306 355
#     4  12  25  39  58  92 127 156 199 262 310 353
#
# _framework density 19.76606
#
# number of rings (size 3 to 8) (size 9 to 14) (size 15 to 20)
#    0.000    1.250    3.750    3.000    3.500    1.500 
#    0.000    0.625    0.000    0.000    0.000    0.000 
#    0.000    0.000    0.000    0.000    0.000    0.000 
#
# Total GULP energy -396454.765067 kJ/mol
# GULP energy per Si atom -12389.211408 kJ/mol
# Density = 1.972107 g / cm^3
# Si number density = 19.766060 Si / 1000 Ang^3
#
#
#
# Elastic Constant Matrix: (Units=GPa)
#
#
# Indices 1 2 3 4 5 6 
#
# 1 82.8401 17.7414 18.5983 0.0000 -13.6290 0.0000
# 2 17.7414 96.4591 28.0017 0.0000 7.0789 0.0000
# 3 18.5983 28.0017 75.2996 0.0000 -21.6134 0.0000
# 4 0.0000 0.0000 0.0000 28.8277 0.0000 -4.4605
# 5 -13.6290 7.0789 -21.6134 0.0000 37.6304 0.0000
# 6 0.0000 0.0000 0.0000 -4.4605 0.0000 22.3414
#
#
#
# Elastic Compliance Matrix: (Units=1/GPa)
#
#
# Indices 1 2 3 4 5 6 
#
# 1 0.013647 -0.002566 -0.001029 0.000000 0.004835 0.000000
# 2 -0.002566 0.013177 -0.006280 0.000000 -0.007015 0.000000
# 3 -0.001029 -0.006280 0.019280 0.000000 0.011883 0.000000
# 4 0.000000 0.000000 0.000000 0.035795 0.000000 0.007146
# 5 0.004835 -0.007015 0.011883 0.000000 0.036470 0.000000
# 6 0.000000 0.000000 0.000000 0.007146 0.000000 0.046187
#
#
# Mechanical properties :
#
#
# Convention : Reuss Voigt Hill
#
# Bulk Modulus (GPa) = 37.94349 42.58685 40.26517
# Shear Modulus (GPa) = 25.89456 30.44372 28.16914
#
# Velocity S-wave (km/s) = 3.62339 3.92880 3.77918
# Velocity P-wave (km/s) = 6.06162 6.49406 6.28156
#
# Compressibility (1/GPa) = 0.02635498
#
# Stress axis : x y z
#
# Youngs Moduli (GPa) = 73.27384 75.89011 51.86624
#
# Poissons Ratio (x) = 0.19476 0.05336
# Poissons Ratio (y) = 0.18804 0.32571
# Poissons Ratio (z) = 0.07538 0.47658
#
# Static dielectric constant tensor:
#      x y z
#    x 3.583560 0.000000 -0.365290 
#    y 0.000000 3.936240 0.000000 
#    z -0.365290 0.000000 3.649410 
# 
# 
# High freq. dielectric constant tensor:
#      x y z
#    x 1.761840 0.000000 -0.032670 
#    y 0.000000 1.783740 0.000000 
#    z -0.032670 0.000000 1.770110 
# 
# From -- ./inp_files/20183.got.cif
#   From: 2010.06.25/outbox.cif.g09.slc.cpg/sg13_11_cif.got.tgz:20183.got - 2010.06.28 04:50:58.
