data_PCOD8118586
_publ_section_title
;
Structure prediction by ZEFSAII (Michael W. Deem and Ramdas Pophale) SiO2 
 PCOD8118586
Probable space group: P 2/C
;
_chemical_formula_sum "Si O2"
_cell_formula_units_Z 32
_cell_length_a 14.481532
_cell_length_b 13.308299
_cell_length_c 10.000722
_cell_angle_alpha 90.000000
_cell_angle_beta 100.952279
_cell_angle_gamma 90.000000
_cell_volume 1892.278888
_symmetry_space_group_name_H-M "P 2/C"
_symmetry_group_IT_number 13
_symmetry_cell_setting 'monoclinic'
loop_
_space_group_symop_operation_xyz
x,y,z
-x,y,1/2-z
-x,-y,-z
x,-y,1/2+z
loop_
_atom_site_type_symbol
_atom_site_label
_atom_site_fract_x
_atom_site_fract_y
_atom_site_fract_z
Si Si1 0.750213 0.100746 0.471915
Si Si2 0.613506 0.727244 0.004520
Si Si3 0.608604 0.265757 0.062646
Si Si4 0.936484 0.884064 0.617295
Si Si5 0.388379 0.352771 0.716491
Si Si6 0.954784 0.122542 0.604279
Si Si7 0.389140 0.576089 0.716485
Si Si8 0.260535 0.913379 0.841141
O O1 0.666638 0.179970 0.453650
O O2 0.847808 0.155889 0.541598
O O3 0.757872 0.059493 0.320817
O O4 0.722079 0.013774 0.568556
O O5 0.502994 0.748786 0.960956
O O6 0.641018 0.626906 0.931151
O O7 0.645999 0.711554 0.166052
O O8 0.644115 0.354828 0.169283
O O9 0.651063 0.159745 0.119758
O O10 0.644346 0.294322 0.924659
O O11 0.829148 0.856167 0.619816
O O12 0.000000 0.836022 0.750000
O O13 0.972426 0.838978 0.487895
O O14 0.949851 0.003228 0.615638
O O15 0.500000 0.362571 0.750000
O O16 0.343732 0.464905 0.710625
O O17 0.000000 0.170434 0.750000
O O18 0.500000 0.564196 0.750000
#
# Coordination Sequence:
#
# PCOD8118586 Si02
#       8
#     4   4   4   4   4   4   4   4
#     4  11  23  35  49  72 101 138 172 201 241 289
#     4  10  20  34  51  71 106 137 165 207 242 289
#     4  10  20  34  50  73 103 137 170 202 241 292
#     4   9  16  30  48  68  92 121 159 206 254 284
#     4   9  18  31  51  76  97 125 166 212 260 296
#     4   9  18  30  50  72  94 122 160 206 257 293
#     4   9  16  31  53  73  96 128 164 209 260 294
#     4  11  23  34  50  71 101 138 174 203 236 292
#
# _framework density 16.910827999999999
#
# number of rings (size 3 to 8) (size 9 to 14) (size 15 to 20)
#    0.000    2.250    2.500    0.750    7.000    3.500 
#    0.000    0.000    0.000    0.000    0.000    0.000 
#    0.000   20.000    0.000    0.000    0.000    0.000 
#
# Total GULP energy -396648.862889 kJ/mol
# GULP energy per Si atom -12395.276965 kJ/mol
# Density = 1.687234 g / cm^3
# Si number density = 16.910828 Si / 1000 Ang^3
#
#
#
# Elastic Constant Matrix: (Units=GPa)
#
#
# Indices 1 2 3 4 5 6 
#
# 1 58.2117 25.3975 32.0155 0.0000 -3.1406 0.0000
# 2 25.3975 48.8731 20.7791 0.0000 -0.5426 0.0000
# 3 32.0155 20.7791 133.8908 0.0000 -7.3477 0.0000
# 4 0.0000 0.0000 0.0000 12.9332 0.0000 -0.4497
# 5 -3.1406 -0.5426 -7.3477 0.0000 23.2156 0.0000
# 6 0.0000 0.0000 0.0000 -0.4497 0.0000 1.2303
#
#
#
# Elastic Compliance Matrix: (Units=1/GPa)
#
#
# Indices 1 2 3 4 5 6 
#
# 1 0.024216 -0.010860 -0.004009 0.000000 0.001753 0.000000
# 2 -0.010860 0.026785 -0.001635 0.000000 -0.001360 0.000000
# 3 -0.004009 -0.001635 0.008802 0.000000 0.002205 0.000000
# 4 0.000000 0.000000 0.000000 0.078316 0.000000 0.028628
# 5 0.001753 -0.001360 0.002205 0.000000 0.043978 0.000000
# 6 0.000000 0.000000 0.000000 0.028628 0.000000 0.823296
#
#
# Mechanical properties :
#
#
# Convention : Reuss Voigt Hill
#
# Bulk Modulus (GPa) = 37.31973 44.15107 40.73540
# Shear Modulus (GPa) = 4.77403 18.32807 11.55105
#
# Velocity S-wave (km/s) = 1.68202 3.29569 2.61637
# Velocity P-wave (km/s) = 5.08809 6.37550 5.76783
#
# Compressibility (1/GPa) = 0.02679547
#
# Stress axis : x y z
#
# Youngs Moduli (GPa) = 41.29426 37.33468 113.60985
#
# Poissons Ratio (x) = 0.40547 0.45544
# Poissons Ratio (y) = 0.44847 0.18570
# Poissons Ratio (z) = 0.16554 0.06103
#
# Static dielectric constant tensor:
#      x y z
#    x 3.010270 0.000000 -0.053200 
#    y 0.000000 2.861430 0.000000 
#    z -0.053200 0.000000 3.564650 
# 
# 
# High freq. dielectric constant tensor:
#      x y z
#    x 1.623690 0.000000 -0.006950 
#    y 0.000000 1.610560 0.000000 
#    z -0.006950 0.000000 1.679430 
# 
# From -- ./inp_files/16780.got.cif
#   From: 2010.06.25/outbox.cif.g09.slc.cpg/sg13_9_cif.got.tgz:16780.got - 2010.06.28 04:50:58.
