data_PCOD8118574
_publ_section_title
;
Structure prediction by ZEFSAII (Michael W. Deem and Ramdas Pophale) SiO2 
 PCOD8118574
Probable space group: P 2/C
;
_chemical_formula_sum "Si O2"
_cell_formula_units_Z 32
_cell_length_a 20.273217
_cell_length_b 8.716244
_cell_length_c 28.076505
_cell_angle_alpha 90.000000
_cell_angle_beta 20.669646
_cell_angle_gamma 90.000000
_cell_volume 1751.234197
_symmetry_space_group_name_H-M "P 2/C"
_symmetry_group_IT_number 13
_symmetry_cell_setting 'monoclinic'
loop_
_space_group_symop_operation_xyz
x,y,z
-x,y,1/2-z
-x,-y,-z
x,-y,1/2+z
loop_
_atom_site_type_symbol
_atom_site_label
_atom_site_fract_x
_atom_site_fract_y
_atom_site_fract_z
Si Si1 0.480655 0.931927 0.565603
Si Si2 0.811768 0.287389 0.856647
Si Si3 0.690679 0.460078 0.102809
Si Si4 0.235700 0.673127 0.765903
Si Si5 0.429262 0.503203 0.419761
Si Si6 0.889285 0.358204 0.549629
Si Si7 0.653628 0.218567 0.791795
Si Si8 0.911706 0.626101 0.185651
O O1 0.676425 0.856712 0.446216
O O2 0.322581 0.800364 0.672513
O O3 0.500000 0.000000 0.500000
O O4 0.432324 0.050734 0.640950
O O5 0.855141 0.368955 0.778099
O O6 0.000000 0.215698 0.750000
O O7 0.739195 0.424230 0.938835
O O8 0.500000 0.374571 0.250000
O O9 0.634770 0.539434 0.090624
O O10 0.749409 0.585250 0.102664
O O11 0.866160 0.347247 0.974245
O O12 0.386646 0.606416 0.701877
O O13 0.154043 0.537837 0.788816
O O14 0.058225 0.744648 0.913961
O O15 0.480759 0.662964 0.410779
O O16 0.767819 0.248740 0.665815
O O17 0.000000 0.500000 0.500000
O O18 0.800407 0.238599 0.735238
#
# Coordination Sequence:
#
# PCOD8118574 Si02
#       8
#     4   4   4   4   4   4   4   4
#     4  11  24  39  58  82 122 164 199 235 293 355
#     4  11  22  39  58  86 119 152 199 251 296 347
#     4  11  18  31  57  93 115 142 181 253 306 341
#     4   9  21  36  57  90 111 150 198 244 290 345
#     4  10  20  33  59  87 113 144 197 248 296 339
#     4  11  18  35  60  88 117 144 194 252 290 344
#     4  11  21  37  58  87 115 160 197 236 297 352
#     4  10  20  35  61  86 115 148 199 249 290 344
#
# _framework density 18.272826999999999
#
# number of rings (size 3 to 8) (size 9 to 14) (size 15 to 20)
#    0.000    1.500    7.500    0.000    1.750    2.000 
#    0.000    3.125    0.000    0.000    6.500    0.000 
#    0.000    0.000    0.000    0.000    0.000    0.000 
#
# Total GULP energy -396505.683501 kJ/mol
# GULP energy per Si atom -12390.802609 kJ/mol
# Density = 1.823124 g / cm^3
# Si number density = 18.272827 Si / 1000 Ang^3
#
#
#
# Elastic Constant Matrix: (Units=GPa)
#
#
# Indices 1 2 3 4 5 6 
#
# 1 119.8328 26.4697 57.2918 0.0000 3.4496 0.0000
# 2 26.4697 70.0246 54.4746 0.0000 1.4797 0.0000
# 3 57.2918 54.4746 157.6049 0.0000 0.8489 0.0000
# 4 0.0000 0.0000 0.0000 24.2800 0.0000 8.0503
# 5 3.4496 1.4797 0.8489 0.0000 31.6938 0.0000
# 6 0.0000 0.0000 0.0000 8.0503 0.0000 20.2201
#
#
#
# Elastic Compliance Matrix: (Units=1/GPa)
#
#
# Indices 1 2 3 4 5 6 
#
# 1 0.010219 -0.001309 -0.003257 0.000000 -0.000964 0.000000
# 2 -0.001309 0.019717 -0.006336 0.000000 -0.000608 0.000000
# 3 -0.003257 -0.006336 0.009717 0.000000 0.000390 0.000000
# 4 0.000000 0.000000 0.000000 0.047450 0.000000 -0.018891
# 5 -0.000964 -0.000608 0.000390 0.000000 0.031675 0.000000
# 6 0.000000 0.000000 0.000000 -0.018891 0.000000 0.056977
#
#
# Mechanical properties :
#
#
# Convention : Reuss Voigt Hill
#
# Bulk Modulus (GPa) = 56.02437 69.32605 62.67521
# Shear Modulus (GPa) = 24.56899 29.18720 26.87809
#
# Velocity S-wave (km/s) = 3.67081 4.00096 3.83943
# Velocity P-wave (km/s) = 6.97803 7.70489 7.35045
#
# Compressibility (1/GPa) = 0.01784937
#
# Stress axis : x y z
#
# Youngs Moduli (GPa) = 97.85638 50.71696 102.91261
#
# Poissons Ratio (x) = 0.06636 0.33522
# Poissons Ratio (y) = 0.12805 0.65207
# Poissons Ratio (z) = 0.31875 0.32135
#
# Static dielectric constant tensor:
#      x y z
#    x 3.514520 0.000000 0.014010 
#    y 0.000000 3.029360 0.000000 
#    z 0.014010 0.000000 3.949260 
# 
# 
# High freq. dielectric constant tensor:
#      x y z
#    x 1.716810 0.000000 0.003380 
#    y 0.000000 1.657430 0.000000 
#    z 0.003380 0.000000 1.737430 
# 
# From -- ./inp_files/71160.got.cif
#   From: 2010.06.25/outbox.cif.g09.slc.cpg/sg13_36_cif.got.tgz:71160.got - 2010.06.28 04:50:58.
