data_PCOD8118704
_publ_section_title
;
Structure prediction by ZEFSAII (Michael W. Deem and Ramdas Pophale) SiO2 
 PCOD8118704
Probable space group: P 2/C
;
_chemical_formula_sum "Si O2"
_cell_formula_units_Z 32
_cell_length_a 9.759325
_cell_length_b 11.138950
_cell_length_c 33.190515
_cell_angle_alpha 90.000000
_cell_angle_beta 28.100968
_cell_angle_gamma 90.000000
_cell_volume 1699.509631
_symmetry_space_group_name_H-M "P 2/C"
_symmetry_group_IT_number 13
_symmetry_cell_setting 'monoclinic'
loop_
_space_group_symop_operation_xyz
x,y,z
-x,y,1/2-z
-x,-y,-z
x,-y,1/2+z
loop_
_atom_site_type_symbol
_atom_site_label
_atom_site_fract_x
_atom_site_fract_y
_atom_site_fract_z
Si Si1 0.255370 0.958921 0.614330
Si Si2 0.810896 0.848191 0.429043
Si Si3 0.889399 0.424837 0.566864
Si Si4 0.790586 0.575163 0.433136
Si Si5 0.558649 0.041079 0.114330
Si Si6 0.885151 0.848191 0.070957
Si Si7 0.160614 0.230638 0.250000
Si Si8 0.342880 0.536519 0.750000
O O1 0.551309 0.918956 0.517173
O O2 0.311206 0.995201 0.646265
O O3 0.042166 0.845463 0.667496
O O4 0.108959 0.075194 0.631370
O O5 0.716527 0.713406 0.442438
O O6 0.087398 0.844100 0.387534
O O7 0.871151 0.286594 0.557563
O O8 0.565954 0.460370 0.664963
O O9 0.000000 0.500000 0.500000
O O10 0.120833 0.441929 0.543056
O O11 0.500000 0.500000 0.500000
O O12 0.055734 0.539631 0.335037
O O13 0.452860 0.154537 0.167496
O O14 0.602824 0.924806 0.131369
O O15 0.845654 0.081045 0.017173
O O16 0.244867 0.350986 0.250000
O O17 0.000000 0.263268 0.250000
O O18 0.500000 0.580007 0.750000
#
# Coordination Sequence:
#
# PCOD8118704 Si02
#       8
#     4   4   4   4   4   4   4   4
#     4   9  18  32  51  75 101 130 166 210 256 306
#     4   9  18  33  52  74 101 133 169 208 256 311
#     4  10  21  37  56  79 109 145 182 222 269 320
#     4  10  21  37  56  79 109 145 182 222 269 320
#     4   9  18  32  51  75 101 130 166 210 256 306
#     4   9  18  33  52  74 101 133 169 208 256 311
#     4  10  20  35  54  76 104 135 171 216 265 316
#     4  10  22  37  54  80 110 139 179 226 267 318
#
# _framework density 18.828961
#
# number of rings (size 3 to 8) (size 9 to 14) (size 15 to 20)
#    0.000    2.500    0.000    1.500    0.000    6.000 
#    0.000    6.250    0.000    0.000    0.000    0.000 
#    0.000    0.000    0.000    0.000    0.000    0.000 
#
# Total GULP energy -396705.583360 kJ/mol
# GULP energy per Si atom -12397.049480 kJ/mol
# Density = 1.878611 g / cm^3
# Si number density = 18.828961 Si / 1000 Ang^3
#
#
#
# Elastic Constant Matrix: (Units=GPa)
#
#
# Indices 1 2 3 4 5 6 
#
# 1 85.0864 76.0312 32.3925 0.0000 0.1742 0.0000
# 2 76.0312 144.7184 18.2499 0.0000 2.0044 0.0000
# 3 32.3925 18.2499 60.7247 0.0000 0.6710 0.0000
# 4 0.0000 0.0000 0.0000 15.4766 0.0000 0.8704
# 5 0.1742 2.0044 0.6710 0.0000 23.8196 0.0000
# 6 0.0000 0.0000 0.0000 0.8704 0.0000 40.5698
#
#
#
# Elastic Compliance Matrix: (Units=1/GPa)
#
#
# Indices 1 2 3 4 5 6 
#
# 1 0.027628 -0.013171 -0.010793 0.000000 0.001210 0.000000
# 2 -0.013171 0.013468 0.002991 0.000000 -0.001121 0.000000
# 3 -0.010793 0.002991 0.021335 0.000000 -0.000774 0.000000
# 4 0.000000 0.000000 0.000000 0.064692 0.000000 -0.001388
# 5 0.001210 -0.001121 -0.000774 0.000000 0.042090 0.000000
# 6 0.000000 0.000000 0.000000 -0.001388 0.000000 0.024679
#
#
# Mechanical properties :
#
#
# Convention : Reuss Voigt Hill
#
# Bulk Modulus (GPa) = 48.81694 60.43075 54.62384
# Shear Modulus (GPa) = 20.60446 26.89692 23.75069
#
# Velocity S-wave (km/s) = 3.31160 3.78363 3.55546
# Velocity P-wave (km/s) = 6.37221 7.15906 6.77706
#
# Compressibility (1/GPa) = 0.02048469
#
# Stress axis : x y z
#
# Youngs Moduli (GPa) = 36.19462 74.24990 46.87166
#
# Poissons Ratio (x) = 0.97794 0.50588
# Poissons Ratio (y) = 0.47672 -0.14017
# Poissons Ratio (z) = 0.39065 -0.22205
#
# Static dielectric constant tensor:
#      x y z
#    x 3.794380 0.000000 0.012240 
#    y 0.000000 3.472500 0.000000 
#    z 0.012240 0.000000 3.441690 
# 
# 
# High freq. dielectric constant tensor:
#      x y z
#    x 1.728840 0.000000 0.000050 
#    y 0.000000 1.735820 0.000000 
#    z 0.000050 0.000000 1.727300 
# 
# From -- ./inp_files/96119.got.cif
#   From: 2010.06.25/outbox.cif.g09.slc.cpg/sg13_49_cif.got.tgz:96119.got - 2010.06.28 04:50:58.
