data_PCOD8118055
_publ_section_title
;
Structure prediction by ZEFSAII (Michael W. Deem and Ramdas Pophale) SiO2 
 PCOD8118055
Probable space group: P 2/C
;
_chemical_formula_sum "Si O2"
_cell_formula_units_Z 28
_cell_length_a 11.008248
_cell_length_b 8.815084
_cell_length_c 15.608743
_cell_angle_alpha 90.000000
_cell_angle_beta 62.346282
_cell_angle_gamma 90.000000
_cell_volume 1341.630679
_symmetry_space_group_name_H-M "P 2/C"
_symmetry_group_IT_number 13
_symmetry_cell_setting 'monoclinic'
loop_
_space_group_symop_operation_xyz
x,y,z
-x,y,1/2-z
-x,-y,-z
x,-y,1/2+z
loop_
_atom_site_type_symbol
_atom_site_label
_atom_site_fract_x
_atom_site_fract_y
_atom_site_fract_z
Si Si1 0.476270 0.638942 0.119304
Si Si2 0.989775 0.688680 0.393281
Si Si3 0.502589 0.285922 0.424114
Si Si4 0.000000 0.436210 0.250000
Si Si5 0.000000 0.062723 0.750000
Si Si6 0.788635 0.814841 0.772633
Si Si7 0.749714 0.289508 0.105788
Si Si8 0.288348 0.373864 0.833874
O O1 0.468256 0.460989 0.103518
O O2 0.620436 0.684477 0.116569
O O3 0.350760 0.681887 0.222842
O O4 0.462065 0.734998 0.037062
O O5 0.972948 0.537929 0.342218
O O6 0.969427 0.837145 0.343149
O O7 0.879387 0.682229 0.503773
O O8 0.136921 0.693608 0.391729
O O9 0.635153 0.185253 0.359818
O O10 0.377145 0.225091 0.407619
O O11 0.865479 0.336088 0.279789
O O12 0.135310 0.962628 0.717703
O O13 0.786475 0.826750 0.669742
O O14 0.707604 0.444215 0.166863
#
# Coordination Sequence:
#
# PCOD8118055 Si02
#       8
#     4   4   4   2   2   4   4   4
#     4   9  19  32  58  99 127 153 194 257 326 368
#     4  11  23  40  62  91 127 163 207 269 324 368
#     4  10  20  34  60  90 129 159 197 260 315 370
#     4  10  22  34  64  90 120 160 212 264 320 374
#     4  10  28  44  62  82 130 176 220 260 320 370
#     4  11  22  42  60  91 125 169 216 260 307 379
#     4  11  22  34  65  98 122 161 213 258 320 379
#     4  10  19  35  60  96 130 152 201 263 318 376
#
# _framework density 20.870124000000001
#
# number of rings (size 3 to 8) (size 9 to 14) (size 15 to 20)
#    0.000    1.714    2.857    0.857   10.000    1.714 
#    0.000    0.714    6.286    0.000    0.000    0.000 
#    0.000    0.000    0.000    0.000    0.000    0.000 
#
# Total GULP energy -347297.764706 kJ/mol
# GULP energy per Si atom -12403.491597 kJ/mol
# Density = 2.082262 g / cm^3
# Si number density = 20.870124 Si / 1000 Ang^3
#
#
#
# Elastic Constant Matrix: (Units=GPa)
#
#
# Indices 1 2 3 4 5 6 
#
# 1 164.6447 35.2771 58.0182 0.0000 -3.3531 0.0000
# 2 35.2771 62.2686 22.6284 0.0000 5.4363 0.0000
# 3 58.0182 22.6284 117.9214 0.0000 -0.5372 0.0000
# 4 0.0000 0.0000 0.0000 7.6902 0.0000 -3.4278
# 5 -3.3531 5.4363 -0.5372 0.0000 37.8108 0.0000
# 6 0.0000 0.0000 0.0000 -3.4278 0.0000 16.6647
#
#
#
# Elastic Compliance Matrix: (Units=1/GPa)
#
#
# Indices 1 2 3 4 5 6 
#
# 1 0.007984 -0.003438 -0.003263 0.000000 0.001156 0.000000
# 2 -0.003438 0.018989 -0.001966 0.000000 -0.003063 0.000000
# 3 -0.003263 -0.001966 0.010464 0.000000 0.000142 0.000000
# 4 0.000000 0.000000 0.000000 0.143162 0.000000 0.029448
# 5 0.001156 -0.003063 0.000142 0.000000 0.026992 0.000000
# 6 0.000000 0.000000 0.000000 0.029448 0.000000 0.066064
#
#
# Mechanical properties :
#
#
# Convention : Reuss Voigt Hill
#
# Bulk Modulus (GPa) = 49.74708 64.07576 56.91142
# Shear Modulus (GPa) = 16.79598 27.69388 22.24493
#
# Velocity S-wave (km/s) = 2.83995 3.64670 3.26832
# Velocity P-wave (km/s) = 5.88575 6.96420 6.44756
#
# Compressibility (1/GPa) = 0.02010168
#
# Stress axis : x y z
#
# Youngs Moduli (GPa) = 125.25473 52.66134 95.56921
#
# Poissons Ratio (x) = 0.18106 0.31184
# Poissons Ratio (y) = 0.43065 0.18792
# Poissons Ratio (z) = 0.40871 0.10355
#
# Static dielectric constant tensor:
#      x y z
#    x 4.109550 0.000000 0.211630 
#    y 0.000000 3.349110 0.000000 
#    z 0.211630 0.000000 3.789510 
# 
# 
# High freq. dielectric constant tensor:
#      x y z
#    x 1.840600 0.000000 0.006190 
#    y 0.000000 1.768530 0.000000 
#    z 0.006190 0.000000 1.824110 
# 
# From -- ./inp_files/50272.got.cif
#   From: 2010.06.25/outbox.cif.g09.slc.cpg/sg13_26_cif.got.tgz:50272.got - 2010.06.28 04:50:58.
