data_PCOD8118015
_publ_section_title
;
Structure prediction by ZEFSAII (Michael W. Deem and Ramdas Pophale) SiO2 
 PCOD8118015
Probable space group: P 2/C
;
_chemical_formula_sum "Si O2"
_cell_formula_units_Z 28
_cell_length_a 19.733090
_cell_length_b 15.851128
_cell_length_c 22.397613
_cell_angle_alpha 90.000000
_cell_angle_beta 11.557152
_cell_angle_gamma 90.000000
_cell_volume 1403.576752
_symmetry_space_group_name_H-M "P 2/C"
_symmetry_group_IT_number 13
_symmetry_cell_setting 'monoclinic'
loop_
_space_group_symop_operation_xyz
x,y,z
-x,y,1/2-z
-x,-y,-z
x,-y,1/2+z
loop_
_atom_site_type_symbol
_atom_site_label
_atom_site_fract_x
_atom_site_fract_y
_atom_site_fract_z
Si Si1 0.274738 0.230262 0.388706
Si Si2 0.607530 0.019795 0.841183
Si Si3 0.284316 0.700839 0.378010
Si Si4 0.623593 0.208193 0.474625
Si Si5 0.039712 0.591251 0.935902
Si Si6 0.307220 0.677999 0.160601
Si Si7 0.224916 0.125684 0.612235
O O1 0.500000 0.258295 0.250000
O O2 0.037028 0.310020 0.579667
O O3 0.025072 0.152398 0.618806
O O4 0.513287 0.202970 0.127606
O O5 0.490330 0.111662 0.920639
O O6 0.425207 0.957748 0.953219
O O7 0.000000 0.000000 0.500000
O O8 0.500000 0.000000 0.000000
O O9 0.500000 0.672716 0.250000
O O10 0.509360 0.741755 0.132061
O O11 0.095064 0.615021 0.515118
O O12 0.023344 0.773588 0.624615
O O13 0.482895 0.235082 0.529959
O O14 0.438135 0.616240 0.594823
O O15 0.000000 0.500000 0.000000
O O16 0.797591 0.646102 0.184676
O O17 0.000000 0.104046 0.750000
#
# Coordination Sequence:
#
# PCOD8118015 Si02
#       7
#     4   4   4   4   4   4   4
#     4  10  20  36  57  79 107 145 185 225 273 331
#     4  12  23  36  55  80 111 147 193 243 286 330
#     4  10  21  38  59  82 112 150 190 231 281 343
#     4  10  21  35  55  83 109 148 193 234 279 329
#     4  10  21  37  59  86 112 143 178 221 280 336
#     4  10  19  35  58  80 110 142 180 224 269 331
#     4  10  21  35  52  76 109 147 183 228 285 330
#
# _framework density 19.949034999999999
#
# number of rings (size 3 to 8) (size 9 to 14) (size 15 to 20)
#    0.000    1.714    0.000    5.143    0.000    3.429 
#    0.000    2.143    0.000    3.429    0.000    0.000 
#    0.000    0.000    0.000    0.000    0.000    0.000 
#
# Total GULP energy -346883.255513 kJ/mol
# GULP energy per Si atom -12388.687697 kJ/mol
# Density = 1.990363 g / cm^3
# Si number density = 19.949035 Si / 1000 Ang^3
#
#
#
# Elastic Constant Matrix: (Units=GPa)
#
#
# Indices 1 2 3 4 5 6 
#
# 1 90.8780 45.1694 51.3967 0.0000 -12.0005 0.0000
# 2 45.1694 93.9829 37.5774 0.0000 -21.4283 0.0000
# 3 51.3967 37.5774 141.0900 0.0000 -6.1717 0.0000
# 4 0.0000 0.0000 0.0000 35.7406 0.0000 -3.2851
# 5 -12.0005 -21.4283 -6.1717 0.0000 41.1994 0.0000
# 6 0.0000 0.0000 0.0000 -3.2851 0.0000 16.1544
#
#
#
# Elastic Compliance Matrix: (Units=1/GPa)
#
#
# Indices 1 2 3 4 5 6 
#
# 1 0.016610 -0.005975 -0.004413 0.000000 0.001070 0.000000
# 2 -0.005975 0.015588 -0.001708 0.000000 0.006111 0.000000
# 3 -0.004413 -0.001708 0.009115 0.000000 -0.000808 0.000000
# 4 0.000000 0.000000 0.000000 0.028512 0.000000 0.005798
# 5 0.001070 0.006111 -0.000808 0.000000 0.027641 0.000000
# 6 0.000000 0.000000 0.000000 0.005798 0.000000 0.063082
#
#
# Mechanical properties :
#
#
# Convention : Reuss Voigt Hill
#
# Bulk Modulus (GPa) = 58.40370 66.02644 62.21507
# Shear Modulus (GPa) = 26.25402 31.40602 28.83002
#
# Velocity S-wave (km/s) = 3.63168 3.97207 3.80568
# Velocity P-wave (km/s) = 6.85022 7.36246 7.11095
#
# Compressibility (1/GPa) = 0.01712220
#
# Stress axis : x y z
#
# Youngs Moduli (GPa) = 60.20322 64.15148 109.71338
#
# Poissons Ratio (x) = 0.38330 0.48414
# Poissons Ratio (y) = 0.35971 0.18737
# Poissons Ratio (z) = 0.26566 0.10956
#
# Static dielectric constant tensor:
#      x y z
#    x 3.795490 0.000000 0.121180 
#    y 0.000000 3.528430 0.000000 
#    z 0.121180 0.000000 4.144860 
# 
# 
# High freq. dielectric constant tensor:
#      x y z
#    x 1.782520 0.000000 0.007500 
#    y 0.000000 1.747570 0.000000 
#    z 0.007500 0.000000 1.803540 
# 
# From -- ./inp_files/88599.got.cif
#   From: 2010.06.25/outbox.cif.g09.slc.cpg/sg13_45_cif.got.tgz:88599.got - 2010.06.28 04:50:58.
