data_PCOD8118010
_publ_section_title
;
Structure prediction by ZEFSAII (Michael W. Deem and Ramdas Pophale) SiO2 
 PCOD8118010
Probable space group: P 2/C
;
_chemical_formula_sum "Si O2"
_cell_formula_units_Z 32
_cell_length_a 13.807820
_cell_length_b 4.946832
_cell_length_c 23.801961
_cell_angle_alpha 90.000000
_cell_angle_beta 111.585040
_cell_angle_gamma 90.000000
_cell_volume 1511.779512
_symmetry_space_group_name_H-M "P 2/C"
_symmetry_group_IT_number 13
_symmetry_cell_setting 'monoclinic'
loop_
_space_group_symop_operation_xyz
x,y,z
-x,y,1/2-z
-x,-y,-z
x,-y,1/2+z
loop_
_atom_site_type_symbol
_atom_site_label
_atom_site_fract_x
_atom_site_fract_y
_atom_site_fract_z
Si Si1 0.782155 0.854514 0.784885
Si Si2 0.069746 0.188024 0.477203
Si Si3 0.157335 0.372752 0.866268
Si Si4 0.979633 0.147110 0.155315
Si Si5 0.699037 0.351214 0.705833
Si Si6 0.527379 0.769134 0.318201
Si Si7 0.803575 0.682335 0.999924
Si Si8 0.662778 0.736605 0.868317
O O1 0.718017 0.654929 0.730950
O O2 0.757417 0.804773 0.845559
O O3 0.904283 0.834897 0.795335
O O4 0.744601 0.156263 0.763491
O O5 0.008888 0.235935 0.406712
O O6 0.105397 0.484776 0.507648
O O7 0.171979 0.000739 0.491063
O O8 0.000000 0.000000 0.500000
O O9 0.099758 0.643994 0.832087
O O10 0.246843 0.292824 0.842116
O O11 0.065933 0.151688 0.848560
O O12 0.211908 0.419868 0.939020
O O13 0.576799 0.301948 0.669627
O O14 0.500000 0.871841 0.250000
O O15 0.598159 0.505369 0.327521
O O16 0.588712 0.006673 0.362630
O O17 0.704168 0.648625 0.938567
#
# Coordination Sequence:
#
# PCOD8118010 Si02
#       8
#     4   4   4   4   4   4   4   4
#     4  12  23  37  61  94 118 154 204 245 301 355
#     4  10  19  35  57  85 123 162 202 239 296 354
#     4  10  23  43  58  85 125 164 202 236 293 361
#     4  10  22  37  59  87 124 163 197 244 289 353
#     4  12  25  40  63  85 119 163 200 250 301 361
#     4  12  23  43  63  90 122 153 196 252 322 359
#     4  10  22  38  60  86 120 161 196 249 300 352
#     4  12  23  40  65  93 122 148 200 259 305 362
#
# _framework density 21.167107000000001
#
# number of rings (size 3 to 8) (size 9 to 14) (size 15 to 20)
#    0.000    1.000    2.500    4.500    0.000    6.000 
#    0.000    1.250    0.000    0.000    0.000    0.000 
#    0.000    0.000    0.000    0.000    0.000    0.000 
#
# Total GULP energy -396817.612873 kJ/mol
# GULP energy per Si atom -12400.550402 kJ/mol
# Density = 2.111893 g / cm^3
# Si number density = 21.167107 Si / 1000 Ang^3
#
#
#
# Elastic Constant Matrix: (Units=GPa)
#
#
# Indices 1 2 3 4 5 6 
#
# 1 103.0082 18.0699 44.4481 0.0000 5.8724 0.0000
# 2 18.0699 99.5088 19.3813 0.0000 4.8309 0.0000
# 3 44.4481 19.3813 82.0682 0.0000 3.7591 0.0000
# 4 0.0000 0.0000 0.0000 23.7393 0.0000 7.6124
# 5 5.8724 4.8309 3.7591 0.0000 21.2809 0.0000
# 6 0.0000 0.0000 0.0000 7.6124 0.0000 31.0349
#
#
#
# Elastic Compliance Matrix: (Units=1/GPa)
#
#
# Indices 1 2 3 4 5 6 
#
# 1 0.012864 -0.000936 -0.006647 0.000000 -0.002163 0.000000
# 2 -0.000936 0.010684 -0.001933 0.000000 -0.001826 0.000000
# 3 -0.006647 -0.001933 0.016269 0.000000 -0.000601 0.000000
# 4 0.000000 0.000000 0.000000 0.045720 0.000000 -0.011214
# 5 -0.002163 -0.001826 -0.000601 0.000000 0.048108 0.000000
# 6 0.000000 0.000000 0.000000 -0.011214 0.000000 0.034972
#
#
# Mechanical properties :
#
#
# Convention : Reuss Voigt Hill
#
# Bulk Modulus (GPa) = 48.11006 49.82043 48.96524
# Shear Modulus (GPa) = 25.69675 28.72342 27.21008
#
# Velocity S-wave (km/s) = 3.48802 3.68772 3.58926
# Velocity P-wave (km/s) = 6.24498 6.45912 6.35295
#
# Compressibility (1/GPa) = 0.02078568
#
# Stress axis : x y z
#
# Youngs Moduli (GPa) = 77.73887 93.59420 61.46758
#
# Poissons Ratio (x) = 0.08763 0.40856
# Poissons Ratio (y) = 0.07279 0.11879
# Poissons Ratio (z) = 0.51671 0.18087
#
# Static dielectric constant tensor:
#      x y z
#    x 3.765150 0.000000 0.019200 
#    y 0.000000 7.003110 0.000000 
#    z 0.019200 0.000000 3.665040 
# 
# 
# High freq. dielectric constant tensor:
#      x y z
#    x 1.814900 0.000000 0.001580 
#    y 0.000000 1.851210 0.000000 
#    z 0.001580 0.000000 1.815810 
# 
# From -- ./inp_files/85865.got.cif
#   From: 2010.06.25/outbox.cif.g09.slc.cpg/sg13_43_cif.got.tgz:85865.got - 2010.06.28 04:50:58.
