data_PCOD8118829
_publ_section_title
;
Structure prediction by ZEFSAII (Michael W. Deem and Ramdas Pophale) SiO2 
 PCOD8118829
Probable space group: P 2/C
;
_chemical_formula_sum "Si O2"
_cell_formula_units_Z 32
_cell_length_a 11.820698
_cell_length_b 9.405999
_cell_length_c 13.043310
_cell_angle_alpha 90.000000
_cell_angle_beta 93.315603
_cell_angle_gamma 90.000000
_cell_volume 1447.799070
_symmetry_space_group_name_H-M "P 2/C"
_symmetry_group_IT_number 13
_symmetry_cell_setting 'monoclinic'
loop_
_space_group_symop_operation_xyz
x,y,z
-x,y,1/2-z
-x,-y,-z
x,-y,1/2+z
loop_
_atom_site_type_symbol
_atom_site_label
_atom_site_fract_x
_atom_site_fract_y
_atom_site_fract_z
Si Si1 0.048432 0.946866 0.643012
Si Si2 0.244628 0.759522 0.705287
Si Si3 0.683158 0.548428 0.285368
Si Si4 0.406312 0.982225 0.654912
Si Si5 0.215228 0.186964 0.637823
Si Si6 0.465405 0.401496 0.904012
Si Si7 0.190674 0.882315 0.914747
Si Si8 0.383962 0.917362 0.421004
O O1 0.152709 0.837008 0.625049
O O2 0.000000 0.904789 0.750000
O O3 0.939605 0.926805 0.563292
O O4 0.096278 0.106853 0.649242
O O5 0.259939 0.596763 0.673325
O O6 0.368754 0.827346 0.692329
O O7 0.204926 0.774489 0.820865
O O8 0.784758 0.663036 0.302371
O O9 0.633685 0.524274 0.168559
O O10 0.581645 0.614501 0.347667
O O11 0.406948 0.991543 0.530834
O O12 0.318872 0.098953 0.693719
O O13 0.542396 0.017282 0.674148
O O14 0.236208 0.201828 0.516417
O O15 0.411351 0.249710 0.932843
O O16 0.500000 0.500000 0.000000
O O17 0.254876 0.032144 0.891489
#
# Coordination Sequence:
#
# PCOD8118829 Si02
#       8
#     4   4   4   4   4   4   4   4
#     4   9  20  40  66  93 126 162 216 275 324 373
#     4  10  22  39  60  89 129 171 218 259 324 387
#     4  11  25  39  62  92 126 181 210 254 332 390
#     4   9  19  36  60  90 124 161 209 265 311 386
#     4  10  20  40  64  93 125 161 219 270 317 387
#     4  11  25  40  60  89 142 167 206 261 327 402
#     4  10  22  37  68  94 124 169 217 282 325 372
#     4  10  20  35  63  95 123 161 214 265 327 380
#
# _framework density 22.102512999999998
#
# number of rings (size 3 to 8) (size 9 to 14) (size 15 to 20)
#    0.000    2.000    1.250    1.125    7.000    2.500 
#    0.000    2.500    0.000    0.000    0.000    0.000 
#    0.000    0.000    0.000    0.000    0.000    0.000 
#
# Total GULP energy -396507.586558 kJ/mol
# GULP energy per Si atom -12390.862080 kJ/mol
# Density = 2.205221 g / cm^3
# Si number density = 22.102513 Si / 1000 Ang^3
#
#
#
# Elastic Constant Matrix: (Units=GPa)
#
#
# Indices 1 2 3 4 5 6 
#
# 1 114.8569 55.5623 34.4616 0.0000 16.9124 0.0000
# 2 55.5623 160.6185 22.5367 0.0000 12.0537 0.0000
# 3 34.4616 22.5367 54.0577 0.0000 8.5029 0.0000
# 4 0.0000 0.0000 0.0000 28.0359 0.0000 0.9123
# 5 16.9124 12.0537 8.5029 0.0000 30.7159 0.0000
# 6 0.0000 0.0000 0.0000 0.9123 0.0000 25.2803
#
#
#
# Elastic Compliance Matrix: (Units=1/GPa)
#
#
# Indices 1 2 3 4 5 6 
#
# 1 0.012698 -0.003232 -0.006113 0.000000 -0.004031 0.000000
# 2 -0.003232 0.007545 -0.000940 0.000000 -0.000921 0.000000
# 3 -0.006113 -0.000940 0.023211 0.000000 -0.002690 0.000000
# 4 0.000000 0.000000 0.000000 0.035710 0.000000 -0.001289
# 5 -0.004031 -0.000921 -0.002690 0.000000 0.035882 0.000000
# 6 0.000000 0.000000 0.000000 -0.001289 0.000000 0.039603
#
#
# Mechanical properties :
#
#
# Convention : Reuss Voigt Hill
#
# Bulk Modulus (GPa) = 43.70129 61.62827 52.66478
# Shear Modulus (GPa) = 27.34505 31.27126 29.30815
#
# Velocity S-wave (km/s) = 3.52119 3.76550 3.64539
# Velocity P-wave (km/s) = 6.02882 6.84462 6.44963
#
# Compressibility (1/GPa) = 0.02288262
#
# Stress axis : x y z
#
# Youngs Moduli (GPa) = 78.75338 132.53654 43.08288
#
# Poissons Ratio (x) = 0.42839 0.26338
# Poissons Ratio (y) = 0.25455 0.04050
# Poissons Ratio (z) = 0.48144 0.12460
#
# Static dielectric constant tensor:
#      x y z
#    x 4.518620 0.000000 0.171160 
#    y 0.000000 3.665440 0.000000 
#    z 0.171160 0.000000 4.262940 
# 
# 
# High freq. dielectric constant tensor:
#      x y z
#    x 1.870510 0.000000 0.005500 
#    y 0.000000 1.839290 0.000000 
#    z 0.005500 0.000000 1.893090 
# 
# From -- ./inp_files/50348.got.cif
#   From: 2010.06.25/outbox.cif.g09.slc.cpg/sg13_26_cif.got.tgz:50348.got - 2010.06.28 04:50:58.
