data_PCOD8118258
_publ_section_title
;
Structure prediction by ZEFSAII (Michael W. Deem and Ramdas Pophale) SiO2 
 PCOD8118258
Probable space group: P 2/C
;
_chemical_formula_sum "Si O2"
_cell_formula_units_Z 22
_cell_length_a 7.504413
_cell_length_b 13.385983
_cell_length_c 10.440637
_cell_angle_alpha 90.000000
_cell_angle_beta 74.805802
_cell_angle_gamma 90.000000
_cell_volume 1012.140203
_symmetry_space_group_name_H-M "P 2/C"
_symmetry_group_IT_number 13
_symmetry_cell_setting 'monoclinic'
loop_
_space_group_symop_operation_xyz
x,y,z
-x,y,1/2-z
-x,-y,-z
x,-y,1/2+z
loop_
_atom_site_type_symbol
_atom_site_label
_atom_site_fract_x
_atom_site_fract_y
_atom_site_fract_z
Si Si1 0.645231 0.792548 0.502331
Si Si2 0.204248 0.426500 0.856743
Si Si3 0.775210 0.427710 0.933107
Si Si4 0.796318 0.940346 0.271826
Si Si5 0.665254 0.215785 0.620149
Si Si6 0.500000 0.089348 0.250000
O O1 0.728762 0.682121 0.493883
O O2 0.774418 0.857346 0.385540
O O3 0.429690 0.794166 0.500199
O O4 0.640663 0.842692 0.642390
O O5 0.302710 0.441398 0.698067
O O6 0.204992 0.311735 0.900812
O O7 0.990657 0.452588 0.885096
O O8 0.306600 0.493899 0.946580
O O9 0.779260 0.883898 0.136980
O O10 0.000000 0.988474 0.250000
O O11 0.633732 0.021663 0.313871
O O12 0.500000 0.233536 0.750000
#
# Coordination Sequence:
#
# PCOD8118258 Si02
#       6
#     4   4   4   4   4   2
#     4  11  23  42  63  92 132 168 208 272 322 380
#     4  10  20  38  62  94 123 166 216 260 314 400
#     4  10  21  38  63  90 128 169 211 262 324 378
#     4  11  22  42  71  92 121 171 218 265 324 384
#     4  10  19  37  62  90 119 161 213 254 310 385
#     4  12  26  44  60  96 136 162 218 278 318 380
#
# _framework density 21.73612
#
# number of rings (size 3 to 8) (size 9 to 14) (size 15 to 20)
#    0.000    1.455    6.364    1.636    0.000    2.909 
#    4.909    0.000    0.000    0.000    0.000    0.000 
#    0.000    0.000    0.000    0.000    0.000    0.000 
#
# Total GULP energy -272696.268603 kJ/mol
# GULP energy per Si atom -12395.284936 kJ/mol
# Density = 2.168665 g / cm^3
# Si number density = 21.736120 Si / 1000 Ang^3
#
#
#
# Elastic Constant Matrix: (Units=GPa)
#
#
# Indices 1 2 3 4 5 6 
#
# 1 64.8708 9.3025 17.5025 0.0000 1.0894 0.0000
# 2 9.3025 105.4992 52.5252 0.0000 2.7312 0.0000
# 3 17.5025 52.5252 64.4099 0.0000 9.7257 0.0000
# 4 0.0000 0.0000 0.0000 36.0984 0.0000 -5.7034
# 5 1.0894 2.7312 9.7257 0.0000 21.2582 0.0000
# 6 0.0000 0.0000 0.0000 -5.7034 0.0000 29.5118
#
#
#
# Elastic Compliance Matrix: (Units=1/GPa)
#
#
# Indices 1 2 3 4 5 6 
#
# 1 0.016801 0.001474 -0.006025 0.000000 0.001706 0.000000
# 2 0.001474 0.016443 -0.014479 0.000000 0.004436 0.000000
# 3 -0.006025 -0.014479 0.030768 0.000000 -0.011908 0.000000
# 4 0.000000 0.000000 0.000000 0.028575 0.000000 0.005522
# 5 0.001706 0.004436 -0.011908 0.000000 0.051831 0.000000
# 6 0.000000 0.000000 0.000000 0.005522 0.000000 0.034952
#
#
# Mechanical properties :
#
#
# Convention : Reuss Voigt Hill
#
# Bulk Modulus (GPa) = 38.53340 43.71559 41.12449
# Shear Modulus (GPa) = 22.11601 27.73698 24.92649
#
# Velocity S-wave (km/s) = 3.19325 3.57610 3.39008
# Velocity P-wave (km/s) = 5.60019 6.09975 5.85530
#
# Compressibility (1/GPa) = 0.02595152
#
# Stress axis : x y z
#
# Youngs Moduli (GPa) = 59.52084 60.81722 32.50086
#
# Poissons Ratio (x) = -0.08966 0.19582
# Poissons Ratio (y) = -0.08774 0.47059
# Poissons Ratio (z) = 0.35862 0.88059
#
# Static dielectric constant tensor:
#      x y z
#    x 3.995570 0.000000 0.453880 
#    y 0.000000 3.803330 0.000000 
#    z 0.453880 0.000000 4.040630 
# 
# 
# High freq. dielectric constant tensor:
#      x y z
#    x 1.848220 0.000000 0.012390 
#    y 0.000000 1.848770 0.000000 
#    z 0.012390 0.000000 1.833740 
# 
# From -- ./inp_files/29353.got.cif
#   From: 2010.06.25/outbox.cif.g09.slc.cpg/sg13_15_cif.got.tgz:29353.got - 2010.06.28 04:50:58.
