data_PCOD8118807
_publ_section_title
;
Structure prediction by ZEFSAII (Michael W. Deem and Ramdas Pophale) SiO2 
 PCOD8118807
Probable space group: P 2/C
;
_chemical_formula_sum "Si O2"
_cell_formula_units_Z 32
_cell_length_a 15.957384
_cell_length_b 9.251325
_cell_length_c 25.775554
_cell_angle_alpha 90.000000
_cell_angle_beta 25.238900
_cell_angle_gamma 90.000000
_cell_volume 1622.498219
_symmetry_space_group_name_H-M "P 2/C"
_symmetry_group_IT_number 13
_symmetry_cell_setting 'monoclinic'
loop_
_space_group_symop_operation_xyz
x,y,z
-x,y,1/2-z
-x,-y,-z
x,-y,1/2+z
loop_
_atom_site_type_symbol
_atom_site_label
_atom_site_fract_x
_atom_site_fract_y
_atom_site_fract_z
Si Si1 0.991337 0.739866 0.138182
Si Si2 0.554978 0.177750 0.869352
Si Si3 0.588756 0.351848 0.753655
Si Si4 0.167437 0.494407 0.695858
Si Si5 0.511201 0.710886 0.981014
Si Si6 0.613571 0.130323 0.045623
Si Si7 0.983234 0.338290 0.989015
Si Si8 0.401962 0.304366 0.251925
O O1 0.089023 0.678628 0.030456
O O2 0.793285 0.835748 0.240935
O O3 0.931465 0.595628 0.202663
O O4 0.152871 0.838666 0.077572
O O5 0.490375 0.292424 0.861263
O O6 0.446522 0.033789 0.910496
O O7 0.465001 0.230922 0.973962
O O8 0.500000 0.296218 0.750000
O O9 0.583507 0.523446 0.761372
O O10 0.800439 0.273734 0.630948
O O11 0.282699 0.636552 0.651957
O O12 0.331417 0.400130 0.574583
O O13 0.000000 0.544031 0.750000
O O14 0.458193 0.841748 0.972720
O O15 0.492033 0.233199 0.151384
O O16 0.827941 0.258315 0.113525
O O17 0.000000 0.500000 0.000000
O O18 0.500000 0.250045 0.250000
#
# Coordination Sequence:
#
# PCOD8118807 Si02
#       8
#     4   4   4   4   4   4   4   4
#     4  10  21  40  64  87 123 166 206 251 320 369
#     4  10  24  43  60  87 128 166 208 255 313 381
#     4   9  20  39  61  88 123 161 201 260 320 359
#     4  10  20  38  63  94 116 156 204 256 310 367
#     4  10  23  39  62  94 125 158 207 260 313 366
#     4  12  23  40  65  90 126 170 209 255 311 380
#     4   9  18  35  57  89 122 152 195 258 306 362
#     4  10  20  35  60  93 116 155 210 255 307 366
#
# _framework density 19.722670999999998
#
# number of rings (size 3 to 8) (size 9 to 14) (size 15 to 20)
#    0.000    2.000    2.500    0.375    8.750    0.500 
#    4.500    1.250    0.000    0.000    0.000    0.000 
#    0.000    0.000    0.000    0.000    0.000    0.000 
#
# Total GULP energy -396523.943783 kJ/mol
# GULP energy per Si atom -12391.373243 kJ/mol
# Density = 1.967778 g / cm^3
# Si number density = 19.722671 Si / 1000 Ang^3
#
#
#
# Elastic Constant Matrix: (Units=GPa)
#
#
# Indices 1 2 3 4 5 6 
#
# 1 121.8385 38.0162 36.4849 0.0000 7.0139 0.0000
# 2 38.0162 59.5809 31.6753 0.0000 -6.5312 0.0000
# 3 36.4849 31.6753 91.8427 0.0000 3.1454 0.0000
# 4 0.0000 0.0000 0.0000 15.7510 0.0000 -5.3848
# 5 7.0139 -6.5312 3.1454 0.0000 29.8250 0.0000
# 6 0.0000 0.0000 0.0000 -5.3848 0.0000 25.7051
#
#
#
# Elastic Compliance Matrix: (Units=1/GPa)
#
#
# Indices 1 2 3 4 5 6 
#
# 1 0.011023 -0.006351 -0.002059 0.000000 -0.003766 0.000000
# 2 -0.006351 0.025071 -0.006386 0.000000 0.007657 0.000000
# 3 -0.002059 -0.006386 0.013990 0.000000 -0.002389 0.000000
# 4 0.000000 0.000000 0.000000 0.068386 0.000000 0.014326
# 5 -0.003766 0.007657 -0.002389 0.000000 0.036343 0.000000
# 6 0.000000 0.000000 0.000000 0.014326 0.000000 0.041904
#
#
# Mechanical properties :
#
#
# Convention : Reuss Voigt Hill
#
# Bulk Modulus (GPa) = 48.80140 53.95721 51.37930
# Shear Modulus (GPa) = 21.44638 25.39524 23.42081
#
# Velocity S-wave (km/s) = 3.30115 3.59223 3.44976
# Velocity P-wave (km/s) = 6.27117 6.68003 6.47883
#
# Compressibility (1/GPa) = 0.02049122
#
# Stress axis : x y z
#
# Youngs Moduli (GPa) = 90.72131 39.88750 71.47715
#
# Poissons Ratio (x) = 0.25333 0.14720
# Poissons Ratio (y) = 0.57618 0.45643
# Poissons Ratio (z) = 0.18684 0.25471
#
# Static dielectric constant tensor:
#      x y z
#    x 3.780500 0.000000 -0.088920 
#    y 0.000000 3.234590 0.000000 
#    z -0.088920 0.000000 4.040450 
# 
# 
# High freq. dielectric constant tensor:
#      x y z
#    x 1.778690 0.000000 0.000920 
#    y 0.000000 1.731160 0.000000 
#    z 0.000920 0.000000 1.779000 
# 
# From -- ./inp_files/87414.got.cif
#   From: 2010.06.25/outbox.cif.g09.slc.cpg/sg13_44_cif.got.tgz:87414.got - 2010.06.28 04:50:58.
