data_PCOD8118838
_publ_section_title
;
Structure prediction by ZEFSAII (Michael W. Deem and Ramdas Pophale) SiO2 
 PCOD8118838
Probable space group: P 2/C
;
_chemical_formula_sum "Si O2"
_cell_formula_units_Z 32
_cell_length_a 21.567185
_cell_length_b 13.868102
_cell_length_c 8.837446
_cell_angle_alpha 90.000000
_cell_angle_beta 143.427324
_cell_angle_gamma 90.000000
_cell_volume 1574.955688
_symmetry_space_group_name_H-M "P 2/C"
_symmetry_group_IT_number 13
_symmetry_cell_setting 'monoclinic'
loop_
_space_group_symop_operation_xyz
x,y,z
-x,y,1/2-z
-x,-y,-z
x,-y,1/2+z
loop_
_atom_site_type_symbol
_atom_site_label
_atom_site_fract_x
_atom_site_fract_y
_atom_site_fract_z
Si Si1 0.897658 0.385887 0.342820
Si Si2 0.047271 0.144571 0.692198
Si Si3 0.868320 0.419185 0.630766
Si Si4 0.771600 0.255234 0.596439
Si Si5 0.383554 0.103202 0.703308
Si Si6 0.908711 0.941497 0.683323
Si Si7 0.768655 0.773540 0.425633
Si Si8 0.626523 0.903591 0.668615
O O1 0.856658 0.409472 0.428844
O O2 0.857970 0.468666 0.151682
O O3 0.022375 0.378537 0.588871
O O4 0.850954 0.285247 0.189866
O O5 0.112080 0.214057 0.710668
O O6 0.000000 0.198618 0.750000
O O7 0.947186 0.091808 0.424466
O O8 0.123134 0.054522 0.886913
O O9 0.772824 0.359274 0.516644
O O10 0.747565 0.279377 0.725028
O O11 0.684807 0.185240 0.360398
O O12 0.333854 0.200488 0.678644
O O13 0.351503 0.097509 0.466078
O O14 0.338829 0.006280 0.694228
O O15 0.505685 0.112835 0.968184
O O16 0.810742 0.876767 0.450339
O O17 0.000000 0.914481 0.750000
#
# Coordination Sequence:
#
# PCOD8118838 Si02
#       8
#     4   4   4   4   4   4   4   4
#     4  10  22  39  60  84 117 154 193 242 288 346
#     4  10  22  32  50  73 112 151 187 226 273 331
#     4  10  22  39  59  85 116 154 195 239 291 342
#     4  12  23  35  57  85 113 151 195 237 285 346
#     4  10  22  40  61  86 117 153 196 244 294 342
#     4  10  20  36  46  73 112 151 185 225 271 332
#     4  12  23  35  58  83 114 153 194 237 286 344
#     4  10  22  40  61  86 117 153 196 245 291 346
#
# _framework density 20.318031000000001
#
# number of rings (size 3 to 8) (size 9 to 14) (size 15 to 20)
#    0.000    1.500    1.250    3.750    5.250    2.500 
#    0.000    0.000    0.000    0.750    0.000    0.000 
#    0.000    0.000    0.000    0.000    0.000    0.000 
#
# Total GULP energy -396695.302501 kJ/mol
# GULP energy per Si atom -12396.728203 kJ/mol
# Density = 2.027179 g / cm^3
# Si number density = 20.318031 Si / 1000 Ang^3
#
#
#
# Elastic Constant Matrix: (Units=GPa)
#
#
# Indices 1 2 3 4 5 6 
#
# 1 116.0969 37.4667 20.7202 0.0000 -22.1057 0.0000
# 2 37.4667 89.2356 22.1273 0.0000 -1.0699 0.0000
# 3 20.7202 22.1273 48.5843 0.0000 -16.8619 0.0000
# 4 0.0000 0.0000 0.0000 34.2909 0.0000 -0.7635
# 5 -22.1057 -1.0699 -16.8619 0.0000 28.9590 0.0000
# 6 0.0000 0.0000 0.0000 -0.7635 0.0000 33.3048
#
#
#
# Elastic Compliance Matrix: (Units=1/GPa)
#
#
# Indices 1 2 3 4 5 6 
#
# 1 0.011886 -0.004968 0.000349 0.000000 0.009093 0.000000
# 2 -0.004968 0.015019 -0.007325 0.000000 -0.007503 0.000000
# 3 0.000349 -0.007325 0.029788 0.000000 0.017341 0.000000
# 4 0.000000 0.000000 0.000000 0.029177 0.000000 0.000669
# 5 0.009093 -0.007503 0.017341 0.000000 0.051292 0.000000
# 6 0.000000 0.000000 0.000000 0.000669 0.000000 0.030041
#
#
# Mechanical properties :
#
#
# Convention : Reuss Voigt Hill
#
# Bulk Modulus (GPa) = 30.48308 46.06056 38.27182
# Shear Modulus (GPa) = 24.74925 30.88444 27.81685
#
# Velocity S-wave (km/s) = 3.49391 3.90301 3.70411
# Velocity P-wave (km/s) = 5.59572 6.55975 6.09682
#
# Compressibility (1/GPa) = 0.03280508
#
# Stress axis : x y z
#
# Youngs Moduli (GPa) = 84.13437 66.58399 33.57004
#
# Poissons Ratio (x) = 0.33079 -0.01173
# Poissons Ratio (y) = 0.41798 0.24591
# Poissons Ratio (z) = -0.02940 0.48775
#
# Static dielectric constant tensor:
#      x y z
#    x 3.795000 0.000000 -0.181270 
#    y 0.000000 3.757770 0.000000 
#    z -0.181270 0.000000 3.511930 
# 
# 
# High freq. dielectric constant tensor:
#      x y z
#    x 1.801120 0.000000 -0.024370 
#    y 0.000000 1.788180 0.000000 
#    z -0.024370 0.000000 1.769440 
# 
# From -- ./inp_files/23579.got.cif
#   From: 2010.06.25/outbox.cif.g09.slc.cpg/sg13_12_cif.got.tgz:23579.got - 2010.06.28 04:50:58.
