data_PCOD8118434
_publ_section_title
;
Structure prediction by ZEFSAII (Michael W. Deem and Ramdas Pophale) SiO2 
 PCOD8118434
Probable space group: P 2/C
;
_chemical_formula_sum "Si O2"
_cell_formula_units_Z 32
_cell_length_a 14.870533
_cell_length_b 8.229491
_cell_length_c 24.525540
_cell_angle_alpha 90.000000
_cell_angle_beta 28.993397
_cell_angle_gamma 90.000000
_cell_volume 1454.785664
_symmetry_space_group_name_H-M "P 2/C"
_symmetry_group_IT_number 13
_symmetry_cell_setting 'monoclinic'
loop_
_space_group_symop_operation_xyz
x,y,z
-x,y,1/2-z
-x,-y,-z
x,-y,1/2+z
loop_
_atom_site_type_symbol
_atom_site_label
_atom_site_fract_x
_atom_site_fract_y
_atom_site_fract_z
Si Si1 0.231783 0.348147 0.023071
Si Si2 0.167428 0.050005 0.123926
Si Si3 0.214723 0.741578 0.151470
Si Si4 0.942605 0.642050 0.071075
Si Si5 0.170150 0.500037 0.266132
Si Si6 0.215936 0.861470 0.991885
Si Si7 0.705668 0.162976 0.619113
Si Si8 0.457682 0.639119 0.929493
O O1 0.032640 0.431429 0.141963
O O2 0.276583 0.209070 0.044899
O O3 0.229225 0.277181 0.964146
O O4 0.402661 0.470465 0.930203
O O5 0.284409 0.928383 0.102307
O O6 0.000000 0.114096 0.250000
O O7 0.106598 0.951066 0.100109
O O8 0.226138 0.666645 0.205231
O O9 0.000000 0.742865 0.250000
O O10 0.338946 0.628204 0.047691
O O11 0.804154 0.548310 0.184672
O O12 0.846898 0.796209 0.093189
O O13 0.000000 0.500000 0.000000
O O14 0.104271 0.711034 0.024990
O O15 0.322414 0.358447 0.174457
O O16 0.404430 0.790784 0.919061
O O17 0.272514 0.977783 0.911993
O O18 0.500000 0.196378 0.750000
#
# Coordination Sequence:
#
# PCOD8118434 Si02
#       8
#     4   4   4   4   4   4   4   4
#     4  11  22  42  64  98 130 168 220 277 331 395
#     4   9  20  37  66  89 124 174 211 258 332 397
#     4  10  19  40  65  89 133 178 212 265 336 394
#     4  12  22  40  66  92 127 172 222 273 333 392
#     4  12  23  38  69  99 131 174 222 276 334 397
#     4  10  22  43  63  90 131 175 217 271 333 400
#     4  11  24  43  65  94 133 170 222 275 337 394
#     4  11  22  40  66  96 134 167 222 273 328 401
#
# _framework density 21.996369000000001
#
# number of rings (size 3 to 8) (size 9 to 14) (size 15 to 20)
#    0.000    1.250    3.750    3.000    1.750    1.000 
#    4.500    1.250    8.250    0.000    0.000    0.000 
#    0.000    0.000    0.000    0.000    0.000    0.000 
#
# Total GULP energy -396431.675388 kJ/mol
# GULP energy per Si atom -12388.489856 kJ/mol
# Density = 2.194630 g / cm^3
# Si number density = 21.996369 Si / 1000 Ang^3
#
#
#
# Elastic Constant Matrix: (Units=GPa)
#
#
# Indices 1 2 3 4 5 6 
#
# 1 62.6331 28.2066 36.3150 0.0000 15.6352 0.0000
# 2 28.2066 96.1230 32.0438 0.0000 13.2193 0.0000
# 3 36.3150 32.0438 86.2052 0.0000 5.4626 0.0000
# 4 0.0000 0.0000 0.0000 18.5743 0.0000 12.2260
# 5 15.6352 13.2193 5.4626 0.0000 37.6359 0.0000
# 6 0.0000 0.0000 0.0000 12.2260 0.0000 47.5498
#
#
#
# Elastic Compliance Matrix: (Units=1/GPa)
#
#
# Indices 1 2 3 4 5 6 
#
# 1 0.024302 -0.003218 -0.008552 0.000000 -0.007724 0.000000
# 2 -0.003218 0.012794 -0.003230 0.000000 -0.002688 0.000000
# 3 -0.008552 -0.003230 0.016256 0.000000 0.002328 0.000000
# 4 0.000000 0.000000 0.000000 0.064805 0.000000 -0.016663
# 5 -0.007724 -0.002688 0.002328 0.000000 0.030386 0.000000
# 6 0.000000 0.000000 0.000000 -0.016663 0.000000 0.025315
#
#
# Mechanical properties :
#
#
# Convention : Reuss Voigt Hill
#
# Bulk Modulus (GPa) = 42.82204 48.67692 45.74948
# Shear Modulus (GPa) = 23.62494 30.64508 27.13501
#
# Velocity S-wave (km/s) = 3.28081 3.73659 3.51609
# Velocity P-wave (km/s) = 5.81908 6.38700 6.10964
#
# Compressibility (1/GPa) = 0.02335246
#
# Stress axis : x y z
#
# Youngs Moduli (GPa) = 41.14923 78.16154 61.51654
#
# Poissons Ratio (x) = 0.25153 0.52607
# Poissons Ratio (y) = 0.13242 0.19868
# Poissons Ratio (z) = 0.35190 0.25244
#
# Static dielectric constant tensor:
#      x y z
#    x 3.878270 0.000000 0.339880 
#    y 0.000000 4.232760 0.000000 
#    z 0.339880 0.000000 3.977750 
# 
# 
# High freq. dielectric constant tensor:
#      x y z
#    x 1.849250 0.000000 0.026720 
#    y 0.000000 1.872770 0.000000 
#    z 0.026720 0.000000 1.862240 
# 
# From -- ./inp_files/87407.got.cif
#   From: 2010.06.25/outbox.cif.g09.slc.cpg/sg13_44_cif.got.tgz:87407.got - 2010.06.28 04:50:58.
