data_PCOD8118066
_publ_section_title
;
Structure prediction by ZEFSAII (Michael W. Deem and Ramdas Pophale) SiO2 
 PCOD8118066
Probable space group: P 2/C
;
_chemical_formula_sum "Si O2"
_cell_formula_units_Z 20
_cell_length_a 18.818355
_cell_length_b 11.505820
_cell_length_c 15.237157
_cell_angle_alpha 90.000000
_cell_angle_beta 17.781043
_cell_angle_gamma 90.000000
_cell_volume 1007.497883
_symmetry_space_group_name_H-M "P 2/C"
_symmetry_group_IT_number 13
_symmetry_cell_setting 'monoclinic'
loop_
_space_group_symop_operation_xyz
x,y,z
-x,y,1/2-z
-x,-y,-z
x,-y,1/2+z
loop_
_atom_site_type_symbol
_atom_site_label
_atom_site_fract_x
_atom_site_fract_y
_atom_site_fract_z
Si Si1 0.121044 0.298112 0.517782
Si Si2 0.917458 0.710132 0.075873
Si Si3 0.471612 0.863829 0.025277
Si Si4 0.212300 0.555818 0.433133
Si Si5 0.444287 0.265910 0.910682
O O1 0.258169 0.418656 0.371074
O O2 0.000000 0.258661 0.750000
O O3 0.933477 0.323084 0.660409
O O4 0.297455 0.195957 0.285245
O O5 0.753195 0.824483 0.266142
O O6 0.824085 0.607478 0.122351
O O7 0.171440 0.741347 0.743943
O O8 0.423711 0.821150 0.179942
O O9 0.500000 0.000000 0.000000
O O10 0.449231 0.605807 0.197058
O O11 0.000000 0.583218 0.750000
O O12 0.500000 0.218978 0.750000
#
# Coordination Sequence:
#
# PCOD8118066 Si02
#       5
#     4   4   4   4   4
#     4  10  23  40  58  92 126 162 204 247 312 376
#     4  10  21  38  64  86 125 158 202 250 311 358
#     4  10  24  44  59  87 120 162 215 261 301 360
#     4  10  19  35  61  93 128 159 200 249 309 381
#     4  10  20  37  62  94 119 160 204 250 313 373
#
# _framework density 19.851158000000002
#
# number of rings (size 3 to 8) (size 9 to 14) (size 15 to 20)
#    0.000    2.000    2.000    0.600    0.000   12.800 
#    7.200    0.000    0.000    0.000    0.000    0.000 
#    0.000    0.000    0.000    0.000    0.000    0.000 
#
# Total GULP energy -247915.412306 kJ/mol
# GULP energy per Si atom -12395.770615 kJ/mol
# Density = 1.980598 g / cm^3
# Si number density = 19.851158 Si / 1000 Ang^3
#
#
#
# Elastic Constant Matrix: (Units=GPa)
#
#
# Indices 1 2 3 4 5 6 
#
# 1 137.7805 33.8969 49.3810 0.0000 26.0888 0.0000
# 2 33.8969 145.2705 45.8576 0.0000 3.2171 0.0000
# 3 49.3810 45.8576 88.0329 0.0000 0.3949 0.0000
# 4 0.0000 0.0000 0.0000 28.6533 0.0000 -1.9481
# 5 26.0888 3.2171 0.3949 0.0000 36.3956 0.0000
# 6 0.0000 0.0000 0.0000 -1.9481 0.0000 15.8807
#
#
#
# Elastic Compliance Matrix: (Units=1/GPa)
#
#
# Indices 1 2 3 4 5 6 
#
# 1 0.010942 -0.000545 -0.005819 0.000000 -0.007732 0.000000
# 2 -0.000545 0.008283 -0.004007 0.000000 -0.000298 0.000000
# 3 -0.005819 -0.004007 0.016691 0.000000 0.004344 0.000000
# 4 0.000000 0.000000 0.000000 0.035194 0.000000 0.004317
# 5 -0.007732 -0.000298 0.004344 0.000000 0.032997 0.000000
# 6 0.000000 0.000000 0.000000 0.004317 0.000000 0.063499
#
#
# Mechanical properties :
#
#
# Convention : Reuss Voigt Hill
#
# Bulk Modulus (GPa) = 65.90735 69.92831 67.91783
# Shear Modulus (GPa) = 25.85236 32.31580 29.08408
#
# Velocity S-wave (km/s) = 3.61267 4.03911 3.83182
# Velocity P-wave (km/s) = 7.11861 7.55350 7.33928
#
# Compressibility (1/GPa) = 0.01517281
#
# Stress axis : x y z
#
# Youngs Moduli (GPa) = 91.39497 120.73648 59.91073
#
# Poissons Ratio (x) = 0.06580 0.34862
# Poissons Ratio (y) = 0.04981 0.24009
# Poissons Ratio (z) = 0.53182 0.48384
#
# Static dielectric constant tensor:
#      x y z
#    x 4.212890 0.000000 0.000210 
#    y 0.000000 3.338880 0.000000 
#    z 0.000210 0.000000 3.591170 
# 
# 
# High freq. dielectric constant tensor:
#      x y z
#    x 1.793550 0.000000 0.000890 
#    y 0.000000 1.748730 0.000000 
#    z 0.000890 0.000000 1.774340 
# 
# From -- ./inp_files/43733.got.cif
#   From: 2010.06.25/outbox.cif.g09.slc.cpg/sg13_22_cif.got.tgz:43733.got - 2010.06.28 04:50:58.
