data_PCOD8118297
_publ_section_title
;
Structure prediction by ZEFSAII (Michael W. Deem and Ramdas Pophale) SiO2 
 PCOD8118297
Probable space group: P 2/C
;
_chemical_formula_sum "Si O2"
_cell_formula_units_Z 26
_cell_length_a 7.710279
_cell_length_b 8.870745
_cell_length_c 19.093489
_cell_angle_alpha 90.000000
_cell_angle_beta 85.978412
_cell_angle_gamma 90.000000
_cell_volume 1302.701162
_symmetry_space_group_name_H-M "P 2/C"
_symmetry_group_IT_number 13
_symmetry_cell_setting 'monoclinic'
loop_
_space_group_symop_operation_xyz
x,y,z
-x,y,1/2-z
-x,-y,-z
x,-y,1/2+z
loop_
_atom_site_type_symbol
_atom_site_label
_atom_site_fract_x
_atom_site_fract_y
_atom_site_fract_z
Si Si1 0.155293 0.703267 0.520465
Si Si2 0.800663 0.469414 0.345694
Si Si3 0.000000 0.257581 0.250000
Si Si4 0.499803 0.711059 0.328654
Si Si5 0.173050 0.532402 0.384596
Si Si6 0.838743 0.198060 0.115036
Si Si7 0.393883 0.060516 0.938722
O O1 0.252051 0.633810 0.585766
O O2 0.135603 0.565300 0.467140
O O3 0.255580 0.830421 0.476367
O O4 0.976654 0.783545 0.548263
O O5 0.650950 0.589517 0.335774
O O6 0.833746 0.360387 0.278205
O O7 0.985933 0.551295 0.352868
O O8 0.064968 0.156298 0.313885
O O9 0.500000 0.774471 0.250000
O O10 0.309718 0.642162 0.345225
O O11 0.521764 0.850293 0.381792
O O12 0.248460 0.362859 0.374431
O O13 0.696969 0.073353 0.101606
O O14 0.500000 0.000000 0.000000
#
# Coordination Sequence:
#
# PCOD8118297 Si02
#       7
#     4   4   2   4   4   4   4
#     4   9  20  38  62  89 113 158 201 248 305 355
#     4  10  19  37  67  91 117 152 204 257 310 354
#     4   8  18  38  62  96 112 158 210 256 312 362
#     4  11  24  42  59  90 123 158 203 254 307 365
#     4   9  20  36  67  91 115 149 207 258 303 354
#     4  10  19  39  62  86 122 153 203 250 304 364
#     4  11  26  39  56  89 129 163 203 243 300 375
#
# _framework density 19.958528999999999
#
# number of rings (size 3 to 8) (size 9 to 14) (size 15 to 20)
#    0.000    2.462    0.000    4.154    6.462    1.231 
#    5.538    0.769    0.000    0.000    0.000    0.000 
#    0.000    0.000    0.000    0.000    0.000    0.000 
#
# Total GULP energy -322184.197767 kJ/mol
# GULP energy per Si atom -12391.699914 kJ/mol
# Density = 1.991310 g / cm^3
# Si number density = 19.958529 Si / 1000 Ang^3
#
#
#
# Elastic Constant Matrix: (Units=GPa)
#
#
# Indices 1 2 3 4 5 6 
#
# 1 71.5860 35.2419 37.7489 0.0000 4.4045 0.0000
# 2 35.2419 68.5471 42.4094 0.0000 9.4397 0.0000
# 3 37.7489 42.4094 135.6983 0.0000 0.9291 0.0000
# 4 0.0000 0.0000 0.0000 26.4816 0.0000 7.9203
# 5 4.4045 9.4397 0.9291 0.0000 28.0426 0.0000
# 6 0.0000 0.0000 0.0000 7.9203 0.0000 29.7982
#
#
#
# Elastic Compliance Matrix: (Units=1/GPa)
#
#
# Indices 1 2 3 4 5 6 
#
# 1 0.019553 -0.008258 -0.002857 0.000000 -0.000197 0.000000
# 2 -0.008258 0.022606 -0.004725 0.000000 -0.006156 0.000000
# 3 -0.002857 -0.004725 0.009629 0.000000 0.001720 0.000000
# 4 0.000000 0.000000 0.000000 0.041023 0.000000 -0.010904
# 5 -0.000197 -0.006156 0.001720 0.000000 0.037706 0.000000
# 6 0.000000 0.000000 0.000000 -0.010904 0.000000 0.036457
#
#
# Mechanical properties :
#
#
# Convention : Reuss Voigt Hill
#
# Bulk Modulus (GPa) = 49.73485 56.29242 53.01363
# Shear Modulus (GPa) = 24.34765 27.55990 25.95377
#
# Velocity S-wave (km/s) = 3.49651 3.72002 3.61000
# Velocity P-wave (km/s) = 6.42448 6.83501 6.63292
#
# Compressibility (1/GPa) = 0.02010663
#
# Stress axis : x y z
#
# Youngs Moduli (GPa) = 51.14175 44.23696 103.85130
#
# Poissons Ratio (x) = 0.36532 0.29672
# Poissons Ratio (y) = 0.42234 0.49074
# Poissons Ratio (z) = 0.14612 0.20904
#
# Static dielectric constant tensor:
#      x y z
#    x 3.341020 0.000000 -0.112350 
#    y 0.000000 3.329370 0.000000 
#    z -0.112350 0.000000 3.966710 
# 
# 
# High freq. dielectric constant tensor:
#      x y z
#    x 1.759940 0.000000 -0.005640 
#    y 0.000000 1.763560 0.000000 
#    z -0.005640 0.000000 1.806720 
# 
# From -- ./inp_files/74957.got.cif
#   From: 2010.06.25/outbox.cif.g09.slc.cpg/sg13_38_cif.got.tgz:74957.got - 2010.06.28 04:50:58.
