data_PCOD8118471
_publ_section_title
;
Structure prediction by ZEFSAII (Michael W. Deem and Ramdas Pophale) SiO2 
 PCOD8118471
Probable space group: P 2/C
;
_chemical_formula_sum "Si O2"
_cell_formula_units_Z 18
_cell_length_a 7.838107
_cell_length_b 11.472086
_cell_length_c 9.313229
_cell_angle_alpha 90.000000
_cell_angle_beta 102.363442
_cell_angle_gamma 90.000000
_cell_volume 818.019313
_symmetry_space_group_name_H-M "P 2/C"
_symmetry_group_IT_number 13
_symmetry_cell_setting 'monoclinic'
loop_
_space_group_symop_operation_xyz
x,y,z
-x,y,1/2-z
-x,-y,-z
x,-y,1/2+z
loop_
_atom_site_type_symbol
_atom_site_label
_atom_site_fract_x
_atom_site_fract_y
_atom_site_fract_z
Si Si1 0.000000 0.502911 0.750000
Si Si2 0.265932 0.281844 0.594818
Si Si3 0.780199 0.548263 0.953802
Si Si4 0.371933 0.749156 0.434946
Si Si5 0.039971 0.116354 0.922800
O O1 0.851836 0.578576 0.805791
O O2 0.925854 0.423275 0.605081
O O3 0.271437 0.413380 0.535762
O O4 0.426904 0.210445 0.548911
O O5 0.294166 0.292214 0.769338
O O6 0.084714 0.216038 0.530749
O O7 0.623276 0.636967 0.957314
O O8 0.244682 0.848402 0.478239
O O9 0.000000 0.093501 0.750000
O O10 0.000000 0.000000 0.000000
#
# Coordination Sequence:
#
# PCOD8118471 Si02
#       5
#     2   4   4   4   4
#     4  10  20  28  56  82 118 160 194 224 280 338
#     4  10  21  38  62  88 120 160 195 233 292 359
#     4  11  19  36  56  91 123 156 191 239 284 359
#     4  10  21  38  62  88 120 160 195 233 292 359
#     4  10  22  42  63  84 112 153 203 248 294 343
#
# _framework density 22.004370999999999
#
# number of rings (size 3 to 8) (size 9 to 14) (size 15 to 20)
#    0.000    1.778    2.222    3.333    3.111    0.889 
#    8.000    0.000    0.000    0.000    0.000    0.000 
#    0.000    0.000    0.000    0.000    0.000    0.000 
#
# Total GULP energy -222999.903376 kJ/mol
# GULP energy per Si atom -12388.883521 kJ/mol
# Density = 2.195429 g / cm^3
# Si number density = 22.004371 Si / 1000 Ang^3
#
#
#
# Elastic Constant Matrix: (Units=GPa)
#
#
# Indices 1 2 3 4 5 6 
#
# 1 138.8933 49.8815 36.1457 0.0000 -43.5808 0.0000
# 2 49.8815 120.4613 26.9954 0.0000 -26.6106 0.0000
# 3 36.1457 26.9954 78.3452 0.0000 -26.4090 0.0000
# 4 0.0000 0.0000 0.0000 32.4281 0.0000 -12.4973
# 5 -43.5808 -26.6106 -26.4090 0.0000 35.8162 0.0000
# 6 0.0000 0.0000 0.0000 -12.4973 0.0000 23.8243
#
#
#
# Elastic Compliance Matrix: (Units=1/GPa)
#
#
# Indices 1 2 3 4 5 6 
#
# 1 0.012093 -0.002061 -0.000566 0.000000 0.012766 0.000000
# 2 -0.002061 0.010374 -0.001159 0.000000 0.004346 0.000000
# 3 -0.000566 -0.001159 0.017170 0.000000 0.011110 0.000000
# 4 0.000000 0.000000 0.000000 0.038651 0.000000 0.020275
# 5 0.012766 0.004346 0.011110 0.000000 0.054875 0.000000
# 6 0.000000 0.000000 0.000000 0.020275 0.000000 0.052609
#
#
# Mechanical properties :
#
#
# Convention : Reuss Voigt Hill
#
# Bulk Modulus (GPa) = 31.18584 62.63835 46.91209
# Shear Modulus (GPa) = 24.50599 33.39220 28.94910
#
# Velocity S-wave (km/s) = 3.34082 3.89977 3.63106
# Velocity P-wave (km/s) = 5.39303 6.98611 6.24061
#
# Compressibility (1/GPa) = 0.03206584
#
# Stress axis : x y z
#
# Youngs Moduli (GPa) = 82.69462 96.39029 58.24260
#
# Poissons Ratio (x) = 0.19861 0.03296
# Poissons Ratio (y) = 0.17039 0.06751
# Poissons Ratio (z) = 0.04680 0.11172
#
# Static dielectric constant tensor:
#      x y z
#    x 4.343630 0.000000 -0.414570 
#    y 0.000000 3.555560 0.000000 
#    z -0.414570 0.000000 3.953790 
# 
# 
# High freq. dielectric constant tensor:
#      x y z
#    x 1.879490 0.000000 -0.034080 
#    y 0.000000 1.823600 0.000000 
#    z -0.034080 0.000000 1.851550 
# 
# From -- ./inp_files/11770.got.cif
#   From: 2010.06.25/outbox.cif.g09.slc.cpg/sg13_6_cif.got.tgz:11770.got - 2010.06.28 04:50:58.
