data_PCOD8118385
_publ_section_title
;
Structure prediction by ZEFSAII (Michael W. Deem and Ramdas Pophale) SiO2 
 PCOD8118385
Probable space group: P 2/C
;
_chemical_formula_sum "Si O2"
_cell_formula_units_Z 28
_cell_length_a 19.517802
_cell_length_b 9.504012
_cell_length_c 14.127732
_cell_angle_alpha 90.000000
_cell_angle_beta 146.134957
_cell_angle_gamma 90.000000
_cell_volume 1460.331745
_symmetry_space_group_name_H-M "P 2/C"
_symmetry_group_IT_number 13
_symmetry_cell_setting 'monoclinic'
loop_
_space_group_symop_operation_xyz
x,y,z
-x,y,1/2-z
-x,-y,-z
x,-y,1/2+z
loop_
_atom_site_type_symbol
_atom_site_label
_atom_site_fract_x
_atom_site_fract_y
_atom_site_fract_z
Si Si1 0.330460 0.390930 0.790562
Si Si2 0.985176 0.115052 0.126231
Si Si3 0.396452 0.887746 0.701201
Si Si4 0.073511 0.358526 0.566099
Si Si5 0.707061 0.921224 0.261598
Si Si6 0.519346 0.577452 0.666979
Si Si7 0.187907 0.884493 0.313340
O O1 0.185760 0.414232 0.632399
O O2 0.355781 0.229403 0.792207
O O3 0.371916 0.486935 0.751986
O O4 0.396009 0.437103 0.963523
O O5 0.000000 0.164212 0.250000
O O6 0.011555 0.250551 0.090574
O O7 0.845922 0.063426 0.957152
O O8 0.075791 0.990719 0.199825
O O9 0.500000 0.955743 0.750000
O O10 0.442934 0.738441 0.788458
O O11 0.266082 0.871958 0.498562
O O12 0.379462 0.972430 0.779874
O O13 0.130802 0.269419 0.720626
O O14 0.000000 0.500000 0.500000
O O15 0.718592 0.942535 0.160943
O O16 0.500000 0.518286 0.750000
#
# Coordination Sequence:
#
# PCOD8118385 Si02
#       7
#     4   4   4   4   4   4   4
#     4   9  21  39  56  80 115 149 185 231 283 334
#     4  10  19  39  60  83 115 152 185 234 289 338
#     4  11  22  36  58  87 112 146 194 233 278 336
#     4  10  21  39  58  85 117 148 190 236 280 339
#     4  10  20  37  58  82 115 142 187 236 279 335
#     4  10  20  38  59  79 111 151 188 229 282 336
#     4  10  21  39  60  84 115 152 185 234 290 341
#
# _framework density 19.173725000000001
#
# number of rings (size 3 to 8) (size 9 to 14) (size 15 to 20)
#    0.000    2.286    1.429    5.143    0.000    5.143 
#   10.286    2.857    0.000    0.000    0.000    0.000 
#    0.000    0.000    0.000    0.000    0.000    0.000 
#
# Total GULP energy -346992.305427 kJ/mol
# GULP energy per Si atom -12392.582337 kJ/mol
# Density = 1.913008 g / cm^3
# Si number density = 19.173725 Si / 1000 Ang^3
#
#
#
# Elastic Constant Matrix: (Units=GPa)
#
#
# Indices 1 2 3 4 5 6 
#
# 1 100.6528 54.1926 19.8517 0.0000 -4.9716 0.0000
# 2 54.1926 73.2915 13.3438 0.0000 7.8535 0.0000
# 3 19.8517 13.3438 35.5414 0.0000 0.7643 0.0000
# 4 0.0000 0.0000 0.0000 22.0774 0.0000 10.2424
# 5 -4.9716 7.8535 0.7643 0.0000 29.1556 0.0000
# 6 0.0000 0.0000 0.0000 10.2424 0.0000 44.1723
#
#
#
# Elastic Compliance Matrix: (Units=1/GPa)
#
#
# Indices 1 2 3 4 5 6 
#
# 1 0.018651 -0.013539 -0.005484 0.000000 0.006971 0.000000
# 2 -0.013539 0.024907 -0.001596 0.000000 -0.008976 0.000000
# 3 -0.005484 -0.001596 0.031827 0.000000 -0.001340 0.000000
# 4 0.000000 0.000000 0.000000 0.050755 0.000000 -0.011769
# 5 0.006971 -0.008976 -0.001340 0.000000 0.037940 0.000000
# 6 0.000000 0.000000 0.000000 -0.011769 0.000000 0.025367
#
#
# Mechanical properties :
#
#
# Convention : Reuss Voigt Hill
#
# Bulk Modulus (GPa) = 29.28508 42.69576 35.99042
# Shear Modulus (GPa) = 20.65526 27.22092 23.93809
#
# Velocity S-wave (km/s) = 3.28574 3.77198 3.53722
# Velocity P-wave (km/s) = 5.44991 6.42547 5.95769
#
# Compressibility (1/GPa) = 0.03414709
#
# Stress axis : x y z
#
# Youngs Moduli (GPa) = 53.61738 40.14867 31.41945
#
# Poissons Ratio (x) = 0.54357 0.17231
# Poissons Ratio (y) = 0.72593 0.05015
# Poissons Ratio (z) = 0.29405 0.06408
#
# Static dielectric constant tensor:
#      x y z
#    x 3.612680 0.000000 -0.087680 
#    y 0.000000 3.451140 0.000000 
#    z -0.087680 0.000000 3.638550 
# 
# 
# High freq. dielectric constant tensor:
#      x y z
#    x 1.746590 0.000000 -0.002070 
#    y 0.000000 1.733600 0.000000 
#    z -0.002070 0.000000 1.755080 
# 
# From -- ./inp_files/57323.got.cif
#   From: 2010.06.25/outbox.cif.g09.slc.cpg/sg13_29_cif.got.tgz:57323.got - 2010.06.28 04:50:58.
