data_PCOD8118205
_publ_section_title
;
Structure prediction by ZEFSAII (Michael W. Deem and Ramdas Pophale) SiO2 
 PCOD8118205
Probable space group: P 2/C
;
_chemical_formula_sum "Si O2"
_cell_formula_units_Z 26
_cell_length_a 5.103726
_cell_length_b 18.585578
_cell_length_c 14.087198
_cell_angle_alpha 90.000000
_cell_angle_beta 109.941201
_cell_angle_gamma 90.000000
_cell_volume 1256.133553
_symmetry_space_group_name_H-M "P 2/C"
_symmetry_group_IT_number 13
_symmetry_cell_setting 'monoclinic'
loop_
_space_group_symop_operation_xyz
x,y,z
-x,y,1/2-z
-x,-y,-z
x,-y,1/2+z
loop_
_atom_site_type_symbol
_atom_site_label
_atom_site_fract_x
_atom_site_fract_y
_atom_site_fract_z
Si Si1 0.540112 0.935476 0.143712
Si Si2 0.904808 0.746896 0.068337
Si Si3 0.000000 0.168631 0.750000
Si Si4 0.210512 0.581125 0.440662
Si Si5 0.316116 0.179559 0.494505
Si Si6 0.367817 0.494462 0.634615
Si Si7 0.689148 0.912093 0.683197
O O1 0.500000 0.941795 0.250000
O O2 0.801299 0.883056 0.164891
O O3 0.573858 0.017599 0.111641
O O4 0.299365 0.894163 0.055845
O O5 0.105065 0.777804 0.178615
O O6 0.899152 0.661740 0.070714
O O7 0.589507 0.773006 0.044508
O O8 0.043463 0.773476 0.986783
O O9 0.352506 0.561291 0.559317
O O10 0.439667 0.568711 0.386543
O O11 0.944549 0.532043 0.384998
O O12 0.306161 0.157235 0.383433
O O13 0.500000 0.521334 0.750000
O O14 0.500000 0.892329 0.750000
O O15 0.000000 0.933172 0.750000
#
# Coordination Sequence:
#
# PCOD8118205 Si02
#       7
#     4   4   2   4   4   4   4
#     4  10  19  37  55  85 116 151 197 250 314 359
#     4  11  23  38  60  88 129 155 196 242 316 367
#     4  10  20  34  54  88 122 154 184 250 308 374
#     4  10  22  40  60  96 127 161 204 251 292 365
#     4  11  23  39  59  85 120 157 200 249 304 370
#     4  10  21  39  65  91 127 162 210 246 290 350
#     4  11  23  39  61  82 112 157 212 259 302 354
#
# _framework density 20.698436999999998
#
# number of rings (size 3 to 8) (size 9 to 14) (size 15 to 20)
#    0.000    1.538    2.308    2.769    2.154    0.000 
#    0.000    6.923    0.000    1.846    0.000    0.000 
#    0.000    0.000    0.000    0.000    0.000    0.000 
#
# Total GULP energy -322218.852479 kJ/mol
# GULP energy per Si atom -12393.032788 kJ/mol
# Density = 2.065133 g / cm^3
# Si number density = 20.698437 Si / 1000 Ang^3
#
#
#
# Elastic Constant Matrix: (Units=GPa)
#
#
# Indices 1 2 3 4 5 6 
#
# 1 96.1183 7.1465 10.4824 0.0000 -12.3474 0.0000
# 2 7.1465 62.0329 13.9422 0.0000 -16.4300 0.0000
# 3 10.4824 13.9422 80.9038 0.0000 -11.5608 0.0000
# 4 0.0000 0.0000 0.0000 -250.7647 0.0000 -144.6473
# 5 -12.3474 -16.4300 -11.5608 0.0000 26.3943 0.0000
# 6 0.0000 0.0000 0.0000 -144.6473 0.0000 -46.1112
#
#
#
# Elastic Compliance Matrix: (Units=1/GPa)
#
#
# Indices 1 2 3 4 5 6 
#
# 1 0.011113 0.000215 -0.000763 0.000000 0.004999 0.000000
# 2 0.000215 0.019533 -0.001752 0.000000 0.011492 0.000000
# 3 -0.000763 -0.001752 0.013392 0.000000 0.004419 0.000000
# 4 0.000000 0.000000 0.000000 0.004927 0.000000 -0.015454
# 5 0.004999 0.011492 0.004419 0.000000 0.049315 0.000000
# 6 0.000000 0.000000 0.000000 -0.015454 0.000000 0.026792
#
#
# Mechanical properties :
#
#
# Convention : Reuss Voigt Hill
#
# Bulk Modulus (GPa) = 25.35491 33.57746 29.46618
# Shear Modulus (GPa) = 35.00972 -40.26408 -2.62718
#
# Velocity S-wave (km/s) = 4.11715 -4.41531 -1.12784
# Velocity P-wave (km/s) = 5.90572 3.12023 3.54554
#
# Compressibility (1/GPa) = 0.03944010
#
# Stress axis : x y z
#
# Youngs Moduli (GPa) = 89.98335 51.19462 74.66876
#
# Poissons Ratio (x) = -0.01101 0.05695
# Poissons Ratio (y) = -0.01935 0.13081
# Poissons Ratio (z) = 0.06863 0.08968
#
# Static dielectric constant tensor:
#      x y z
#    x 3.549340 0.000000 -0.167320 
#    y 0.000000 3.737280 0.000000 
#    z -0.167320 0.000000 3.741600 
# 
# 
# High freq. dielectric constant tensor:
#      x y z
#    x 1.813980 0.000000 -0.008240 
#    y 0.000000 1.796360 0.000000 
#    z -0.008240 0.000000 1.801440 
# 
# From -- ./inp_files/44354.got.cif
#   From: 2010.06.25/outbox.cif.g09.slc.cpg/sg13_23_cif.got.tgz:44354.got - 2010.06.28 04:50:58.
