data_PCOD8118365
_publ_section_title
;
Structure prediction by ZEFSAII (Michael W. Deem and Ramdas Pophale) SiO2 
 PCOD8118365
Probable space group: P 2/C
;
_chemical_formula_sum "Si O2"
_cell_formula_units_Z 28
_cell_length_a 9.094300
_cell_length_b 15.563148
_cell_length_c 12.056394
_cell_angle_alpha 90.000000
_cell_angle_beta 128.778710
_cell_angle_gamma 90.000000
_cell_volume 1330.269669
_symmetry_space_group_name_H-M "P 2/C"
_symmetry_group_IT_number 13
_symmetry_cell_setting 'monoclinic'
loop_
_space_group_symop_operation_xyz
x,y,z
-x,y,1/2-z
-x,-y,-z
x,-y,1/2+z
loop_
_atom_site_type_symbol
_atom_site_label
_atom_site_fract_x
_atom_site_fract_y
_atom_site_fract_z
Si Si1 0.835116 0.903995 0.086305
Si Si2 0.722882 0.085412 0.070435
Si Si3 0.471996 0.604503 0.363506
Si Si4 0.557721 0.221007 0.552643
Si Si5 0.097326 0.861256 0.627333
Si Si6 0.218671 0.543312 0.827207
Si Si7 0.673779 0.699929 0.749326
O O1 0.000000 0.925577 0.250000
O O2 0.693021 0.985108 0.027821
O O3 0.742484 0.812459 0.074463
O O4 0.909115 0.905872 0.995710
O O5 0.537504 0.135837 0.939932
O O6 0.751556 0.095072 0.217593
O O7 0.893490 0.130850 0.085487
O O8 0.500000 0.579895 0.250000
O O9 0.399825 0.703985 0.338517
O O10 0.671276 0.584828 0.516779
O O11 0.306041 0.548909 0.340028
O O12 0.404708 0.262908 0.401077
O O13 0.157509 0.762339 0.631744
O O14 0.239732 0.605776 0.730576
O O15 0.000000 0.530358 0.750000
O O16 0.500000 0.692806 0.750000
#
# Coordination Sequence:
#
# PCOD8118365 Si02
#       7
#     4   4   4   4   4   4   4
#     4  12  23  39  58  91 131 170 211 270 325 379
#     4  10  22  39  63  85 121 167 225 267 312 373
#     4  10  23  45  64  96 140 165 210 276 330 392
#     4  10  23  40  60  89 124 168 205 261 322 378
#     4  10  21  38  61  90 121 162 216 266 308 375
#     4  10  23  41  71  99 126 169 219 264 322 400
#     4  10  19  38  65  91 119 160 211 259 307 375
#
# _framework density 21.048363999999999
#
# number of rings (size 3 to 8) (size 9 to 14) (size 15 to 20)
#    0.000    1.714    2.857    1.286    6.000    2.286 
#    0.000    0.000    0.000    0.000    0.000    0.000 
#    0.000    0.000    0.000    0.000    0.000    0.000 
#
# Total GULP energy -347086.058765 kJ/mol
# GULP energy per Si atom -12395.930670 kJ/mol
# Density = 2.100046 g / cm^3
# Si number density = 21.048364 Si / 1000 Ang^3
#
#
#
# Elastic Constant Matrix: (Units=GPa)
#
#
# Indices 1 2 3 4 5 6 
#
# 1 100.5686 41.1919 38.4087 0.0000 -5.7700 0.0000
# 2 41.1919 118.4486 38.9997 0.0000 1.1554 0.0000
# 3 38.4087 38.9997 67.9214 0.0000 -20.3763 0.0000
# 4 0.0000 0.0000 0.0000 -94.4317 0.0000 -4.9065
# 5 -5.7700 1.1554 -20.3763 0.0000 31.3626 0.0000
# 6 0.0000 0.0000 0.0000 -4.9065 0.0000 29.5962
#
#
#
# Elastic Compliance Matrix: (Units=1/GPa)
#
#
# Indices 1 2 3 4 5 6 
#
# 1 0.013404 -0.002427 -0.006732 0.000000 -0.001818 0.000000
# 2 -0.002427 0.011611 -0.006902 0.000000 -0.005359 0.000000
# 3 -0.006732 -0.006902 0.027571 0.000000 0.016929 0.000000
# 4 0.000000 0.000000 0.000000 -0.010499 0.000000 -0.001741
# 5 -0.001818 -0.005359 0.016929 0.000000 0.042747 0.000000
# 6 0.000000 0.000000 0.000000 -0.001741 0.000000 0.033500
#
#
# Mechanical properties :
#
#
# Convention : Reuss Voigt Hill
#
# Bulk Modulus (GPa) = 48.86417 58.23769 53.55093
# Shear Modulus (GPa) = 31.79086 4.52796 18.15941
#
# Velocity S-wave (km/s) = 3.89057 1.46829 2.94044
# Velocity P-wave (km/s) = 6.59148 5.53201 6.08485
#
# Compressibility (1/GPa) = 0.02046489
#
# Stress axis : x y z
#
# Youngs Moduli (GPa) = 74.60303 86.12197 36.26959
#
# Poissons Ratio (x) = 0.20905 0.24415
# Poissons Ratio (y) = 0.18109 0.25034
# Poissons Ratio (z) = 0.50220 0.59442
#
# Static dielectric constant tensor:
#      x y z
#    x 3.639340 0.000000 -0.062340 
#    y 0.000000 4.201870 0.000000 
#    z -0.062340 0.000000 3.615480 
# 
# 
# High freq. dielectric constant tensor:
#      x y z
#    x 1.824960 0.000000 -0.006880 
#    y 0.000000 1.837560 0.000000 
#    z -0.006880 0.000000 1.798060 
# 
# From -- ./inp_files/30225.got.cif
#   From: 2010.06.25/outbox.cif.g09.slc.cpg/sg13_16_cif.got.tgz:30225.got - 2010.06.28 04:50:58.
