data_PCOD8118019
_publ_section_title
;
Structure prediction by ZEFSAII (Michael W. Deem and Ramdas Pophale) SiO2 
 PCOD8118019
Probable space group: P 2/C
;
_chemical_formula_sum "Si O2"
_cell_formula_units_Z 24
_cell_length_a 15.905581
_cell_length_b 7.536469
_cell_length_c 15.994901
_cell_angle_alpha 90.000000
_cell_angle_beta 34.129809
_cell_angle_gamma 90.000000
_cell_volume 1075.761134
_symmetry_space_group_name_H-M "P 2/C"
_symmetry_group_IT_number 13
_symmetry_cell_setting 'monoclinic'
loop_
_space_group_symop_operation_xyz
x,y,z
-x,y,1/2-z
-x,-y,-z
x,-y,1/2+z
loop_
_atom_site_type_symbol
_atom_site_label
_atom_site_fract_x
_atom_site_fract_y
_atom_site_fract_z
Si Si1 0.598834 0.719242 0.934543
Si Si2 0.175592 0.002879 0.699305
Si Si3 0.831439 0.016768 0.491268
Si Si4 0.664464 0.670967 0.629686
Si Si5 0.611002 0.701002 0.234981
Si Si6 0.325853 0.643954 0.064635
O O1 0.475640 0.741603 0.108794
O O2 0.499498 0.715215 0.931135
O O3 0.692243 0.536308 0.867309
O O4 0.714494 0.880472 0.836529
O O5 0.204340 0.964597 0.577741
O O6 0.211034 0.207278 0.692095
O O7 0.006781 0.963887 0.865004
O O8 0.775025 0.824892 0.570537
O O9 0.752512 0.169836 0.609485
O O10 0.500000 0.754569 0.750000
O O11 0.667628 0.503479 0.689544
O O12 0.714328 0.597250 0.497569
O O13 0.500000 0.733727 0.250000
#
# Coordination Sequence:
#
# PCOD8118019 Si02
#       6
#     4   4   4   4   4   4
#     4  11  21  36  60  82 110 143 185 228 273 321
#     4  10  21  37  54  84 110 147 182 221 277 327
#     4  10  21  34  58  81 114 142 180 231 271 320
#     4  10  19  35  58  85 107 140 189 226 269 317
#     4  11  19  35  58  87 106 139 186 232 270 315
#     4  10  21  36  57  82 110 146 183 225 270 326
#
# _framework density 22.309785000000002
#
# number of rings (size 3 to 8) (size 9 to 14) (size 15 to 20)
#    0.000    1.667    5.000    1.000    2.333    1.333 
#    0.000    4.167    0.000    3.000    0.000    0.000 
#    0.000    0.000    0.000    0.000    0.000    0.000 
#
# Total GULP energy -297598.938981 kJ/mol
# GULP energy per Si atom -12399.955791 kJ/mol
# Density = 2.225901 g / cm^3
# Si number density = 22.309785 Si / 1000 Ang^3
#
#
#
# Elastic Constant Matrix: (Units=GPa)
#
#
# Indices 1 2 3 4 5 6 
#
# 1 36.2912 22.4713 16.9338 0.0000 -2.6512 0.0000
# 2 22.4713 112.2078 71.5979 0.0000 -14.3334 0.0000
# 3 16.9338 71.5979 94.9010 0.0000 -21.3957 0.0000
# 4 0.0000 0.0000 0.0000 29.0177 0.0000 -3.3450
# 5 -2.6512 -14.3334 -21.3957 0.0000 18.9574 0.0000
# 6 0.0000 0.0000 0.0000 -3.3450 0.0000 15.9572
#
#
#
# Elastic Compliance Matrix: (Units=1/GPa)
#
#
# Indices 1 2 3 4 5 6 
#
# 1 0.031645 -0.005212 -0.002153 0.000000 -0.001945 0.000000
# 2 -0.005212 0.018112 -0.013160 0.000000 -0.001887 0.000000
# 3 -0.002153 -0.013160 0.024866 0.000000 0.017813 0.000000
# 4 0.000000 0.000000 0.000000 0.035315 0.000000 0.007403
# 5 -0.001945 -0.001887 0.017813 0.000000 0.071155 0.000000
# 6 0.000000 0.000000 0.000000 0.007403 0.000000 0.064220
#
#
# Mechanical properties :
#
#
# Convention : Reuss Voigt Hill
#
# Bulk Modulus (GPa) = 29.78609 51.71178 40.74894
# Shear Modulus (GPa) = 16.80372 21.61291 19.20832
#
# Velocity S-wave (km/s) = 2.74743 3.11587 2.93743
# Velocity P-wave (km/s) = 4.84196 6.01450 5.45980
#
# Compressibility (1/GPa) = 0.03357271
#
# Stress axis : x y z
#
# Youngs Moduli (GPa) = 31.60098 55.21234 40.21555
#
# Poissons Ratio (x) = 0.28777 0.08658
# Poissons Ratio (y) = 0.16471 0.52924
# Poissons Ratio (z) = 0.06803 0.72659
#
# Static dielectric constant tensor:
#      x y z
#    x 3.991070 0.000000 0.073950 
#    y 0.000000 4.073450 0.000000 
#    z 0.073950 0.000000 3.836060 
# 
# 
# High freq. dielectric constant tensor:
#      x y z
#    x 1.865020 0.000000 0.009120 
#    y 0.000000 1.884560 0.000000 
#    z 0.009120 0.000000 1.856780 
# 
# From -- ./inp_files/69419.got.cif
#   From: 2010.06.25/outbox.cif.g09.slc.cpg/sg13_35_cif.got.tgz:69419.got - 2010.06.28 04:50:58.
