data_PCOD8118553
_publ_section_title
;
Structure prediction by ZEFSAII (Michael W. Deem and Ramdas Pophale) SiO2 
 PCOD8118553
Probable space group: P 2/C
;
_chemical_formula_sum "Si O2"
_cell_formula_units_Z 20
_cell_length_a 22.211298
_cell_length_b 5.203601
_cell_length_c 18.287478
_cell_angle_alpha 90.000000
_cell_angle_beta 27.060263
_cell_angle_gamma 90.000000
_cell_volume 961.554351
_symmetry_space_group_name_H-M "P 2/C"
_symmetry_group_IT_number 13
_symmetry_cell_setting 'monoclinic'
loop_
_space_group_symop_operation_xyz
x,y,z
-x,y,1/2-z
-x,-y,-z
x,-y,1/2+z
loop_
_atom_site_type_symbol
_atom_site_label
_atom_site_fract_x
_atom_site_fract_y
_atom_site_fract_z
Si Si1 0.621515 0.754285 0.298860
Si Si2 0.106942 0.688879 0.196430
Si Si3 0.672691 0.253881 0.328428
Si Si4 0.173637 0.196764 0.195482
Si Si5 0.646264 0.582599 0.110241
O O1 0.690933 0.525566 0.268792
O O2 0.464494 0.749762 0.479460
O O3 0.654345 0.724729 0.178686
O O4 0.680400 0.025549 0.261237
O O5 0.076055 0.431311 0.277248
O O6 0.000000 0.732413 0.250000
O O7 0.101939 0.928213 0.257103
O O8 0.252432 0.659521 0.001551
O O9 0.791854 0.217165 0.256560
O O10 0.308062 0.213923 0.001313
O O11 0.500000 0.479079 0.250000
#
# Coordination Sequence:
#
# PCOD8118553 Si02
#       5
#     4   4   4   4   4
#     4  10  20  33  53  82 123 149 184 230 297 343
#     4  10  22  38  62  85 114 154 196 242 287 343
#     4  10  20  34  53  83 119 156 180 230 294 352
#     4  10  21  37  60  84 113 153 197 235 284 342
#     4  10  22  37  61  92 117 145 196 250 286 334
#
# _framework density 20.799657
#
# number of rings (size 3 to 8) (size 9 to 14) (size 15 to 20)
#    1.200    0.800    2.000    1.800    2.800    2.400 
#    0.000    0.000    0.000    7.200    0.000    0.000 
#    0.000    0.000    0.000    0.000    0.000    0.000 
#
# Total GULP energy -247913.555347 kJ/mol
# GULP energy per Si atom -12395.677767 kJ/mol
# Density = 2.075232 g / cm^3
# Si number density = 20.799657 Si / 1000 Ang^3
#
#
#
# Elastic Constant Matrix: (Units=GPa)
#
#
# Indices 1 2 3 4 5 6 
#
# 1 138.2391 38.8077 14.5285 0.0000 -13.2677 0.0000
# 2 38.8077 140.1413 5.8041 0.0000 -11.2414 0.0000
# 3 14.5285 5.8041 23.2827 0.0000 -5.8686 0.0000
# 4 0.0000 0.0000 0.0000 7.9958 0.0000 -4.1099
# 5 -13.2677 -11.2414 -5.8686 0.0000 31.1273 0.0000
# 6 0.0000 0.0000 0.0000 -4.1099 0.0000 31.3673
#
#
#
# Elastic Compliance Matrix: (Units=1/GPa)
#
#
# Indices 1 2 3 4 5 6 
#
# 1 0.008439 -0.001995 -0.004246 0.000000 0.002076 0.000000
# 2 -0.001995 0.007853 -0.000223 0.000000 0.001944 0.000000
# 3 -0.004246 -0.000223 0.047433 0.000000 0.007053 0.000000
# 4 0.000000 0.000000 0.000000 0.134096 0.000000 0.017570
# 5 0.002076 0.001944 0.007053 0.000000 0.035043 0.000000
# 6 0.000000 0.000000 0.000000 0.017570 0.000000 0.034182
#
#
# Mechanical properties :
#
#
# Convention : Reuss Voigt Hill
#
# Bulk Modulus (GPa) = 19.68550 46.66041 33.17295
# Shear Modulus (GPa) = 16.84035 30.26629 23.55332
#
# Velocity S-wave (km/s) = 2.84851 3.81876 3.36875
# Velocity P-wave (km/s) = 4.50595 6.47502 5.57806
#
# Compressibility (1/GPa) = 0.05079882
#
# Stress axis : x y z
#
# Youngs Moduli (GPa) = 118.49387 127.33724 21.08244
#
# Poissons Ratio (x) = 0.25399 0.08951
# Poissons Ratio (y) = 0.23635 0.00470
# Poissons Ratio (z) = 0.50307 0.02841
#
# Static dielectric constant tensor:
#      x y z
#    x 3.678340 0.000000 -0.000910 
#    y 0.000000 3.697350 0.000000 
#    z -0.000910 0.000000 3.315680 
# 
# 
# High freq. dielectric constant tensor:
#      x y z
#    x 1.825680 0.000000 0.001210 
#    y 0.000000 1.815550 0.000000 
#    z 0.001210 0.000000 1.769640 
# 
# From -- ./inp_files/68994.got.cif
#   From: 2010.06.25/outbox.cif.g09.slc.cpg/sg13_35_cif.got.tgz:68994.got - 2010.06.28 04:50:58.
