data_PCOD8118551
_publ_section_title
;
Structure prediction by ZEFSAII (Michael W. Deem and Ramdas Pophale) SiO2 
 PCOD8118551
Probable space group: P 2/C
;
_chemical_formula_sum "Si O2"
_cell_formula_units_Z 30
_cell_length_a 27.190443
_cell_length_b 11.054079
_cell_length_c 27.021140
_cell_angle_alpha 90.000000
_cell_angle_beta 169.411574
_cell_angle_gamma 90.000000
_cell_volume 1492.369814
_symmetry_space_group_name_H-M "P 2/C"
_symmetry_group_IT_number 13
_symmetry_cell_setting 'monoclinic'
loop_
_space_group_symop_operation_xyz
x,y,z
-x,y,1/2-z
-x,-y,-z
x,-y,1/2+z
loop_
_atom_site_type_symbol
_atom_site_label
_atom_site_fract_x
_atom_site_fract_y
_atom_site_fract_z
Si Si1 0.601645 0.185465 0.657907
Si Si2 0.820975 0.080465 0.651391
Si Si3 0.231007 0.511199 0.512035
Si Si4 0.666959 0.694064 0.319491
Si Si5 0.690742 0.071686 0.295431
Si Si6 0.000000 0.257886 0.750000
Si Si7 0.093726 0.137258 0.090102
Si Si8 0.855420 0.189394 0.158527
O O1 0.586474 0.296292 0.681981
O O2 0.316624 0.167759 0.350954
O O3 0.676370 0.065190 0.762093
O O4 0.829635 0.215878 0.842261
O O5 0.806207 0.175213 0.591606
O O6 0.600437 0.114940 0.474306
O O7 0.761198 0.949080 0.569916
O O8 0.113227 0.082548 0.964330
O O9 0.250650 0.444049 0.584722
O O10 0.000000 0.447793 0.250000
O O11 0.168600 0.655424 0.454617
O O12 0.500000 0.489196 0.750000
O O13 0.927805 0.778609 0.584992
O O14 0.416658 0.733942 0.105894
O O15 0.789925 0.161713 0.349661
O O16 0.000000 0.000000 0.000000
O O17 0.000000 0.214561 0.250000
#
# Coordination Sequence:
#
# PCOD8118551 Si02
#       8
#     4   4   4   4   4   2   4   4
#     4  11  19  33  54  85 120 151 188 240 289 363
#     4  12  22  37  56  83 119 157 193 242 274 361
#     4  10  23  43  61  79 116 154 205 248 286 345
#     4  12  22  36  59  87 116 151 199 239 296 352
#     4  11  21  35  53  83 117 159 193 226 294 353
#     4  10  28  42  62  82 120 158 216 238 296 326
#     4  10  20  33  53  78 122 160 185 226 291 365
#     4  12  22  35  53  84 122 154 188 233 304 349
#
# _framework density 20.102257000000002
#
# number of rings (size 3 to 8) (size 9 to 14) (size 15 to 20)
#    0.400    0.533    3.333    7.200    1.867    0.000 
#    0.000    0.000    0.000    0.000    0.000    5.600 
#    0.000    0.000    0.000    0.000    0.000    0.000 
#
# Total GULP energy -371894.233935 kJ/mol
# GULP energy per Si atom -12396.474464 kJ/mol
# Density = 2.005650 g / cm^3
# Si number density = 20.102257 Si / 1000 Ang^3
#
#
#
# Elastic Constant Matrix: (Units=GPa)
#
#
# Indices 1 2 3 4 5 6 
#
# 1 75.9681 31.5763 10.6688 0.0000 21.7630 0.0000
# 2 31.5763 73.1372 22.3454 0.0000 5.4208 0.0000
# 3 10.6688 22.3454 111.2887 0.0000 11.0772 0.0000
# 4 0.0000 0.0000 0.0000 19.5846 0.0000 -5.8756
# 5 21.7630 5.4208 11.0772 0.0000 43.5777 0.0000
# 6 0.0000 0.0000 0.0000 -5.8756 0.0000 16.8988
#
#
#
# Elastic Compliance Matrix: (Units=1/GPa)
#
#
# Indices 1 2 3 4 5 6 
#
# 1 0.018693 -0.007617 0.000587 0.000000 -0.008537 0.000000
# 2 -0.007617 0.017722 -0.003065 0.000000 0.002379 0.000000
# 3 0.000587 -0.003065 0.009784 0.000000 -0.002399 0.000000
# 4 0.000000 0.000000 0.000000 0.057007 0.000000 0.019821
# 5 -0.008537 0.002379 -0.002399 0.000000 0.027525 0.000000
# 6 0.000000 0.000000 0.000000 0.019821 0.000000 0.066068
#
#
# Mechanical properties :
#
#
# Convention : Reuss Voigt Hill
#
# Bulk Modulus (GPa) = 38.44916 43.28610 40.86763
# Shear Modulus (GPa) = 22.15760 29.06576 25.61168
#
# Velocity S-wave (km/s) = 3.32361 3.80662 3.57328
# Velocity P-wave (km/s) = 5.82210 6.39532 6.11543
#
# Compressibility (1/GPa) = 0.02600837
#
# Stress axis : x y z
#
# Youngs Moduli (GPa) = 53.49699 56.42832 102.21284
#
# Poissons Ratio (x) = 0.42982 -0.06001
# Poissons Ratio (y) = 0.40749 0.31326
# Poissons Ratio (z) = -0.03141 0.17294
#
# Static dielectric constant tensor:
#      x y z
#    x 3.941340 0.000000 0.268410 
#    y 0.000000 3.353700 0.000000 
#    z 0.268410 0.000000 3.869350 
# 
# 
# High freq. dielectric constant tensor:
#      x y z
#    x 1.779910 0.000000 0.011550 
#    y 0.000000 1.735270 0.000000 
#    z 0.011550 0.000000 1.806590 
# 
# From -- ./inp_files/94224.got.cif
#   From: 2010.06.25/outbox.cif.g09.slc.cpg/sg13_48_cif.got.tgz:94224.got - 2010.06.28 04:50:58.
