data_PCOD8118547
_publ_section_title
;
Structure prediction by ZEFSAII (Michael W. Deem and Ramdas Pophale) SiO2 
 PCOD8118547
Probable space group: P 2/C
;
_chemical_formula_sum "Si O2"
_cell_formula_units_Z 28
_cell_length_a 20.796819
_cell_length_b 14.271445
_cell_length_c 21.221237
_cell_angle_alpha 90.000000
_cell_angle_beta 166.567596
_cell_angle_gamma 90.000000
_cell_volume 1463.123802
_symmetry_space_group_name_H-M "P 2/C"
_symmetry_group_IT_number 13
_symmetry_cell_setting 'monoclinic'
loop_
_space_group_symop_operation_xyz
x,y,z
-x,y,1/2-z
-x,-y,-z
x,-y,1/2+z
loop_
_atom_site_type_symbol
_atom_site_label
_atom_site_fract_x
_atom_site_fract_y
_atom_site_fract_z
Si Si1 0.711432 0.595379 0.005037
Si Si2 0.104365 0.127679 0.714150
Si Si3 0.717916 0.391213 0.753727
Si Si4 0.832563 0.502462 0.748370
Si Si5 0.467273 0.789128 0.791447
Si Si6 0.040405 0.061176 0.100802
Si Si7 0.397692 0.823403 0.364189
O O1 0.803075 0.522553 0.146415
O O2 0.000000 0.631910 0.250000
O O3 0.500000 0.552885 0.750000
O O4 0.548910 0.681224 0.883225
O O5 0.234053 0.161501 0.772693
O O6 0.836434 0.190843 0.471623
O O7 0.054129 0.015308 0.669377
O O8 0.323463 0.140285 0.977428
O O9 0.870703 0.411910 0.831681
O O10 0.443633 0.449882 0.493249
O O11 0.613034 0.285620 0.661810
O O12 0.914136 0.424999 0.998627
O O13 0.500000 0.810712 0.750000
O O14 0.298224 0.132411 0.341473
O O15 0.767325 0.124369 0.849346
O O16 0.000000 0.000000 0.000000
#
# Coordination Sequence:
#
# PCOD8118547 Si02
#       7
#     4   4   4   4   4   4   4
#     4  11  22  37  56  79 109 145 185 228 269 324
#     4  11  20  34  53  75 110 143 167 215 264 307
#     4  10  21  34  54  79 111 143 173 223 273 331
#     4  10  21  36  52  80 110 140 181 218 274 332
#     4  11  22  34  51  78 107 140 180 211 254 319
#     4  10  20  33  51  79 107 135 177 212 254 321
#     4  11  20  34  54  80 108 140 176 213 266 322
#
# _framework density 19.137136999999999
#
# number of rings (size 3 to 8) (size 9 to 14) (size 15 to 20)
#    0.000    1.429    0.000    9.000    0.000    3.429 
#    0.000    0.000    0.000    0.000    0.000   35.000 
#    0.000    0.000    0.000    0.000    0.000    0.000 
#
# Total GULP energy -346969.100934 kJ/mol
# GULP energy per Si atom -12391.753605 kJ/mol
# Density = 1.909358 g / cm^3
# Si number density = 19.137137 Si / 1000 Ang^3
#
#
#
# Elastic Constant Matrix: (Units=GPa)
#
#
# Indices 1 2 3 4 5 6 
#
# 1 59.0785 23.6393 24.0169 0.0000 -15.6459 0.0000
# 2 23.6393 136.4033 52.7078 0.0000 -18.7009 0.0000
# 3 24.0169 52.7078 143.9741 0.0000 -15.0192 0.0000
# 4 0.0000 0.0000 0.0000 45.4406 0.0000 -3.3824
# 5 -15.6459 -18.7009 -15.0192 0.0000 38.0111 0.0000
# 6 0.0000 0.0000 0.0000 -3.3824 0.0000 23.7804
#
#
#
# Elastic Compliance Matrix: (Units=1/GPa)
#
#
# Indices 1 2 3 4 5 6 
#
# 1 0.020231 -0.001817 -0.002017 0.000000 0.006636 0.000000
# 2 -0.001817 0.009066 -0.002742 0.000000 0.002629 0.000000
# 3 -0.002017 -0.002742 0.008405 0.000000 0.001142 0.000000
# 4 0.000000 0.000000 0.000000 0.022242 0.000000 0.003164
# 5 0.006636 0.002629 0.001142 0.000000 0.030784 0.000000
# 6 0.000000 0.000000 0.000000 0.003164 0.000000 0.042501
#
#
# Mechanical properties :
#
#
# Convention : Reuss Voigt Hill
#
# Bulk Modulus (GPa) = 40.73224 60.02044 50.37634
# Shear Modulus (GPa) = 32.34874 37.38588 34.86731
#
# Velocity S-wave (km/s) = 4.11587 4.42472 4.27309
# Velocity P-wave (km/s) = 6.62705 7.58523 7.12227
#
# Compressibility (1/GPa) = 0.02455058
#
# Stress axis : x y z
#
# Youngs Moduli (GPa) = 49.42841 110.30333 118.97632
#
# Poissons Ratio (x) = 0.20039 0.24003
# Poissons Ratio (y) = 0.08980 0.32619
# Poissons Ratio (z) = 0.09972 0.30241
#
# Static dielectric constant tensor:
#      x y z
#    x 3.383570 0.000000 -0.227560 
#    y 0.000000 3.756380 0.000000 
#    z -0.227560 0.000000 3.913390 
# 
# 
# High freq. dielectric constant tensor:
#      x y z
#    x 1.707710 0.000000 -0.008520 
#    y 0.000000 1.737230 0.000000 
#    z -0.008520 0.000000 1.775910 
# 
# From -- ./inp_files/89215.got.cif
#   From: 2010.06.25/outbox.cif.g09.slc.cpg/sg13_45_cif.got.tgz:89215.got - 2010.06.28 04:50:58.
