data_PCOD8118845
_publ_section_title
;
Structure prediction by ZEFSAII (Michael W. Deem and Ramdas Pophale) SiO2 
 PCOD8118845
Probable space group: P 2/C
;
_chemical_formula_sum "Si O2"
_cell_formula_units_Z 20
_cell_length_a 12.383335
_cell_length_b 8.069237
_cell_length_c 27.236234
_cell_angle_alpha 90.000000
_cell_angle_beta 21.387666
_cell_angle_gamma 90.000000
_cell_volume 992.486818
_symmetry_space_group_name_H-M "P 2/C"
_symmetry_group_IT_number 13
_symmetry_cell_setting 'monoclinic'
loop_
_space_group_symop_operation_xyz
x,y,z
-x,y,1/2-z
-x,-y,-z
x,-y,1/2+z
loop_
_atom_site_type_symbol
_atom_site_label
_atom_site_fract_x
_atom_site_fract_y
_atom_site_fract_z
Si Si1 0.828775 0.349918 0.273352
Si Si2 0.790502 0.503823 0.969242
Si Si3 0.086210 0.666894 0.990666
Si Si4 0.819956 0.163895 0.519142
Si Si5 0.632399 0.122500 0.275654
O O1 0.523827 0.438784 0.416092
O O2 0.781973 0.181155 0.263018
O O3 0.000000 0.302175 0.250000
O O4 0.016651 0.476218 0.160711
O O5 0.959389 0.366024 0.931866
O O6 0.744604 0.671105 0.020377
O O7 0.428827 0.727701 0.839859
O O8 0.000000 0.500000 0.000000
O O9 0.879448 0.804075 0.052260
O O10 0.114697 0.080037 0.371140
O O11 0.548824 0.039119 0.632407
#
# Coordination Sequence:
#
# PCOD8118845 Si02
#       5
#     4   4   4   4   4
#     4  10  20  38  59  81 109 144 186 237 278 317
#     4   9  20  36  57  82 107 139 187 230 274 331
#     4   9  18  34  55  78 108 144 180 225 274 323
#     4  10  20  36  54  80 115 148 181 224 275 335
#     4  10  21  36  54  81 114 149 187 224 271 334
#
# _framework density 20.151399999999999
#
# number of rings (size 3 to 8) (size 9 to 14) (size 15 to 20)
#    0.000    2.400    0.000    1.800    0.000    4.800 
#    0.000   20.000    0.000    0.000    0.000    0.000 
#    0.000    0.000    0.000    0.000    0.000    0.000 
#
# Total GULP energy -247835.509848 kJ/mol
# GULP energy per Si atom -12391.775492 kJ/mol
# Density = 2.010553 g / cm^3
# Si number density = 20.151400 Si / 1000 Ang^3
#
#
#
# Elastic Constant Matrix: (Units=GPa)
#
#
# Indices 1 2 3 4 5 6 
#
# 1 149.1519 35.3202 38.8413 0.0000 -11.7600 0.0000
# 2 35.3202 57.3243 29.7138 0.0000 2.0385 0.0000
# 3 38.8413 29.7138 64.2910 0.0001 -0.0630 0.0000
# 4 0.0000 0.0000 0.0001 32.9900 0.0000 -7.2800
# 5 -11.7600 2.0385 -0.0630 0.0000 25.4604 0.0000
# 6 0.0000 0.0000 0.0000 -7.2800 0.0000 22.6505
#
#
#
# Elastic Compliance Matrix: (Units=1/GPa)
#
#
# Indices 1 2 3 4 5 6 
#
# 1 0.008884 -0.003748 -0.003631 0.000000 0.004395 0.000000
# 2 -0.003748 0.024611 -0.009114 0.000000 -0.003724 0.000000
# 3 -0.003631 -0.009114 0.021959 0.000000 -0.000893 0.000000
# 4 0.000000 0.000000 0.000000 0.032626 0.000000 0.010486
# 5 0.004395 -0.003724 -0.000893 0.000000 0.041603 0.000000
# 6 0.000000 0.000000 0.000000 0.010486 0.000000 0.047520
#
#
# Mechanical properties :
#
#
# Convention : Reuss Voigt Hill
#
# Bulk Modulus (GPa) = 44.50653 53.16865 48.83759
# Shear Modulus (GPa) = 22.96984 27.34628 25.15806
#
# Velocity S-wave (km/s) = 3.37985 3.68780 3.53718
# Velocity P-wave (km/s) = 6.11271 6.67645 6.40079
#
# Compressibility (1/GPa) = 0.02246862
#
# Stress axis : x y z
#
# Youngs Moduli (GPa) = 112.55962 40.63296 45.53948
#
# Poissons Ratio (x) = 0.15230 0.16534
# Poissons Ratio (y) = 0.42191 0.41503
# Poissons Ratio (z) = 0.40867 0.37031
#
# Static dielectric constant tensor:
#      x y z
#    x 3.758410 0.000000 -0.074580 
#    y 0.000000 3.612290 0.000000 
#    z -0.074580 0.000000 3.591480 
# 
# 
# High freq. dielectric constant tensor:
#      x y z
#    x 1.785330 0.000000 -0.006790 
#    y 0.000000 1.779070 0.000000 
#    z -0.006790 0.000000 1.780480 
# 
# From -- ./inp_files/14821.got.cif
#   From: 2010.06.25/outbox.cif.g09.slc.cpg/sg13_8_cif.got.tgz:14821.got - 2010.06.28 04:50:58.
