data_PCOD8118111
_publ_section_title
;
Structure prediction by ZEFSAII (Michael W. Deem and Ramdas Pophale) SiO2 
 PCOD8118111
Probable space group: P 2/C
;
_chemical_formula_sum "Si O2"
_cell_formula_units_Z 32
_cell_length_a 9.218239
_cell_length_b 20.104764
_cell_length_c 13.562422
_cell_angle_alpha 90.000000
_cell_angle_beta 44.187321
_cell_angle_gamma 90.000000
_cell_volume 1751.947097
_symmetry_space_group_name_H-M "P 2/C"
_symmetry_group_IT_number 13
_symmetry_cell_setting 'monoclinic'
loop_
_space_group_symop_operation_xyz
x,y,z
-x,y,1/2-z
-x,-y,-z
x,-y,1/2+z
loop_
_atom_site_type_symbol
_atom_site_label
_atom_site_fract_x
_atom_site_fract_y
_atom_site_fract_z
Si Si1 0.661269 0.611709 0.760007
Si Si2 0.105522 0.638969 0.489536
Si Si3 0.806514 0.955191 0.581196
Si Si4 0.537363 0.642204 0.033543
Si Si5 0.315046 0.539306 0.262775
Si Si6 0.671717 0.248680 0.741022
Si Si7 0.903249 0.880379 0.190063
Si Si8 0.565035 0.005277 0.856364
O O1 0.500000 0.616432 0.750000
O O2 0.730735 0.535682 0.747961
O O3 0.867457 0.652616 0.633094
O O4 0.560061 0.644648 0.905192
O O5 0.239926 0.629807 0.523416
O O6 0.117750 0.573259 0.413490
O O7 0.186042 0.701569 0.389792
O O8 0.897820 0.890259 0.481310
O O9 0.697923 0.942851 0.742405
O O10 0.652862 0.003350 0.594254
O O11 0.000000 0.000000 0.500000
O O12 0.379411 0.581945 0.135581
O O13 0.441661 0.712297 0.115104
O O14 0.500000 0.544528 0.250000
O O15 0.500000 0.217694 0.750000
O O16 0.817690 0.193254 0.717255
O O17 0.706534 0.929487 0.270115
O O18 0.000000 0.890819 0.250000
O O19 0.500000 0.000000 0.000000
#
# Coordination Sequence:
#
# PCOD8118111 Si02
#       8
#     4   4   4   4   4   4   4   4
#     4  11  20  29  50  82 110 136 171 231 287 328
#     4   9  18  36  54  72 102 145 181 227 270 328
#     4   9  20  33  55  86 113 146 175 217 264 312
#     4   9  18  36  54  73 103 143 186 224 272 326
#     4   8  16  31  52  77 104 135 182 226 277 334
#     4   9  21  38  59  76  98 143 195 228 260 320
#     4  11  21  35  57  85 114 147 181 220 275 329
#     4  10  19  36  57  83 119 144 174 216 269 324
#
# _framework density 18.265391999999999
#
# number of rings (size 3 to 8) (size 9 to 14) (size 15 to 20)
#    0.000    2.500    1.250    2.625    3.500    1.000 
#    0.000    4.375    2.750    0.000    0.000    0.000 
#    0.000    0.000    0.000    0.000    0.000    0.000 
#
# Total GULP energy -396430.125357 kJ/mol
# GULP energy per Si atom -12388.441417 kJ/mol
# Density = 1.822382 g / cm^3
# Si number density = 18.265392 Si / 1000 Ang^3
#
#
#
# Elastic Constant Matrix: (Units=GPa)
#
#
# Indices 1 2 3 4 5 6 
#
# 1 87.3641 35.6166 56.6320 0.0000 -7.9946 0.0000
# 2 35.6166 67.2253 36.4963 0.0000 0.8608 0.0000
# 3 56.6320 36.4963 161.3368 0.0000 13.2031 0.0000
# 4 0.0000 0.0000 0.0000 11.8541 0.0000 -3.9267
# 5 -7.9946 0.8608 13.2031 0.0000 24.1228 0.0000
# 6 0.0000 0.0000 0.0000 -3.9267 0.0000 28.6889
#
#
#
# Elastic Compliance Matrix: (Units=1/GPa)
#
#
# Indices 1 2 3 4 5 6 
#
# 1 0.019013 -0.007001 -0.005890 0.000000 0.009775 0.000000
# 2 -0.007001 0.019592 -0.001809 0.000000 -0.002029 0.000000
# 3 -0.005890 -0.001809 0.009243 0.000000 -0.006947 0.000000
# 4 0.000000 0.000000 0.000000 0.088365 0.000000 0.012095
# 5 0.009775 -0.002029 -0.006947 0.000000 0.048569 0.000000
# 6 0.000000 0.000000 0.000000 0.012095 0.000000 0.036512
#
#
# Mechanical properties :
#
#
# Convention : Reuss Voigt Hill
#
# Bulk Modulus (GPa) = 54.20124 63.71289 58.95707
# Shear Modulus (GPa) = 19.46708 25.41192 22.43950
#
# Velocity S-wave (km/s) = 3.26819 3.73401 3.50884
# Velocity P-wave (km/s) = 6.63175 7.31764 6.98312
#
# Compressibility (1/GPa) = 0.01844976
#
# Stress axis : x y z
#
# Youngs Moduli (GPa) = 52.59524 51.04062 108.18540
#
# Poissons Ratio (x) = 0.35732 0.63724
# Poissons Ratio (y) = 0.36820 0.19566
# Poissons Ratio (z) = 0.30980 0.09231
#
# Static dielectric constant tensor:
#      x y z
#    x 3.111080 0.000000 0.195240 
#    y 0.000000 3.367980 0.000000 
#    z 0.195240 0.000000 3.610140 
# 
# 
# High freq. dielectric constant tensor:
#      x y z
#    x 1.704710 0.000000 -0.004340 
#    y 0.000000 1.674740 0.000000 
#    z -0.004340 0.000000 1.723560 
# 
# From -- ./inp_files/30801.got.cif
#   From: 2010.06.25/outbox.cif.g09.slc.cpg/sg13_16_cif.got.tgz:30801.got - 2010.06.28 04:50:58.
