data_PCOD8118092
_publ_section_title
;
Structure prediction by ZEFSAII (Michael W. Deem and Ramdas Pophale) SiO2 
 PCOD8118092
Probable space group: P 2/C
;
_chemical_formula_sum "Si O2"
_cell_formula_units_Z 32
_cell_length_a 24.138517
_cell_length_b 8.685622
_cell_length_c 24.696755
_cell_angle_alpha 90.000000
_cell_angle_beta 162.450429
_cell_angle_gamma 90.000000
_cell_volume 1561.288329
_symmetry_space_group_name_H-M "P 2/C"
_symmetry_group_IT_number 13
_symmetry_cell_setting 'monoclinic'
loop_
_space_group_symop_operation_xyz
x,y,z
-x,y,1/2-z
-x,-y,-z
x,-y,1/2+z
loop_
_atom_site_type_symbol
_atom_site_label
_atom_site_fract_x
_atom_site_fract_y
_atom_site_fract_z
Si Si1 0.671622 0.150854 0.711027
Si Si2 0.690339 0.034952 0.608393
Si Si3 0.338639 0.246696 0.636537
Si Si4 0.205614 0.545101 0.459045
Si Si5 0.095352 0.028607 0.477823
Si Si6 0.293096 0.349379 0.928322
Si Si7 0.120895 0.328585 0.987670
Si Si8 0.617537 0.444959 0.716798
O O1 0.715154 0.110669 0.690269
O O2 0.659448 0.335293 0.704758
O O3 0.480202 0.079256 0.553619
O O4 0.839789 0.093313 0.904286
O O5 0.655902 0.170917 0.533189
O O6 0.876763 0.942708 0.767476
O O7 0.500000 0.171689 0.750000
O O8 0.243353 0.367233 0.507152
O O9 0.412004 0.335844 0.758033
O O10 0.197347 0.112892 0.522873
O O11 0.327241 0.612335 0.523584
O O12 0.240003 0.648444 0.544141
O O13 0.000000 0.565853 0.250000
O O14 0.136560 0.847957 0.518090
O O15 0.088692 0.384361 0.716185
O O16 0.435593 0.460747 0.030775
O O17 0.211658 0.437206 0.117756
#
# Coordination Sequence:
#
# PCOD8118092 Si02
#       8
#     4   4   4   4   4   4   4   4
#     4  10  22  39  60  86 113 153 196 245 296 336
#     4  10  22  40  61  84 116 154 198 241 290 345
#     4  10  19  36  54  86 114 150 191 227 285 349
#     4   9  18  34  55  79 115 150 183 232 288 340
#     4  10  21  40  58  83 119 151 192 240 285 346
#     4  10  19  36  58  80 115 152 188 239 289 342
#     4   9  20  36  55  85 113 151 192 229 286 350
#     4  10  20  35  59  81 115 148 188 242 289 338
#
# _framework density 20.495892999999999
#
# number of rings (size 3 to 8) (size 9 to 14) (size 15 to 20)
#    0.000    2.250    1.250    1.125    0.000    4.500 
#    6.750    4.375    0.000    0.000    0.000    0.000 
#    0.000    0.000    0.000    0.000    0.000    0.000 
#
# Total GULP energy -396726.705507 kJ/mol
# GULP energy per Si atom -12397.709547 kJ/mol
# Density = 2.044924 g / cm^3
# Si number density = 20.495893 Si / 1000 Ang^3
#
#
#
# Elastic Constant Matrix: (Units=GPa)
#
#
# Indices 1 2 3 4 5 6 
#
# 1 43.6659 19.1440 11.2667 0.0000 10.0106 0.0000
# 2 19.1440 96.0408 41.4039 0.0000 5.6445 0.0000
# 3 11.2667 41.4039 65.7306 0.0000 15.8303 0.0000
# 4 0.0000 0.0000 0.0000 36.7067 0.0000 0.9492
# 5 10.0106 5.6445 15.8303 0.0000 27.7809 0.0000
# 6 0.0000 0.0000 0.0000 0.9492 0.0000 33.5289
#
#
#
# Elastic Compliance Matrix: (Units=1/GPa)
#
#
# Indices 1 2 3 4 5 6 
#
# 1 0.027077 -0.005231 0.000867 0.000000 -0.009188 0.000000
# 2 -0.005231 0.015466 -0.009901 0.000000 0.004385 0.000000
# 3 0.000867 -0.009901 0.024216 0.000000 -0.012099 0.000000
# 4 0.000000 0.000000 0.000000 0.027263 0.000000 -0.000772
# 5 -0.009188 0.004385 -0.012099 0.000000 0.045311 0.000000
# 6 0.000000 0.000000 0.000000 -0.000772 0.000000 0.029847
#
#
# Mechanical properties :
#
#
# Convention : Reuss Voigt Hill
#
# Bulk Modulus (GPa) = 26.15911 38.78517 32.47214
# Shear Modulus (GPa) = 23.75826 28.51149 26.13488
#
# Velocity S-wave (km/s) = 3.40835 3.73377 3.57477
# Velocity P-wave (km/s) = 5.31789 6.12801 5.73727
#
# Compressibility (1/GPa) = 0.03822760
#
# Stress axis : x y z
#
# Youngs Moduli (GPa) = 36.93130 64.65895 41.29520
#
# Poissons Ratio (x) = 0.33823 -0.03578
# Poissons Ratio (y) = 0.19319 0.40888
# Poissons Ratio (z) = -0.03200 0.64021
#
# Static dielectric constant tensor:
#      x y z
#    x 3.868850 0.000000 0.043220 
#    y 0.000000 3.685230 0.000000 
#    z 0.043220 0.000000 3.725800 
# 
# 
# High freq. dielectric constant tensor:
#      x y z
#    x 1.792650 0.000000 0.005830 
#    y 0.000000 1.797000 0.000000 
#    z 0.005830 0.000000 1.805990 
# 
# From -- ./inp_files/88971.got.cif
#   From: 2010.06.25/outbox.cif.g09.slc.cpg/sg13_45_cif.got.tgz:88971.got - 2010.06.28 04:50:58.
