data_PCOD8118821
_publ_section_title
;
Structure prediction by ZEFSAII (Michael W. Deem and Ramdas Pophale) SiO2 
 PCOD8118821
Probable space group: P 2/C
;
_chemical_formula_sum "Si O2"
_cell_formula_units_Z 26
_cell_length_a 19.786107
_cell_length_b 14.012069
_cell_length_c 8.213591
_cell_angle_alpha 90.000000
_cell_angle_beta 144.747095
_cell_angle_gamma 90.000000
_cell_volume 1314.352724
_symmetry_space_group_name_H-M "P 2/C"
_symmetry_group_IT_number 13
_symmetry_cell_setting 'monoclinic'
loop_
_space_group_symop_operation_xyz
x,y,z
-x,y,1/2-z
-x,-y,-z
x,-y,1/2+z
loop_
_atom_site_type_symbol
_atom_site_label
_atom_site_fract_x
_atom_site_fract_y
_atom_site_fract_z
Si Si1 0.179770 0.083241 0.920808
Si Si2 0.371119 0.798804 0.943996
Si Si3 0.000000 0.783254 0.250000
Si Si4 0.199810 0.720601 0.864745
Si Si5 0.133314 0.116849 0.472289
Si Si6 0.600426 0.379858 0.217168
Si Si7 0.344939 0.573031 0.312141
O O1 0.202533 0.098601 0.775033
O O2 0.075692 0.150662 0.780012
O O3 0.300838 0.107164 0.250255
O O4 0.143941 0.974026 0.875256
O O5 0.311098 0.753270 0.981787
O O6 0.368507 0.723736 0.790176
O O7 0.500000 0.831108 0.250000
O O8 0.082960 0.716185 0.523819
O O9 0.187537 0.792792 0.990082
O O10 0.230016 0.616712 0.998263
O O11 0.000000 0.138259 0.250000
O O12 0.655665 0.458222 0.202337
O O13 0.657322 0.395114 0.505286
O O14 0.460550 0.388926 0.948026
#
# Coordination Sequence:
#
# PCOD8118821 Si02
#       7
#     4   4   2   4   4   4   4
#     4  11  22  38  61  89 119 157 205 248 300 350
#     4  11  22  39  60  89 125 161 196 248 303 361
#     4  10  20  36  58  88 118 160 198 252 292 350
#     4  11  22  37  61  91 122 156 202 249 306 352
#     4  12  22  40  64  91 118 157 209 254 294 356
#     4  10  20  36  60  90 121 157 200 243 294 357
#     4  10  20  35  62  91 119 155 201 249 294 353
#
# _framework density 19.781600000000001
#
# number of rings (size 3 to 8) (size 9 to 14) (size 15 to 20)
#    0.000    1.231    3.846    4.154    2.154    0.000 
#    0.000    3.077    0.000    8.308    8.000    0.000 
#    0.000    0.000    0.000    0.000    0.000    0.000 
#
# Total GULP energy -322476.523692 kJ/mol
# GULP energy per Si atom -12402.943219 kJ/mol
# Density = 1.973658 g / cm^3
# Si number density = 19.781600 Si / 1000 Ang^3
#
#
#
# Elastic Constant Matrix: (Units=GPa)
#
#
# Indices 1 2 3 4 5 6 
#
# 1 85.6425 15.0264 26.5856 0.0000 -10.3305 0.0000
# 2 15.0264 45.3406 13.1195 0.0000 -1.2291 0.0000
# 3 26.5856 13.1195 112.8179 0.0000 -2.7330 0.0000
# 4 0.0000 0.0000 0.0000 22.7576 0.0000 -2.4654
# 5 -10.3305 -1.2291 -2.7330 0.0000 31.2477 0.0000
# 6 0.0000 0.0000 0.0000 -2.4654 0.0000 33.5424
#
#
#
# Elastic Compliance Matrix: (Units=1/GPa)
#
#
# Indices 1 2 3 4 5 6 
#
# 1 0.013649 -0.003632 -0.002694 0.000000 0.004134 0.000000
# 2 -0.003632 0.023804 -0.001923 0.000000 -0.000433 0.000000
# 3 -0.002694 -0.001923 0.009719 0.000000 -0.000116 0.000000
# 4 0.000000 0.000000 0.000000 0.044294 0.000000 0.003256
# 5 0.004134 -0.000433 -0.000116 0.000000 0.033342 0.000000
# 6 0.000000 0.000000 0.000000 0.003256 0.000000 0.030052
#
#
# Mechanical properties :
#
#
# Convention : Reuss Voigt Hill
#
# Bulk Modulus (GPa) = 32.60002 39.25156 35.92579
# Shear Modulus (GPa) = 27.53590 30.11419 28.82504
#
# Velocity S-wave (km/s) = 3.73499 3.90594 3.82142
# Velocity P-wave (km/s) = 5.92587 6.34251 6.13773
#
# Compressibility (1/GPa) = 0.03067483
#
# Stress axis : x y z
#
# Youngs Moduli (GPa) = 73.26809 42.01063 102.88686
#
# Poissons Ratio (x) = 0.15257 0.27716
# Poissons Ratio (y) = 0.26609 0.19782
# Poissons Ratio (z) = 0.19737 0.08078
#
# Static dielectric constant tensor:
#      x y z
#    x 3.741160 0.000000 -0.113400 
#    y 0.000000 3.425730 0.000000 
#    z -0.113400 0.000000 3.623460 
# 
# 
# High freq. dielectric constant tensor:
#      x y z
#    x 1.779630 0.000000 -0.017350 
#    y 0.000000 1.753410 0.000000 
#    z -0.017350 0.000000 1.771040 
# 
# From -- ./inp_files/23590.got.cif
#   From: 2010.06.25/outbox.cif.g09.slc.cpg/sg13_12_cif.got.tgz:23590.got - 2010.06.28 04:50:58.
