data_PCOD8118424
_publ_section_title
;
Structure prediction by ZEFSAII (Michael W. Deem and Ramdas Pophale) SiO2 
 PCOD8118424
Probable space group: P 2/C
;
_chemical_formula_sum "Si O2"
_cell_formula_units_Z 28
_cell_length_a 11.581923
_cell_length_b 8.675175
_cell_length_c 14.996161
_cell_angle_alpha 90.000000
_cell_angle_beta 107.493428
_cell_angle_gamma 90.000000
_cell_volume 1437.057736
_symmetry_space_group_name_H-M "P 2/C"
_symmetry_group_IT_number 13
_symmetry_cell_setting 'monoclinic'
loop_
_space_group_symop_operation_xyz
x,y,z
-x,y,1/2-z
-x,-y,-z
x,-y,1/2+z
loop_
_atom_site_type_symbol
_atom_site_label
_atom_site_fract_x
_atom_site_fract_y
_atom_site_fract_z
Si Si1 0.851153 0.631392 0.544268
Si Si2 0.742375 0.832748 0.963221
Si Si3 0.017469 0.673595 0.421063
Si Si4 0.500000 0.568029 0.750000
Si Si5 0.000000 0.129455 0.750000
Si Si6 0.397877 0.475834 0.047953
Si Si7 0.630352 0.860973 0.756371
Si Si8 0.215050 0.934439 0.873790
O O1 0.935202 0.493437 0.602047
O O2 0.713123 0.582765 0.502324
O O3 0.850557 0.777384 0.609832
O O4 0.902660 0.668661 0.458847
O O5 0.639053 0.704803 0.958164
O O6 0.724883 0.897193 0.858634
O O7 0.875145 0.759524 0.001300
O O8 0.729726 0.973279 0.029600
O O9 0.967193 0.764049 0.325437
O O10 0.547338 0.467443 0.844134
O O11 0.611962 0.676080 0.743721
O O12 0.884541 0.028732 0.702092
O O13 0.500000 0.500000 0.000000
O O14 0.500000 0.940007 0.750000
O O15 0.676679 0.914088 0.671081
#
# Coordination Sequence:
#
# PCOD8118424 Si02
#       8
#     4   4   4   2   2   4   4   4
#     4  10  22  38  65  89 118 159 205 250 307 370
#     4   9  21  39  62  80 128 160 190 264 306 357
#     4   9  21  44  57  89 123 157 199 257 308 356
#     4   8  18  38  56  82 114 158 194 252 296 350
#     4  10  24  40  60  88 126 158 200 252 306 368
#     4  10  19  40  60  86 118 163 200 251 309 363
#     4   9  20  38  58  88 118 158 201 246 301 362
#     4  11  23  38  62  95 115 165 205 245 315 372
#
# _framework density 19.484255999999998
#
# number of rings (size 3 to 8) (size 9 to 14) (size 15 to 20)
#    0.429    2.000    0.000    0.857    4.000    2.286 
#   15.429    0.000    0.000    0.000    0.000    0.000 
#    0.000    0.000    0.000    0.000    0.000    0.000 
#
# Total GULP energy -347089.578790 kJ/mol
# GULP energy per Si atom -12396.056385 kJ/mol
# Density = 1.943991 g / cm^3
# Si number density = 19.484256 Si / 1000 Ang^3
#
#
#
# Elastic Constant Matrix: (Units=GPa)
#
#
# Indices 1 2 3 4 5 6 
#
# 1 120.1301 42.4053 39.2404 0.0000 -21.0954 0.0000
# 2 42.4053 94.7087 54.3084 0.0000 -11.1622 0.0000
# 3 39.2404 54.3084 104.7503 0.0000 3.2184 0.0000
# 4 0.0000 0.0000 0.0000 27.4888 0.0000 -7.7996
# 5 -21.0954 -11.1622 3.2184 0.0000 24.1692 0.0000
# 6 0.0000 0.0000 0.0000 -7.7996 0.0000 17.1696
#
#
#
# Elastic Compliance Matrix: (Units=1/GPa)
#
#
# Indices 1 2 3 4 5 6 
#
# 1 0.012043 -0.002052 -0.003757 0.000000 0.010064 0.000000
# 2 -0.002052 0.017096 -0.008317 0.000000 0.007212 0.000000
# 3 -0.003757 -0.008317 0.015548 0.000000 -0.009190 0.000000
# 4 0.000000 0.000000 0.000000 0.041761 0.000000 0.018971
# 5 0.010064 0.007212 -0.009190 0.000000 0.054714 0.000000
# 6 0.000000 0.000000 0.000000 0.018971 0.000000 0.066860
#
#
# Mechanical properties :
#
#
# Convention : Reuss Voigt Hill
#
# Bulk Modulus (GPa) = 60.83908 65.72192 63.28050
# Shear Modulus (GPa) = 20.68231 26.00786 23.34508
#
# Velocity S-wave (km/s) = 3.26158 3.65747 3.46519
# Velocity P-wave (km/s) = 6.74362 7.18611 6.96838
#
# Compressibility (1/GPa) = 0.01643680
#
# Stress axis : x y z
#
# Youngs Moduli (GPa) = 83.03511 58.49186 64.31659
#
# Poissons Ratio (x) = 0.12001 0.24163
# Poissons Ratio (y) = 0.17037 0.53490
# Poissons Ratio (z) = 0.31196 0.48646
#
# Static dielectric constant tensor:
#      x y z
#    x 3.431280 0.000000 0.030810 
#    y 0.000000 3.561780 0.000000 
#    z 0.030810 0.000000 3.664810 
# 
# 
# High freq. dielectric constant tensor:
#      x y z
#    x 1.759210 0.000000 0.000580 
#    y 0.000000 1.743080 0.000000 
#    z 0.000580 0.000000 1.765840 
# 
# From -- ./inp_files/50115.got.cif
#   From: 2010.06.25/outbox.cif.g09.slc.cpg/sg13_26_cif.got.tgz:50115.got - 2010.06.28 04:50:58.
