data_PCOD8118568
_publ_section_title
;
Structure prediction by ZEFSAII (Michael W. Deem and Ramdas Pophale) SiO2 
 PCOD8118568
Probable space group: P 2/C
;
_chemical_formula_sum "Si O2"
_cell_formula_units_Z 32
_cell_length_a 13.974686
_cell_length_b 9.399415
_cell_length_c 11.938861
_cell_angle_alpha 90.000000
_cell_angle_beta 87.144984
_cell_angle_gamma 90.000000
_cell_volume 1566.269119
_symmetry_space_group_name_H-M "P 2/C"
_symmetry_group_IT_number 13
_symmetry_cell_setting 'monoclinic'
loop_
_space_group_symop_operation_xyz
x,y,z
-x,y,1/2-z
-x,-y,-z
x,-y,1/2+z
loop_
_atom_site_type_symbol
_atom_site_label
_atom_site_fract_x
_atom_site_fract_y
_atom_site_fract_z
Si Si1 0.703036 0.328244 0.992685
Si Si2 0.900614 0.437295 0.211347
Si Si3 0.051973 0.912974 0.355328
Si Si4 0.601582 0.313655 0.779070
Si Si5 0.394000 0.646746 0.761953
Si Si6 0.098841 0.801392 0.972095
Si Si7 0.788321 0.708809 0.140437
Si Si8 0.241876 0.360699 0.096880
O O1 0.624580 0.275122 0.906896
O O2 0.732413 0.486244 0.955570
O O3 0.655994 0.320377 0.117298
O O4 0.796514 0.227957 0.981822
O O5 0.925897 0.321191 0.115752
O O6 0.824449 0.549323 0.166701
O O7 0.851373 0.362906 0.320082
O O8 0.000000 0.506663 0.250000
O O9 0.139102 0.817514 0.307071
O O10 0.000000 0.977395 0.250000
O O11 0.982587 0.805407 0.427905
O O12 0.097247 0.041931 0.420681
O O13 0.500000 0.243433 0.750000
O O14 0.596312 0.480251 0.757117
O O15 0.685150 0.254040 0.695996
O O16 0.500000 0.716899 0.750000
O O17 0.329191 0.706819 0.663820
O O18 0.783060 0.737933 0.007442
#
# Coordination Sequence:
#
# PCOD8118568 Si02
#       8
#     4   4   4   4   4   4   4   4
#     4  11  19  38  60  85 128 155 205 251 302 362
#     4  12  23  36  60  88 126 160 200 251 310 355
#     4  11  26  41  64  87 122 164 213 243 303 373
#     4  10  21  33  57  88 123 161 194 249 308 363
#     4  10  20  33  56  90 123 165 196 252 308 359
#     4  11  23  45  60  89 120 166 201 253 305 361
#     4  12  22  37  57  95 119 160 204 255 302 360
#     4  11  20  35  56  91 124 157 203 247 304 364
#
# _framework density 20.430713999999998
#
# number of rings (size 3 to 8) (size 9 to 14) (size 15 to 20)
#    0.000    1.000    6.250    2.250    3.500    3.500 
#    0.000    0.000    0.000    1.500    0.000    0.000 
#    0.000    0.000    0.000    0.000    0.000    0.000 
#
# Total GULP energy -396739.512522 kJ/mol
# GULP energy per Si atom -12398.109766 kJ/mol
# Density = 2.038421 g / cm^3
# Si number density = 20.430714 Si / 1000 Ang^3
#
#
#
# Elastic Constant Matrix: (Units=GPa)
#
#
# Indices 1 2 3 4 5 6 
#
# 1 165.8877 25.6268 54.6326 0.0000 14.1334 0.0000
# 2 25.6268 35.0556 13.5066 0.0000 3.4471 0.0000
# 3 54.6326 13.5066 114.9783 0.0000 17.0585 0.0000
# 4 0.0000 0.0000 0.0000 12.9703 0.0000 0.7723
# 5 14.1334 3.4471 17.0585 0.0000 34.2913 0.0000
# 6 0.0000 0.0000 0.0000 0.7723 0.0000 12.1710
#
#
#
# Elastic Compliance Matrix: (Units=1/GPa)
#
#
# Indices 1 2 3 4 5 6 
#
# 1 0.007809 -0.004427 -0.003001 0.000000 -0.001281 0.000000
# 2 -0.004427 0.032447 -0.001614 0.000000 -0.000634 0.000000
# 3 -0.003001 -0.001614 0.010910 0.000000 -0.004028 0.000000
# 4 0.000000 0.000000 0.000000 0.077392 0.000000 -0.004911
# 5 -0.001281 -0.000634 -0.004028 0.000000 0.031758 0.000000
# 6 0.000000 0.000000 0.000000 -0.004911 0.000000 0.082474
#
#
# Mechanical properties :
#
#
# Convention : Reuss Voigt Hill
#
# Bulk Modulus (GPa) = 30.22667 55.93929 43.08298
# Shear Modulus (GPa) = 18.38910 26.69688 22.54299
#
# Velocity S-wave (km/s) = 3.00337 3.61876 3.32533
# Velocity P-wave (km/s) = 5.18207 6.70074 5.98973
#
# Compressibility (1/GPa) = 0.03308337
#
# Stress axis : x y z
#
# Youngs Moduli (GPa) = 128.05097 30.81994 91.65636
#
# Poissons Ratio (x) = 0.13644 0.27502
# Poissons Ratio (y) = 0.56686 0.14793
# Poissons Ratio (z) = 0.38423 0.04974
#
# Static dielectric constant tensor:
#      x y z
#    x 4.313980 0.000000 0.314950 
#    y 0.000000 3.131390 0.000000 
#    z 0.314950 0.000000 4.134660 
# 
# 
# High freq. dielectric constant tensor:
#      x y z
#    x 1.815440 0.000000 0.007940 
#    y 0.000000 1.738100 0.000000 
#    z 0.007940 0.000000 1.818940 
# 
# From -- ./inp_files/36436.got.cif
#   From: 2010.06.25/outbox.cif.g09.slc.cpg/sg13_19_cif.got.tgz:36436.got - 2010.06.28 04:50:58.
