data_PCOD8118876
_publ_section_title
;
Structure prediction by ZEFSAII (Michael W. Deem and Ramdas Pophale) SiO2 
 PCOD8118876
Probable space group: P 2/C
;
_chemical_formula_sum "Si O2"
_cell_formula_units_Z 18
_cell_length_a 10.151242
_cell_length_b 13.696613
_cell_length_c 10.304445
_cell_angle_alpha 90.000000
_cell_angle_beta 36.801331
_cell_angle_gamma 90.000000
_cell_volume 858.251140
_symmetry_space_group_name_H-M "P 2/C"
_symmetry_group_IT_number 13
_symmetry_cell_setting 'monoclinic'
loop_
_space_group_symop_operation_xyz
x,y,z
-x,y,1/2-z
-x,-y,-z
x,-y,1/2+z
loop_
_atom_site_type_symbol
_atom_site_label
_atom_site_fract_x
_atom_site_fract_y
_atom_site_fract_z
Si Si1 0.500000 0.616376 0.250000
Si Si2 0.905053 0.657404 0.073745
Si Si3 0.987273 0.136198 0.911192
Si Si4 0.356706 0.991747 0.239822
Si Si5 0.801035 0.523379 0.813997
O O1 0.712011 0.683851 0.120782
O O2 0.420928 0.546862 0.431673
O O3 0.986624 0.748275 0.093468
O O4 0.771443 0.577409 0.261318
O O5 0.126669 0.613361 0.835875
O O6 0.170068 0.087577 0.858542
O O7 0.000000 0.107121 0.750000
O O8 0.750792 0.097781 0.146515
O O9 0.500000 0.957014 0.250000
O O10 0.500000 0.000000 0.000000
O O11 0.000000 0.500225 0.750000
#
# Coordination Sequence:
#
# PCOD8118876 Si02
#       5
#     2   4   4   4   4
#     4  10  20  36  56  90 122 174 212 246 314 376
#     4  10  21  37  60  88 127 162 210 260 312 370
#     4  11  24  42  68  99 125 165 218 265 323 387
#     4  11  24  47  69  94 130 167 211 271 335 391
#     4   9  19  38  58  84 126 168 206 259 308 367
#
# _framework density 20.972882999999999
#
# number of rings (size 3 to 8) (size 9 to 14) (size 15 to 20)
#    0.000    1.778    2.222    1.333    1.556    1.778 
#    8.000    2.222    2.444    0.000    0.000    0.000 
#    0.000    0.000    0.000    0.000    0.000    0.000 
#
# Total GULP energy -223093.917589 kJ/mol
# GULP energy per Si atom -12394.106533 kJ/mol
# Density = 2.092515 g / cm^3
# Si number density = 20.972883 Si / 1000 Ang^3
#
#
#
# Elastic Constant Matrix: (Units=GPa)
#
#
# Indices 1 2 3 4 5 6 
#
# 1 117.4026 47.5814 37.0033 0.0000 5.1006 0.0000
# 2 47.5814 80.7953 49.5566 0.0000 -7.2950 0.0000
# 3 37.0033 49.5566 151.8887 0.0000 17.6799 0.0000
# 4 0.0000 0.0000 0.0000 2.3587 0.0000 7.8039
# 5 5.1006 -7.2950 17.6799 0.0000 34.7449 0.0000
# 6 0.0000 0.0000 0.0000 7.8039 0.0000 22.1317
#
#
#
# Elastic Compliance Matrix: (Units=1/GPa)
#
#
# Indices 1 2 3 4 5 6 
#
# 1 0.011526 -0.006951 -0.000184 0.000000 -0.003058 0.000000
# 2 -0.006951 0.021025 -0.006164 0.000000 0.008571 0.000000
# 3 -0.000184 -0.006164 0.009341 0.000000 -0.006020 0.000000
# 4 0.000000 0.000000 0.000000 -2.544578 0.000000 0.897245
# 5 -0.003058 0.008571 -0.006020 0.000000 0.034093 0.000000
# 6 0.000000 0.000000 0.000000 0.897245 0.000000 -0.271194
#
#
# Mechanical properties :
#
#
# Convention : Reuss Voigt Hill
#
# Bulk Modulus (GPa) = 65.38890 68.70767 67.04828
# Shear Modulus (GPa) = -1.84632 26.24343 12.19856
#
# Velocity S-wave (km/s) = -0.93928 3.54121 2.41433
# Velocity P-wave (km/s) = 5.48354 7.03929 6.30955
#
# Compressibility (1/GPa) = 0.01529312
#
# Stress axis : x y z
#
# Youngs Moduli (GPa) = 86.76347 47.56215 107.05969
#
# Poissons Ratio (x) = 0.33059 0.01972
# Poissons Ratio (y) = 0.60306 0.65994
# Poissons Ratio (z) = 0.01598 0.29318
#
# Static dielectric constant tensor:
#      x y z
#    x 4.051130 0.000000 0.037530 
#    y 0.000000 3.447160 0.000000 
#    z 0.037530 0.000000 4.097390 
# 
# 
# High freq. dielectric constant tensor:
#      x y z
#    x 1.845790 0.000000 -0.003760 
#    y 0.000000 1.789580 0.000000 
#    z -0.003760 0.000000 1.827970 
# 
# From -- ./inp_files/25675.got.cif
#   From: 2010.06.25/outbox.cif.g09.slc.cpg/sg13_13_cif.got.tgz:25675.got - 2010.06.28 04:50:58.
