data_PCOD8118182
_publ_section_title
;
Structure prediction by ZEFSAII (Michael W. Deem and Ramdas Pophale) SiO2 
 PCOD8118182
Probable space group: P 2/C
;
_chemical_formula_sum "Si O2"
_cell_formula_units_Z 16
_cell_length_a 7.844185
_cell_length_b 5.100323
_cell_length_c 15.732488
_cell_angle_alpha 90.000000
_cell_angle_beta 83.775163
_cell_angle_gamma 90.000000
_cell_volume 625.712401
_symmetry_space_group_name_H-M "P 2/C"
_symmetry_group_IT_number 13
_symmetry_cell_setting 'monoclinic'
loop_
_space_group_symop_operation_xyz
x,y,z
-x,y,1/2-z
-x,-y,-z
x,-y,1/2+z
loop_
_atom_site_type_symbol
_atom_site_label
_atom_site_fract_x
_atom_site_fract_y
_atom_site_fract_z
Si Si1 0.844297 0.487387 0.704667
Si Si2 0.041963 0.250028 0.551927
Si Si3 0.618749 0.327994 0.871416
Si Si4 0.431510 0.178848 0.347642
O O1 0.704406 0.345138 0.772538
O O2 0.765545 0.720209 0.649178
O O3 0.000000 0.618269 0.750000
O O4 0.924310 0.256985 0.642587
O O5 0.242929 0.247015 0.565568
O O6 0.000000 0.500000 0.500000
O O7 0.000000 0.000000 0.500000
O O8 0.537149 0.609706 0.899052
O O9 0.464433 0.112497 0.882067
O O10 0.500000 0.192924 0.250000
#
# Coordination Sequence:
#
# PCOD8118182 Si02
#       4
#     4   4   4   4
#     4   9  21  41  67  94 124 166 214 260 313 376
#     4  11  24  42  61  89 128 170 210 256 310 374
#     4  10  21  39  63  91 122 159 206 259 312 369
#     4  10  19  36  62  94 122 153 203 263 312 363
#
# _framework density 25.570854000000001
#
# number of rings (size 3 to 8) (size 9 to 14) (size 15 to 20)
#    0.000    2.000    0.000    3.750    0.000    6.000 
#    0.000   27.500    0.000    0.000    0.000    0.000 
#    0.000    0.000    0.000    0.000    0.000    0.000 
#
# Total GULP energy -198340.978181 kJ/mol
# GULP energy per Si atom -12396.311136 kJ/mol
# Density = 2.551265 g / cm^3
# Si number density = 25.570854 Si / 1000 Ang^3
#
#
#
# Elastic Constant Matrix: (Units=GPa)
#
#
# Indices 1 2 3 4 5 6 
#
# 1 122.0513 39.3479 24.2734 0.0000 31.8050 0.0000
# 2 39.3479 165.3385 31.6099 0.0000 23.7414 0.0000
# 3 24.2734 31.6099 59.1495 0.0000 33.6432 0.0000
# 4 0.0000 0.0000 0.0000 22.6820 0.0000 11.5624
# 5 31.8050 23.7414 33.6432 0.0000 39.6184 0.0000
# 6 0.0000 0.0000 0.0000 11.5624 0.0000 38.1812
#
#
#
# Elastic Compliance Matrix: (Units=1/GPa)
#
#
# Indices 1 2 3 4 5 6 
#
# 1 0.010732 -0.001558 0.001543 0.000000 -0.008992 0.000000
# 2 -0.001558 0.007037 -0.002774 0.000000 -0.000611 0.000000
# 3 0.001543 -0.002774 0.033877 0.000000 -0.028344 0.000000
# 4 0.000000 0.000000 0.000000 0.052136 0.000000 -0.015788
# 5 -0.008992 -0.000611 -0.028344 0.000000 0.056895 0.000000
# 6 0.000000 0.000000 0.000000 -0.015788 0.000000 0.030972
#
#
# Mechanical properties :
#
#
# Convention : Reuss Voigt Hill
#
# Bulk Modulus (GPa) = 21.70673 59.66685 40.68679
# Shear Modulus (GPa) = 23.52021 36.85020 30.18520
#
# Velocity S-wave (km/s) = 3.03612 3.80030 3.43950
# Velocity P-wave (km/s) = 4.56048 6.53001 5.63201
#
# Compressibility (1/GPa) = 0.04606867
#
# Stress axis : x y z
#
# Youngs Moduli (GPa) = 93.18054 142.10686 29.51826
#
# Poissons Ratio (x) = 0.22137 -0.04555
# Poissons Ratio (y) = 0.14516 0.08188
# Poissons Ratio (z) = -0.14378 0.39419
#
# Static dielectric constant tensor:
#      x y z
#    x 5.511510 0.000000 0.254770 
#    y 0.000000 4.603400 0.000000 
#    z 0.254770 0.000000 4.661400 
# 
# 
# High freq. dielectric constant tensor:
#      x y z
#    x 2.029850 0.000000 0.018110 
#    y 0.000000 2.012360 0.000000 
#    z 0.018110 0.000000 2.012980 
# 
# From -- ./inp_files/62144.got.cif
#   From: 2010.06.25/outbox.cif.g09.slc.cpg/sg13_32_cif.got.tgz:62144.got - 2010.06.28 04:50:58.
