data_PCOD8118098
_publ_section_title
;
Structure prediction by ZEFSAII (Michael W. Deem and Ramdas Pophale) SiO2 
 PCOD8118098
Probable space group: P 2/C
;
_chemical_formula_sum "Si O2"
_cell_formula_units_Z 32
_cell_length_a 22.729499
_cell_length_b 13.529503
_cell_length_c 9.449798
_cell_angle_alpha 90.000000
_cell_angle_beta 144.255667
_cell_angle_gamma 90.000000
_cell_volume 1697.590864
_symmetry_space_group_name_H-M "P 2/C"
_symmetry_group_IT_number 13
_symmetry_cell_setting 'monoclinic'
loop_
_space_group_symop_operation_xyz
x,y,z
-x,y,1/2-z
-x,-y,-z
x,-y,1/2+z
loop_
_atom_site_type_symbol
_atom_site_label
_atom_site_fract_x
_atom_site_fract_y
_atom_site_fract_z
Si Si1 0.618335 0.117834 0.211817
Si Si2 0.290568 0.229797 0.352996
Si Si3 0.610176 0.572227 0.416993
Si Si4 0.881943 0.497186 0.286648
Si Si5 0.388557 0.767961 0.527015
Si Si6 0.116202 0.628885 0.451452
Si Si7 0.611005 0.104741 0.730495
Si Si8 0.297366 0.584270 0.206792
O O1 0.692066 0.145268 0.228446
O O2 0.644174 0.198571 0.381567
O O3 0.645392 0.008036 0.317608
O O4 0.502453 0.120869 0.931899
O O5 0.371619 0.317146 0.491660
O O6 0.308597 0.177117 0.538472
O O7 0.179060 0.276340 0.126530
O O8 0.500000 0.538229 0.250000
O O9 0.627842 0.566829 0.281922
O O10 0.687803 0.500654 0.647927
O O11 0.852997 0.602273 0.152733
O O12 0.859943 0.471478 0.407951
O O13 0.000000 0.500000 0.500000
O O14 0.817973 0.414905 0.074670
O O15 0.500000 0.719565 0.750000
O O16 0.391219 0.867675 0.439094
O O17 0.313026 0.688360 0.314549
O O18 0.000000 0.658488 0.250000
#
# Coordination Sequence:
#
# PCOD8118098 Si02
#       8
#     4   4   4   4   4   4   4   4
#     4  10  22  33  58  82 111 148 185 232 272 330
#     4  12  21  36  59  82 110 145 189 230 279 331
#     4  12  25  35  53  77 116 154 185 217 270 339
#     4  10  19  36  56  78 106 146 192 235 274 317
#     4  10  21  34  51  77 114 151 186 223 272 328
#     4  10  21  37  58  82 108 143 188 236 282 327
#     4  10  19  39  54  81 113 146 188 228 276 323
#     4  12  22  38  51  79 112 152 183 230 270 332
#
# _framework density 18.850242000000001
#
# number of rings (size 3 to 8) (size 9 to 14) (size 15 to 20)
#    0.000    1.250    3.750    2.625    3.500    3.000 
#    0.000    0.000    0.000    0.750    0.000    0.000 
#    0.000    0.000    0.000    0.000    0.000    0.000 
#
# Total GULP energy -396445.742588 kJ/mol
# GULP energy per Si atom -12388.929456 kJ/mol
# Density = 1.880734 g / cm^3
# Si number density = 18.850242 Si / 1000 Ang^3
#
#
#
# Elastic Constant Matrix: (Units=GPa)
#
#
# Indices 1 2 3 4 5 6 
#
# 1 67.3236 27.6927 29.6643 0.0000 -5.0926 0.0000
# 2 27.6927 92.2666 39.8641 0.0000 -1.3558 0.0000
# 3 29.6643 39.8641 103.0105 0.0000 6.3204 0.0000
# 4 0.0000 0.0000 0.0000 27.4973 0.0000 -7.7686
# 5 -5.0926 -1.3558 6.3204 0.0000 27.2006 0.0000
# 6 0.0000 0.0000 0.0000 -7.7686 0.0000 23.0031
#
#
#
# Elastic Compliance Matrix: (Units=1/GPa)
#
#
# Indices 1 2 3 4 5 6 
#
# 1 0.018533 -0.003700 -0.004166 0.000000 0.004253 0.000000
# 2 -0.003700 0.013845 -0.004354 0.000000 0.001009 0.000000
# 3 -0.004166 -0.004354 0.012837 0.000000 -0.003980 0.000000
# 4 0.000000 0.000000 0.000000 0.040203 0.000000 0.013577
# 5 0.004253 0.001009 -0.003980 0.000000 0.038535 0.000000
# 6 0.000000 0.000000 0.000000 0.013577 0.000000 0.048058
#
#
# Mechanical properties :
#
#
# Convention : Reuss Voigt Hill
#
# Bulk Modulus (GPa) = 48.13749 50.78254 49.46002
# Shear Modulus (GPa) = 24.58503 26.56551 25.57527
#
# Velocity S-wave (km/s) = 3.61533 3.75813 3.68742
# Velocity P-wave (km/s) = 6.55894 6.76977 6.66519
#
# Compressibility (1/GPa) = 0.02077383
#
# Stress axis : x y z
#
# Youngs Moduli (GPa) = 53.95774 72.22960 77.90155
#
# Poissons Ratio (x) = 0.26725 0.32455
# Poissons Ratio (y) = 0.19964 0.33920
# Poissons Ratio (z) = 0.22480 0.31450
#
# Static dielectric constant tensor:
#      x y z
#    x 3.482080 0.000000 -0.275160 
#    y 0.000000 3.299710 0.000000 
#    z -0.275160 0.000000 3.746380 
# 
# 
# High freq. dielectric constant tensor:
#      x y z
#    x 1.721400 0.000000 -0.022810 
#    y 0.000000 1.714100 0.000000 
#    z -0.022810 0.000000 1.738000 
# 
# From -- ./inp_files/23554.got.cif
#   From: 2010.06.25/outbox.cif.g09.slc.cpg/sg13_12_cif.got.tgz:23554.got - 2010.06.28 04:50:58.
