data_PCOD8118375
_publ_section_title
;
Structure prediction by ZEFSAII (Michael W. Deem and Ramdas Pophale) SiO2 
 PCOD8118375
Probable space group: P 2/C
;
_chemical_formula_sum "Si O2"
_cell_formula_units_Z 26
_cell_length_a 10.087883
_cell_length_b 9.019017
_cell_length_c 18.559371
_cell_angle_alpha 90.000000
_cell_angle_beta 39.869651
_cell_angle_gamma 90.000000
_cell_volume 1082.454826
_symmetry_space_group_name_H-M "P 2/C"
_symmetry_group_IT_number 13
_symmetry_cell_setting 'monoclinic'
loop_
_space_group_symop_operation_xyz
x,y,z
-x,y,1/2-z
-x,-y,-z
x,-y,1/2+z
loop_
_atom_site_type_symbol
_atom_site_label
_atom_site_fract_x
_atom_site_fract_y
_atom_site_fract_z
Si Si1 0.168055 0.941526 0.784395
Si Si2 0.500000 0.821843 0.750000
Si Si3 0.327612 0.266724 0.092073
Si Si4 0.281036 0.087661 0.977804
Si Si5 0.143703 0.283242 0.801991
Si Si6 0.500000 0.217635 0.750000
Si Si7 0.000000 0.496942 0.250000
Si Si8 0.692566 0.744128 0.534037
O O1 0.349863 0.928675 0.766900
O O2 0.210078 0.847032 0.695303
O O3 0.156472 0.114575 0.767348
O O4 0.963643 0.884315 0.910538
O O5 0.624620 0.713286 0.644624
O O6 0.165449 0.395558 0.138562
O O7 0.533796 0.333559 0.044150
O O8 0.398098 0.186812 0.988862
O O9 0.359198 0.123609 0.864961
O O10 0.331762 0.918144 0.973076
O O11 0.335024 0.318339 0.775434
O O12 0.149416 0.400995 0.735786
O O13 0.924325 0.313410 0.931871
#
# Coordination Sequence:
#
# PCOD8118375 Si02
#       8
#     4   2   4   4   4   2   2   4
#     4  10  20  39  73 101 137 172 227 284 339 400
#     4  10  19  38  69 110 137 170 221 284 347 400
#     4  11  23  45  69  99 135 180 223 286 339 399
#     4  11  21  38  71 104 135 172 224 280 342 402
#     4  11  26  43  68 104 136 179 229 278 336 404
#     4  12  25  44  67 102 145 180 221 282 343 400
#     4  12  28  46  68  94 138 182 230 278 340 396
#     4  10  22  38  71 106 137 170 222 280 343 401
#
# _framework density 24.019479
#
# number of rings (size 3 to 8) (size 9 to 14) (size 15 to 20)
#    0.000    1.231    1.538    5.077    6.462    3.077 
#    0.000    3.846    0.000    0.000    0.000    0.000 
#    0.000    0.000    0.000    0.000    0.000    0.000 
#
# Total GULP energy -322324.023243 kJ/mol
# GULP energy per Si atom -12397.077817 kJ/mol
# Density = 2.396481 g / cm^3
# Si number density = 24.019479 Si / 1000 Ang^3
#
#
#
# Elastic Constant Matrix: (Units=GPa)
#
#
# Indices 1 2 3 4 5 6 
#
# 1 128.7495 46.5147 28.9005 0.0000 -11.0763 0.0000
# 2 46.5147 54.4122 17.2851 0.0000 4.6557 0.0000
# 3 28.9005 17.2851 117.6211 0.0000 1.7811 0.0000
# 4 0.0000 0.0000 0.0000 18.4512 0.0000 -7.6645
# 5 -11.0763 4.6557 1.7811 0.0000 50.2855 0.0000
# 6 0.0000 0.0000 0.0000 -7.6645 0.0000 26.9829
#
#
#
# Elastic Compliance Matrix: (Units=1/GPa)
#
#
# Indices 1 2 3 4 5 6 
#
# 1 0.012101 -0.010170 -0.001534 0.000000 0.003661 0.000000
# 2 -0.010170 0.027970 -0.001539 0.000000 -0.004775 0.000000
# 3 -0.001534 -0.001539 0.009113 0.000000 -0.000518 0.000000
# 4 0.000000 0.000000 0.000000 0.061447 0.000000 0.017454
# 5 0.003661 -0.004775 -0.000518 0.000000 0.021153 0.000000
# 6 0.000000 0.000000 0.000000 0.017454 0.000000 0.042018
#
#
# Mechanical properties :
#
#
# Convention : Reuss Voigt Hill
#
# Bulk Modulus (GPa) = 44.05977 54.02037 49.04007
# Shear Modulus (GPa) = 24.05521 33.01609 28.53565
#
# Velocity S-wave (km/s) = 3.16806 3.71152 3.45051
# Velocity P-wave (km/s) = 5.63607 6.39580 6.02792
#
# Compressibility (1/GPa) = 0.02269644
#
# Stress axis : x y z
#
# Youngs Moduli (GPa) = 82.63979 35.75268 109.73522
#
# Poissons Ratio (x) = 0.36362 0.16835
# Poissons Ratio (y) = 0.84047 0.16889
# Poissons Ratio (z) = 0.12678 0.05503
#
# Static dielectric constant tensor:
#      x y z
#    x 4.535740 0.000000 -0.173050 
#    y 0.000000 3.890840 0.000000 
#    z -0.173050 0.000000 4.883940 
# 
# 
# High freq. dielectric constant tensor:
#      x y z
#    x 1.961000 0.000000 -0.015290 
#    y 0.000000 1.911890 0.000000 
#    z -0.015290 0.000000 1.972810 
# 
# From -- ./inp_files/77984.got.cif
#   From: 2010.06.25/outbox.cif.g09.slc.cpg/sg13_39_cif.got.tgz:77984.got - 2010.06.28 04:50:58.
