data_PCOD8118357
_publ_section_title
;
Structure prediction by ZEFSAII (Michael W. Deem and Ramdas Pophale) SiO2 
 PCOD8118357
Probable space group: P 2/C
;
_chemical_formula_sum "Si O2"
_cell_formula_units_Z 20
_cell_length_a 12.513205
_cell_length_b 10.330413
_cell_length_c 15.398190
_cell_angle_alpha 90.000000
_cell_angle_beta 27.728198
_cell_angle_gamma 90.000000
_cell_volume 926.121972
_symmetry_space_group_name_H-M "P 2/C"
_symmetry_group_IT_number 13
_symmetry_cell_setting 'monoclinic'
loop_
_space_group_symop_operation_xyz
x,y,z
-x,y,1/2-z
-x,-y,-z
x,-y,1/2+z
loop_
_atom_site_type_symbol
_atom_site_label
_atom_site_fract_x
_atom_site_fract_y
_atom_site_fract_z
Si Si1 0.313932 0.356190 0.682709
Si Si2 0.232323 0.887818 0.134177
Si Si3 0.943533 0.207212 0.494624
Si Si4 0.312129 0.018087 0.260450
Si Si5 0.174700 0.385742 0.195605
O O1 0.270810 0.262820 0.631029
O O2 0.155459 0.324319 0.878270
O O3 0.581348 0.338980 0.519214
O O4 0.243701 0.502710 0.713095
O O5 0.000000 0.908185 0.250000
O O6 0.236734 0.971721 0.218298
O O7 0.424837 0.938112 0.927838
O O8 0.154460 0.142049 0.395844
O O9 0.039686 0.264575 0.335632
O O10 0.742233 0.097007 0.631065
O O11 0.000000 0.442260 0.250000
#
# Coordination Sequence:
#
# PCOD8118357 Si02
#       5
#     4   4   4   4   4
#     4  10  22  41  63  88 124 157 207 253 302 362
#     4  10  19  38  64  89 122 165 201 250 302 362
#     4  10  20  41  61  86 128 157 196 257 303 357
#     4   9  20  38  59  91 125 159 200 248 307 359
#     4  11  23  40  64  90 119 165 202 253 308 360
#
# _framework density 21.595427000000001
#
# number of rings (size 3 to 8) (size 9 to 14) (size 15 to 20)
#    0.000    2.000    2.000    1.200    0.000    1.600 
#    3.600    8.000    0.000    0.000    0.000    0.000 
#    0.000    0.000    0.000    0.000    0.000    0.000 
#
# Total GULP energy -247895.028788 kJ/mol
# GULP energy per Si atom -12394.751439 kJ/mol
# Density = 2.154627 g / cm^3
# Si number density = 21.595427 Si / 1000 Ang^3
#
#
#
# Elastic Constant Matrix: (Units=GPa)
#
#
# Indices 1 2 3 4 5 6 
#
# 1 56.7618 6.2545 30.5441 0.0000 -29.7563 0.0000
# 2 6.2545 71.5549 35.1212 0.0000 -5.5571 0.0000
# 3 30.5441 35.1212 147.3050 0.0000 -23.1341 0.0000
# 4 0.0000 0.0000 0.0000 44.7297 0.0000 4.8064
# 5 -29.7563 -5.5571 -23.1341 0.0000 32.6387 0.0000
# 6 0.0000 0.0000 0.0000 4.8064 0.0000 19.1028
#
#
#
# Elastic Compliance Matrix: (Units=1/GPa)
#
#
# Indices 1 2 3 4 5 6 
#
# 1 0.034563 0.000582 -0.002634 0.000000 0.029742 0.000000
# 2 0.000582 0.015837 -0.003814 0.000000 0.000523 0.000000
# 3 -0.002634 -0.003814 0.008738 0.000000 0.003142 0.000000
# 4 0.000000 0.000000 0.000000 0.022978 0.000000 -0.005781
# 5 0.029742 0.000523 0.003142 0.000000 0.060070 0.000000
# 6 0.000000 0.000000 0.000000 -0.005781 0.000000 0.053803
#
#
# Mechanical properties :
#
#
# Convention : Reuss Voigt Hill
#
# Bulk Modulus (GPa) = 21.09542 46.60681 33.85111
# Shear Modulus (GPa) = 22.36896 32.87437 27.62166
#
# Velocity S-wave (km/s) = 3.22191 3.90588 3.58026
# Velocity P-wave (km/s) = 4.86113 6.47841 5.72715
#
# Compressibility (1/GPa) = 0.04740366
#
# Stress axis : x y z
#
# Youngs Moduli (GPa) = 28.93295 63.14200 114.44502
#
# Poissons Ratio (x) = -0.03674 0.30150
# Poissons Ratio (y) = -0.01683 0.43655
# Poissons Ratio (z) = 0.07622 0.24085
#
# Static dielectric constant tensor:
#      x y z
#    x 3.303530 0.000000 -0.094890 
#    y 0.000000 3.927970 0.000000 
#    z -0.094890 0.000000 4.328550 
# 
# 
# High freq. dielectric constant tensor:
#      x y z
#    x 1.797790 0.000000 -0.009740 
#    y 0.000000 1.855630 0.000000 
#    z -0.009740 0.000000 1.877300 
# 
# From -- ./inp_files/50720.got.cif
#   From: 2010.06.25/outbox.cif.g09.slc.cpg/sg13_26_cif.got.tgz:50720.got - 2010.06.28 04:50:58.
