data_PCOD8118506
_publ_section_title
;
Structure prediction by ZEFSAII (Michael W. Deem and Ramdas Pophale) SiO2 
 PCOD8118506
Probable space group: P 2/C
;
_chemical_formula_sum "Si O2"
_cell_formula_units_Z 28
_cell_length_a 26.956453
_cell_length_b 10.348803
_cell_length_c 27.321242
_cell_angle_alpha 90.000000
_cell_angle_beta 169.461133
_cell_angle_gamma 90.000000
_cell_volume 1394.032509
_symmetry_space_group_name_H-M "P 2/C"
_symmetry_group_IT_number 13
_symmetry_cell_setting 'monoclinic'
loop_
_space_group_symop_operation_xyz
x,y,z
-x,y,1/2-z
-x,-y,-z
x,-y,1/2+z
loop_
_atom_site_type_symbol
_atom_site_label
_atom_site_fract_x
_atom_site_fract_y
_atom_site_fract_z
Si Si1 0.107045 0.373478 0.802904
Si Si2 0.957439 0.653061 0.794665
Si Si3 0.598261 0.610901 0.197157
Si Si4 0.364347 0.762355 0.700682
Si Si5 0.000000 0.854601 0.750000
Si Si6 0.500000 0.965725 0.750000
Si Si7 0.436795 0.318397 0.372474
Si Si8 0.906268 0.646530 0.402941
O O1 0.070190 0.525590 0.764563
O O2 0.000000 0.318047 0.750000
O O3 0.940787 0.294592 0.600207
O O4 0.426249 0.349576 0.111556
O O5 0.707792 0.661652 0.591078
O O6 0.977143 0.771882 0.777157
O O7 0.237322 0.646351 0.095085
O O8 0.608765 0.458222 0.196796
O O9 0.734225 0.688935 0.283577
O O10 0.413159 0.885311 0.713877
O O11 0.427251 0.788593 0.819489
O O12 0.742338 0.944656 0.500929
O O13 0.722294 0.325265 0.676970
O O14 0.191859 0.279182 0.172019
O O15 0.000000 0.500000 0.500000
#
# Coordination Sequence:
#
# PCOD8118506 Si02
#       8
#     4   4   4   4   2   2   4   4
#     4  12  20  36  56  89 118 148 191 238 297 351
#     4  12  22  37  59  86 117 157 193 238 287 352
#     4  11  20  34  55  87 123 158 189 226 289 356
#     4  12  23  37  62  86 118 156 196 237 294 352
#     4  12  28  44  60  82 118 156 206 246 292 344
#     4  12  26  46  58  84 114 158 202 248 290 350
#     4  11  19  33  54  87 123 158 188 229 287 357
#     4  10  20  32  50  83 130 163 181 221 286 362
#
# _framework density 20.085616000000002
#
# number of rings (size 3 to 8) (size 9 to 14) (size 15 to 20)
#    0.000    0.571    5.000    6.857    0.000    0.000 
#    0.000    0.000    0.000    0.000    0.000   20.000 
#    0.000    0.000    0.000    0.000    0.000    0.000 
#
# Total GULP energy -347079.579421 kJ/mol
# GULP energy per Si atom -12395.699265 kJ/mol
# Density = 2.003990 g / cm^3
# Si number density = 20.085616 Si / 1000 Ang^3
#
#
#
# Elastic Constant Matrix: (Units=GPa)
#
#
# Indices 1 2 3 4 5 6 
#
# 1 61.4699 3.1813 -15.4742 0.0000 2.7848 0.0000
# 2 3.1813 63.3098 7.7128 0.0000 -9.5483 0.0000
# 3 -15.4742 7.7128 76.2769 0.0000 -6.6820 0.0000
# 4 0.0000 0.0000 0.0000 10.0421 0.0000 -2.9331
# 5 2.7848 -9.5483 -6.6820 0.0000 42.6044 0.0000
# 6 0.0000 0.0000 0.0000 -2.9331 0.0000 15.6396
#
#
#
# Elastic Compliance Matrix: (Units=1/GPa)
#
#
# Indices 1 2 3 4 5 6 
#
# 1 0.017283 -0.001438 0.003573 0.000000 -0.000892 0.000000
# 2 -0.001438 0.016606 -0.001659 0.000000 0.003555 0.000000
# 3 0.003573 -0.001659 0.014144 0.000000 0.001613 0.000000
# 4 0.000000 0.000000 0.000000 0.105352 0.000000 0.019758
# 5 -0.000892 0.003555 0.001613 0.000000 0.024580 0.000000
# 6 0.000000 0.000000 0.000000 0.019758 0.000000 0.067646
#
#
# Mechanical properties :
#
#
# Convention : Reuss Voigt Hill
#
# Bulk Modulus (GPa) = 20.41479 21.32183 20.86831
# Shear Modulus (GPa) = 19.15808 27.36632 23.26220
#
# Velocity S-wave (km/s) = 3.09175 3.69519 3.40686
# Velocity P-wave (km/s) = 4.78865 5.37070 5.08800
#
# Compressibility (1/GPa) = 0.04898409
#
# Stress axis : x y z
#
# Youngs Moduli (GPa) = 57.86196 60.21913 70.70059
#
# Poissons Ratio (x) = 0.08661 -0.25264
# Poissons Ratio (y) = 0.08322 0.11732
# Poissons Ratio (z) = -0.20677 0.09993
#
# Static dielectric constant tensor:
#      x y z
#    x 4.638850 0.000000 0.349360 
#    y 0.000000 3.196280 0.000000 
#    z 0.349360 0.000000 4.001290 
# 
# 
# High freq. dielectric constant tensor:
#      x y z
#    x 1.803040 0.000000 0.005430 
#    y 0.000000 1.715550 0.000000 
#    z 0.005430 0.000000 1.811990 
# 
# From -- ./inp_files/94195.got.cif
#   From: 2010.06.25/outbox.cif.g09.slc.cpg/sg13_48_cif.got.tgz:94195.got - 2010.06.28 04:50:58.
