data_PCOD8118815
_publ_section_title
;
Structure prediction by ZEFSAII (Michael W. Deem and Ramdas Pophale) SiO2 
 PCOD8118815
Probable space group: P 2/C
;
_chemical_formula_sum "Si O2"
_cell_formula_units_Z 30
_cell_length_a 26.925979
_cell_length_b 9.091095
_cell_length_c 8.717764
_cell_angle_alpha 90.000000
_cell_angle_beta 135.522884
_cell_angle_gamma 90.000000
_cell_volume 1495.126795
_symmetry_space_group_name_H-M "P 2/C"
_symmetry_group_IT_number 13
_symmetry_cell_setting 'monoclinic'
loop_
_space_group_symop_operation_xyz
x,y,z
-x,y,1/2-z
-x,-y,-z
x,-y,1/2+z
loop_
_atom_site_type_symbol
_atom_site_label
_atom_site_fract_x
_atom_site_fract_y
_atom_site_fract_z
Si Si1 0.074997 0.084537 0.862374
Si Si2 0.912805 0.202499 0.938923
Si Si3 0.488639 0.840490 0.041392
Si Si4 0.857967 0.370344 0.432430
Si Si5 0.210230 0.602690 0.405776
Si Si6 0.000000 0.548770 0.750000
Si Si7 0.629402 0.649379 0.832396
Si Si8 0.564965 0.611570 0.001218
O O1 0.080930 0.099477 0.693922
O O2 0.000000 0.144035 0.750000
O O3 0.130254 0.195680 0.067799
O O4 0.082429 0.910328 0.908901
O O5 0.836065 0.276090 0.785259
O O6 0.972006 0.333794 0.059791
O O7 0.500000 0.831618 0.250000
O O8 0.407894 0.794388 0.820160
O O9 0.545351 0.744814 0.070478
O O10 0.500000 0.000000 0.000000
O O11 0.819538 0.440449 0.201963
O O12 0.799597 0.387336 0.435480
O O13 0.932539 0.448980 0.649763
O O14 0.290111 0.635611 0.539419
O O15 0.626701 0.650992 0.013426
O O16 0.585563 0.516869 0.661343
O O17 0.500000 0.561671 0.750000
#
# Coordination Sequence:
#
# PCOD8118815 Si02
#       8
#     4   4   4   4   4   2   4   4
#     4  11  21  35  56  81 103 143 184 244 290 341
#     4  10  23  36  55  79 112 141 194 231 301 341
#     4  11  22  39  62  94 122 153 198 246 282 335
#     4  10  22  36  58  82 114 142 202 238 299 342
#     4  10  23  39  55  84 116 158 184 241 288 365
#     4  10  20  36  58  82 106 144 184 260 288 344
#     4  11  20  38  61  84 124 155 199 236 300 350
#     4  10  20  35  61  92 116 153 196 246 283 341
#
# _framework density 20.065187000000002
#
# number of rings (size 3 to 8) (size 9 to 14) (size 15 to 20)
#    0.000    1.600    1.333    5.200    1.867    2.667 
#    0.000    6.667    0.000    0.000    0.000    0.000 
#    0.000    0.000    0.000    0.000    0.000    0.000 
#
# Total GULP energy -371685.865383 kJ/mol
# GULP energy per Si atom -12389.528846 kJ/mol
# Density = 2.001952 g / cm^3
# Si number density = 20.065187 Si / 1000 Ang^3
#
#
#
# Elastic Constant Matrix: (Units=GPa)
#
#
# Indices 1 2 3 4 5 6 
#
# 1 107.2081 17.3438 22.2762 0.0000 4.0060 0.0000
# 2 17.3438 72.5211 19.7436 0.0000 2.4846 0.0000
# 3 22.2762 19.7436 53.1867 0.0000 -1.9277 0.0000
# 4 0.0000 0.0000 0.0000 18.6085 0.0000 -17.9347
# 5 4.0060 2.4846 -1.9277 0.0000 37.5802 0.0000
# 6 0.0000 0.0000 0.0000 -17.9347 0.0000 27.3313
#
#
#
# Elastic Compliance Matrix: (Units=1/GPa)
#
#
# Indices 1 2 3 4 5 6 
#
# 1 0.010405 -0.001389 -0.003887 0.000000 -0.001217 0.000000
# 2 -0.001389 0.015589 -0.005247 0.000000 -0.001152 0.000000
# 3 -0.003887 -0.005247 0.022447 0.000000 0.001913 0.000000
# 4 0.000000 0.000000 0.000000 0.146203 0.000000 0.095938
# 5 -0.001217 -0.001152 0.001913 0.000000 0.026914 0.000000
# 6 0.000000 0.000000 0.000000 0.095938 0.000000 0.099542
#
#
# Mechanical properties :
#
#
# Convention : Reuss Voigt Hill
#
# Bulk Modulus (GPa) = 36.50118 39.07145 37.78631
# Shear Modulus (GPa) = 14.23379 28.27416 21.25397
#
# Velocity S-wave (km/s) = 2.66630 3.75789 3.25814
# Velocity P-wave (km/s) = 5.26400 6.19221 5.74688
#
# Compressibility (1/GPa) = 0.02739638
#
# Stress axis : x y z
#
# Youngs Moduli (GPa) = 96.10420 64.14718 44.55009
#
# Poissons Ratio (x) = 0.08908 0.17315
# Poissons Ratio (y) = 0.13346 0.23376
# Poissons Ratio (z) = 0.37353 0.33658
#
# Static dielectric constant tensor:
#      x y z
#    x 4.106920 0.000000 -0.231990 
#    y 0.000000 3.793740 0.000000 
#    z -0.231990 0.000000 4.018710 
# 
# 
# High freq. dielectric constant tensor:
#      x y z
#    x 1.785770 0.000000 -0.012490 
#    y 0.000000 1.788370 0.000000 
#    z -0.012490 0.000000 1.769370 
# 
# From -- ./inp_files/24447.got.cif
#   From: 2010.06.25/outbox.cif.g09.slc.cpg/sg13_13_cif.got.tgz:24447.got - 2010.06.28 04:50:58.
