data_PCOD8118304
_publ_section_title
;
Structure prediction by ZEFSAII (Michael W. Deem and Ramdas Pophale) SiO2 
 PCOD8118304
Probable space group: P 2/C
;
_chemical_formula_sum "Si O2"
_cell_formula_units_Z 20
_cell_length_a 23.292207
_cell_length_b 5.163933
_cell_length_c 13.556090
_cell_angle_alpha 90.000000
_cell_angle_beta 39.582792
_cell_angle_gamma 90.000000
_cell_volume 1038.954124
_symmetry_space_group_name_H-M "P 2/C"
_symmetry_group_IT_number 13
_symmetry_cell_setting 'monoclinic'
loop_
_space_group_symop_operation_xyz
x,y,z
-x,y,1/2-z
-x,-y,-z
x,-y,1/2+z
loop_
_atom_site_type_symbol
_atom_site_label
_atom_site_fract_x
_atom_site_fract_y
_atom_site_fract_z
Si Si1 0.980048 0.259373 0.892799
Si Si2 0.693248 0.737178 0.310297
Si Si3 0.621160 0.226663 0.327146
Si Si4 0.893411 0.762194 0.095784
Si Si5 0.523399 0.947481 0.613759
O O1 0.000000 0.236264 0.750000
O O2 0.070652 0.235860 0.839150
O O3 0.936202 0.536490 0.972790
O O4 0.912895 0.032061 0.015054
O O5 0.677741 0.487552 0.262301
O O6 0.786694 0.718364 0.244822
O O7 0.611958 0.761327 0.497541
O O8 0.692013 0.987654 0.239840
O O9 0.564787 0.217830 0.301051
O O10 0.543826 0.191694 0.514906
O O11 0.500000 0.065219 0.750000
#
# Coordination Sequence:
#
# PCOD8118304 Si02
#       5
#     4   4   4   4   4
#     4  10  21  40  62  82 114 150 185 225 297 342
#     4  10  19  38  54  81 112 145 184 228 276 315
#     4   9  20  36  54  74 115 146 180 227 277 311
#     4  10  21  38  60  85 117 145 183 243 274 337
#     4   9  20  36  56  78 111 151 188 220 271 325
#
# _framework density 19.250126000000002
#
# number of rings (size 3 to 8) (size 9 to 14) (size 15 to 20)
#    1.200    1.200    0.000    2.400    0.000    0.800 
#    7.200    0.000    0.000    0.000    0.000    0.000 
#    0.000    0.000    0.000    0.000    0.000    0.000 
#
# Total GULP energy -247805.652527 kJ/mol
# GULP energy per Si atom -12390.282626 kJ/mol
# Density = 1.920631 g / cm^3
# Si number density = 19.250126 Si / 1000 Ang^3
#
#
#
# Elastic Constant Matrix: (Units=GPa)
#
#
# Indices 1 2 3 4 5 6 
#
# 1 119.8337 8.3250 54.7648 0.0000 -10.1276 0.0000
# 2 8.3250 88.0677 7.8009 0.0000 -1.3035 0.0000
# 3 54.7648 7.8009 48.4267 0.0000 14.0000 0.0000
# 4 0.0000 0.0000 0.0000 13.5641 0.0000 -1.3748
# 5 -10.1276 -1.3035 14.0000 0.0000 40.2791 0.0000
# 6 0.0000 0.0000 0.0000 -1.3748 0.0000 24.3963
#
#
#
# Elastic Compliance Matrix: (Units=1/GPa)
#
#
# Indices 1 2 3 4 5 6 
#
# 1 0.025514 0.000899 -0.034309 0.000000 0.018369 0.000000
# 2 0.000899 0.011598 -0.003401 0.000000 0.001783 0.000000
# 3 -0.034309 -0.003401 0.069507 0.000000 -0.032895 0.000000
# 4 0.000000 0.000000 0.000000 0.074148 0.000000 0.004178
# 5 0.018369 0.001783 -0.032895 0.000000 0.040937 0.000000
# 6 0.000000 0.000000 0.000000 0.004178 0.000000 0.041225
#
#
# Mechanical properties :
#
#
# Convention : Reuss Voigt Hill
#
# Bulk Modulus (GPa) = 30.30503 44.23440 37.26972
# Shear Modulus (GPa) = 14.38650 28.01040 21.19845
#
# Velocity S-wave (km/s) = 2.73673 3.81868 3.32205
# Velocity P-wave (km/s) = 5.07574 6.51704 5.84102
#
# Compressibility (1/GPa) = 0.03299782
#
# Stress axis : x y z
#
# Youngs Moduli (GPa) = 39.19365 86.22534 14.38709
#
# Poissons Ratio (x) = -0.07752 0.49361
# Poissons Ratio (y) = -0.03524 0.04892
# Poissons Ratio (z) = 1.34469 0.29321
#
# Static dielectric constant tensor:
#      x y z
#    x 3.568300 0.000000 -0.102490 
#    y 0.000000 3.491020 0.000000 
#    z -0.102490 0.000000 3.039910 
# 
# 
# High freq. dielectric constant tensor:
#      x y z
#    x 1.756300 0.000000 -0.011410 
#    y 0.000000 1.755020 0.000000 
#    z -0.011410 0.000000 1.706250 
# 
# From -- ./inp_files/41197.got.cif
#   From: 2010.06.25/outbox.cif.g09.slc.cpg/sg13_21_cif.got.tgz:41197.got - 2010.06.28 04:50:58.
