data_PCOD8118554
_publ_section_title
;
Structure prediction by ZEFSAII (Michael W. Deem and Ramdas Pophale) SiO2 
 PCOD8118554
Probable space group: P 2/C
;
_chemical_formula_sum "Si O2"
_cell_formula_units_Z 24
_cell_length_a 6.908434
_cell_length_b 10.182401
_cell_length_c 26.076860
_cell_angle_alpha 90.000000
_cell_angle_beta 130.719067
_cell_angle_gamma 90.000000
_cell_volume 1390.294862
_symmetry_space_group_name_H-M "P 2/C"
_symmetry_group_IT_number 13
_symmetry_cell_setting 'monoclinic'
loop_
_space_group_symop_operation_xyz
x,y,z
-x,y,1/2-z
-x,-y,-z
x,-y,1/2+z
loop_
_atom_site_type_symbol
_atom_site_label
_atom_site_fract_x
_atom_site_fract_y
_atom_site_fract_z
Si Si1 0.500000 0.104120 0.750000
Si Si2 0.628815 0.955855 0.871738
Si Si3 0.024284 0.739701 0.198301
Si Si4 0.794251 0.239318 0.176002
Si Si5 0.162661 0.122239 0.421863
Si Si6 0.562609 0.127577 0.573662
Si Si7 0.000000 0.510631 0.750000
O O1 0.750878 0.195114 0.795559
O O2 0.497777 0.009742 0.798114
O O3 0.479249 0.827405 0.865184
O O4 0.913919 0.905931 0.912436
O O5 0.617375 0.071235 0.912132
O O6 0.747878 0.754096 0.123279
O O7 0.090751 0.584764 0.218972
O O8 0.000000 0.810126 0.250000
O O9 0.889281 0.224474 0.133380
O O10 0.776291 0.394179 0.188804
O O11 0.000000 0.170544 0.250000
O O12 0.381706 0.180195 0.496996
O O13 0.247924 0.985330 0.412410
#
# Coordination Sequence:
#
# PCOD8118554 Si02
#       7
#     2   4   4   4   4   4   2
#     4  12  20  30  58  88  98 142 182 220 290 308
#     4  11  19  30  54  83 112 133 177 224 272 330
#     4  10  20  37  53  75 108 141 183 226 255 318
#     4   9  20  36  52  78 107 138 179 223 266 310
#     4  10  20  33  53  83 110 146 169 221 282 327
#     4  10  20  34  53  79 117 140 175 218 281 327
#     4   8  20  40  54  72 110 146 184 228 252 304
#
# _framework density 17.262523999999999
#
# number of rings (size 3 to 8) (size 9 to 14) (size 15 to 20)
#    1.000    1.000    3.333    1.500    2.333    0.000 
#    3.000    0.833    0.000    1.000    0.000    0.000 
#    0.000    0.000    0.000    0.000    0.000    0.000 
#
# Total GULP energy -297401.213627 kJ/mol
# GULP energy per Si atom -12391.717234 kJ/mol
# Density = 1.722323 g / cm^3
# Si number density = 17.262524 Si / 1000 Ang^3
#
#
#
# Elastic Constant Matrix: (Units=GPa)
#
#
# Indices 1 2 3 4 5 6 
#
# 1 95.1774 24.8521 27.1153 0.0000 3.4172 0.0000
# 2 24.8521 76.8616 30.4580 0.0000 2.8387 0.0000
# 3 27.1153 30.4580 113.7918 0.0000 -2.3762 0.0000
# 4 0.0000 0.0000 0.0000 18.0654 0.0000 -1.8850
# 5 3.4172 2.8387 -2.3762 0.0000 24.1803 0.0000
# 6 0.0000 0.0000 0.0000 -1.8850 0.0000 11.6216
#
#
#
# Elastic Compliance Matrix: (Units=1/GPa)
#
#
# Indices 1 2 3 4 5 6 
#
# 1 0.011932 -0.002977 -0.002078 0.000000 -0.001541 0.000000
# 2 -0.002977 0.015404 -0.003450 0.000000 -0.001727 0.000000
# 3 -0.002078 -0.003450 0.010242 0.000000 0.001705 0.000000
# 4 0.000000 0.000000 0.000000 0.056307 0.000000 0.009133
# 5 -0.001541 -0.001727 0.001705 0.000000 0.041944 0.000000
# 6 0.000000 0.000000 0.000000 0.009133 0.000000 0.087528
#
#
# Mechanical properties :
#
#
# Convention : Reuss Voigt Hill
#
# Bulk Modulus (GPa) = 48.62213 50.07576 49.34895
# Shear Modulus (GPa) = 20.22462 24.33382 22.27922
#
# Velocity S-wave (km/s) = 3.42657 3.75858 3.59641
# Velocity P-wave (km/s) = 6.62439 6.92151 6.77458
#
# Compressibility (1/GPa) = 0.02056677
#
# Stress axis : x y z
#
# Youngs Moduli (GPa) = 83.81127 64.91884 97.63534
#
# Poissons Ratio (x) = 0.19329 0.20293
# Poissons Ratio (y) = 0.24954 0.33681
# Poissons Ratio (z) = 0.17419 0.22395
#
# Static dielectric constant tensor:
#      x y z
#    x 3.177080 0.000000 -0.145670 
#    y 0.000000 2.886200 0.000000 
#    z -0.145670 0.000000 3.265680 
# 
# 
# High freq. dielectric constant tensor:
#      x y z
#    x 1.663750 0.000000 -0.005900 
#    y 0.000000 1.630300 0.000000 
#    z -0.005900 0.000000 1.671430 
# 
# From -- ./inp_files/83614.got.cif
#   From: 2010.06.25/outbox.cif.g09.slc.cpg/sg13_42_cif.got.tgz:83614.got - 2010.06.28 04:50:58.
