data_PCOD8118615
_publ_section_title
;
Structure prediction by ZEFSAII (Michael W. Deem and Ramdas Pophale) SiO2 
 PCOD8118615
Probable space group: P 2/C
;
_chemical_formula_sum "Si O2"
_cell_formula_units_Z 28
_cell_length_a 18.421353
_cell_length_b 14.438251
_cell_length_c 8.907293
_cell_angle_alpha 90.000000
_cell_angle_beta 136.493604
_cell_angle_gamma 90.000000
_cell_volume 1630.966861
_symmetry_space_group_name_H-M "P 2/C"
_symmetry_group_IT_number 13
_symmetry_cell_setting 'monoclinic'
loop_
_space_group_symop_operation_xyz
x,y,z
-x,y,1/2-z
-x,-y,-z
x,-y,1/2+z
loop_
_atom_site_type_symbol
_atom_site_label
_atom_site_fract_x
_atom_site_fract_y
_atom_site_fract_z
Si Si1 0.391977 0.903485 0.162083
Si Si2 0.608023 0.903486 0.986153
Si Si3 0.119897 0.591386 0.104993
Si Si4 1.000000 0.100048 0.927232
Si Si5 0.880103 0.408614 0.245302
Si Si6 0.813294 0.209367 0.144432
Si Si7 0.186707 0.790634 0.204552
O O1 0.500000 0.867273 0.250000
O O2 0.409574 0.919733 0.364361
O O3 0.303370 0.827275 0.997067
O O4 0.356322 1.000000 0.034483
O O5 0.696629 0.827275 0.086955
O O6 0.500000 0.867273 0.750000
O O7 0.170624 0.500000 0.255936
O O8 0.185706 0.682527 0.249044
O O9 0.123150 0.574366 0.934725
O O10 0.000000 0.605851 0.981903
O O11 0.895934 0.154108 0.819937
O O12 0.000000 0.088494 0.750000
O O13 0.104066 0.154109 0.132135
O O14 0.000000 0.000000 0.000000
O O15 0.814294 0.317473 0.191925
O O16 0.844941 0.196924 0.017412
#
# Coordination Sequence:
#
# PCOD8118615 Si02
#       7
#     4   4   4   4   4   4   4
#     4  10  20  34  54  75 100 133 172 212 254 299
#     4  10  20  34  54  75 100 133 172 212 254 299
#     4   9  17  31  51  73 102 133 166 208 251 300
#     4  12  24  34  49  74 105 138 169 206 252 306
#     4   9  17  31  51  73 102 133 166 208 251 300
#     4  10  20  36  54  74 103 138 170 209 257 304
#     4  10  20  36  54  74 103 138 170 209 257 304
#
# _framework density 17.167731
#
# number of rings (size 3 to 8) (size 9 to 14) (size 15 to 20)
#    0.000    2.000    1.429    3.857    0.000    5.714 
#    0.000    0.000    0.000    0.857    0.000    6.000 
#    0.000    0.000    0.000    0.000    0.000    0.000 
#
# Total GULP energy -347231.141133 kJ/mol
# GULP energy per Si atom -12401.112183 kJ/mol
# Density = 1.712866 g / cm^3
# Si number density = 17.167731 Si / 1000 Ang^3
#
#
#
# Elastic Constant Matrix: (Units=GPa)
#
#
# Indices 1 2 3 4 5 6 
#
# 1 97.4121 71.7757 52.7451 0.0000 1.4712 0.0000
# 2 71.7757 167.0070 73.8968 0.0000 6.9783 0.0000
# 3 52.7451 73.8968 98.3335 0.0000 1.5613 0.0000
# 4 0.0000 0.0000 0.0000 22.9968 0.0000 -5.5029
# 5 1.4712 6.9783 1.5613 0.0000 22.8545 0.0000
# 6 0.0000 0.0000 0.0000 -5.5029 0.0000 24.6701
#
#
#
# Elastic Compliance Matrix: (Units=1/GPa)
#
#
# Indices 1 2 3 4 5 6 
#
# 1 0.016721 -0.004861 -0.005328 0.000000 0.000772 0.000000
# 2 -0.004861 0.010504 -0.005246 0.000000 -0.002536 0.000000
# 3 -0.005328 -0.005246 0.016957 0.000000 0.000786 0.000000
# 4 0.000000 0.000000 0.000000 0.045936 0.000000 0.010247
# 5 0.000772 -0.002536 0.000786 0.000000 0.044426 0.000000
# 6 0.000000 0.000000 0.000000 0.010247 0.000000 0.042821
#
#
# Mechanical properties :
#
#
# Convention : Reuss Voigt Hill
#
# Bulk Modulus (GPa) = 75.12124 84.39863 79.75993
# Shear Modulus (GPa) = 23.51034 25.05995 24.28514
#
# Velocity S-wave (km/s) = 3.70462 3.82476 3.76517
# Velocity P-wave (km/s) = 7.88360 8.29295 8.09087
#
# Compressibility (1/GPa) = 0.01331181
#
# Stress axis : x y z
#
# Youngs Moduli (GPa) = 59.80671 95.20088 58.97117
#
# Poissons Ratio (x) = 0.46275 0.31421
# Poissons Ratio (y) = 0.29071 0.30938
# Poissons Ratio (z) = 0.31866 0.49944
#
# Static dielectric constant tensor:
#      x y z
#    x 3.215970 0.000000 -0.053490 
#    y 0.000000 3.383970 0.000000 
#    z -0.053490 0.000000 3.199700 
# 
# 
# High freq. dielectric constant tensor:
#      x y z
#    x 1.657220 0.000000 -0.012260 
#    y 0.000000 1.667000 0.000000 
#    z -0.012260 0.000000 1.653500 
# 
# From -- ./inp_files/21981.got.cif
#   From: 2010.06.25/outbox.cif.g09.slc.cpg/sg13_11_cif.got.tgz:21981.got - 2010.06.28 04:50:58.
