data_PCOD8118991
_publ_section_title
;
Structure prediction by ZEFSAII (Michael W. Deem and Ramdas Pophale) SiO2 
 PCOD8118991
Probable space group: P 2/C
;
_chemical_formula_sum "Si O2"
_cell_formula_units_Z 24
_cell_length_a 15.301781
_cell_length_b 9.298509
_cell_length_c 17.771575
_cell_angle_alpha 90.000000
_cell_angle_beta 29.405999
_cell_angle_gamma 90.000000
_cell_volume 1241.532974
_symmetry_space_group_name_H-M "P 2/C"
_symmetry_group_IT_number 13
_symmetry_cell_setting 'monoclinic'
loop_
_space_group_symop_operation_xyz
x,y,z
-x,y,1/2-z
-x,-y,-z
x,-y,1/2+z
loop_
_atom_site_type_symbol
_atom_site_label
_atom_site_fract_x
_atom_site_fract_y
_atom_site_fract_z
Si Si1 0.531026 0.840910 0.310705
Si Si2 0.956437 0.844490 0.196071
Si Si3 0.323971 0.651566 0.168414
Si Si4 0.176455 0.918079 0.898890
Si Si5 0.179667 0.865623 0.658795
Si Si6 0.685182 0.676592 0.817603
O O1 0.500000 0.781645 0.250000
O O2 0.614430 0.715277 0.298301
O O3 0.339971 0.893621 0.481975
O O4 0.659689 0.975752 0.218858
O O5 0.853863 0.718404 0.231372
O O6 0.000000 0.807296 0.250000
O O7 0.838869 0.990064 0.277432
O O8 0.137646 0.865780 0.013065
O O9 0.269215 0.489190 0.229495
O O10 0.472648 0.679938 0.992558
O O11 0.244210 0.778491 0.801942
O O12 0.000000 0.000000 0.000000
O O13 0.214077 0.726789 0.683142
O O14 0.000000 0.834346 0.750000
#
# Coordination Sequence:
#
# PCOD8118991 Si02
#       6
#     4   4   4   4   4   4
#     4  11  22  38  63  90 122 162 206 261 315 373
#     4  11  22  38  61  90 125 159 209 258 311 373
#     4  10  22  42  59  87 125 168 204 254 319 386
#     4  12  22  39  63  95 123 162 214 264 308 373
#     4  10  20  36  61  89 119 159 211 262 308 372
#     4  10  22  39  62  84 124 168 207 256 322 373
#
# _framework density 19.330939999999998
#
# number of rings (size 3 to 8) (size 9 to 14) (size 15 to 20)
#    0.000    1.333    3.333    3.000    0.000    4.000 
#    0.000    5.833    0.000    0.000    0.000    0.000 
#    0.000    0.000    0.000    0.000    0.000    0.000 
#
# Total GULP energy -297509.272224 kJ/mol
# GULP energy per Si atom -12396.219676 kJ/mol
# Density = 1.928694 g / cm^3
# Si number density = 19.330940 Si / 1000 Ang^3
#
#
#
# Elastic Constant Matrix: (Units=GPa)
#
#
# Indices 1 2 3 4 5 6 
#
# 1 111.9235 61.2990 62.7321 0.0000 6.2029 0.0000
# 2 61.2990 148.0781 63.8159 0.0000 5.0910 0.0000
# 3 62.7321 63.8159 134.0570 0.0000 12.4116 0.0000
# 4 0.0000 0.0000 0.0000 29.7589 0.0000 8.2464
# 5 6.2029 5.0910 12.4116 0.0000 38.2601 0.0000
# 6 0.0000 0.0000 0.0000 8.2464 0.0000 6.3942
#
#
#
# Elastic Compliance Matrix: (Units=1/GPa)
#
#
# Indices 1 2 3 4 5 6 
#
# 1 0.013484 -0.003603 -0.004574 0.000000 -0.000223 0.000000
# 2 -0.003603 0.009460 -0.002840 0.000000 0.000247 0.000000
# 3 -0.004574 -0.002840 0.011184 0.000000 -0.002509 0.000000
# 4 0.000000 0.000000 0.000000 0.052291 0.000000 -0.067438
# 5 -0.000223 0.000247 -0.002509 0.000000 0.026954 0.000000
# 6 0.000000 0.000000 0.000000 -0.067438 0.000000 0.243364
#
#
# Mechanical properties :
#
#
# Convention : Reuss Voigt Hill
#
# Bulk Modulus (GPa) = 82.68592 85.52806 84.10699
# Shear Modulus (GPa) = 13.06154 28.63009 20.84582
#
# Velocity S-wave (km/s) = 2.60221 3.85262 3.28741
# Velocity P-wave (km/s) = 7.20384 8.00814 7.61662
#
# Compressibility (1/GPa) = 0.01209396
#
# Stress axis : x y z
#
# Youngs Moduli (GPa) = 74.16150 105.70547 89.41124
#
# Poissons Ratio (x) = 0.38086 0.40898
# Poissons Ratio (y) = 0.26720 0.25395
# Poissons Ratio (z) = 0.33922 0.30023
#
# Static dielectric constant tensor:
#      x y z
#    x 3.544510 0.000000 0.112860 
#    y 0.000000 3.524030 0.000000 
#    z 0.112860 0.000000 3.831410 
# 
# 
# High freq. dielectric constant tensor:
#      x y z
#    x 1.751650 0.000000 0.004810 
#    y 0.000000 1.744840 0.000000 
#    z 0.004810 0.000000 1.769340 
# 
# From -- ./inp_files/68085.got.cif
#   From: 2010.06.25/outbox.cif.g09.slc.cpg/sg13_35_cif.got.tgz:68085.got - 2010.06.28 04:50:58.
