data_PCOD8118801
_publ_section_title
;
Structure prediction by ZEFSAII (Michael W. Deem and Ramdas Pophale) SiO2 
 PCOD8118801
Probable space group: P 2/C
;
_chemical_formula_sum "Si O2"
_cell_formula_units_Z 30
_cell_length_a 12.089161
_cell_length_b 9.143762
_cell_length_c 14.470257
_cell_angle_alpha 90.000000
_cell_angle_beta 89.999961
_cell_angle_gamma 90.000000
_cell_volume 1599.548156
_symmetry_space_group_name_H-M "P 2/C"
_symmetry_group_IT_number 13
_symmetry_cell_setting 'monoclinic'
loop_
_space_group_symop_operation_xyz
x,y,z
-x,y,1/2-z
-x,-y,-z
x,-y,1/2+z
loop_
_atom_site_type_symbol
_atom_site_label
_atom_site_fract_x
_atom_site_fract_y
_atom_site_fract_z
Si Si1 0.714294 0.348005 0.953853
Si Si2 0.735352 0.286162 0.750000
Si Si3 0.871533 0.140871 0.444728
Si Si4 0.500000 0.825939 0.250000
Si Si5 0.500000 0.146797 0.554884
Si Si6 0.285706 0.348006 0.953853
Si Si7 0.128010 0.987624 0.750000
Si Si8 0.871533 0.859129 0.555273
O O1 0.762151 0.366969 0.848032
O O2 0.608528 0.243008 0.960921
O O3 0.679881 0.500000 1.000000
O O4 0.810159 0.283204 0.018280
O O5 0.603911 0.280931 0.750001
O O6 0.762150 0.366970 0.651968
O O7 0.794487 0.129045 0.749999
O O8 0.810160 0.283206 0.481720
O O9 0.845693 0.114436 0.337245
O O10 0.000000 0.167267 0.463507
O O11 0.828128 0.000001 0.500002
O O12 0.499999 0.922199 0.341940
O O13 0.608528 0.243008 0.539078
O O14 0.500000 0.000000 0.500000
O O15 0.154306 0.885561 0.837244
O O16 0.000000 0.040773 0.750000
#
# Coordination Sequence:
#
# PCOD8118801 Si02
#       8
#     4   4   4   2   4   4   4   4
#     4  11  23  38  58  86 121 155 189 237 295 351
#     4  10  20  37  58  79 117 155 191 230 294 347
#     4  10  20  36  58  85 112 148 198 241 278 334
#     4   8  20  34  54  84 108 144 184 240 276 334
#     4  10  21  39  61  84 114 152 199 237 283 337
#     4  11  23  38  58  86 121 155 189 237 295 351
#     4  10  20  35  60  86 114 149 197 248 283 328
#     4  10  20  36  58  85 112 148 198 241 278 334
#
# _framework density 18.755296000000001
#
# number of rings (size 3 to 8) (size 9 to 14) (size 15 to 20)
#    0.000    1.867    2.667    1.200    3.733    1.600 
#    0.000    1.333    0.000    0.000    0.000    0.000 
#    0.000    0.000    0.000    0.000    0.000    0.000 
#
# Total GULP energy -371778.763353 kJ/mol
# GULP energy per Si atom -12392.625445 kJ/mol
# Density = 1.871261 g / cm^3
# Si number density = 18.755296 Si / 1000 Ang^3
#
#
#
# Elastic Constant Matrix: (Units=GPa)
#
#
# Indices 1 2 3 4 5 6 
#
# 1 73.0844 37.6138 40.1303 0.0000 -0.0003 0.0000
# 2 37.6138 106.0379 72.0429 0.0000 0.0002 0.0000
# 3 40.1303 72.0429 181.4770 0.0000 0.0003 0.0000
# 4 0.0000 0.0000 0.0000 23.3724 0.0000 0.0001
# 5 -0.0003 0.0002 0.0003 0.0000 24.2434 0.0000
# 6 0.0000 0.0000 0.0000 0.0001 0.0000 19.5937
#
#
#
# Elastic Compliance Matrix: (Units=1/GPa)
#
#
# Indices 1 2 3 4 5 6 
#
# 1 0.017200 -0.004816 -0.001892 0.000000 0.000000 0.000000
# 2 -0.004816 0.014262 -0.004597 0.000000 0.000000 0.000000
# 3 -0.001892 -0.004597 0.007753 0.000000 0.000000 0.000000
# 4 0.000000 0.000000 0.000000 0.042786 0.000000 0.000000
# 5 0.000000 0.000000 0.000000 0.000000 0.041248 0.000000
# 6 0.000000 0.000000 0.000000 0.000000 0.000000 0.051037
#
#
# Mechanical properties :
#
#
# Convention : Reuss Voigt Hill
#
# Bulk Modulus (GPa) = 60.21652 73.35257 66.78454
# Shear Modulus (GPa) = 24.69978 27.49603 26.09791
#
# Velocity S-wave (km/s) = 3.63292 3.83305 3.73432
# Velocity P-wave (km/s) = 7.05504 7.66713 7.36744
#
# Compressibility (1/GPa) = 0.01660674
#
# Stress axis : x y z
#
# Youngs Moduli (GPa) = 58.13912 70.11624 128.97459
#
# Poissons Ratio (x) = 0.33768 0.24397
# Poissons Ratio (y) = 0.28000 0.59287
# Poissons Ratio (z) = 0.10998 0.32231
#
# Static dielectric constant tensor:
#      x y z
#    x 3.524690 0.000000 0.000000 
#    y 0.000000 3.063170 0.000000 
#    z 0.000000 0.000000 4.025570 
# 
# 
# High freq. dielectric constant tensor:
#      x y z
#    x 1.735980 0.000000 0.000000 
#    y 0.000000 1.690000 0.000000 
#    z 0.000000 0.000000 1.756040 
# 
# From -- ./inp_files/50065.got.cif
#   From: 2010.06.25/outbox.cif.g09.slc.cpg/sg13_26_cif.got.tgz:50065.got - 2010.06.28 04:50:58.
