data_PCOD8118173
_publ_section_title
;
Structure prediction by ZEFSAII (Michael W. Deem and Ramdas Pophale) SiO2 
 PCOD8118173
Probable space group: P 2/C
;
_chemical_formula_sum "Si O2"
_cell_formula_units_Z 24
_cell_length_a 8.733842
_cell_length_b 15.212324
_cell_length_c 11.609368
_cell_angle_alpha 90.000000
_cell_angle_beta 142.093447
_cell_angle_gamma 90.000000
_cell_volume 947.639872
_symmetry_space_group_name_H-M "P 2/C"
_symmetry_group_IT_number 13
_symmetry_cell_setting 'monoclinic'
loop_
_space_group_symop_operation_xyz
x,y,z
-x,y,1/2-z
-x,-y,-z
x,-y,1/2+z
loop_
_atom_site_type_symbol
_atom_site_label
_atom_site_fract_x
_atom_site_fract_y
_atom_site_fract_z
Si Si1 0.357879 0.433895 0.776864
Si Si2 0.323821 0.166809 0.753597
Si Si3 0.959074 0.687427 0.091806
Si Si4 0.236232 0.799354 0.811263
Si Si5 0.779471 0.009165 0.212500
Si Si6 0.450059 0.631252 0.864417
O O1 0.500000 0.395737 0.750000
O O2 0.074800 0.401940 0.609520
O O3 0.344247 0.538467 0.761340
O O4 0.475151 0.386936 0.958699
O O5 0.500000 0.176329 0.750000
O O6 0.081627 0.229508 0.598476
O O7 0.203623 0.068621 0.683992
O O8 0.495679 0.192425 0.964989
O O9 0.000000 0.704454 0.250000
O O10 0.666656 0.665633 0.905502
O O11 0.194044 0.892072 0.718470
O O12 0.248128 0.711397 0.739164
O O13 0.000000 0.784011 0.750000
O O14 0.000000 0.995217 0.250000
O O15 0.500000 0.000000 0.000000
#
# Coordination Sequence:
#
# PCOD8118173 Si02
#       6
#     4   4   4   4   4   4
#     4  10  21  38  57  88 119 155 208 254 308 365
#     4  11  21  38  65  94 116 159 211 258 300 367
#     4  10  19  36  62  87 114 155 212 247 297 374
#     4  10  21  40  61  87 124 160 201 247 314 369
#     4   9  20  37  63  89 120 164 205 250 311 370
#     4  10  22  38  61  88 120 165 204 252 315 368
#
# _framework density 25.326076
#
# number of rings (size 3 to 8) (size 9 to 14) (size 15 to 20)
#    0.000    2.000    3.333    1.000    2.333    4.000 
#    3.000    8.333    0.000    0.000    0.000    0.000 
#    0.000    0.000    0.000    0.000    0.000    0.000 
#
# Total GULP energy -297316.962982 kJ/mol
# GULP energy per Si atom -12388.206791 kJ/mol
# Density = 2.526843 g / cm^3
# Si number density = 25.326076 Si / 1000 Ang^3
#
#
#
# Elastic Constant Matrix: (Units=GPa)
#
#
# Indices 1 2 3 4 5 6 
#
# 1 164.4248 102.4731 34.6505 0.0000 31.3776 0.0000
# 2 102.4731 266.8997 43.7360 0.0000 34.9782 0.0000
# 3 34.6505 43.7360 73.0336 0.0000 30.8125 0.0000
# 4 0.0000 0.0000 0.0000 22.5712 0.0000 11.0373
# 5 31.3776 34.9782 30.8125 0.0000 41.3150 0.0000
# 6 0.0000 0.0000 0.0000 11.0373 0.0000 52.3485
#
#
#
# Elastic Compliance Matrix: (Units=1/GPa)
#
#
# Indices 1 2 3 4 5 6 
#
# 1 0.008645 -0.002692 -0.000994 0.000000 -0.003546 0.000000
# 2 -0.002692 0.005166 -0.001217 0.000000 -0.001422 0.000000
# 3 -0.000994 -0.001217 0.020631 0.000000 -0.013602 0.000000
# 4 0.000000 0.000000 0.000000 0.049397 0.000000 -0.010415
# 5 -0.003546 -0.001422 -0.013602 0.000000 0.038245 0.000000
# 6 0.000000 0.000000 0.000000 -0.010415 0.000000 0.021299
#
#
# Mechanical properties :
#
#
# Convention : Reuss Voigt Hill
#
# Bulk Modulus (GPa) = 40.58812 96.23082 68.40947
# Shear Modulus (GPa) = 30.97891 44.81351 37.89621
#
# Velocity S-wave (km/s) = 3.50123 4.21106 3.87244
# Velocity P-wave (km/s) = 5.69261 7.85642 6.86036
#
# Compressibility (1/GPa) = 0.02463775
#
# Stress axis : x y z
#
# Youngs Moduli (GPa) = 115.66712 193.57670 48.47116
#
# Poissons Ratio (x) = 0.52107 0.04817
# Poissons Ratio (y) = 0.31135 0.05897
# Poissons Ratio (z) = 0.11496 0.23551
#
# Static dielectric constant tensor:
#      x y z
#    x 4.669920 0.000000 0.194300 
#    y 0.000000 5.185360 0.000000 
#    z 0.194300 0.000000 4.766250 
# 
# 
# High freq. dielectric constant tensor:
#      x y z
#    x 2.017620 0.000000 0.011160 
#    y 0.000000 2.035670 0.000000 
#    z 0.011160 0.000000 2.015570 
# 
# From -- ./inp_files/47797.got.cif
#   From: 2010.06.25/outbox.cif.g09.slc.cpg/sg13_24_cif.got.tgz:47797.got - 2010.06.28 04:50:58.
