data_PCOD8118283
_publ_section_title
;
Structure prediction by ZEFSAII (Michael W. Deem and Ramdas Pophale) SiO2 
 PCOD8118283
Probable space group: P 2/C
;
_chemical_formula_sum "Si O2"
_cell_formula_units_Z 22
_cell_length_a 7.088483
_cell_length_b 5.780759
_cell_length_c 27.841864
_cell_angle_alpha 90.000000
_cell_angle_beta 67.515780
_cell_angle_gamma 90.000000
_cell_volume 1054.147407
_symmetry_space_group_name_H-M "P 2/C"
_symmetry_group_IT_number 13
_symmetry_cell_setting 'monoclinic'
loop_
_space_group_symop_operation_xyz
x,y,z
-x,y,1/2-z
-x,-y,-z
x,-y,1/2+z
loop_
_atom_site_type_symbol
_atom_site_label
_atom_site_fract_x
_atom_site_fract_y
_atom_site_fract_z
Si Si1 0.513249 0.872483 0.664906
Si Si2 0.357344 0.745590 0.413272
Si Si3 0.198124 0.508481 0.337400
Si Si4 0.385726 0.250477 0.012873
Si Si5 0.500000 0.808488 0.250000
Si Si6 0.735966 0.424412 0.378234
O O1 0.696683 0.741660 0.674486
O O2 0.334550 0.709275 0.662838
O O3 0.615187 0.996669 0.609245
O O4 0.415401 0.045708 0.713102
O O5 0.220583 0.600062 0.389839
O O6 0.251464 0.752601 0.476438
O O7 0.584881 0.641111 0.398750
O O8 0.308707 0.661829 0.286692
O O9 0.963110 0.509475 0.345987
O O10 0.258457 0.258845 0.074847
O O11 0.500000 0.500000 0.000000
O O12 0.500000 0.000000 0.000000
#
# Coordination Sequence:
#
# PCOD8118283 Si02
#       6
#     4   4   4   4   2   4
#     4  10  20  40  61  82 118 159 198 267 316 377
#     4   9  20  38  60  87 130 165 197 255 317 371
#     4  10  22  40  60  89 118 160 213 263 319 385
#     4  10  19  37  64  95 136 174 212 256 322 386
#     4  10  22  42  58  78 122 154 202 268 338 372
#     4  10  21  38  64  90 123 163 212 254 315 386
#
# _framework density 20.869944
#
# number of rings (size 3 to 8) (size 9 to 14) (size 15 to 20)
#    0.000    2.182    1.818    0.545    0.000    3.636 
#    0.000   22.727    0.000    0.000    0.000    0.000 
#    0.000    0.000    0.000    0.000    0.000    0.000 
#
# Total GULP energy -272543.536917 kJ/mol
# GULP energy per Si atom -12388.342587 kJ/mol
# Density = 2.082244 g / cm^3
# Si number density = 20.869944 Si / 1000 Ang^3
#
#
#
# Elastic Constant Matrix: (Units=GPa)
#
#
# Indices 1 2 3 4 5 6 
#
# 1 103.9893 24.0980 15.0019 0.0000 -7.2235 0.0000
# 2 24.0980 105.3556 16.4522 0.0000 -1.3230 0.0000
# 3 15.0019 16.4522 84.9838 0.0000 5.4936 0.0000
# 4 0.0000 0.0000 0.0000 25.1419 0.0000 0.8498
# 5 -7.2235 -1.3230 5.4936 0.0000 22.2283 0.0000
# 6 0.0000 0.0000 0.0000 0.8498 0.0000 9.3217
#
#
#
# Elastic Compliance Matrix: (Units=1/GPa)
#
#
# Indices 1 2 3 4 5 6 
#
# 1 0.010613 -0.002114 -0.001706 0.000000 0.003745 0.000000
# 2 -0.002114 0.010234 -0.001629 0.000000 0.000325 0.000000
# 3 -0.001706 -0.001629 0.012627 0.000000 -0.003772 0.000000
# 4 0.000000 0.000000 0.000000 0.039897 0.000000 -0.003637
# 5 0.003745 0.000325 -0.003772 0.000000 0.047156 0.000000
# 6 0.000000 0.000000 0.000000 -0.003637 0.000000 0.107608
#
#
# Mechanical properties :
#
#
# Convention : Reuss Voigt Hill
#
# Bulk Modulus (GPa) = 44.29630 45.04809 44.67220
# Shear Modulus (GPa) = 20.27916 27.25682 23.76799
#
# Velocity S-wave (km/s) = 3.12058 3.61783 3.37836
# Velocity P-wave (km/s) = 5.85278 6.25169 6.05552
#
# Compressibility (1/GPa) = 0.02257525
#
# Stress axis : x y z
#
# Youngs Moduli (GPa) = 94.22841 97.71691 79.19321
#
# Poissons Ratio (x) = 0.20657 0.13512
# Poissons Ratio (y) = 0.19919 0.12900
# Poissons Ratio (z) = 0.16077 0.15918
#
# Static dielectric constant tensor:
#      x y z
#    x 3.300050 0.000000 0.374730 
#    y 0.000000 4.062860 0.000000 
#    z 0.374730 0.000000 4.202780 
# 
# 
# High freq. dielectric constant tensor:
#      x y z
#    x 1.770460 0.000000 0.031800 
#    y 0.000000 1.832940 0.000000 
#    z 0.031800 0.000000 1.832810 
# 
# From -- ./inp_files/89336.got.cif
#   From: 2010.06.25/outbox.cif.g09.slc.cpg/sg13_45_cif.got.tgz:89336.got - 2010.06.28 04:50:58.
