data_PCOD8118642
_publ_section_title
;
Structure prediction by ZEFSAII (Michael W. Deem and Ramdas Pophale) SiO2 
 PCOD8118642
Probable space group: P 2/C
;
_chemical_formula_sum "Si O2"
_cell_formula_units_Z 18
_cell_length_a 7.484926
_cell_length_b 8.300997
_cell_length_c 17.949030
_cell_angle_alpha 90.000000
_cell_angle_beta 52.464325
_cell_angle_gamma 90.000000
_cell_volume 884.336963
_symmetry_space_group_name_H-M "P 2/C"
_symmetry_group_IT_number 13
_symmetry_cell_setting 'monoclinic'
loop_
_space_group_symop_operation_xyz
x,y,z
-x,y,1/2-z
-x,-y,-z
x,-y,1/2+z
loop_
_atom_site_type_symbol
_atom_site_label
_atom_site_fract_x
_atom_site_fract_y
_atom_site_fract_z
Si Si1 0.734632 0.164226 0.727604
Si Si2 0.808616 0.657010 0.899200
Si Si3 0.000000 0.086861 0.250000
Si Si4 0.151623 0.533576 0.390242
Si Si5 0.471612 0.386904 0.608442
O O1 0.500000 0.106405 0.750000
O O2 0.871959 0.285033 0.637745
O O3 0.687194 0.249993 0.818294
O O4 0.885237 0.011976 0.712010
O O5 0.815569 0.803173 0.839381
O O6 0.684362 0.503861 0.897448
O O7 0.066553 0.599402 0.851985
O O8 0.664143 0.701292 0.009509
O O9 0.410887 0.516296 0.351870
O O10 0.000000 0.500000 0.500000
#
# Coordination Sequence:
#
# PCOD8118642 Si02
#       5
#     4   4   2   4   4
#     4  10  21  37  54  77 112 147 176 219 278 329
#     4  10  20  34  56  83 105 138 186 229 270 319
#     4  12  24  34  52  84 118 146 174 222 286 338
#     4   9  18  36  60  80 100 138 189 229 261 312
#     4   9  19  37  58  77 103 142 188 229 263 315
#
# _framework density 20.354232
#
# number of rings (size 3 to 8) (size 9 to 14) (size 15 to 20)
#    0.000    2.222    0.000    2.667    0.000    2.667 
#    0.000   10.000    0.000    0.000    0.000    0.000 
#    0.000    0.000    0.000    0.000    0.000    0.000 
#
# Total GULP energy -223024.631407 kJ/mol
# GULP energy per Si atom -12390.257300 kJ/mol
# Density = 2.030791 g / cm^3
# Si number density = 20.354232 Si / 1000 Ang^3
#
#
#
# Elastic Constant Matrix: (Units=GPa)
#
#
# Indices 1 2 3 4 5 6 
#
# 1 60.9836 18.2696 21.5995 0.0000 9.6244 0.0000
# 2 18.2696 67.8068 46.5294 0.0000 4.4759 0.0000
# 3 21.5995 46.5294 99.5973 0.0000 9.8645 0.0000
# 4 0.0000 0.0000 0.0000 28.2708 0.0000 9.1894
# 5 9.6244 4.4759 9.8645 0.0000 23.3350 0.0000
# 6 0.0000 0.0000 0.0000 9.1894 0.0000 19.1248
#
#
#
# Elastic Compliance Matrix: (Units=1/GPa)
#
#
# Indices 1 2 3 4 5 6 
#
# 1 0.019111 -0.003411 -0.001915 0.000000 -0.006418 0.000000
# 2 -0.003411 0.022316 -0.009812 0.000000 0.001274 0.000000
# 3 -0.001915 -0.009812 0.015421 0.000000 -0.003847 0.000000
# 4 0.000000 0.000000 0.000000 0.041919 0.000000 -0.020142
# 5 -0.006418 0.001274 -0.003847 0.000000 0.046883 0.000000
# 6 0.000000 0.000000 0.000000 -0.020142 0.000000 0.061966
#
#
# Mechanical properties :
#
#
# Convention : Reuss Voigt Hill
#
# Bulk Modulus (GPa) = 37.63526 44.57608 41.10567
# Shear Modulus (GPa) = 20.26346 23.61205 21.93776
#
# Velocity S-wave (km/s) = 3.15864 3.40965 3.28655
# Velocity P-wave (km/s) = 5.64207 6.11953 5.88565
#
# Compressibility (1/GPa) = 0.02657083
#
# Stress axis : x y z
#
# Youngs Moduli (GPa) = 52.32558 44.81155 64.84831
#
# Poissons Ratio (x) = 0.15287 0.12420
# Poissons Ratio (y) = 0.17850 0.63627
# Poissons Ratio (z) = 0.10021 0.43968
#
# Static dielectric constant tensor:
#      x y z
#    x 4.167400 0.000000 0.028810 
#    y 0.000000 3.464120 0.000000 
#    z 0.028810 0.000000 3.946310 
# 
# 
# High freq. dielectric constant tensor:
#      x y z
#    x 1.814690 0.000000 0.013250 
#    y 0.000000 1.757380 0.000000 
#    z 0.013250 0.000000 1.800660 
# 
# From -- ./inp_files/45480.got.cif
#   From: 2010.06.25/outbox.cif.g09.slc.cpg/sg13_23_cif.got.tgz:45480.got - 2010.06.28 04:50:58.
