data_PCOD8118759
_publ_section_title
;
Structure prediction by ZEFSAII (Michael W. Deem and Ramdas Pophale) SiO2 
 PCOD8118759
Probable space group: P 2/C
;
_chemical_formula_sum "Si O2"
_cell_formula_units_Z 26
_cell_length_a 12.746619
_cell_length_b 9.385655
_cell_length_c 13.685265
_cell_angle_alpha 90.000000
_cell_angle_beta 57.817941
_cell_angle_gamma 90.000000
_cell_volume 1385.695875
_symmetry_space_group_name_H-M "P 2/C"
_symmetry_group_IT_number 13
_symmetry_cell_setting 'monoclinic'
loop_
_space_group_symop_operation_xyz
x,y,z
-x,y,1/2-z
-x,-y,-z
x,-y,1/2+z
loop_
_atom_site_type_symbol
_atom_site_label
_atom_site_fract_x
_atom_site_fract_y
_atom_site_fract_z
Si Si1 0.809005 0.861296 0.202724
Si Si2 0.346746 0.351352 0.057263
Si Si3 0.350356 0.865320 0.722576
Si Si4 0.000000 0.022048 0.750000
Si Si5 0.371737 0.887365 0.929195
Si Si6 0.633709 0.670558 0.400375
Si Si7 0.810302 0.858273 0.977187
O O1 0.714621 0.730102 0.269740
O O2 0.853124 0.846390 0.068641
O O3 0.744958 0.011942 0.256202
O O4 0.925233 0.867011 0.218370
O O5 0.325496 0.273094 0.170705
O O6 0.319445 0.515480 0.091909
O O7 0.487261 0.330123 0.947327
O O8 0.244682 0.293568 0.031196
O O9 0.339043 0.818518 0.840749
O O10 0.485057 0.929498 0.633013
O O11 0.076405 0.914553 0.643294
O O12 0.302810 0.034171 0.980958
O O13 0.331586 0.771506 0.027014
#
# Coordination Sequence:
#
# PCOD8118759 Si02
#       7
#     4   4   4   2   4   4   4
#     4  11  22  37  60  85 111 149 196 243 286 336
#     4  10  20  35  57  86 120 151 180 228 294 358
#     4   9  17  32  56  83 109 142 185 234 290 347
#     4  12  22  40  60  82 112 152 200 254 284 322
#     4   9  17  32  56  83 109 142 185 234 290 347
#     4  10  20  35  57  86 120 151 180 228 294 358
#     4  11  22  37  60  85 111 149 196 243 286 336
#
# _framework density 18.763135999999999
#
# number of rings (size 3 to 8) (size 9 to 14) (size 15 to 20)
#    0.000    1.846    3.077    1.385    0.000    5.538 
#    0.000    3.846    0.000    1.846    0.000    0.000 
#    0.000    0.000    0.000    0.000    0.000    0.000 
#
# Total GULP energy -322394.267408 kJ/mol
# GULP energy per Si atom -12399.779516 kJ/mol
# Density = 1.872043 g / cm^3
# Si number density = 18.763136 Si / 1000 Ang^3
#
#
#
# Elastic Constant Matrix: (Units=GPa)
#
#
# Indices 1 2 3 4 5 6 
#
# 1 71.0971 -4.2924 20.9835 0.0000 14.3936 0.0000
# 2 -4.2924 35.0280 9.1746 0.0000 8.7956 0.0000
# 3 20.9835 9.1746 103.8022 0.0000 8.3234 0.0000
# 4 0.0000 0.0000 0.0000 15.9058 0.0000 -0.5865
# 5 14.3936 8.7956 8.3234 0.0000 19.8039 0.0000
# 6 0.0000 0.0000 0.0000 -0.5865 0.0000 23.1315
#
#
#
# Elastic Compliance Matrix: (Units=1/GPa)
#
#
# Indices 1 2 3 4 5 6 
#
# 1 0.018477 0.006894 -0.003128 0.000000 -0.015177 0.000000
# 2 0.006894 0.035016 -0.002939 0.000000 -0.019327 0.000000
# 3 -0.003128 -0.002939 0.010596 0.000000 -0.000875 0.000000
# 4 0.000000 0.000000 0.000000 0.062929 0.000000 0.001595
# 5 -0.015177 -0.019327 -0.000875 0.000000 0.070477 0.000000
# 6 0.000000 0.000000 0.000000 0.001595 0.000000 0.043272
#
#
# Mechanical properties :
#
#
# Convention : Reuss Voigt Hill
#
# Bulk Modulus (GPa) = 15.21027 29.07321 22.14174
# Shear Modulus (GPa) = 19.15517 24.03902 21.59709
#
# Velocity S-wave (km/s) = 3.19861 3.58325 3.39638
# Velocity P-wave (km/s) = 4.66535 5.71384 5.21601
#
# Compressibility (1/GPa) = 0.06574503
#
# Stress axis : x y z
#
# Youngs Moduli (GPa) = 54.12111 28.55814 94.37664
#
# Poissons Ratio (x) = -0.19689 0.29517
# Poissons Ratio (y) = -0.37312 0.27735
# Poissons Ratio (z) = 0.16927 0.08393
#
# Static dielectric constant tensor:
#      x y z
#    x 3.419990 0.000000 0.102360 
#    y 0.000000 3.271510 0.000000 
#    z 0.102360 0.000000 3.633440 
# 
# 
# High freq. dielectric constant tensor:
#      x y z
#    x 1.723910 0.000000 0.011150 
#    y 0.000000 1.709300 0.000000 
#    z 0.011150 0.000000 1.736010 
# 
# From -- ./inp_files/49929.got.cif
#   From: 2010.06.25/outbox.cif.g09.slc.cpg/sg13_25_cif.got.tgz:49929.got - 2010.06.28 04:50:58.
