data_PCOD8118757
_publ_section_title
;
Structure prediction by ZEFSAII (Michael W. Deem and Ramdas Pophale) SiO2 
 PCOD8118757
Probable space group: P 2/C
;
_chemical_formula_sum "Si O2"
_cell_formula_units_Z 32
_cell_length_a 17.908663
_cell_length_b 23.811167
_cell_length_c 12.005842
_cell_angle_alpha 90.000000
_cell_angle_beta 19.239234
_cell_angle_gamma 90.000000
_cell_volume 1686.977702
_symmetry_space_group_name_H-M "P 2/C"
_symmetry_group_IT_number 13
_symmetry_cell_setting 'monoclinic'
loop_
_space_group_symop_operation_xyz
x,y,z
-x,y,1/2-z
-x,-y,-z
x,-y,1/2+z
loop_
_atom_site_type_symbol
_atom_site_label
_atom_site_fract_x
_atom_site_fract_y
_atom_site_fract_z
Si Si1 0.170227 0.256447 0.409550
Si Si2 0.858936 0.662595 0.226262
Si Si3 0.366995 0.943961 0.214310
Si Si4 0.029615 0.943962 0.889070
Si Si5 0.462474 0.444122 0.621973
Si Si6 0.529325 0.337402 0.385475
Si Si7 0.330123 0.139461 0.089760
Si Si8 0.131351 0.444123 0.284209
O O1 0.391147 0.290740 0.138534
O O2 0.249373 0.197815 0.251236
O O3 0.049499 0.290742 0.480186
O O4 0.000000 0.245235 0.750000
O O5 0.674159 0.688541 0.401686
O O6 0.740444 0.644989 0.509558
O O7 0.960258 0.607610 0.026370
O O8 0.222091 0.956567 0.527906
O O9 0.205915 0.926176 0.338167
O O10 0.544820 0.894266 0.987292
O O11 0.500000 0.000000 0.000000
O O12 0.109054 0.894269 0.858829
O O13 0.000000 0.000000 0.000000
O O14 0.500000 0.500000 0.500000
O O15 0.433534 0.392391 0.579831
O O16 0.676574 0.431557 0.396854
O O17 0.235547 0.450730 0.014451
O O18 0.500000 0.151237 0.750000
O O19 0.000000 0.500000 0.500000
#
# Coordination Sequence:
#
# PCOD8118757 Si02
#       8
#     4   4   4   4   4   4   4   4
#     4  10  22  40  60  84 116 154 195 240 285 336
#     4  10  21  39  62  85 112 149 192 238 289 342
#     4  10  20  35  57  85 117 153 192 236 288 340
#     4  10  20  35  57  85 117 153 192 236 288 340
#     4  11  23  37  56  85 118 151 190 235 288 348
#     4  10  21  39  62  85 112 149 192 238 289 342
#     4  10  22  38  56  84 120 154 193 238 283 340
#     4  11  23  37  56  85 118 151 190 235 288 348
#
# _framework density 18.968834999999999
#
# number of rings (size 3 to 8) (size 9 to 14) (size 15 to 20)
#    0.000    1.750    2.500    1.500    0.000    8.000 
#    0.000    0.000    0.000    0.000    0.000    0.000 
#    0.000    0.000    0.000    0.000    0.000    0.000 
#
# Total GULP energy -396911.120149 kJ/mol
# GULP energy per Si atom -12403.472505 kJ/mol
# Density = 1.892566 g / cm^3
# Si number density = 18.968835 Si / 1000 Ang^3
#
#
#
# Elastic Constant Matrix: (Units=GPa)
#
#
# Indices 1 2 3 4 5 6 
#
# 1 125.2956 73.5926 52.3472 0.0000 -20.9224 0.0000
# 2 73.5926 164.9045 67.5376 0.0000 -5.3290 0.0000
# 3 52.3472 67.5376 88.5546 0.0000 -11.4384 0.0000
# 4 0.0000 0.0000 0.0000 38.8013 0.0000 4.5531
# 5 -20.9224 -5.3290 -11.4384 0.0000 32.9536 0.0000
# 6 0.0000 0.0000 0.0000 4.5531 0.0000 33.6386
#
#
#
# Elastic Compliance Matrix: (Units=1/GPa)
#
#
# Indices 1 2 3 4 5 6 
#
# 1 0.012983 -0.004043 -0.003781 0.000000 0.006277 0.000000
# 2 -0.004043 0.010106 -0.005693 0.000000 -0.002909 0.000000
# 3 -0.003781 -0.005693 0.018259 0.000000 0.003017 0.000000
# 4 0.000000 0.000000 0.000000 0.026188 0.000000 -0.003545
# 5 0.006277 -0.002909 0.003017 0.000000 0.034908 0.000000
# 6 0.000000 0.000000 0.000000 -0.003545 0.000000 0.030208
#
#
# Mechanical properties :
#
#
# Convention : Reuss Voigt Hill
#
# Bulk Modulus (GPa) = 69.85826 85.07883 77.46854
# Shear Modulus (GPa) = 30.40283 33.43051 31.91667
#
# Velocity S-wave (km/s) = 4.00781 4.20264 4.10638
# Velocity P-wave (km/s) = 7.63706 8.27640 7.96315
#
# Compressibility (1/GPa) = 0.01431470
#
# Stress axis : x y z
#
# Youngs Moduli (GPa) = 77.02092 98.94949 54.76682
#
# Poissons Ratio (x) = 0.40005 0.20706
# Poissons Ratio (y) = 0.31139 0.31181
# Poissons Ratio (z) = 0.29119 0.56336
#
# Static dielectric constant tensor:
#      x y z
#    x 4.607830 0.000000 -0.647040 
#    y 0.000000 3.282600 0.000000 
#    z -0.647040 0.000000 3.873890 
# 
# 
# High freq. dielectric constant tensor:
#      x y z
#    x 1.753210 0.000000 -0.010530 
#    y 0.000000 1.726330 0.000000 
#    z -0.010530 0.000000 1.741240 
# 
# From -- ./inp_files/39532.got.cif
#   From: 2010.06.25/outbox.cif.g09.slc.cpg/sg13_20_cif.got.tgz:39532.got - 2010.06.28 04:50:58.
