data_PCOD8118729
_publ_section_title
;
Structure prediction by ZEFSAII (Michael W. Deem and Ramdas Pophale) SiO2 
 PCOD8118729
Probable space group: P 2/C
;
_chemical_formula_sum "Si O2"
_cell_formula_units_Z 24
_cell_length_a 21.663592
_cell_length_b 10.256259
_cell_length_c 18.762516
_cell_angle_alpha 90.000000
_cell_angle_beta 18.803720
_cell_angle_gamma 90.000000
_cell_volume 1343.715790
_symmetry_space_group_name_H-M "P 2/C"
_symmetry_group_IT_number 13
_symmetry_cell_setting 'monoclinic'
loop_
_space_group_symop_operation_xyz
x,y,z
-x,y,1/2-z
-x,-y,-z
x,-y,1/2+z
loop_
_atom_site_type_symbol
_atom_site_label
_atom_site_fract_x
_atom_site_fract_y
_atom_site_fract_z
Si Si1 0.623171 0.528247 0.725739
Si Si2 0.909855 0.841925 0.277842
Si Si3 0.779070 0.586950 0.811588
Si Si4 0.500000 0.740601 0.750000
Si Si5 0.282908 0.699655 0.474803
Si Si6 0.075258 0.639695 0.995880
Si Si7 0.000000 0.909702 0.750000
O O1 0.552105 0.653646 0.760780
O O2 0.738619 0.434037 0.545908
O O3 0.755935 0.570950 0.645166
O O4 0.444342 0.447775 0.952249
O O5 0.679585 0.830346 0.531323
O O6 0.000000 0.771755 0.250000
O O7 0.006372 0.776892 0.103581
O O8 0.969554 0.995597 0.214371
O O9 0.847996 0.667837 0.667409
O O10 0.891594 0.452165 0.695292
O O11 0.818035 0.675873 0.838413
O O12 0.500000 0.741031 0.250000
O O13 0.183953 0.817034 0.539935
#
# Coordination Sequence:
#
# PCOD8118729 Si02
#       7
#     4   4   4   2   4   4   2
#     4  11  18  33  58  82 113 143 177 229 277 330
#     4  10  22  34  55  78 106 144 184 230 260 323
#     4  10  21  33  53  86 116 144 172 230 286 330
#     4  12  18  34  58  84 108 132 188 228 292 310
#     4  10  20  35  56  80 110 142 188 226 263 318
#     4  11  20  34  54  84 117 142 178 222 290 337
#     4  10  22  36  56  80 100 150 200 218 258 312
#
# _framework density 17.860918999999999
#
# number of rings (size 3 to 8) (size 9 to 14) (size 15 to 20)
#    0.500    1.000    5.833    1.500    1.167    0.000 
#    0.000    0.833    0.000    4.000    0.000    0.000 
#    0.000    0.000    0.000    0.000    0.000    0.000 
#
# Total GULP energy -297541.078867 kJ/mol
# GULP energy per Si atom -12397.544953 kJ/mol
# Density = 1.782027 g / cm^3
# Si number density = 17.860919 Si / 1000 Ang^3
#
#
#
# Elastic Constant Matrix: (Units=GPa)
#
#
# Indices 1 2 3 4 5 6 
#
# 1 82.8709 40.7743 47.5994 0.0000 8.4411 0.0000
# 2 40.7743 90.4265 44.1336 0.0000 -0.8685 0.0000
# 3 47.5994 44.1336 95.0066 0.0000 9.0191 0.0000
# 4 0.0000 0.0000 0.0000 19.0593 0.0000 -11.6628
# 5 8.4411 -0.8685 9.0191 0.0000 31.3278 0.0000
# 6 0.0000 0.0000 0.0000 -11.6628 0.0000 25.5321
#
#
#
# Elastic Compliance Matrix: (Units=1/GPa)
#
#
# Indices 1 2 3 4 5 6 
#
# 1 0.018826 -0.005263 -0.006674 0.000000 -0.003297 0.000000
# 2 -0.005263 0.015946 -0.005086 0.000000 0.003325 0.000000
# 3 -0.006674 -0.005086 0.016526 0.000000 -0.003101 0.000000
# 4 0.000000 0.000000 0.000000 0.072823 0.000000 0.033265
# 5 -0.003297 0.003325 -0.003101 0.000000 0.033794 0.000000
# 6 0.000000 0.000000 0.000000 0.033265 0.000000 0.054362
#
#
# Mechanical properties :
#
#
# Convention : Reuss Voigt Hill
#
# Bulk Modulus (GPa) = 57.96558 59.25763 58.61160
# Shear Modulus (GPa) = 19.83539 24.23695 22.03617
#
# Velocity S-wave (km/s) = 3.33610 3.68772 3.51631
# Velocity P-wave (km/s) = 6.88213 7.16810 7.02657
#
# Compressibility (1/GPa) = 0.01725162
#
# Stress axis : x y z
#
# Youngs Moduli (GPa) = 53.11850 62.71078 60.50908
#
# Poissons Ratio (x) = 0.33005 0.40384
# Poissons Ratio (y) = 0.27957 0.30776
# Poissons Ratio (z) = 0.35452 0.31896
#
# Static dielectric constant tensor:
#      x y z
#    x 3.340440 0.000000 -0.104640 
#    y 0.000000 3.038320 0.000000 
#    z -0.104640 0.000000 3.413090 
# 
# 
# High freq. dielectric constant tensor:
#      x y z
#    x 1.686070 0.000000 -0.015670 
#    y 0.000000 1.666460 0.000000 
#    z -0.015670 0.000000 1.699070 
# 
# From -- ./inp_files/70629.got.cif
#   From: 2010.06.25/outbox.cif.g09.slc.cpg/sg13_36_cif.got.tgz:70629.got - 2010.06.28 04:50:58.
