data_PCOD8118249
_publ_section_title
;
Structure prediction by ZEFSAII (Michael W. Deem and Ramdas Pophale) SiO2 
 PCOD8118249
Probable space group: P 2/C
;
_chemical_formula_sum "Si O2"
_cell_formula_units_Z 24
_cell_length_a 11.148880
_cell_length_b 12.438820
_cell_length_c 26.359816
_cell_angle_alpha 90.000000
_cell_angle_beta 21.871744
_cell_angle_gamma 90.000000
_cell_volume 1361.802866
_symmetry_space_group_name_H-M "P 2/C"
_symmetry_group_IT_number 13
_symmetry_cell_setting 'monoclinic'
loop_
_space_group_symop_operation_xyz
x,y,z
-x,y,1/2-z
-x,-y,-z
x,-y,1/2+z
loop_
_atom_site_type_symbol
_atom_site_label
_atom_site_fract_x
_atom_site_fract_y
_atom_site_fract_z
Si Si1 0.635325 0.004054 0.891042
Si Si2 0.397673 0.804821 0.667479
Si Si3 0.797246 0.809883 0.974879
Si Si4 0.202455 0.899419 0.901441
Si Si5 0.623261 0.370748 0.899960
Si Si6 0.622708 0.384973 0.393997
O O1 0.615283 0.887380 0.873862
O O2 0.000000 0.046748 0.750000
O O3 0.500000 0.000000 0.000000
O O4 0.422633 0.084667 0.941496
O O5 0.673907 0.833855 0.598821
O O6 0.494213 0.688493 0.606916
O O7 0.047294 0.803967 0.830459
O O8 0.983565 0.816692 0.955180
O O9 0.569185 0.705541 0.063243
O O10 0.500000 0.941212 0.750000
O O11 0.000000 0.000000 0.000000
O O12 0.525930 0.491487 0.921916
O O13 0.000000 0.348898 0.750000
O O14 0.530485 0.343587 0.993883
O O15 0.000000 0.372704 0.250000
#
# Coordination Sequence:
#
# PCOD8118249 Si02
#       6
#     4   4   4   4   4   4
#     4  12  22  32  54  84 112 146 181 229 285 336
#     4  11  21  38  59  80 113 153 187 226 287 335
#     4  11  21  38  58  81 115 147 191 231 276 340
#     4  10  22  40  59  79 109 158 192 229 278 329
#     4  10  21  36  58  90 113 145 187 234 287 333
#     4  10  19  37  62  81 116 151 182 231 290 341
#
# _framework density 17.623697
#
# number of rings (size 3 to 8) (size 9 to 14) (size 15 to 20)
#    0.000    1.333    5.000    2.000    0.000    0.000 
#    3.000    0.833    0.000    0.000    0.000    0.000 
#    0.000    0.000    0.000    0.000    0.000    0.000 
#
# Total GULP energy -297658.037554 kJ/mol
# GULP energy per Si atom -12402.418231 kJ/mol
# Density = 1.758358 g / cm^3
# Si number density = 17.623697 Si / 1000 Ang^3
#
#
#
# Elastic Constant Matrix: (Units=GPa)
#
#
# Indices 1 2 3 4 5 6 
#
# 1 106.5060 50.5830 37.1439 0.0000 -2.1379 0.0000
# 2 50.5830 101.6883 23.5868 0.0000 -1.1201 0.0000
# 3 37.1439 23.5868 85.6328 0.0000 3.0760 0.0000
# 4 0.0000 0.0000 0.0000 28.1472 0.0000 -0.7152
# 5 -2.1379 -1.1201 3.0760 0.0000 27.9199 0.0000
# 6 0.0000 0.0000 0.0000 -0.7152 0.0000 26.3769
#
#
#
# Elastic Compliance Matrix: (Units=1/GPa)
#
#
# Indices 1 2 3 4 5 6 
#
# 1 0.013691 -0.005777 -0.004394 0.000000 0.001301 0.000000
# 2 -0.005777 0.012958 -0.001070 0.000000 0.000195 0.000000
# 3 -0.004394 -0.001070 0.013947 0.000000 -0.001916 0.000000
# 4 0.000000 0.000000 0.000000 0.035552 0.000000 0.000964
# 5 0.001301 0.000195 -0.001916 0.000000 0.036135 0.000000
# 6 0.000000 0.000000 0.000000 0.000964 0.000000 0.037938
#
#
# Mechanical properties :
#
#
# Convention : Reuss Voigt Hill
#
# Bulk Modulus (GPa) = 55.20690 57.38385 56.29538
# Shear Modulus (GPa) = 27.97306 28.65636 28.31471
#
# Velocity S-wave (km/s) = 3.98834 4.03676 4.01262
# Velocity P-wave (km/s) = 7.25276 7.37283 7.31304
#
# Compressibility (1/GPa) = 0.01811368
#
# Stress axis : x y z
#
# Youngs Moduli (GPa) = 73.03854 77.17211 71.69761
#
# Poissons Ratio (x) = 0.44582 0.31506
# Poissons Ratio (y) = 0.42194 0.07675
# Poissons Ratio (z) = 0.32095 0.08261
#
# Static dielectric constant tensor:
#      x y z
#    x 3.366700 0.000000 -0.351740 
#    y 0.000000 3.439490 0.000000 
#    z -0.351740 0.000000 4.147780 
# 
# 
# High freq. dielectric constant tensor:
#      x y z
#    x 1.673430 0.000000 0.001530 
#    y 0.000000 1.679200 0.000000 
#    z 0.001530 0.000000 1.694540 
# 
# From -- ./inp_files/92392.got.cif
#   From: 2010.06.25/outbox.cif.g09.slc.cpg/sg13_47_cif.got.tgz:92392.got - 2010.06.28 04:50:58.
