data_PCOD8118294
_publ_section_title
;
Structure prediction by ZEFSAII (Michael W. Deem and Ramdas Pophale) SiO2 
 PCOD8118294
Probable space group: P 2/C
;
_chemical_formula_sum "Si O2"
_cell_formula_units_Z 28
_cell_length_a 8.678537
_cell_length_b 14.792480
_cell_length_c 20.559586
_cell_angle_alpha 90.000000
_cell_angle_beta 149.971916
_cell_angle_gamma 90.000000
_cell_volume 1320.810090
_symmetry_space_group_name_H-M "P 2/C"
_symmetry_group_IT_number 13
_symmetry_cell_setting 'monoclinic'
loop_
_space_group_symop_operation_xyz
x,y,z
-x,y,1/2-z
-x,-y,-z
x,-y,1/2+z
loop_
_atom_site_type_symbol
_atom_site_label
_atom_site_fract_x
_atom_site_fract_y
_atom_site_fract_z
Si Si1 0.081583 0.693439 0.967116
Si Si2 0.409162 0.913660 0.007931
Si Si3 0.730582 0.774507 0.198365
Si Si4 0.343237 0.779531 0.869250
Si Si5 0.863592 0.494873 0.379064
Si Si6 0.761951 0.866429 0.799294
Si Si7 0.954400 0.315216 0.572141
O O1 0.987607 0.600307 0.896304
O O2 0.841768 0.767106 0.854323
O O3 0.429445 0.714977 0.074138
O O4 0.063551 0.692195 0.038249
O O5 0.420207 0.827428 0.964816
O O6 0.066653 0.929561 0.911747
O O7 0.644385 0.881480 0.151815
O O8 0.500000 0.000000 0.000000
O O9 0.000000 0.739398 0.250000
O O10 0.851289 0.759316 0.316021
O O11 0.360399 0.856405 0.819155
O O12 0.000000 0.737139 0.750000
O O13 0.589316 0.701232 0.945268
O O14 0.500000 0.493687 0.250000
O O15 0.000000 0.500000 0.500000
O O16 0.975337 0.581975 0.377996
O O17 0.500000 0.910156 0.750000
#
# Coordination Sequence:
#
# PCOD8118294 Si02
#       7
#     4   4   4   4   4   4   4
#     4  10  21  37  64  91 122 169 217 257 311 375
#     4  10  23  43  67  88 121 168 210 255 324 402
#     4  11  22  39  62  91 128 168 212 257 336 388
#     4  10  21  38  61  91 122 164 205 253 325 388
#     4  10  21  36  59  94 128 169 216 267 315 377
#     4  10  19  37  66  91 118 158 211 263 308 376
#     4  11  20  38  62  90 130 161 215 261 314 383
#
# _framework density 21.199112
#
# number of rings (size 3 to 8) (size 9 to 14) (size 15 to 20)
#    0.000    1.714    2.857    2.571    2.000    1.714 
#    0.000    2.143    3.143    0.000    0.000    0.000 
#    0.000    0.000    0.000    0.000    0.000    0.000 
#
# Total GULP energy -347037.535841 kJ/mol
# GULP energy per Si atom -12394.197709 kJ/mol
# Density = 2.115086 g / cm^3
# Si number density = 21.199112 Si / 1000 Ang^3
#
#
#
# Elastic Constant Matrix: (Units=GPa)
#
#
# Indices 1 2 3 4 5 6 
#
# 1 118.6202 37.6249 43.8287 0.0000 31.0379 0.0000
# 2 37.6249 107.8623 43.3637 0.0000 19.4899 0.0000
# 3 43.8287 43.3637 115.1155 0.0000 21.4017 0.0000
# 4 0.0000 0.0000 0.0000 22.6954 0.0000 -2.5460
# 5 31.0379 19.4899 21.4017 0.0000 53.1504 0.0000
# 6 0.0000 0.0000 0.0000 -2.5460 0.0000 30.8388
#
#
#
# Elastic Compliance Matrix: (Units=1/GPa)
#
#
# Indices 1 2 3 4 5 6 
#
# 1 0.011303 -0.002009 -0.002655 0.000000 -0.004795 0.000000
# 2 -0.002009 0.011609 -0.003281 0.000000 -0.001763 0.000000
# 3 -0.002655 -0.003281 0.011265 0.000000 -0.001782 0.000000
# 4 0.000000 0.000000 0.000000 0.044474 0.000000 0.003672
# 5 -0.004795 -0.001763 -0.001782 0.000000 0.022979 0.000000
# 6 0.000000 0.000000 0.000000 0.003672 0.000000 0.032730
#
#
# Mechanical properties :
#
#
# Convention : Reuss Voigt Hill
#
# Bulk Modulus (GPa) = 54.68103 65.69249 60.18676
# Shear Modulus (GPa) = 31.98051 35.78899 33.88475
#
# Velocity S-wave (km/s) = 3.88826 4.11327 4.00234
# Velocity P-wave (km/s) = 6.78292 7.32217 7.05770
#
# Compressibility (1/GPa) = 0.01828788
#
# Stress axis : x y z
#
# Youngs Moduli (GPa) = 88.47066 86.13812 88.76995
#
# Poissons Ratio (x) = 0.17304 0.23572
# Poissons Ratio (y) = 0.17773 0.29121
# Poissons Ratio (z) = 0.23492 0.28258
#
# Static dielectric constant tensor:
#      x y z
#    x 3.931580 0.000000 0.048100 
#    y 0.000000 3.991230 0.000000 
#    z 0.048100 0.000000 4.136290 
# 
# 
# High freq. dielectric constant tensor:
#      x y z
#    x 1.826220 0.000000 0.009050 
#    y 0.000000 1.800240 0.000000 
#    z 0.009050 0.000000 1.850820 
# 
# From -- ./inp_files/76741.got.cif
#   From: 2010.06.25/outbox.cif.g09.slc.cpg/sg13_39_cif.got.tgz:76741.got - 2010.06.28 04:50:58.
