data_PCOD8118495
_publ_section_title
;
Structure prediction by ZEFSAII (Michael W. Deem and Ramdas Pophale) SiO2 
 PCOD8118495
Probable space group: P 2/C
;
_chemical_formula_sum "Si O2"
_cell_formula_units_Z 32
_cell_length_a 16.294585
_cell_length_b 22.758153
_cell_length_c 16.616639
_cell_angle_alpha 90.000000
_cell_angle_beta 162.618528
_cell_angle_gamma 90.000000
_cell_volume 1840.795476
_symmetry_space_group_name_H-M "P 2/C"
_symmetry_group_IT_number 13
_symmetry_cell_setting 'monoclinic'
loop_
_space_group_symop_operation_xyz
x,y,z
-x,y,1/2-z
-x,-y,-z
x,-y,1/2+z
loop_
_atom_site_type_symbol
_atom_site_label
_atom_site_fract_x
_atom_site_fract_y
_atom_site_fract_z
Si Si1 0.013048 0.686235 0.167117
Si Si2 0.706159 0.494393 0.508479
Si Si3 0.232807 0.464012 0.264381
Si Si4 0.084972 0.179483 0.737714
Si Si5 0.457843 0.618647 0.856257
Si Si6 0.063107 0.950440 0.624308
Si Si7 0.635867 0.109564 0.225993
Si Si8 0.517714 0.019599 0.673255
O O1 0.075381 0.753037 0.201656
O O2 0.253068 0.648131 0.350196
O O3 0.000000 0.677142 0.250000
O O4 0.719081 0.665623 0.859002
O O5 0.795238 0.538875 0.664541
O O6 0.524212 0.439114 0.366412
O O7 0.000000 0.472353 0.750000
O O8 0.500000 0.525466 0.250000
O O9 0.500000 0.500000 0.500000
O O10 0.282175 0.399545 0.271606
O O11 0.000000 0.500000 0.000000
O O12 0.000000 0.173295 0.750000
O O13 0.867679 0.143748 0.486823
O O14 0.373155 0.151075 0.983526
O O15 0.248998 0.899899 0.757265
O O16 0.754342 0.934644 0.364047
O O17 0.230667 0.972068 0.858906
O O18 0.000000 0.000000 0.500000
O O19 0.595402 0.048146 0.233111
O O20 0.500000 0.033110 0.750000
#
# Coordination Sequence:
#
# PCOD8118495 Si02
#       8
#     4   4   4   4   4   4   4   4
#     4  11  22  33  48  70  97 128 168 206 233 271
#     4  11  20  31  49  73  99 129 164 197 237 295
#     4  10  20  32  47  70  98 128 161 198 236 288
#     4  11  22  34  48  71  98 129 171 211 237 276
#     4  11  20  33  49  67  97 134 162 192 242 286
#     4  10  20  33  49  73 101 132 167 203 241 296
#     4  11  20  34  51  68  99 137 165 195 246 291
#     4  11  20  32  51  76 103 133 166 200 242 299
#
# _framework density 17.383790000000001
#
# number of rings (size 3 to 8) (size 9 to 14) (size 15 to 20)
#    0.000    1.250    0.000   11.250    0.000    2.000 
#    0.000    0.000    0.000    0.000    0.000    0.000 
#    0.000   35.000    0.000    0.000    0.000    0.000 
#
# Total GULP energy -396487.366533 kJ/mol
# GULP energy per Si atom -12390.230204 kJ/mol
# Density = 1.734422 g / cm^3
# Si number density = 17.383790 Si / 1000 Ang^3
#
#
#
# Elastic Constant Matrix: (Units=GPa)
#
#
# Indices 1 2 3 4 5 6 
#
# 1 128.0704 45.7070 54.9800 0.0000 1.7545 0.0000
# 2 45.7070 70.6569 30.1151 0.0000 6.2139 0.0000
# 3 54.9800 30.1151 138.8871 0.0000 1.0402 0.0000
# 4 0.0000 0.0000 0.0000 28.7299 0.0000 3.0110
# 5 1.7545 6.2139 1.0402 0.0000 39.5263 0.0000
# 6 0.0000 0.0000 0.0000 3.0110 0.0000 22.2360
#
#
#
# Elastic Compliance Matrix: (Units=1/GPa)
#
#
# Indices 1 2 3 4 5 6 
#
# 1 0.011309 -0.006008 -0.003178 0.000000 0.000526 0.000000
# 2 -0.006008 0.019009 -0.001724 0.000000 -0.002676 0.000000
# 3 -0.003178 -0.001724 0.008831 0.000000 0.000180 0.000000
# 4 0.000000 0.000000 0.000000 0.035308 0.000000 -0.004781
# 5 0.000526 -0.002676 0.000180 0.000000 0.025692 0.000000
# 6 0.000000 0.000000 0.000000 -0.004781 0.000000 0.045619
#
#
# Mechanical properties :
#
#
# Convention : Reuss Voigt Hill
#
# Bulk Modulus (GPa) = 57.70225 66.57985 62.14105
# Shear Modulus (GPa) = 28.84097 31.88595 30.36346
#
# Velocity S-wave (km/s) = 4.07759 4.28744 4.18383
# Velocity P-wave (km/s) = 7.44541 7.93049 7.69178
#
# Compressibility (1/GPa) = 0.01733035
#
# Stress axis : x y z
#
# Youngs Moduli (GPa) = 88.42159 52.60646 113.24223
#
# Poissons Ratio (x) = 0.31604 0.35992
# Poissons Ratio (y) = 0.53120 0.19518
# Poissons Ratio (z) = 0.28103 0.09067
#
# Static dielectric constant tensor:
#      x y z
#    x 2.229060 0.000000 0.736700 
#    y 0.000000 3.418410 0.000000 
#    z 0.736700 0.000000 3.342970 
# 
# 
# High freq. dielectric constant tensor:
#      x y z
#    x 1.667800 0.000000 0.007560 
#    y 0.000000 1.627420 0.000000 
#    z 0.007560 0.000000 1.703340 
# 
# From -- ./inp_files/53995.got.cif
#   From: 2010.06.25/outbox.cif.g09.slc.cpg/sg13_27_cif.got.tgz:53995.got - 2010.06.28 04:50:58.
