data_PCOD8118711
_publ_section_title
;
Structure prediction by ZEFSAII (Michael W. Deem and Ramdas Pophale) SiO2 
 PCOD8118711
Probable space group: P 2/C
;
_chemical_formula_sum "Si O2"
_cell_formula_units_Z 28
_cell_length_a 13.602584
_cell_length_b 11.067824
_cell_length_c 8.957534
_cell_angle_alpha 90.000000
_cell_angle_beta 57.085107
_cell_angle_gamma 90.000000
_cell_volume 1132.092154
_symmetry_space_group_name_H-M "P 2/C"
_symmetry_group_IT_number 13
_symmetry_cell_setting 'monoclinic'
loop_
_space_group_symop_operation_xyz
x,y,z
-x,y,1/2-z
-x,-y,-z
x,-y,1/2+z
loop_
_atom_site_type_symbol
_atom_site_label
_atom_site_fract_x
_atom_site_fract_y
_atom_site_fract_z
Si Si1 0.260714 0.509117 0.573968
Si Si2 0.102200 0.194938 0.066966
Si Si3 0.948514 0.864228 0.450380
Si Si4 0.899009 0.406407 0.047175
Si Si5 0.747903 0.012395 0.980679
Si Si6 0.599533 0.079630 0.843517
Si Si7 0.675846 0.331759 0.729394
O O1 0.167699 0.440230 0.548545
O O2 0.192702 0.600783 0.739840
O O3 0.330907 0.411109 0.614710
O O4 0.351461 0.586236 0.395083
O O5 0.000000 0.261695 0.250000
O O6 0.188629 0.286635 0.908966
O O7 0.037029 0.093838 0.011213
O O8 0.179652 0.110421 0.112470
O O9 0.959841 0.721474 0.473501
O O10 0.812767 0.902351 0.549638
O O11 0.000000 0.903901 0.250000
O O12 0.000000 0.500000 0.000000
O O13 0.625280 0.977353 0.161136
O O14 0.716286 0.077613 0.851964
O O15 0.580754 0.223527 0.829859
O O16 0.500000 0.000000 0.000000
#
# Coordination Sequence:
#
# PCOD8118711 Si02
#       7
#     4   4   4   4   4   4   4
#     4  10  20  35  54  85 128 170 209 262 312 368
#     4  11  21  35  55  89 135 179 213 253 306 378
#     4  12  21  33  54  86 128 175 213 253 307 380
#     4  11  20  31  49  81 124 177 224 254 290 357
#     4  11  23  40  61  92 125 164 212 268 328 387
#     4  11  24  45  69  95 122 160 216 281 341 394
#     4  10  22  39  62  96 132 167 217 265 317 384
#
# _framework density 24.732966999999999
#
# number of rings (size 3 to 8) (size 9 to 14) (size 15 to 20)
#    0.000    1.143    0.000    9.429    0.000    1.143 
#    0.000    0.000    0.000    0.000    0.000   62.000 
#    0.000    0.000    0.000    0.000    0.000    0.000 
#
# Total GULP energy -347010.431598 kJ/mol
# GULP energy per Si atom -12393.229700 kJ/mol
# Density = 2.467667 g / cm^3
# Si number density = 24.732967 Si / 1000 Ang^3
#
#
#
# Elastic Constant Matrix: (Units=GPa)
#
#
# Indices 1 2 3 4 5 6 
#
# 1 35.6773 19.9185 20.1731 0.0000 15.8445 0.0000
# 2 19.9185 91.6618 39.3782 0.0000 -9.7133 0.0000
# 3 20.1731 39.3782 109.1390 0.0000 9.4547 0.0000
# 4 0.0000 0.0000 0.0000 48.9088 0.0000 -5.5108
# 5 15.8445 -9.7133 9.4547 0.0000 47.3231 0.0000
# 6 0.0000 0.0000 0.0000 -5.5108 0.0000 31.5639
#
#
#
# Elastic Compliance Matrix: (Units=1/GPa)
#
#
# Indices 1 2 3 4 5 6 
#
# 1 0.041788 -0.009416 -0.002999 0.000000 -0.015325 0.000000
# 2 -0.009416 0.015681 -0.004548 0.000000 0.007280 0.000000
# 3 -0.002999 -0.004548 0.011552 0.000000 -0.002237 0.000000
# 4 0.000000 0.000000 0.000000 0.020857 0.000000 0.003641
# 5 -0.015325 0.007280 -0.002237 0.000000 0.028204 0.000000
# 6 0.000000 0.000000 0.000000 0.003641 0.000000 0.032318
#
#
# Mechanical properties :
#
#
# Convention : Reuss Voigt Hill
#
# Bulk Modulus (GPa) = 28.49485 43.93530 36.21508
# Shear Modulus (GPa) = 25.50728 36.02637 30.76683
#
# Velocity S-wave (km/s) = 3.21488 3.82070 3.53081
# Velocity P-wave (km/s) = 5.03256 6.10460 5.59432
#
# Compressibility (1/GPa) = 0.03509406
#
# Stress axis : x y z
#
# Youngs Moduli (GPa) = 23.93060 63.77075 86.56697
#
# Poissons Ratio (x) = 0.60048 0.25961
# Poissons Ratio (y) = 0.22533 0.39371
# Poissons Ratio (z) = 0.07177 0.29004
#
# Static dielectric constant tensor:
#      x y z
#    x 4.430650 0.000000 0.435000 
#    y 0.000000 4.570380 0.000000 
#    z 0.435000 0.000000 4.520610 
# 
# 
# High freq. dielectric constant tensor:
#      x y z
#    x 1.969740 0.000000 0.029030 
#    y 0.000000 1.992190 0.000000 
#    z 0.029030 0.000000 1.986290 
# 
# From -- ./inp_files/18916.got.cif
#   From: 2010.06.25/outbox.cif.g09.slc.cpg/sg13_10_cif.got.tgz:18916.got - 2010.06.28 04:50:58.
