data_PCOD8118095
_publ_section_title
;
Structure prediction by ZEFSAII (Michael W. Deem and Ramdas Pophale) SiO2 
 PCOD8118095
Probable space group: P 2/C
;
_chemical_formula_sum "Si O2"
_cell_formula_units_Z 30
_cell_length_a 20.380509
_cell_length_b 13.908927
_cell_length_c 8.316647
_cell_angle_alpha 90.000000
_cell_angle_beta 43.316310
_cell_angle_gamma 90.000000
_cell_volume 1617.324548
_symmetry_space_group_name_H-M "P 2/C"
_symmetry_group_IT_number 13
_symmetry_cell_setting 'monoclinic'
loop_
_space_group_symop_operation_xyz
x,y,z
-x,y,1/2-z
-x,-y,-z
x,-y,1/2+z
loop_
_atom_site_type_symbol
_atom_site_label
_atom_site_fract_x
_atom_site_fract_y
_atom_site_fract_z
Si Si1 0.371136 0.917849 0.211951
Si Si2 0.500000 0.970752 0.250000
Si Si3 0.932901 0.281972 0.133539
Si Si4 0.201109 0.957259 0.120262
Si Si5 0.142919 0.363497 0.790903
Si Si6 0.216285 0.795839 0.347681
Si Si7 0.889207 0.556863 0.487317
Si Si8 0.906528 0.901168 0.488329
O O1 0.452480 0.900037 0.202123
O O2 0.312568 0.818498 0.279441
O O3 0.305228 0.001877 0.401407
O O4 0.420367 0.958218 0.964752
O O5 0.873341 0.236547 0.385117
O O6 0.877219 0.375357 0.164705
O O7 0.937779 0.206074 0.979884
O O8 0.040085 0.310922 0.993969
O O9 0.195712 0.895388 0.292752
O O10 0.171114 0.897269 0.016472
O O11 0.130915 0.046505 0.284170
O O12 0.226665 0.288879 0.696019
O O13 0.164433 0.398376 0.571490
O O14 0.151143 0.452454 0.898919
O O15 0.000000 0.546196 0.250000
O O16 0.000000 0.954448 0.250000
#
# Coordination Sequence:
#
# PCOD8118095 Si02
#       8
#     4   2   4   4   4   4   4   4
#     4  11  21  40  59  83 106 144 180 235 290 343
#     4  10  22  40  66  80 102 142 186 226 300 364
#     4  11  21  35  51  78 112 159 202 240 274 318
#     4  12  22  38  51  75 114 154 189 240 281 317
#     4  11  22  36  56  80 113 157 200 244 282 324
#     4  12  22  35  55  82 113 149 187 238 285 327
#     4  10  19  36  55  78 108 157 205 250 284 312
#     4  12  22  33  47  71 110 161 205 227 260 324
#
# _framework density 18.549151999999999
#
# number of rings (size 3 to 8) (size 9 to 14) (size 15 to 20)
#    0.000    0.800    4.000    6.800    0.000    1.067 
#    0.000    0.000    0.000    0.000    0.000    0.000 
#    0.000   12.800    0.000    0.000    0.000    0.000 
#
# Total GULP energy -371889.446801 kJ/mol
# GULP energy per Si atom -12396.314893 kJ/mol
# Density = 1.850693 g / cm^3
# Si number density = 18.549152 Si / 1000 Ang^3
#
#
#
# Elastic Constant Matrix: (Units=GPa)
#
#
# Indices 1 2 3 4 5 6 
#
# 1 110.2668 45.7203 18.5328 0.0000 9.9126 0.0000
# 2 45.7203 96.1584 27.2341 0.0000 -2.4456 0.0000
# 3 18.5328 27.2341 80.0184 0.0000 1.8402 0.0000
# 4 0.0000 0.0000 0.0000 -13.7799 0.0000 -10.5647
# 5 9.9126 -2.4456 1.8402 0.0000 21.7524 0.0000
# 6 0.0000 0.0000 0.0000 -10.5647 0.0000 20.6451
#
#
#
# Elastic Compliance Matrix: (Units=1/GPa)
#
#
# Indices 1 2 3 4 5 6 
#
# 1 0.012104 -0.005706 -0.000721 0.000000 -0.006096 0.000000
# 2 -0.005706 0.014257 -0.003634 0.000000 0.004510 0.000000
# 3 -0.000721 -0.003634 0.013930 0.000000 -0.001258 0.000000
# 4 0.000000 0.000000 0.000000 -0.052121 0.000000 -0.026672
# 5 -0.006096 0.004510 -0.001258 0.000000 0.049364 0.000000
# 6 0.000000 0.000000 0.000000 -0.026672 0.000000 0.034789
#
#
# Mechanical properties :
#
#
# Convention : Reuss Voigt Hill
#
# Bulk Modulus (GPa) = 49.58426 52.15755 50.87091
# Shear Modulus (GPa) = 50.41978 18.72064 34.57021
#
# Velocity S-wave (km/s) = 5.21926 3.18031 4.32175
# Velocity P-wave (km/s) = 7.94420 6.45488 7.23795
#
# Compressibility (1/GPa) = 0.02016769
#
# Stress axis : x y z
#
# Youngs Moduli (GPa) = 82.61733 70.14337 71.78725
#
# Poissons Ratio (x) = 0.40023 0.05177
# Poissons Ratio (y) = 0.47140 0.26090
# Poissons Ratio (z) = 0.05958 0.25493
#
# Static dielectric constant tensor:
#      x y z
#    x 3.585420 0.000000 0.306020 
#    y 0.000000 3.507930 0.000000 
#    z 0.306020 0.000000 3.291590 
# 
# 
# High freq. dielectric constant tensor:
#      x y z
#    x 1.716950 0.000000 0.043580 
#    y 0.000000 1.708580 0.000000 
#    z 0.043580 0.000000 1.702630 
# 
# From -- ./inp_files/24120.got.cif
#   From: 2010.06.25/outbox.cif.g09.slc.cpg/sg13_13_cif.got.tgz:24120.got - 2010.06.28 04:50:58.
