data_PCOD8118632
_publ_section_title
;
Structure prediction by ZEFSAII (Michael W. Deem and Ramdas Pophale) SiO2 
 PCOD8118632
Probable space group: P 2/C
;
_chemical_formula_sum "Si O2"
_cell_formula_units_Z 22
_cell_length_a 24.029866
_cell_length_b 6.489384
_cell_length_c 24.728953
_cell_angle_alpha 90.000000
_cell_angle_beta 164.020201
_cell_angle_gamma 90.000000
_cell_volume 1061.608226
_symmetry_space_group_name_H-M "P 2/C"
_symmetry_group_IT_number 13
_symmetry_cell_setting 'monoclinic'
loop_
_space_group_symop_operation_xyz
x,y,z
-x,y,1/2-z
-x,-y,-z
x,-y,1/2+z
loop_
_atom_site_type_symbol
_atom_site_label
_atom_site_fract_x
_atom_site_fract_y
_atom_site_fract_z
Si Si1 0.830124 0.396432 0.131054
Si Si2 0.336446 0.302414 0.939465
Si Si3 0.500000 0.493652 0.250000
Si Si4 0.940856 0.455928 0.383994
Si Si5 0.263783 0.718419 0.624557
Si Si6 0.946326 0.065305 0.325636
O O1 0.781918 0.594940 0.121549
O O2 0.903414 0.195235 0.231361
O O3 0.000000 0.476917 0.250000
O O4 0.630305 0.350717 0.908733
O O5 0.283729 0.449103 0.838276
O O6 0.246405 0.078046 0.844783
O O7 0.572782 0.278412 0.173726
O O8 0.638830 0.347472 0.341545
O O9 0.950270 0.212205 0.381987
O O10 0.000000 0.500000 0.500000
O O11 0.095110 0.556135 0.485090
O O12 0.158319 0.942435 0.519252
#
# Coordination Sequence:
#
# PCOD8118632 Si02
#       6
#     4   4   2   4   4   4
#     4  10  20  34  55  82 116 152 190 232 280 336
#     4   9  21  38  55  82 116 147 189 241 288 340
#     4  10  20  38  58  82 120 152 182 234 288 340
#     4  10  22  41  61  83 115 153 194 241 290 341
#     4  10  22  39  58  86 119 150 190 239 288 341
#     4  10  21  37  58  83 112 150 192 233 283 342
#
# _framework density 20.723277
#
# number of rings (size 3 to 8) (size 9 to 14) (size 15 to 20)
#    0.000    2.182    0.000    3.273    0.000   13.091 
#    0.000    3.636    0.000    0.000    0.000    0.000 
#    0.000    0.000    0.000    0.000    0.000    0.000 
#
# Total GULP energy -272668.447386 kJ/mol
# GULP energy per Si atom -12394.020336 kJ/mol
# Density = 2.067611 g / cm^3
# Si number density = 20.723277 Si / 1000 Ang^3
#
#
#
# Elastic Constant Matrix: (Units=GPa)
#
#
# Indices 1 2 3 4 5 6 
#
# 1 55.4342 15.0522 21.2750 0.0000 -19.4828 0.0000
# 2 15.0522 110.7753 47.7679 0.0000 -4.0834 0.0000
# 3 21.2750 47.7679 150.0073 0.0000 -23.2213 0.0000
# 4 0.0000 0.0000 0.0000 34.7124 0.0000 2.1800
# 5 -19.4828 -4.0834 -23.2213 0.0000 35.0570 0.0000
# 6 0.0000 0.0000 0.0000 2.1800 0.0000 -7.1255
#
#
#
# Elastic Compliance Matrix: (Units=1/GPa)
#
#
# Indices 1 2 3 4 5 6 
#
# 1 0.023234 -0.002436 -0.000629 0.000000 0.012212 0.000000
# 2 -0.002436 0.010758 -0.003450 0.000000 -0.002385 0.000000
# 3 -0.000629 -0.003450 0.008622 0.000000 0.004959 0.000000
# 4 0.000000 0.000000 0.000000 0.028265 0.000000 0.008648
# 5 0.012212 -0.002385 0.004959 0.000000 0.038319 0.000000
# 6 0.000000 0.000000 0.000000 0.008648 0.000000 -0.137696
#
#
# Mechanical properties :
#
#
# Convention : Reuss Voigt Hill
#
# Bulk Modulus (GPa) = 33.80089 53.82301 43.81195
# Shear Modulus (GPa) = -891.57614 28.00358 -431.78628
#
# Velocity S-wave (km/s) = -20.76447 3.68001 -14.45027
# Velocity P-wave (km/s) = 23.63342 6.63967 16.03829
#
# Compressibility (1/GPa) = 0.02958502
#
# Stress axis : x y z
#
# Youngs Moduli (GPa) = 43.04005 92.95596 115.98556
#
# Poissons Ratio (x) = 0.22640 0.07298
# Poissons Ratio (y) = 0.10483 0.40009
# Poissons Ratio (z) = 0.02708 0.32065
#
# Static dielectric constant tensor:
#      x y z
#    x 3.183420 0.000000 -0.489440 
#    y 0.000000 3.646600 0.000000 
#    z -0.489440 0.000000 4.334370 
# 
# 
# High freq. dielectric constant tensor:
#      x y z
#    x 1.791410 0.000000 -0.018650 
#    y 0.000000 1.801750 0.000000 
#    z -0.018650 0.000000 1.838070 
# 
# From -- ./inp_files/88803.got.cif
#   From: 2010.06.25/outbox.cif.g09.slc.cpg/sg13_45_cif.got.tgz:88803.got - 2010.06.28 04:50:58.
