data_PCOD8118142
_publ_section_title
;
Structure prediction by ZEFSAII (Michael W. Deem and Ramdas Pophale) SiO2 
 PCOD8118142
Probable space group: P 2/C
;
_chemical_formula_sum "Si O2"
_cell_formula_units_Z 24
_cell_length_a 10.954547
_cell_length_b 9.916217
_cell_length_c 13.278551
_cell_angle_alpha 90.000000
_cell_angle_beta 57.689901
_cell_angle_gamma 90.000000
_cell_volume 1219.085003
_symmetry_space_group_name_H-M "P 2/C"
_symmetry_group_IT_number 13
_symmetry_cell_setting 'monoclinic'
loop_
_space_group_symop_operation_xyz
x,y,z
-x,y,1/2-z
-x,-y,-z
x,-y,1/2+z
loop_
_atom_site_type_symbol
_atom_site_label
_atom_site_fract_x
_atom_site_fract_y
_atom_site_fract_z
Si Si1 0.855222 0.415701 0.053831
Si Si2 0.500000 0.374268 0.750000
Si Si3 0.275193 0.343543 0.995978
Si Si4 0.949421 0.109238 0.385016
Si Si5 0.187724 0.878908 0.943890
Si Si6 0.637918 0.603339 0.816228
Si Si7 0.500000 0.184033 0.250000
O O1 0.748866 0.506383 0.035622
O O2 0.860713 0.270405 0.995493
O O3 0.793032 0.380640 0.192287
O O4 0.000000 0.500000 0.000000
O O5 0.387804 0.281139 0.863423
O O6 0.573881 0.460849 0.807874
O O7 0.132521 0.251304 0.059923
O O8 0.341399 0.374559 0.075100
O O9 0.000000 0.100714 0.250000
O O10 0.091062 0.089887 0.389279
O O11 0.841020 0.985764 0.454866
O O12 0.356156 0.899950 0.839953
O O13 0.529206 0.721890 0.833288
#
# Coordination Sequence:
#
# PCOD8118142 Si02
#       7
#     4   2   4   4   4   4   2
#     4  10  19  36  59  91 116 151 200 242 299 349
#     4   9  20  35  54  92 124 150 196 258 304 344
#     4  11  21  36  63  87 119 157 202 246 298 360
#     4  11  23  41  59  85 120 158 199 244 301 351
#     4  10  22  41  60  84 122 155 193 251 292 355
#     4   9  19  35  58  88 123 154 190 250 303 356
#     4   9  18  39  64  82 114 162 196 230 308 362
#
# _framework density 19.686896000000001
#
# number of rings (size 3 to 8) (size 9 to 14) (size 15 to 20)
#    0.000    2.000    1.667    3.500    0.000    0.667 
#    3.000    6.667    0.000    0.000    0.000    0.000 
#    0.000    0.000    0.000    0.000    0.000    0.000 
#
# Total GULP energy -297361.751957 kJ/mol
# GULP energy per Si atom -12390.072998 kJ/mol
# Density = 1.964209 g / cm^3
# Si number density = 19.686896 Si / 1000 Ang^3
#
#
#
# Elastic Constant Matrix: (Units=GPa)
#
#
# Indices 1 2 3 4 5 6 
#
# 1 93.1085 17.0770 56.5017 0.0000 -16.8451 0.0000
# 2 17.0770 89.4850 46.9208 0.0000 -11.1492 0.0000
# 3 56.5017 46.9208 148.6233 0.0000 -3.0524 0.0000
# 4 0.0000 0.0000 0.0000 25.1250 0.0000 -10.7641
# 5 -16.8451 -11.1492 -3.0524 0.0000 33.5934 0.0000
# 6 0.0000 0.0000 0.0000 -10.7641 0.0000 20.5695
#
#
#
# Elastic Compliance Matrix: (Units=1/GPa)
#
#
# Indices 1 2 3 4 5 6 
#
# 1 0.015658 0.001209 -0.006176 0.000000 0.007692 0.000000
# 2 0.001209 0.014064 -0.004800 0.000000 0.004838 0.000000
# 3 -0.006176 -0.004800 0.010515 0.000000 -0.003735 0.000000
# 4 0.000000 0.000000 0.000000 0.051303 0.000000 0.026847
# 5 0.007692 0.004838 -0.003735 0.000000 0.034891 0.000000
# 6 0.000000 0.000000 0.000000 0.026847 0.000000 0.062665
#
#
# Mechanical properties :
#
#
# Convention : Reuss Voigt Hill
#
# Bulk Modulus (GPa) = 48.30539 63.57954 55.94247
# Shear Modulus (GPa) = 23.19846 29.90540 26.55193
#
# Velocity S-wave (km/s) = 3.43646 3.90173 3.67646
# Velocity P-wave (km/s) = 6.35105 7.25696 6.81906
#
# Compressibility (1/GPa) = 0.02070162
#
# Stress axis : x y z
#
# Youngs Moduli (GPa) = 63.86507 71.10308 95.10059
#
# Poissons Ratio (x) = -0.08594 0.58737
# Poissons Ratio (y) = -0.07719 0.45650
# Poissons Ratio (z) = 0.39445 0.34131
#
# Static dielectric constant tensor:
#      x y z
#    x 3.758130 0.000000 -0.241920 
#    y 0.000000 3.658970 0.000000 
#    z -0.241920 0.000000 3.603160 
# 
# 
# High freq. dielectric constant tensor:
#      x y z
#    x 1.778410 0.000000 -0.013600 
#    y 0.000000 1.751350 0.000000 
#    z -0.013600 0.000000 1.761240 
# 
# From -- ./inp_files/32537.got.cif
#   From: 2010.06.25/outbox.cif.g09.slc.cpg/sg13_17_cif.got.tgz:32537.got - 2010.06.28 04:50:58.
