data_PCOD8118840
_publ_section_title
;
Structure prediction by ZEFSAII (Michael W. Deem and Ramdas Pophale) SiO2 
 PCOD8118840
Probable space group: P 2/C
;
_chemical_formula_sum "Si O2"
_cell_formula_units_Z 30
_cell_length_a 18.885116
_cell_length_b 10.865326
_cell_length_c 14.945476
_cell_angle_alpha 90.000000
_cell_angle_beta 150.031516
_cell_angle_gamma 90.000000
_cell_volume 1531.891993
_symmetry_space_group_name_H-M "P 2/C"
_symmetry_group_IT_number 13
_symmetry_cell_setting 'monoclinic'
loop_
_space_group_symop_operation_xyz
x,y,z
-x,y,1/2-z
-x,-y,-z
x,-y,1/2+z
loop_
_atom_site_type_symbol
_atom_site_label
_atom_site_fract_x
_atom_site_fract_y
_atom_site_fract_z
Si Si1 0.771558 0.691496 0.625931
Si Si2 0.138907 0.326245 0.078759
Si Si3 0.670250 0.365463 0.370280
Si Si4 0.158427 0.046485 0.077529
Si Si5 0.352712 0.915353 0.628809
Si Si6 0.151570 0.034601 0.275370
Si Si7 0.500000 0.569016 0.250000
Si Si8 0.088829 0.454498 0.761599
O O1 0.777033 0.667866 0.737384
O O2 0.802815 0.832524 0.636861
O O3 0.617913 0.659009 0.419395
O O4 0.893216 0.602320 0.719612
O O5 0.239108 0.391827 0.117824
O O6 0.107750 0.186909 0.015641
O O7 0.988689 0.400322 0.912130
O O8 0.611756 0.226850 0.310970
O O9 0.552415 0.472195 0.231596
O O10 0.757210 0.391713 0.557719
O O11 0.290826 0.022457 0.153660
O O12 0.201173 0.014083 0.226579
O O13 0.018466 0.969248 0.898141
O O14 0.500000 0.974001 0.750000
O O15 0.230194 0.931064 0.420276
O O16 0.000000 0.413029 0.750000
#
# Coordination Sequence:
#
# PCOD8118840 Si02
#       8
#     4   4   4   4   4   4   2   4
#     4  10  21  33  53  75 110 151 178 223 274 335
#     4   9  17  33  56  81 105 136 182 233 278 322
#     4   9  18  34  54  79 106 139 180 229 275 324
#     4   9  20  38  57  83 111 145 187 238 282 329
#     4  11  21  34  60  84 109 146 188 231 284 334
#     4  10  21  37  57  80 114 150 188 230 279 337
#     4  10  20  36  52  74 112 148 184 220 270 332
#     4   9  17  30  52  79 106 135 179 228 274 324
#
# _framework density 19.583627
#
# number of rings (size 3 to 8) (size 9 to 14) (size 15 to 20)
#    0.000    2.400    0.667    1.600    0.933    4.267 
#    0.000    0.000    0.000    0.000    0.000    0.000 
#    0.000    0.000    0.000    0.000    0.000    0.000 
#
# Total GULP energy -371689.083688 kJ/mol
# GULP energy per Si atom -12389.636123 kJ/mol
# Density = 1.953905 g / cm^3
# Si number density = 19.583627 Si / 1000 Ang^3
#
#
#
# Elastic Constant Matrix: (Units=GPa)
#
#
# Indices 1 2 3 4 5 6 
#
# 1 91.5405 14.5611 27.1944 0.0000 10.5137 0.0000
# 2 14.5611 68.6717 30.4527 0.0000 2.4138 0.0000
# 3 27.1944 30.4527 73.6006 0.0000 3.7560 0.0000
# 4 0.0000 0.0000 0.0000 29.8037 0.0000 0.6678
# 5 10.5137 2.4138 3.7560 0.0000 26.7016 0.0000
# 6 0.0000 0.0000 0.0000 0.6678 0.0000 24.9783
#
#
#
# Elastic Compliance Matrix: (Units=1/GPa)
#
#
# Indices 1 2 3 4 5 6 
#
# 1 0.012790 -0.000688 -0.004217 0.000000 -0.004380 0.000000
# 2 -0.000688 0.017880 -0.007126 0.000000 -0.000343 0.000000
# 3 -0.004217 -0.007126 0.018106 0.000000 -0.000242 0.000000
# 4 0.000000 0.000000 0.000000 0.033573 0.000000 -0.000898
# 5 -0.004380 -0.000343 -0.000242 0.000000 0.039241 0.000000
# 6 0.000000 0.000000 0.000000 -0.000898 0.000000 0.040059
#
#
# Mechanical properties :
#
#
# Convention : Reuss Voigt Hill
#
# Bulk Modulus (GPa) = 40.46513 42.02547 41.24530
# Shear Modulus (GPa) = 25.77998 27.07038 26.42518
#
# Velocity S-wave (km/s) = 3.63217 3.72196 3.67734
# Velocity P-wave (km/s) = 6.18852 6.32271 6.25598
#
# Compressibility (1/GPa) = 0.02471264
#
# Stress axis : x y z
#
# Youngs Moduli (GPa) = 78.18902 55.92789 55.22995
#
# Poissons Ratio (x) = 0.03846 0.23293
# Poissons Ratio (y) = 0.05377 0.39359
# Poissons Ratio (z) = 0.32976 0.39857
#
# Static dielectric constant tensor:
#      x y z
#    x 3.689910 0.000000 0.115010 
#    y 0.000000 3.504360 0.000000 
#    z 0.115010 0.000000 3.662440 
# 
# 
# High freq. dielectric constant tensor:
#      x y z
#    x 1.752680 0.000000 0.001870 
#    y 0.000000 1.756960 0.000000 
#    z 0.001870 0.000000 1.757840 
# 
# From -- ./inp_files/55687.got.cif
#   From: 2010.06.25/outbox.cif.g09.slc.cpg/sg13_28_cif.got.tgz:55687.got - 2010.06.28 04:50:58.
