data_PCOD8118707
_publ_section_title
;
Structure prediction by ZEFSAII (Michael W. Deem and Ramdas Pophale) SiO2 
 PCOD8118707
Probable space group: P 2/C
;
_chemical_formula_sum "Si O2"
_cell_formula_units_Z 28
_cell_length_a 14.461769
_cell_length_b 12.139828
_cell_length_c 9.017205
_cell_angle_alpha 90.000000
_cell_angle_beta 111.027717
_cell_angle_gamma 90.000000
_cell_volume 1477.668209
_symmetry_space_group_name_H-M "P 2/C"
_symmetry_group_IT_number 13
_symmetry_cell_setting 'monoclinic'
loop_
_space_group_symop_operation_xyz
x,y,z
-x,y,1/2-z
-x,-y,-z
x,-y,1/2+z
loop_
_atom_site_type_symbol
_atom_site_label
_atom_site_fract_x
_atom_site_fract_y
_atom_site_fract_z
Si Si1 0.374884 0.917632 0.051630
Si Si2 0.595395 0.868438 0.099597
Si Si3 0.426308 0.457172 0.577320
Si Si4 0.092898 0.394271 0.216653
Si Si5 0.314247 0.681710 0.532831
Si Si6 0.903368 0.623126 0.122470
Si Si7 0.703880 0.725263 0.648386
O O1 0.292494 0.847573 0.917700
O O2 0.368142 0.045949 0.005335
O O3 0.478191 0.868219 0.051946
O O4 0.356578 0.902489 0.216006
O O5 0.626881 0.747216 0.061323
O O6 0.500000 0.421283 0.750000
O O7 0.500000 0.500000 0.500000
O O8 0.347860 0.554516 0.566729
O O9 0.366307 0.350496 0.492976
O O10 0.116497 0.513506 0.295425
O O11 0.184909 0.315735 0.294413
O O12 0.000000 0.341075 0.250000
O O13 0.069477 0.407001 0.029938
O O14 0.197539 0.693336 0.426251
O O15 0.336274 0.732615 0.706742
O O16 0.000000 0.684749 0.250000
#
# Coordination Sequence:
#
# PCOD8118707 Si02
#       7
#     4   4   4   4   4   4   4
#     4  10  22  38  58  83 110 149 191 233 275 330
#     4  10  22  38  59  82 112 148 192 232 277 327
#     4  12  24  36  51  78 119 154 184 224 276 332
#     4  10  20  35  54  80 111 146 186 233 278 332
#     4  11  23  38  56  81 114 152 187 232 280 333
#     4  10  20  35  55  79 110 147 187 231 280 332
#     4  11  23  37  57  81 114 151 189 229 281 335
#
# _framework density 18.948772000000002
#
# number of rings (size 3 to 8) (size 9 to 14) (size 15 to 20)
#    0.000    1.429    2.857    3.429    4.000    3.429 
#    0.000    0.000    0.000    0.857    0.000    6.000 
#    0.000    0.000    0.000    0.000    0.000    0.000 
#
# Total GULP energy -347146.420482 kJ/mol
# GULP energy per Si atom -12398.086446 kJ/mol
# Density = 1.890564 g / cm^3
# Si number density = 18.948772 Si / 1000 Ang^3
#
#
#
# Elastic Constant Matrix: (Units=GPa)
#
#
# Indices 1 2 3 4 5 6 
#
# 1 62.4722 13.4757 35.2858 0.0000 -0.5413 0.0000
# 2 13.4757 58.6427 27.4070 0.0000 2.8261 0.0000
# 3 35.2858 27.4070 135.9154 0.0000 -0.4638 0.0000
# 4 0.0000 0.0000 0.0000 28.4024 0.0000 -3.3505
# 5 -0.5413 2.8261 -0.4638 0.0000 35.4628 0.0000
# 6 0.0000 0.0000 0.0000 -3.3505 0.0000 20.2222
#
#
#
# Elastic Compliance Matrix: (Units=1/GPa)
#
#
# Indices 1 2 3 4 5 6 
#
# 1 0.019036 -0.002302 -0.004476 0.000000 0.000415 0.000000
# 2 -0.002302 0.019191 -0.003278 0.000000 -0.001607 0.000000
# 3 -0.004476 -0.003278 0.009182 0.000000 0.000313 0.000000
# 4 0.000000 0.000000 0.000000 0.035910 0.000000 0.005950
# 5 0.000415 -0.001607 0.000313 0.000000 0.028337 0.000000
# 6 0.000000 0.000000 0.000000 0.005950 0.000000 0.050436
#
#
# Mechanical properties :
#
#
# Convention : Reuss Voigt Hill
#
# Bulk Modulus (GPa) = 36.63573 45.48527 41.06050
# Shear Modulus (GPa) = 26.13662 28.87493 27.50577
#
# Velocity S-wave (km/s) = 3.71796 3.90788 3.81410
# Velocity P-wave (km/s) = 6.14875 6.66472 6.41192
#
# Compressibility (1/GPa) = 0.02729575
#
# Stress axis : x y z
#
# Youngs Moduli (GPa) = 52.53295 52.10860 108.91337
#
# Poissons Ratio (x) = 0.11997 0.48753
# Poissons Ratio (y) = 0.12095 0.35697
# Poissons Ratio (z) = 0.23515 0.17079
#
# Static dielectric constant tensor:
#      x y z
#    x 3.464640 0.000000 0.009240 
#    y 0.000000 3.214180 0.000000 
#    z 0.009240 0.000000 3.714240 
# 
# 
# High freq. dielectric constant tensor:
#      x y z
#    x 1.728940 0.000000 -0.005510 
#    y 0.000000 1.710100 0.000000 
#    z -0.005510 0.000000 1.758440 
# 
# From -- ./inp_files/18819.got.cif
#   From: 2010.06.25/outbox.cif.g09.slc.cpg/sg13_10_cif.got.tgz:18819.got - 2010.06.28 04:50:58.
