data_PCOD8118211
_publ_section_title
;
Structure prediction by ZEFSAII (Michael W. Deem and Ramdas Pophale) SiO2 
 PCOD8118211
Probable space group: P 2/C
;
_chemical_formula_sum "Si O2"
_cell_formula_units_Z 28
_cell_length_a 11.525639
_cell_length_b 9.222423
_cell_length_c 18.494671
_cell_angle_alpha 90.000000
_cell_angle_beta 138.016703
_cell_angle_gamma 90.000000
_cell_volume 1315.003485
_symmetry_space_group_name_H-M "P 2/C"
_symmetry_group_IT_number 13
_symmetry_cell_setting 'monoclinic'
loop_
_space_group_symop_operation_xyz
x,y,z
-x,y,1/2-z
-x,-y,-z
x,-y,1/2+z
loop_
_atom_site_type_symbol
_atom_site_label
_atom_site_fract_x
_atom_site_fract_y
_atom_site_fract_z
Si Si1 0.582633 0.156394 0.528618
Si Si2 0.750334 0.583879 0.400053
Si Si3 0.741909 0.078935 0.743026
Si Si4 0.692593 0.245997 0.200529
Si Si5 0.500000 0.656800 0.750000
Si Si6 0.937287 0.221147 0.643331
Si Si7 0.500000 0.175765 0.750000
Si Si8 0.948905 0.512486 0.858282
O O1 0.659694 0.190404 0.644028
O O2 0.438584 0.266438 0.428863
O O3 0.740022 0.165258 0.542485
O O4 0.500000 0.000000 0.500000
O O5 0.635971 0.439800 0.359222
O O6 0.631422 0.724203 0.356681
O O7 0.818793 0.577732 0.349314
O O8 0.908838 0.597319 0.528694
O O9 0.610500 0.073582 0.748944
O O10 0.931696 0.142578 0.852838
O O11 0.771314 0.915084 0.729214
O O12 0.599861 0.249650 0.236095
O O13 0.841398 0.368590 0.262363
O O14 0.000000 0.165874 0.750000
O O15 0.952167 0.396219 0.645861
#
# Coordination Sequence:
#
# PCOD8118211 Si02
#       8
#     4   4   4   4   2   4   2   4
#     4   9  20  40  63  84 117 165 201 243 308 361
#     4   9  19  33  59  83 116 159 188 246 303 360
#     4  10  21  38  60  88 120 160 200 248 305 360
#     4  10  20  37  58  88 121 154 201 250 296 363
#     4   9  17  32  60  86 120 162 198 244 300 358
#     4  10  20  39  60  84 117 157 198 245 300 358
#     4  11  19  38  60  86 118 152 208 242 294 362
#     4  10  19  37  56  86 118 149 204 243 305 351
#
# _framework density 21.292721
#
# number of rings (size 3 to 8) (size 9 to 14) (size 15 to 20)
#    0.000    2.286    1.429    1.286    0.000    0.000 
#    7.714    4.286    0.000    0.000    0.000    0.000 
#    0.000    0.000    0.000    0.000    0.000    0.000 
#
# Total GULP energy -346942.216547 kJ/mol
# GULP energy per Si atom -12390.793448 kJ/mol
# Density = 2.124426 g / cm^3
# Si number density = 21.292721 Si / 1000 Ang^3
#
#
#
# Elastic Constant Matrix: (Units=GPa)
#
#
# Indices 1 2 3 4 5 6 
#
# 1 81.3683 35.7274 32.5034 0.0000 21.5702 0.0000
# 2 35.7274 95.5293 40.9373 0.0000 18.2717 0.0000
# 3 32.5034 40.9373 109.9435 0.0000 24.5632 0.0000
# 4 0.0000 0.0000 0.0000 24.8862 0.0000 6.7769
# 5 21.5702 18.2717 24.5632 0.0000 30.2110 0.0000
# 6 0.0000 0.0000 0.0000 6.7769 0.0000 33.2774
#
#
#
# Elastic Compliance Matrix: (Units=1/GPa)
#
#
# Indices 1 2 3 4 5 6 
#
# 1 0.016919 -0.004035 -0.001645 0.000000 -0.008303 0.000000
# 2 -0.004035 0.013963 -0.003376 0.000000 -0.002819 0.000000
# 3 -0.001645 -0.003376 0.012367 0.000000 -0.006839 0.000000
# 4 0.000000 0.000000 0.000000 0.042542 0.000000 -0.008664
# 5 -0.008303 -0.002819 -0.006839 0.000000 0.046294 0.000000
# 6 0.000000 0.000000 0.000000 -0.008664 0.000000 0.031815
#
#
# Mechanical properties :
#
#
# Convention : Reuss Voigt Hill
#
# Bulk Modulus (GPa) = 39.78157 56.13079 47.95618
# Shear Modulus (GPa) = 26.26172 29.51979 27.89075
#
# Velocity S-wave (km/s) = 3.51574 3.72745 3.62314
# Velocity P-wave (km/s) = 5.93332 6.70402 6.33041
#
# Compressibility (1/GPa) = 0.02513727
#
# Stress axis : x y z
#
# Youngs Moduli (GPa) = 59.10360 71.61728 80.86105
#
# Poissons Ratio (x) = 0.28897 0.13299
# Poissons Ratio (y) = 0.23848 0.27303
# Poissons Ratio (z) = 0.09720 0.24182
#
# Static dielectric constant tensor:
#      x y z
#    x 3.884800 0.000000 0.290740 
#    y 0.000000 3.507150 0.000000 
#    z 0.290740 0.000000 4.168010 
# 
# 
# High freq. dielectric constant tensor:
#      x y z
#    x 1.824870 0.000000 0.022190 
#    y 0.000000 1.816740 0.000000 
#    z 0.022190 0.000000 1.832240 
# 
# From -- ./inp_files/78361.got.cif
#   From: 2010.06.25/outbox.cif.g09.slc.cpg/sg13_40_cif.got.tgz:78361.got - 2010.06.28 04:50:58.
