data_PCOD8118521
_publ_section_title
;
Structure prediction by ZEFSAII (Michael W. Deem and Ramdas Pophale) SiO2 
 PCOD8118521
Probable space group: P 2/C
;
_chemical_formula_sum "Si O2"
_cell_formula_units_Z 28
_cell_length_a 21.402678
_cell_length_b 5.369302
_cell_length_c 22.567971
_cell_angle_alpha 90.000000
_cell_angle_beta 146.849116
_cell_angle_gamma 90.000000
_cell_volume 1418.218938
_symmetry_space_group_name_H-M "P 2/C"
_symmetry_group_IT_number 13
_symmetry_cell_setting 'monoclinic'
loop_
_space_group_symop_operation_xyz
x,y,z
-x,y,1/2-z
-x,-y,-z
x,-y,1/2+z
loop_
_atom_site_type_symbol
_atom_site_label
_atom_site_fract_x
_atom_site_fract_y
_atom_site_fract_z
Si Si1 0.467109 0.582646 0.380123
Si Si2 0.406925 0.809987 0.446913
Si Si3 0.265509 0.079564 0.047669
Si Si4 0.308387 0.123748 0.456593
Si Si5 0.620784 0.582382 0.316274
Si Si6 0.083314 0.622413 0.759649
Si Si7 0.006875 0.121938 0.826632
O O1 0.381655 0.649084 0.367571
O O2 0.539865 0.344697 0.456644
O O3 0.560666 0.788575 0.435814
O O4 0.387271 0.536325 0.260394
O O5 0.500000 0.000000 0.500000
O O6 0.297666 0.955044 0.387900
O O7 0.332827 0.324646 0.120761
O O8 0.300577 0.824249 0.109013
O O9 0.132881 0.134812 0.953611
O O10 0.283540 0.051406 0.992225
O O11 0.217368 0.351447 0.383463
O O12 0.500000 0.641778 0.250000
O O13 0.000000 0.605371 0.750000
O O14 0.063372 0.366805 0.707274
O O15 0.051256 0.867263 0.695635
O O16 0.000000 0.106400 0.750000
#
# Coordination Sequence:
#
# PCOD8118521 Si02
#       7
#     4   4   4   4   4   4   4
#     4  10  22  40  57  87 124 159 207 248 299 360
#     4   9  21  38  62  82 118 158 209 261 291 342
#     4  12  24  37  56  89 126 165 194 237 308 375
#     4  11  21  35  60  88 123 155 201 249 311 363
#     4  12  25  36  57  86 126 168 197 238 301 379
#     4  10  20  32  55  83 116 149 188 255 303 357
#     4  10  20  35  53  79 120 152 196 242 295 355
#
# _framework density 19.743072999999999
#
# number of rings (size 3 to 8) (size 9 to 14) (size 15 to 20)
#    0.000    1.429    4.286    2.143    8.000    0.000 
#    0.000    0.000    0.000    0.000    0.000    6.000 
#    0.000    0.000    0.000    0.000    0.000    0.000 
#
# Total GULP energy -346904.576285 kJ/mol
# GULP energy per Si atom -12389.449153 kJ/mol
# Density = 1.969814 g / cm^3
# Si number density = 19.743073 Si / 1000 Ang^3
#
#
#
# Elastic Constant Matrix: (Units=GPa)
#
#
# Indices 1 2 3 4 5 6 
#
# 1 64.7288 21.7494 30.2411 0.0000 -15.4239 0.0000
# 2 21.7494 146.2593 39.0945 0.0000 -6.2501 0.0000
# 3 30.2411 39.0945 93.3375 0.0000 -7.3152 0.0000
# 4 0.0000 0.0000 0.0000 43.2121 0.0000 11.5812
# 5 -15.4239 -6.2501 -7.3152 0.0000 16.3991 0.0000
# 6 0.0000 0.0000 0.0000 11.5812 0.0000 30.1745
#
#
#
# Elastic Compliance Matrix: (Units=1/GPa)
#
#
# Indices 1 2 3 4 5 6 
#
# 1 0.022810 -0.001139 -0.005457 0.000000 0.018585 0.000000
# 2 -0.001139 0.007794 -0.002846 0.000000 0.000629 0.000000
# 3 -0.005457 -0.002846 0.013664 0.000000 -0.000122 0.000000
# 4 0.000000 0.000000 0.000000 0.025795 0.000000 -0.009900
# 5 0.018585 0.000629 -0.000122 0.000000 0.078645 0.000000
# 6 0.000000 0.000000 0.000000 -0.009900 0.000000 0.036940
#
#
# Mechanical properties :
#
#
# Convention : Reuss Voigt Hill
#
# Bulk Modulus (GPa) = 39.39428 54.05508 46.72468
# Shear Modulus (GPa) = 23.47488 32.17318 27.82403
#
# Velocity S-wave (km/s) = 3.45196 4.04120 3.75815
# Velocity P-wave (km/s) = 5.99039 7.01525 6.52298
#
# Compressibility (1/GPa) = 0.02538440
#
# Stress axis : x y z
#
# Youngs Moduli (GPa) = 43.84095 128.29964 73.18331
#
# Poissons Ratio (x) = 0.14616 0.39933
# Poissons Ratio (y) = 0.04994 0.20829
# Poissons Ratio (z) = 0.23922 0.36517
#
# Static dielectric constant tensor:
#      x y z
#    x 3.900270 0.000000 0.038480 
#    y 0.000000 4.615780 0.000000 
#    z 0.038480 0.000000 3.539070 
# 
# 
# High freq. dielectric constant tensor:
#      x y z
#    x 1.732010 0.000000 0.013230 
#    y 0.000000 1.801550 0.000000 
#    z 0.013230 0.000000 1.746140 
# 
# From -- ./inp_files/88314.got.cif
#   From: 2010.06.25/outbox.cif.g09.slc.cpg/sg13_45_cif.got.tgz:88314.got - 2010.06.28 04:50:58.
