data_PCOD8118714
_publ_section_title
;
Structure prediction by ZEFSAII (Michael W. Deem and Ramdas Pophale) SiO2 
 PCOD8118714
Probable space group: P 2/C
;
_chemical_formula_sum "Si O2"
_cell_formula_units_Z 28
_cell_length_a 28.640225
_cell_length_b 9.092105
_cell_length_c 8.903184
_cell_angle_alpha 90.000000
_cell_angle_beta 141.001075
_cell_angle_gamma 90.000000
_cell_volume 1458.975363
_symmetry_space_group_name_H-M "P 2/C"
_symmetry_group_IT_number 13
_symmetry_cell_setting 'monoclinic'
loop_
_space_group_symop_operation_xyz
x,y,z
-x,y,1/2-z
-x,-y,-z
x,-y,1/2+z
loop_
_atom_site_type_symbol
_atom_site_label
_atom_site_fract_x
_atom_site_fract_y
_atom_site_fract_z
Si Si1 0.423653 0.155751 0.487288
Si Si2 1.000000 0.658350 0.572861
Si Si3 0.142086 0.841754 0.282712
Si Si4 0.576347 0.844248 0.869023
Si Si5 0.282257 0.657128 0.631860
Si Si6 0.282257 0.657127 0.279423
Si Si7 0.142086 0.158246 0.427720
O O1 0.432499 0.136822 0.331248
O O2 0.360539 0.271703 0.372915
O O3 0.401921 0.999999 0.504801
O O4 0.500000 0.214953 0.750000
O O5 0.072249 0.746300 0.698597
O O6 0.000000 0.637653 0.750000
O O7 0.000000 0.500000 0.500000
O O8 0.927751 0.746300 0.337354
O O9 0.216545 0.761864 0.526327
O O10 0.136793 0.000000 0.341983
O O11 0.142419 0.861852 0.106048
O O12 0.500000 0.785046 0.750000
O O13 0.639461 0.728296 0.070221
O O14 0.275448 0.635259 0.438621
O O15 0.274374 0.500001 0.685935
O O16 0.216545 0.761863 0.056398
#
# Coordination Sequence:
#
# PCOD8118714 Si02
#       7
#     4   4   4   4   4   4   4
#     4  10  20  35  55  79 105 137 176 218 263 315
#     4  10  21  36  56  82 112 142 177 218 262 312
#     4  10  21  37  56  81 109 140 179 220 261 312
#     4  10  20  35  55  79 105 137 176 218 263 315
#     4  10  22  37  54  78 108 140 177 218 264 315
#     4  10  22  37  54  78 108 140 177 218 264 315
#     4  10  21  37  56  81 109 140 179 220 261 312
#
# _framework density 19.191549999999999
#
# number of rings (size 3 to 8) (size 9 to 14) (size 15 to 20)
#    0.000    2.000    0.000    3.857    0.000    5.143 
#    0.000    2.857    0.000    0.000    0.000    0.000 
#    0.000    0.000    0.000    0.000    0.000    0.000 
#
# Total GULP energy -347300.064098 kJ/mol
# GULP energy per Si atom -12403.573718 kJ/mol
# Density = 1.914787 g / cm^3
# Si number density = 19.191550 Si / 1000 Ang^3
#
#
#
# Elastic Constant Matrix: (Units=GPa)
#
#
# Indices 1 2 3 4 5 6 
#
# 1 87.3828 70.5658 54.7969 0.0000 26.4656 0.0000
# 2 70.5658 183.3319 84.9857 0.0000 25.4001 0.0000
# 3 54.7969 84.9857 118.7657 0.0000 28.8137 0.0000
# 4 0.0000 0.0000 0.0000 38.5288 0.0000 -1.6560
# 5 26.4656 25.4001 28.8137 0.0000 27.9418 0.0000
# 6 0.0000 0.0000 0.0000 -1.6560 0.0000 39.4692
#
#
#
# Elastic Compliance Matrix: (Units=1/GPa)
#
#
# Indices 1 2 3 4 5 6 
#
# 1 0.021186 -0.004946 -0.003278 0.000000 -0.012190 0.000000
# 2 -0.004946 0.009390 -0.004672 0.000000 0.000966 0.000000
# 3 -0.003278 -0.004672 0.015326 0.000000 -0.008453 0.000000
# 4 0.000000 0.000000 0.000000 0.026002 0.000000 0.001091
# 5 -0.012190 0.000966 -0.008453 0.000000 0.055172 0.000000
# 6 0.000000 0.000000 0.000000 0.001091 0.000000 0.025382
#
#
# Mechanical properties :
#
#
# Convention : Reuss Voigt Hill
#
# Bulk Modulus (GPa) = 49.72639 90.01971 69.87305
# Shear Modulus (GPa) = 27.03389 33.13009 30.08199
#
# Velocity S-wave (km/s) = 3.75725 4.15937 3.96341
# Velocity P-wave (km/s) = 6.69249 8.37107 7.57840
#
# Compressibility (1/GPa) = 0.02011004
#
# Stress axis : x y z
#
# Youngs Moduli (GPa) = 47.20163 106.49512 65.24830
#
# Poissons Ratio (x) = 0.52673 0.21390
# Poissons Ratio (y) = 0.23346 0.30482
# Poissons Ratio (z) = 0.15474 0.49751
#
# Static dielectric constant tensor:
#      x y z
#    x 3.615480 0.000000 0.250180 
#    y 0.000000 3.386160 0.000000 
#    z 0.250180 0.000000 3.757510 
# 
# 
# High freq. dielectric constant tensor:
#      x y z
#    x 1.750620 0.000000 0.013160 
#    y 0.000000 1.752770 0.000000 
#    z 0.013160 0.000000 1.758090 
# 
# From -- ./inp_files/24595.got.cif
#   From: 2010.06.25/outbox.cif.g09.slc.cpg/sg13_13_cif.got.tgz:24595.got - 2010.06.28 04:50:58.
