data_PCOD8118648
_publ_section_title
;
Structure prediction by ZEFSAII (Michael W. Deem and Ramdas Pophale) SiO2 
 PCOD8118648
Probable space group: P 2/C
;
_chemical_formula_sum "Si O2"
_cell_formula_units_Z 22
_cell_length_a 9.915048
_cell_length_b 19.811352
_cell_length_c 5.411007
_cell_angle_alpha 90.000000
_cell_angle_beta 83.858733
_cell_angle_gamma 90.000000
_cell_volume 1056.787095
_symmetry_space_group_name_H-M "P 2/C"
_symmetry_group_IT_number 13
_symmetry_cell_setting 'monoclinic'
loop_
_space_group_symop_operation_xyz
x,y,z
-x,y,1/2-z
-x,-y,-z
x,-y,1/2+z
loop_
_atom_site_type_symbol
_atom_site_label
_atom_site_fract_x
_atom_site_fract_y
_atom_site_fract_z
Si Si1 0.892115 0.651516 0.976478
Si Si2 0.000000 0.225874 0.750000
Si Si3 0.500000 0.803039 0.250000
Si Si4 0.634322 0.291556 0.333982
Si Si5 0.660092 0.037373 0.231363
Si Si6 0.000000 0.543339 0.250000
Si Si7 0.737350 0.169728 0.017558
O O1 0.741118 0.651863 0.894685
O O2 0.000000 0.624908 0.750000
O O3 0.936340 0.726687 0.049258
O O4 0.881157 0.598337 0.209716
O O5 0.115293 0.174778 0.633363
O O6 0.408173 0.756114 0.436719
O O7 0.610167 0.850784 0.363404
O O8 0.500000 0.327912 0.250000
O O9 0.705801 0.244938 0.116517
O O10 0.500000 0.047731 0.250000
O O11 0.735119 0.110637 0.222012
O O12 0.708701 0.001892 0.474472
O O13 0.000000 0.500000 0.500000
#
# Coordination Sequence:
#
# PCOD8118648 Si02
#       7
#     4   2   2   4   4   2   4
#     4  11  21  39  66  96 132 167 215 256 315 385
#     4  11  22  36  60  92 128 165 202 266 336 389
#     4  10  20  34  56  84 126 154 206 254 334 384
#     4  10  21  35  59  95 127 160 204 264 334 381
#     4  10  23  39  60  85 115 164 222 269 316 384
#     4  11  24  42  66 100 132 177 220 264 296 361
#     4  11  22  36  58  88 123 164 205 270 329 391
#
# _framework density 20.817817000000002
#
# number of rings (size 3 to 8) (size 9 to 14) (size 15 to 20)
#    0.000    1.455    4.545    1.636    6.364    0.000 
#    0.000    0.909    0.000    1.091    0.000    0.000 
#    0.000    0.000    0.000    0.000    0.000    0.000 
#
# Total GULP energy -272550.574916 kJ/mol
# GULP energy per Si atom -12388.662496 kJ/mol
# Density = 2.077043 g / cm^3
# Si number density = 20.817817 Si / 1000 Ang^3
#
#
#
# Elastic Constant Matrix: (Units=GPa)
#
#
# Indices 1 2 3 4 5 6 
#
# 1 138.3784 50.0401 47.8910 0.0000 4.1825 0.0000
# 2 50.0401 88.0488 31.4489 0.0000 8.5565 0.0000
# 3 47.8910 31.4489 103.4463 0.0000 4.0801 0.0000
# 4 0.0000 0.0000 0.0000 33.8782 0.0000 7.2623
# 5 4.1825 8.5565 4.0801 0.0000 32.2656 0.0000
# 6 0.0000 0.0000 0.0000 7.2623 0.0000 13.4789
#
#
#
# Elastic Compliance Matrix: (Units=1/GPa)
#
#
# Indices 1 2 3 4 5 6 
#
# 1 0.009986 -0.004544 -0.003254 0.000000 0.000322 0.000000
# 2 -0.004544 0.015085 -0.002359 0.000000 -0.003113 0.000000
# 3 -0.003254 -0.002359 0.011909 0.000000 -0.000458 0.000000
# 4 0.000000 0.000000 0.000000 0.033372 0.000000 -0.017980
# 5 0.000322 -0.003113 -0.000458 0.000000 0.031834 0.000000
# 6 0.000000 0.000000 0.000000 -0.017980 0.000000 0.083878
#
#
# Mechanical properties :
#
#
# Convention : Reuss Voigt Hill
#
# Bulk Modulus (GPa) = 60.00953 65.40370 62.70661
# Shear Modulus (GPa) = 23.59201 29.29078 26.44139
#
# Velocity S-wave (km/s) = 3.37005 3.75508 3.56776
# Velocity P-wave (km/s) = 6.63563 7.09127 6.86723
#
# Compressibility (1/GPa) = 0.01666402
#
# Stress axis : x y z
#
# Youngs Moduli (GPa) = 100.13519 66.28969 83.97083
#
# Poissons Ratio (x) = 0.30125 0.27328
# Poissons Ratio (y) = 0.45506 0.19812
# Poissons Ratio (z) = 0.32588 0.15641
#
# Static dielectric constant tensor:
#      x y z
#    x 2.994240 0.000000 1.090860 
#    y 0.000000 3.618480 0.000000 
#    z 1.090860 0.000000 3.024690 
# 
# 
# High freq. dielectric constant tensor:
#      x y z
#    x 1.795790 0.000000 0.010130 
#    y 0.000000 1.789200 0.000000 
#    z 0.010130 0.000000 1.828440 
# 
# From -- ./inp_files/2114.got.cif
#   From: 2010.06.25/outbox.cif.g09.slc.cpg/sg13_2_cif.got.tgz:2114.got - 2010.06.28 04:50:58.
