data_PCOD8118451
_publ_section_title
;
Structure prediction by ZEFSAII (Michael W. Deem and Ramdas Pophale) SiO2 
 PCOD8118451
Probable space group: P 2/C
;
_chemical_formula_sum "Si O2"
_cell_formula_units_Z 20
_cell_length_a 11.431959
_cell_length_b 9.658000
_cell_length_c 10.697457
_cell_angle_alpha 90.000000
_cell_angle_beta 37.960246
_cell_angle_gamma 90.000000
_cell_volume 726.514734
_symmetry_space_group_name_H-M "P 2/C"
_symmetry_group_IT_number 13
_symmetry_cell_setting 'monoclinic'
loop_
_space_group_symop_operation_xyz
x,y,z
-x,y,1/2-z
-x,-y,-z
x,-y,1/2+z
loop_
_atom_site_type_symbol
_atom_site_label
_atom_site_fract_x
_atom_site_fract_y
_atom_site_fract_z
Si Si1 0.679605 0.945479 0.688881
Si Si2 0.819974 0.765911 0.164920
Si Si3 0.000000 0.007183 0.750000
Si Si4 0.296219 0.551944 0.416809
Si Si5 0.791546 0.775824 0.804339
Si Si6 0.000000 0.656647 0.250000
O O1 0.500000 0.952494 0.750000
O O2 0.644767 0.820100 0.817410
O O3 0.709647 0.089845 0.737396
O O4 0.890205 0.904464 0.450958
O O5 0.692125 0.639656 0.221823
O O6 0.862857 0.750244 0.277181
O O7 0.000634 0.744923 0.923334
O O8 0.818040 0.914478 0.864578
O O9 0.500000 0.475454 0.250000
O O10 0.278443 0.648444 0.555027
O O11 0.131548 0.437545 0.550125
#
# Coordination Sequence:
#
# PCOD8118451 Si02
#       6
#     4   4   2   4   4   2
#     4  11  25  45  71 112 153 192 238 298 367 446
#     4  11  23  49  77 105 147 193 245 301 372 425
#     4  10  19  41  66 102 142 197 227 282 356 434
#     4  12  25  49  78 105 144 200 241 303 372 423
#     4  11  22  45  76 104 155 191 235 294 374 442
#     4  12  27  51  76 104 146 191 255 314 346 426
#
# _framework density 27.528690999999998
#
# number of rings (size 3 to 8) (size 9 to 14) (size 15 to 20)
#    0.000    0.800    6.000    3.600    0.000    4.800 
#    7.200    0.000    0.000    1.200    0.000    0.000 
#    0.000    0.000    0.000    0.000    0.000    0.000 
#
# Total GULP energy -247913.457992 kJ/mol
# GULP energy per Si atom -12395.672900 kJ/mol
# Density = 2.746603 g / cm^3
# Si number density = 27.528691 Si / 1000 Ang^3
#
#
#
# Elastic Constant Matrix: (Units=GPa)
#
#
# Indices 1 2 3 4 5 6 
#
# 1 181.3117 50.6429 21.2995 0.0000 1.4522 0.0000
# 2 50.6429 87.7882 0.7971 0.0000 -2.6185 0.0000
# 3 21.2995 0.7971 44.7165 0.0000 -8.8879 0.0000
# 4 0.0000 0.0000 0.0000 9.9640 0.0000 -1.8025
# 5 1.4522 -2.6185 -8.8879 0.0000 44.8488 0.0000
# 6 0.0000 0.0000 0.0000 -1.8025 0.0000 43.3111
#
#
#
# Elastic Compliance Matrix: (Units=1/GPa)
#
#
# Indices 1 2 3 4 5 6 
#
# 1 0.007081 -0.004088 -0.003532 0.000000 -0.001168 0.000000
# 2 -0.004088 0.013771 0.001965 0.000000 0.001326 0.000000
# 3 -0.003532 0.001965 0.025043 0.000000 0.005192 0.000000
# 4 0.000000 0.000000 0.000000 0.101123 0.000000 0.004208
# 5 -0.001168 0.001326 0.005192 0.000000 0.023441 0.000000
# 6 0.000000 0.000000 0.000000 0.004208 0.000000 0.023264
#
#
# Mechanical properties :
#
#
# Convention : Reuss Voigt Hill
#
# Bulk Modulus (GPa) = 28.91430 51.03281 39.97355
# Shear Modulus (GPa) = 23.08815 35.69656 29.39235
#
# Velocity S-wave (km/s) = 2.89916 3.60488 3.27111
# Velocity P-wave (km/s) = 4.66187 5.99210 5.36834
#
# Compressibility (1/GPa) = 0.03458497
#
# Stress axis : x y z
#
# Youngs Moduli (GPa) = 141.21315 72.61654 39.93194
#
# Poissons Ratio (x) = 0.29685 0.14105
# Poissons Ratio (y) = 0.57727 -0.07848
# Poissons Ratio (z) = 0.49882 -0.14271
#
# Static dielectric constant tensor:
#      x y z
#    x 5.697520 0.000000 0.133040 
#    y 0.000000 5.114440 0.000000 
#    z 0.133040 0.000000 4.915960 
# 
# 
# High freq. dielectric constant tensor:
#      x y z
#    x 2.124560 0.000000 0.005020 
#    y 0.000000 2.106260 0.000000 
#    z 0.005020 0.000000 2.101370 
# 
# From -- ./inp_files/33638.got.cif
#   From: 2010.06.25/outbox.cif.g09.slc.cpg/sg13_17_cif.got.tgz:33638.got - 2010.06.28 04:50:58.
