data_PCOD8118715
_publ_section_title
;
Structure prediction by ZEFSAII (Michael W. Deem and Ramdas Pophale) SiO2 
 PCOD8118715
Probable space group: P 2/C
;
_chemical_formula_sum "Si O2"
_cell_formula_units_Z 32
_cell_length_a 26.393502
_cell_length_b 13.853078
_cell_length_c 8.950623
_cell_angle_alpha 90.000000
_cell_angle_beta 32.026018
_cell_angle_gamma 90.000000
_cell_volume 1735.488411
_symmetry_space_group_name_H-M "P 2/C"
_symmetry_group_IT_number 13
_symmetry_cell_setting 'monoclinic'
loop_
_space_group_symop_operation_xyz
x,y,z
-x,y,1/2-z
-x,-y,-z
x,-y,1/2+z
loop_
_atom_site_type_symbol
_atom_site_label
_atom_site_fract_x
_atom_site_fract_y
_atom_site_fract_z
Si Si1 0.891070 0.727359 0.196229
Si Si2 0.255786 0.599268 0.783800
Si Si3 0.255785 0.400731 0.937275
Si Si4 0.398521 0.771588 0.078830
Si Si5 0.398521 0.771588 0.428567
Si Si6 0.891071 0.727359 0.848418
Si Si7 0.751876 0.100211 0.045841
Si Si8 0.751877 0.100211 0.694776
O O1 0.843754 0.638827 0.402431
O O2 0.838154 0.827126 0.366575
O O3 0.883217 0.703011 0.041955
O O4 0.999999 0.737944 0.976776
O O5 0.285802 0.499999 0.785494
O O6 0.240937 0.580331 0.647659
O O7 0.340060 0.674341 0.606268
O O8 0.340059 0.325657 0.693436
O O9 0.156245 0.361172 0.121206
O O10 0.409644 0.792824 0.225890
O O11 0.345903 0.861983 0.134286
O O12 0.500000 0.757301 0.750000
O O13 0.500000 0.757301 0.250000
O O14 0.345904 0.861982 0.636201
O O15 0.838155 0.827126 0.942649
O O16 0.781438 0.000000 0.046405
O O17 0.735463 0.087023 0.911342
#
# Coordination Sequence:
#
# PCOD8118715 Si02
#       8
#     4   4   4   4   4   4   4   4
#     4   9  19  36  56  78 106 140 177 217 261 309
#     4  10  21  36  55  79 107 139 175 216 261 311
#     4  10  21  36  55  79 107 139 175 216 261 311
#     4  10  21  37  56  79 106 137 175 217 262 311
#     4  10  21  37  56  79 106 137 175 217 262 311
#     4   9  19  36  56  78 106 140 177 217 261 309
#     4  10  20  35  55  79 108 140 175 216 261 310
#     4  10  20  35  55  79 108 140 175 216 261 310
#
# _framework density 18.438614999999999
#
# number of rings (size 3 to 8) (size 9 to 14) (size 15 to 20)
#    0.000    2.250    0.000    2.250    0.000    6.500 
#    0.000    5.000    0.000    0.000    0.000    0.000 
#    0.000    0.000    0.000    0.000    0.000    0.000 
#
# Total GULP energy -396958.691216 kJ/mol
# GULP energy per Si atom -12404.959101 kJ/mol
# Density = 1.839665 g / cm^3
# Si number density = 18.438615 Si / 1000 Ang^3
#
#
#
# Elastic Constant Matrix: (Units=GPa)
#
#
# Indices 1 2 3 4 5 6 
#
# 1 90.2403 21.1271 38.1167 0.0000 -8.1975 0.0000
# 2 21.1271 62.1382 14.6852 0.0000 6.5049 0.0000
# 3 38.1167 14.6852 106.5923 0.0000 -8.3244 0.0000
# 4 0.0000 0.0000 0.0000 21.8628 0.0000 10.7168
# 5 -8.1975 6.5049 -8.3244 0.0000 30.2465 0.0000
# 6 0.0000 0.0000 0.0000 10.7168 0.0000 32.4716
#
#
#
# Elastic Compliance Matrix: (Units=1/GPa)
#
#
# Indices 1 2 3 4 5 6 
#
# 1 0.014167 -0.004198 -0.004208 0.000000 0.003584 0.000000
# 2 -0.004198 0.018445 -0.001470 0.000000 -0.005509 0.000000
# 3 -0.004208 -0.001470 0.011267 0.000000 0.002277 0.000000
# 4 0.000000 0.000000 0.000000 0.054568 0.000000 -0.018009
# 5 0.003584 -0.005509 0.002277 0.000000 0.035844 0.000000
# 6 0.000000 0.000000 0.000000 -0.018009 0.000000 0.036740
#
#
# Mechanical properties :
#
#
# Convention : Reuss Voigt Hill
#
# Bulk Modulus (GPa) = 41.44776 45.20321 43.32549
# Shear Modulus (GPa) = 25.14781 29.25229 27.20005
#
# Velocity S-wave (km/s) = 3.69706 3.98737 3.84496
# Velocity P-wave (km/s) = 6.38373 6.76517 6.57722
#
# Compressibility (1/GPa) = 0.02412675
#
# Stress axis : x y z
#
# Youngs Moduli (GPa) = 70.58521 54.21648 88.75786
#
# Poissons Ratio (x) = 0.22758 0.37348
# Poissons Ratio (y) = 0.29629 0.13050
# Poissons Ratio (z) = 0.29702 0.07971
#
# Static dielectric constant tensor:
#      x y z
#    x 3.479260 0.000000 0.049280 
#    y 0.000000 3.402950 0.000000 
#    z 0.049280 0.000000 3.430440 
# 
# 
# High freq. dielectric constant tensor:
#      x y z
#    x 1.724380 0.000000 0.006120 
#    y 0.000000 1.717610 0.000000 
#    z 0.006120 0.000000 1.718320 
# 
# From -- ./inp_files/24749.got.cif
#   From: 2010.06.25/outbox.cif.g09.slc.cpg/sg13_13_cif.got.tgz:24749.got - 2010.06.28 04:50:58.
