data_PCOD8118006
_publ_section_title
;
Structure prediction by ZEFSAII (Michael W. Deem and Ramdas Pophale) SiO2 
 PCOD8118006
Probable space group: P 2/C
;
_chemical_formula_sum "Si O2"
_cell_formula_units_Z 30
_cell_length_a 12.814696
_cell_length_b 13.869657
_cell_length_c 8.874142
_cell_angle_alpha 90.000000
_cell_angle_beta 88.980091
_cell_angle_gamma 90.000000
_cell_volume 1576.999633
_symmetry_space_group_name_H-M "P 2/C"
_symmetry_group_IT_number 13
_symmetry_cell_setting 'monoclinic'
loop_
_space_group_symop_operation_xyz
x,y,z
-x,y,1/2-z
-x,-y,-z
x,-y,1/2+z
loop_
_atom_site_type_symbol
_atom_site_label
_atom_site_fract_x
_atom_site_fract_y
_atom_site_fract_z
Si Si1 0.988191 0.819293 0.574705
Si Si2 0.402792 0.248118 0.353777
Si Si3 0.297867 0.296483 0.065829
Si Si4 0.771865 0.903030 0.601783
Si Si5 0.000000 0.472545 0.750000
Si Si6 0.485923 0.394777 0.928954
Si Si7 0.923787 0.375999 0.481913
Si Si8 0.206363 0.100859 0.047891
O O1 0.876620 0.859702 0.519531
O O2 0.000000 0.836520 0.750000
O O3 0.986575 0.704791 0.540167
O O4 0.088464 0.871837 0.493320
O O5 0.500000 0.207384 0.250000
O O6 0.335011 0.309893 0.237460
O O7 0.330977 0.162806 0.424060
O O8 0.438785 0.317377 0.489735
O O9 0.291471 0.184943 0.012329
O O10 0.367638 0.359579 0.953033
O O11 0.181877 0.332088 0.070759
O O12 0.795760 0.917047 0.775069
O O13 0.748882 0.007195 0.534137
O O14 0.080652 0.406627 0.842589
O O15 0.061769 0.532998 0.625812
O O16 0.500000 0.398843 0.750000
O O17 0.500000 0.500000 0.000000
#
# Coordination Sequence:
#
# PCOD8118006 Si02
#       8
#     4   4   4   4   2   4   4   4
#     4   9  17  34  56  76 113 152 184 230 282 337
#     4   9  20  39  60  83 112 149 192 236 288 338
#     4   9  20  40  60  79 115 154 185 238 292 336
#     4  10  19  35  57  83 110 152 186 232 286 340
#     4  10  22  34  54  80 116 148 194 232 278 344
#     4  11  23  41  61  87 114 145 193 241 282 339
#     4  10  20  38  53  81 115 150 191 234 284 343
#     4   9  19  34  56  83 115 145 189 229 286 341
#
# _framework density 19.023468000000001
#
# number of rings (size 3 to 8) (size 9 to 14) (size 15 to 20)
#    0.000    2.400    0.667    2.400    0.000    3.200 
#    9.600    6.667    0.000    0.000    0.000    0.000 
#    0.000    0.000    0.000    0.000    0.000    0.000 
#
# Total GULP energy -371796.832416 kJ/mol
# GULP energy per Si atom -12393.227747 kJ/mol
# Density = 1.898017 g / cm^3
# Si number density = 19.023468 Si / 1000 Ang^3
#
#
#
# Elastic Constant Matrix: (Units=GPa)
#
#
# Indices 1 2 3 4 5 6 
#
# 1 87.0532 56.4661 35.8231 0.0000 3.0774 0.0000
# 2 56.4661 99.6572 30.8380 0.0000 -6.3164 0.0000
# 3 35.8231 30.8380 73.1629 0.0000 -1.1906 0.0000
# 4 0.0000 0.0000 0.0000 28.4159 0.0000 -2.5805
# 5 3.0774 -6.3164 -1.1906 0.0000 23.1620 0.0000
# 6 0.0000 0.0000 0.0000 -2.5805 0.0000 21.7218
#
#
#
# Elastic Compliance Matrix: (Units=1/GPa)
#
#
# Indices 1 2 3 4 5 6 
#
# 1 0.020857 -0.010352 -0.005945 0.000000 -0.005900 0.000000
# 2 -0.010352 0.016875 -0.001949 0.000000 0.005877 0.000000
# 3 -0.005945 -0.001949 0.017419 0.000000 0.001154 0.000000
# 4 0.000000 0.000000 0.000000 0.035575 0.000000 0.004226
# 5 -0.005900 0.005877 0.001154 0.000000 0.045620 0.000000
# 6 0.000000 0.000000 0.000000 0.004226 0.000000 0.046539
#
#
# Mechanical properties :
#
#
# Convention : Reuss Voigt Hill
#
# Bulk Modulus (GPa) = 53.58958 56.23642 54.91300
# Shear Modulus (GPa) = 22.16347 23.77632 22.96990
#
# Velocity S-wave (km/s) = 3.41700 3.53915 3.47861
# Velocity P-wave (km/s) = 6.61810 6.80636 6.71289
#
# Compressibility (1/GPa) = 0.01866034
#
# Stress axis : x y z
#
# Youngs Moduli (GPa) = 47.94606 59.25829 57.40825
#
# Poissons Ratio (x) = 0.61343 0.34129
# Poissons Ratio (y) = 0.49633 0.11187
# Poissons Ratio (z) = 0.28504 0.11547
#
# Static dielectric constant tensor:
#      x y z
#    x 3.753220 0.000000 0.071010 
#    y 0.000000 3.778880 0.000000 
#    z 0.071010 0.000000 3.460150 
# 
# 
# High freq. dielectric constant tensor:
#      x y z
#    x 1.737530 0.000000 0.005670 
#    y 0.000000 1.744270 0.000000 
#    z 0.005670 0.000000 1.724210 
# 
# From -- ./inp_files/16500.got.cif
#   From: 2010.06.25/outbox.cif.g09.slc.cpg/sg13_9_cif.got.tgz:16500.got - 2010.06.28 04:50:58.
