data_PCOD8118240
_publ_section_title
;
Structure prediction by ZEFSAII (Michael W. Deem and Ramdas Pophale) SiO2 
 PCOD8118240
Probable space group: P 2/C
;
_chemical_formula_sum "Si O2"
_cell_formula_units_Z 20
_cell_length_a 10.254092
_cell_length_b 10.236235
_cell_length_c 14.745176
_cell_angle_alpha 90.000000
_cell_angle_beta 40.282073
_cell_angle_gamma 90.000000
_cell_volume 1000.668633
_symmetry_space_group_name_H-M "P 2/C"
_symmetry_group_IT_number 13
_symmetry_cell_setting 'monoclinic'
loop_
_space_group_symop_operation_xyz
x,y,z
-x,y,1/2-z
-x,-y,-z
x,-y,1/2+z
loop_
_atom_site_type_symbol
_atom_site_label
_atom_site_fract_x
_atom_site_fract_y
_atom_site_fract_z
Si Si1 0.952268 0.213561 0.168951
Si Si2 0.179268 0.521905 0.710975
Si Si3 0.483840 0.826054 0.656927
Si Si4 0.477849 0.313654 0.540661
Si Si5 0.627083 0.110543 0.595569
O O1 0.906661 0.369025 0.172872
O O2 0.749126 0.138080 0.245595
O O3 0.000000 0.191533 0.250000
O O4 0.142203 0.158636 0.012127
O O5 0.303994 0.398479 0.683792
O O6 0.320139 0.599762 0.564446
O O7 0.000000 0.456849 0.750000
O O8 0.500000 0.766046 0.750000
O O9 0.574348 0.721675 0.536985
O O10 0.620067 0.956130 0.581770
O O11 0.518121 0.178987 0.569253
O O12 0.500000 0.151426 0.750000
#
# Coordination Sequence:
#
# PCOD8118240 Si02
#       5
#     4   4   4   4   4
#     4  10  19  40  66  77 121 168 192 238 310 345
#     4   9  17  36  61  81 112 159 198 244 291 350
#     4  10  22  38  61  89 123 157 199 248 293 352
#     4  10  19  37  61  85 118 155 201 241 302 346
#     4  11  22  38  61  90 123 156 200 241 299 361
#
# _framework density 19.986637000000002
#
# number of rings (size 3 to 8) (size 9 to 14) (size 15 to 20)
#    0.000    2.000    6.000    0.600    0.000    3.200 
#    7.200   10.000    0.000    0.000    0.000    0.000 
#    0.000    0.000    0.000    0.000    0.000    0.000 
#
# Total GULP energy -247770.482750 kJ/mol
# GULP energy per Si atom -12388.524137 kJ/mol
# Density = 1.994115 g / cm^3
# Si number density = 19.986637 Si / 1000 Ang^3
#
#
#
# Elastic Constant Matrix: (Units=GPa)
#
#
# Indices 1 2 3 4 5 6 
#
# 1 87.4064 23.6282 30.9886 0.0000 -5.0598 0.0000
# 2 23.6282 79.6021 38.5211 0.0000 -11.8858 0.0000
# 3 30.9886 38.5211 94.1333 0.0000 -19.0626 0.0000
# 4 0.0000 0.0000 0.0000 32.4117 0.0000 -8.8547
# 5 -5.0598 -11.8858 -19.0626 0.0000 36.8762 0.0000
# 6 0.0000 0.0000 0.0000 -8.8547 0.0000 18.9627
#
#
#
# Elastic Compliance Matrix: (Units=1/GPa)
#
#
# Indices 1 2 3 4 5 6 
#
# 1 0.013295 -0.002330 -0.003581 0.000000 -0.000778 0.000000
# 2 -0.002330 0.016198 -0.005438 0.000000 0.002090 0.000000
# 3 -0.003581 -0.005438 0.015160 0.000000 0.005593 0.000000
# 4 0.000000 0.000000 0.000000 0.035364 0.000000 0.016513
# 5 -0.000778 0.002090 0.005593 0.000000 0.030576 0.000000
# 6 0.000000 0.000000 0.000000 0.016513 0.000000 0.060446
#
#
# Mechanical properties :
#
#
# Convention : Reuss Voigt Hill
#
# Bulk Modulus (GPa) = 45.54722 49.71308 47.63015
# Shear Modulus (GPa) = 24.86881 28.85039 26.85960
#
# Velocity S-wave (km/s) = 3.53125 3.80344 3.66987
# Velocity P-wave (km/s) = 6.28209 6.64947 6.46838
#
# Compressibility (1/GPa) = 0.02195524
#
# Stress axis : x y z
#
# Youngs Moduli (GPa) = 75.21561 61.73705 65.96282
#
# Poissons Ratio (x) = 0.14382 0.23621
# Poissons Ratio (y) = 0.17522 0.35872
# Poissons Ratio (z) = 0.26934 0.33574
#
# Static dielectric constant tensor:
#      x y z
#    x 3.706070 0.000000 -0.284880 
#    y 0.000000 3.599810 0.000000 
#    z -0.284880 0.000000 3.673260 
# 
# 
# High freq. dielectric constant tensor:
#      x y z
#    x 1.768240 0.000000 -0.023770 
#    y 0.000000 1.772400 0.000000 
#    z -0.023770 0.000000 1.763220 
# 
# From -- ./inp_files/46442.got.cif
#   From: 2010.06.25/outbox.cif.g09.slc.cpg/sg13_24_cif.got.tgz:46442.got - 2010.06.28 04:50:58.
