data_PCOD8118576
_publ_section_title
;
Structure prediction by ZEFSAII (Michael W. Deem and Ramdas Pophale) SiO2 
 PCOD8118576
Probable space group: P 2/C
;
_chemical_formula_sum "Si O2"
_cell_formula_units_Z 30
_cell_length_a 16.940215
_cell_length_b 11.160525
_cell_length_c 14.209849
_cell_angle_alpha 90.000000
_cell_angle_beta 34.639834
_cell_angle_gamma 90.000000
_cell_volume 1527.070925
_symmetry_space_group_name_H-M "P 2/C"
_symmetry_group_IT_number 13
_symmetry_cell_setting 'monoclinic'
loop_
_space_group_symop_operation_xyz
x,y,z
-x,y,1/2-z
-x,-y,-z
x,-y,1/2+z
loop_
_atom_site_type_symbol
_atom_site_label
_atom_site_fract_x
_atom_site_fract_y
_atom_site_fract_z
Si Si1 0.844648 0.164168 0.889251
Si Si2 0.619464 0.147082 0.407975
Si Si3 0.133891 0.240286 0.829709
Si Si4 0.814225 0.289572 0.100716
Si Si5 0.000000 0.698784 0.750000
Si Si6 0.107612 0.452775 0.969771
Si Si7 0.670725 0.908917 0.253916
Si Si8 0.766979 0.894761 0.955829
O O1 0.791918 0.225518 0.844333
O O2 0.000000 0.210982 0.750000
O O3 0.846457 0.021042 0.881286
O O4 0.762288 0.216452 0.059493
O O5 0.702453 0.264967 0.292876
O O6 0.454467 0.170364 0.578447
O O7 0.669858 0.104136 0.460447
O O8 0.647267 0.047324 0.301164
O O9 0.180025 0.127769 0.848563
O O10 0.196736 0.355725 0.823179
O O11 0.966101 0.244860 0.987581
O O12 0.806030 0.430816 0.082356
O O13 0.035273 0.611923 0.628728
O O14 0.128277 0.783130 0.652139
O O15 0.000000 0.500000 0.000000
O O16 0.671185 0.886680 0.141954
#
# Coordination Sequence:
#
# PCOD8118576 Si02
#       8
#     4   4   4   4   2   4   4   4
#     4  10  20  33  59  92 121 151 191 250 304 358
#     4  11  24  39  59  87 124 166 192 254 302 364
#     4  10  20  39  60  88 119 158 198 250 295 360
#     4  10  22  39  61  88 121 158 203 242 303 357
#     4  12  24  36  64  98 122 150 204 252 310 358
#     4  10  22  38  58  89 122 158 196 252 291 350
#     4  11  23  39  58  89 126 156 204 245 309 354
#     4  12  21  37  59  91 122 154 196 250 309 364
#
# _framework density 19.645453
#
# number of rings (size 3 to 8) (size 9 to 14) (size 15 to 20)
#    0.000    1.333    4.667    2.000    4.667    0.533 
#    0.000    1.333    0.000    0.000    0.000    0.000 
#    0.000    0.000    0.000    0.000    0.000    0.000 
#
# Total GULP energy -371796.650209 kJ/mol
# GULP energy per Si atom -12393.221674 kJ/mol
# Density = 1.960074 g / cm^3
# Si number density = 19.645453 Si / 1000 Ang^3
#
#
#
# Elastic Constant Matrix: (Units=GPa)
#
#
# Indices 1 2 3 4 5 6 
#
# 1 81.4631 38.3314 38.5682 0.0000 28.8080 0.0000
# 2 38.3314 119.0568 58.3561 0.0000 19.8834 0.0000
# 3 38.5682 58.3561 99.0878 0.0000 20.3043 0.0000
# 4 0.0000 0.0000 0.0000 30.6033 0.0000 12.7771
# 5 28.8080 19.8834 20.3043 0.0000 35.0549 0.0000
# 6 0.0000 0.0000 0.0000 12.7771 0.0000 24.7600
#
#
#
# Elastic Compliance Matrix: (Units=1/GPa)
#
#
# Indices 1 2 3 4 5 6 
#
# 1 0.019595 -0.002431 -0.003606 0.000000 -0.012635 0.000000
# 2 -0.002431 0.012400 -0.006042 0.000000 -0.001536 0.000000
# 3 -0.003606 -0.006042 0.015595 0.000000 -0.002643 0.000000
# 4 0.000000 0.000000 0.000000 0.041650 0.000000 -0.021493
# 5 -0.012635 -0.001536 -0.002643 0.000000 0.041312 0.000000
# 6 0.000000 0.000000 0.000000 -0.021493 0.000000 0.051479
#
#
# Mechanical properties :
#
#
# Convention : Reuss Voigt Hill
#
# Bulk Modulus (GPa) = 42.67572 63.34656 53.01114
# Shear Modulus (GPa) = 23.36451 29.04046 26.20248
#
# Velocity S-wave (km/s) = 3.45238 3.84894 3.65604
# Velocity P-wave (km/s) = 6.13694 7.21577 6.69811
#
# Compressibility (1/GPa) = 0.02343253
#
# Stress axis : x y z
#
# Youngs Moduli (GPa) = 51.03349 80.64540 64.12150
#
# Poissons Ratio (x) = 0.19605 0.23123
# Poissons Ratio (y) = 0.12406 0.38741
# Poissons Ratio (z) = 0.18403 0.48724
#
# Static dielectric constant tensor:
#      x y z
#    x 3.702320 0.000000 0.336580 
#    y 0.000000 6.576660 0.000000 
#    z 0.336580 0.000000 3.562590 
# 
# 
# High freq. dielectric constant tensor:
#      x y z
#    x 1.767700 0.000000 0.030900 
#    y 0.000000 1.760050 0.000000 
#    z 0.030900 0.000000 1.748720 
# 
# From -- ./inp_files/55669.got.cif
#   From: 2010.06.25/outbox.cif.g09.slc.cpg/sg13_28_cif.got.tgz:55669.got - 2010.06.28 04:50:58.
