data_PCOD8118712
_publ_section_title
;
Structure prediction by ZEFSAII (Michael W. Deem and Ramdas Pophale) SiO2 
 PCOD8118712
Probable space group: P 2/C
;
_chemical_formula_sum "Si O2"
_cell_formula_units_Z 24
_cell_length_a 8.138554
_cell_length_b 13.747541
_cell_length_c 13.866907
_cell_angle_alpha 90.000000
_cell_angle_beta 136.500925
_cell_angle_gamma 90.000000
_cell_volume 1067.964191
_symmetry_space_group_name_H-M "P 2/C"
_symmetry_group_IT_number 13
_symmetry_cell_setting 'monoclinic'
loop_
_space_group_symop_operation_xyz
x,y,z
-x,y,1/2-z
-x,-y,-z
x,-y,1/2+z
loop_
_atom_site_type_symbol
_atom_site_label
_atom_site_fract_x
_atom_site_fract_y
_atom_site_fract_z
Si Si1 0.676128 0.442091 0.904807
Si Si2 0.746841 0.943790 0.888020
Si Si3 0.350115 0.275006 0.470104
Si Si4 0.892173 0.641103 0.015447
Si Si5 0.175969 0.755685 0.690333
Si Si6 0.210382 0.177723 0.903708
O O1 0.500000 0.484225 0.750000
O O2 0.799417 0.534788 0.007878
O O3 0.569152 0.376742 0.946171
O O4 0.842412 0.371679 0.912041
O O5 0.500000 0.002457 0.750000
O O6 0.750458 0.864736 0.804013
O O7 0.718376 0.894880 0.980634
O O8 0.000000 0.000000 0.000000
O O9 0.314843 0.289932 0.340222
O O10 0.561317 0.195383 0.569238
O O11 0.107987 0.236472 0.413533
O O12 0.745680 0.685837 0.863412
O O13 0.882822 0.716693 0.099243
O O14 0.000000 0.130376 0.750000
#
# Coordination Sequence:
#
# PCOD8118712 Si02
#       6
#     4   4   4   4   4   4
#     4  10  20  35  54  87 127 171 218 265 309 365
#     4  11  24  46  72  99 130 168 212 266 339 409
#     4  10  20  37  63  91 124 169 218 262 315 379
#     4   9  21  37  55  85 127 171 216 261 317 378
#     4   9  20  41  64  87 124 173 211 256 329 390
#     4  11  23  41  64  95 128 169 213 267 328 386
#
# _framework density 22.472664000000002
#
# number of rings (size 3 to 8) (size 9 to 14) (size 15 to 20)
#    0.000    2.000    1.667    1.000    2.333    2.000 
#   12.000    3.333    0.000    0.000    0.000    0.000 
#    0.000    0.000    0.000    0.000    0.000    0.000 
#
# Total GULP energy -297321.169111 kJ/mol
# GULP energy per Si atom -12388.382046 kJ/mol
# Density = 2.242151 g / cm^3
# Si number density = 22.472664 Si / 1000 Ang^3
#
#
#
# Elastic Constant Matrix: (Units=GPa)
#
#
# Indices 1 2 3 4 5 6 
#
# 1 64.0711 20.7137 31.2800 0.0000 -1.8388 0.0000
# 2 20.7137 58.2874 25.1019 0.0000 -0.4510 0.0000
# 3 31.2800 25.1019 137.8484 0.0000 5.2869 0.0000
# 4 0.0000 0.0000 0.0000 17.3030 0.0000 5.6897
# 5 -1.8388 -0.4510 5.2869 0.0000 35.5077 0.0000
# 6 0.0000 0.0000 0.0000 5.6897 0.0000 29.8494
#
#
#
# Elastic Compliance Matrix: (Units=1/GPa)
#
#
# Indices 1 2 3 4 5 6 
#
# 1 0.019020 -0.005280 -0.003409 0.000000 0.001426 0.000000
# 2 -0.005280 0.020102 -0.002476 0.000000 0.000350 0.000000
# 3 -0.003409 -0.002476 0.008535 0.000000 -0.001479 0.000000
# 4 0.000000 0.000000 0.000000 0.061658 0.000000 -0.011753
# 5 0.001426 0.000350 -0.001479 0.000000 0.028461 0.000000
# 6 0.000000 0.000000 0.000000 -0.011753 0.000000 0.035742
#
#
# Mechanical properties :
#
#
# Convention : Reuss Voigt Hill
#
# Bulk Modulus (GPa) = 39.48313 46.04425 42.76369
# Shear Modulus (GPa) = 24.47498 28.73945 26.60721
#
# Velocity S-wave (km/s) = 3.30373 3.58000 3.44464
# Velocity P-wave (km/s) = 5.67101 6.13368 5.90688
#
# Compressibility (1/GPa) = 0.02532727
#
# Stress axis : x y z
#
# Youngs Moduli (GPa) = 52.57657 49.74720 117.15797
#
# Poissons Ratio (x) = 0.26266 0.39940
# Poissons Ratio (y) = 0.27760 0.29006
# Poissons Ratio (z) = 0.17924 0.12316
#
# Static dielectric constant tensor:
#      x y z
#    x 4.202070 0.000000 0.145220 
#    y 0.000000 3.757890 0.000000 
#    z 0.145220 0.000000 4.200390 
# 
# 
# High freq. dielectric constant tensor:
#      x y z
#    x 1.892350 0.000000 0.009530 
#    y 0.000000 1.853810 0.000000 
#    z 0.009530 0.000000 1.891630 
# 
# From -- ./inp_files/40966.got.cif
#   From: 2010.06.25/outbox.cif.g09.slc.cpg/sg13_21_cif.got.tgz:40966.got - 2010.06.28 04:50:58.
