data_PCOD8118783
_publ_section_title
;
Structure prediction by ZEFSAII (Michael W. Deem and Ramdas Pophale) SiO2 
 PCOD8118783
Probable space group: P 2/C
;
_chemical_formula_sum "Si O2"
_cell_formula_units_Z 32
_cell_length_a 14.693235
_cell_length_b 15.030362
_cell_length_c 11.821020
_cell_angle_alpha 90.000000
_cell_angle_beta 144.147325
_cell_angle_gamma 90.000000
_cell_volume 1529.041687
_symmetry_space_group_name_H-M "P 2/C"
_symmetry_group_IT_number 13
_symmetry_cell_setting 'monoclinic'
loop_
_space_group_symop_operation_xyz
x,y,z
-x,y,1/2-z
-x,-y,-z
x,-y,1/2+z
loop_
_atom_site_type_symbol
_atom_site_label
_atom_site_fract_x
_atom_site_fract_y
_atom_site_fract_z
Si Si1 0.330869 0.124526 0.524597
Si Si2 0.642908 0.771910 0.056077
Si Si3 0.067645 0.325293 0.090588
Si Si4 0.698801 0.814079 0.758415
Si Si5 0.141651 0.374290 0.812626
Si Si6 0.176467 0.432865 0.390580
Si Si7 0.317900 0.069807 0.053347
Si Si8 0.213619 0.270082 0.564311
O O1 0.500000 0.130966 0.750000
O O2 0.339387 0.140089 0.399170
O O3 0.225049 0.200107 0.474123
O O4 0.249122 0.028615 0.462958
O O5 0.724028 0.699323 0.056947
O O6 0.675416 0.756554 0.220823
O O7 0.457649 0.767736 0.850836
O O8 0.712675 0.867015 0.086288
O O9 0.165698 0.259008 0.110914
O O10 0.186815 0.390254 0.275456
O O11 0.941960 0.383306 0.893815
O O12 0.966898 0.269322 0.080272
O O13 0.754285 0.888477 0.904569
O O14 0.232497 0.464775 0.941382
O O15 0.000000 0.345402 0.750000
O O16 0.266035 0.368479 0.569587
O O17 0.000000 0.438966 0.250000
O O18 0.500000 0.056854 0.250000
#
# Coordination Sequence:
#
# PCOD8118783 Si02
#       8
#     4   4   4   4   4   4   4   4
#     4  11  21  35  62  87 117 157 197 248 290 352
#     4  10  21  38  60  88 119 154 197 247 292 350
#     4  10  20  35  59  82 120 153 193 243 290 345
#     4  11  21  37  61  86 120 156 197 241 298 344
#     4  10  20  36  61  82 114 154 196 238 291 347
#     4   9  18  34  57  87 110 151 201 235 282 361
#     4   9  22  36  57  86 115 155 205 238 285 363
#     4  10  20  36  60  87 118 151 202 242 293 347
#
# _framework density 20.928139999999999
#
# number of rings (size 3 to 8) (size 9 to 14) (size 15 to 20)
#    0.000    2.000    2.500    1.125    1.750    2.500 
#    0.000    1.250    8.250    9.750    0.000    0.000 
#    0.000    0.000    0.000    0.000    0.000    0.000 
#
# Total GULP energy -396633.294668 kJ/mol
# GULP energy per Si atom -12394.790458 kJ/mol
# Density = 2.088051 g / cm^3
# Si number density = 20.928140 Si / 1000 Ang^3
#
#
#
# Elastic Constant Matrix: (Units=GPa)
#
#
# Indices 1 2 3 4 5 6 
#
# 1 107.6931 58.8221 14.7603 0.0000 -5.9267 0.0000
# 2 58.8221 161.0521 31.6837 0.0000 -2.4994 0.0000
# 3 14.7603 31.6837 50.2919 0.0000 -12.6893 0.0000
# 4 0.0000 0.0000 0.0000 28.0765 0.0000 -5.0018
# 5 -5.9267 -2.4994 -12.6893 0.0000 29.4057 0.0000
# 6 0.0000 0.0000 0.0000 -5.0018 0.0000 33.4581
#
#
#
# Elastic Compliance Matrix: (Units=1/GPa)
#
#
# Indices 1 2 3 4 5 6 
#
# 1 0.011720 -0.004186 -0.000332 0.000000 0.001863 0.000000
# 2 -0.004186 0.008641 -0.004761 0.000000 -0.002164 0.000000
# 3 -0.000332 -0.004761 0.025655 0.000000 0.010599 0.000000
# 4 0.000000 0.000000 0.000000 0.036592 0.000000 0.005470
# 5 0.001863 -0.002164 0.010599 0.000000 0.038772 0.000000
# 6 0.000000 0.000000 0.000000 0.005470 0.000000 0.030706
#
#
# Mechanical properties :
#
#
# Convention : Reuss Voigt Hill
#
# Bulk Modulus (GPa) = 36.42065 58.84103 47.63084
# Shear Modulus (GPa) = 27.80878 32.43946 30.12412
#
# Velocity S-wave (km/s) = 3.64919 3.94133 3.79807
# Velocity P-wave (km/s) = 5.93262 6.99206 6.48401
#
# Compressibility (1/GPa) = 0.02745695
#
# Stress axis : x y z
#
# Youngs Moduli (GPa) = 85.32178 115.72336 38.97810
#
# Poissons Ratio (x) = 0.48446 0.01296
# Poissons Ratio (y) = 0.35719 0.18559
# Poissons Ratio (z) = 0.02836 0.55099
#
# Static dielectric constant tensor:
#      x y z
#    x 3.932600 0.000000 -0.331640 
#    y 0.000000 4.190380 0.000000 
#    z -0.331640 0.000000 3.528370 
# 
# 
# High freq. dielectric constant tensor:
#      x y z
#    x 1.823130 0.000000 -0.027790 
#    y 0.000000 1.820010 0.000000 
#    z -0.027790 0.000000 1.792880 
# 
# From -- ./inp_files/37543.got.cif
#   From: 2010.06.25/outbox.cif.g09.slc.cpg/sg13_19_cif.got.tgz:37543.got - 2010.06.28 04:50:58.
