data_PCOD8118899
_publ_section_title
;
Structure prediction by ZEFSAII (Michael W. Deem and Ramdas Pophale) SiO2 
 PCOD8118899
Probable space group: P 2/C
;
_chemical_formula_sum "Si O2"
_cell_formula_units_Z 22
_cell_length_a 8.830549
_cell_length_b 8.984708
_cell_length_c 14.240343
_cell_angle_alpha 90.000000
_cell_angle_beta 79.384942
_cell_angle_gamma 90.000000
_cell_volume 1110.492680
_symmetry_space_group_name_H-M "P 2/C"
_symmetry_group_IT_number 13
_symmetry_cell_setting 'monoclinic'
loop_
_space_group_symop_operation_xyz
x,y,z
-x,y,1/2-z
-x,-y,-z
x,-y,1/2+z
loop_
_atom_site_type_symbol
_atom_site_label
_atom_site_fract_x
_atom_site_fract_y
_atom_site_fract_z
Si Si1 0.119573 0.908163 0.044716
Si Si2 0.500000 0.637274 0.750000
Si Si3 0.751831 0.414644 0.777152
Si Si4 0.307843 0.069693 0.694221
Si Si5 0.624333 0.910940 0.632928
Si Si6 0.003783 0.412198 0.596289
O O1 0.281524 0.895940 0.972685
O O2 0.167348 0.975696 0.140710
O O3 0.031247 0.756621 0.068035
O O4 0.000000 0.000000 0.000000
O O5 0.614926 0.532475 0.794366
O O6 0.587326 0.741907 0.665945
O O7 0.684813 0.248584 0.798667
O O8 0.860107 0.466057 0.850671
O O9 0.841047 0.425497 0.668012
O O10 0.470306 0.008624 0.635916
O O11 0.273197 0.992264 0.798173
O O12 0.000000 0.500000 0.500000
#
# Coordination Sequence:
#
# PCOD8118899 Si02
#       6
#     4   2   4   4   4   4
#     4  11  22  36  58  83 110 145 182 224 274 324
#     4  10  20  36  58  82 110 146 180 226 274 310
#     4  10  20  38  59  79 110 148 183 220 269 330
#     4   9  20  38  57  80 109 147 184 222 270 325
#     4  10  21  37  56  83 113 139 182 232 269 317
#     4  10  22  38  56  82 113 144 182 224 271 325
#
# _framework density 19.811026999999999
#
# number of rings (size 3 to 8) (size 9 to 14) (size 15 to 20)
#    0.000    2.182    0.000    3.818    0.000    5.091 
#    0.000   11.818    0.000    0.000    0.000    0.000 
#    0.000    0.000    0.000    0.000    0.000    0.000 
#
# Total GULP energy -272728.523740 kJ/mol
# GULP energy per Si atom -12396.751079 kJ/mol
# Density = 1.976594 g / cm^3
# Si number density = 19.811027 Si / 1000 Ang^3
#
#
#
# Elastic Constant Matrix: (Units=GPa)
#
#
# Indices 1 2 3 4 5 6 
#
# 1 76.3757 49.0624 35.0686 0.0000 31.6507 0.0000
# 2 49.0624 99.1355 40.9611 0.0000 27.4825 0.0000
# 3 35.0686 40.9611 100.4913 0.0000 23.4551 0.0000
# 4 0.0000 0.0000 0.0000 29.4924 0.0000 7.7478
# 5 31.6507 27.4825 23.4551 0.0000 35.7298 0.0000
# 6 0.0000 0.0000 0.0000 7.7478 0.0000 29.9579
#
#
#
# Elastic Compliance Matrix: (Units=1/GPa)
#
#
# Indices 1 2 3 4 5 6 
#
# 1 0.025078 -0.007286 -0.002249 0.000000 -0.015134 0.000000
# 2 -0.007286 0.016040 -0.003097 0.000000 -0.003850 0.000000
# 3 -0.002249 -0.003097 0.012964 0.000000 -0.004136 0.000000
# 4 0.000000 0.000000 0.000000 0.036379 0.000000 -0.009408
# 5 -0.015134 -0.003850 -0.004136 0.000000 0.047071 0.000000
# 6 0.000000 0.000000 0.000000 -0.009408 0.000000 0.035813
#
#
# Mechanical properties :
#
#
# Convention : Reuss Voigt Hill
#
# Bulk Modulus (GPa) = 34.70130 58.46517 46.58324
# Shear Modulus (GPa) = 24.01362 29.09673 26.55517
#
# Velocity S-wave (km/s) = 3.48535 3.83654 3.66515
# Velocity P-wave (km/s) = 5.80957 7.01433 6.44018
#
# Compressibility (1/GPa) = 0.02881736
#
# Stress axis : x y z
#
# Youngs Moduli (GPa) = 39.87504 62.34352 77.13941
#
# Poissons Ratio (x) = 0.45426 0.17350
# Poissons Ratio (y) = 0.29055 0.23887
# Poissons Ratio (z) = 0.08969 0.19306
#
# Static dielectric constant tensor:
#      x y z
#    x 3.565240 0.000000 -0.072590 
#    y 0.000000 3.259110 0.000000 
#    z -0.072590 0.000000 3.474760 
# 
# 
# High freq. dielectric constant tensor:
#      x y z
#    x 1.777780 0.000000 0.006350 
#    y 0.000000 1.771530 0.000000 
#    z 0.006350 0.000000 1.778970 
# 
# From -- ./inp_files/45863.got.cif
#   From: 2010.06.25/outbox.cif.g09.slc.cpg/sg13_23_cif.got.tgz:45863.got - 2010.06.28 04:50:58.
