data_PCOD8118832
_publ_section_title
;
Structure prediction by ZEFSAII (Michael W. Deem and Ramdas Pophale) SiO2 
 PCOD8118832
Probable space group: P 2/C
;
_chemical_formula_sum "Si O2"
_cell_formula_units_Z 24
_cell_length_a 16.427363
_cell_length_b 8.848376
_cell_length_c 22.895521
_cell_angle_alpha 90.000000
_cell_angle_beta 158.351357
_cell_angle_gamma 90.000000
_cell_volume 1227.741211
_symmetry_space_group_name_H-M "P 2/C"
_symmetry_group_IT_number 13
_symmetry_cell_setting 'monoclinic'
loop_
_space_group_symop_operation_xyz
x,y,z
-x,y,1/2-z
-x,-y,-z
x,-y,1/2+z
loop_
_atom_site_type_symbol
_atom_site_label
_atom_site_fract_x
_atom_site_fract_y
_atom_site_fract_z
Si Si1 0.536250 0.164366 0.551260
Si Si2 0.687378 0.038994 0.761669
Si Si3 0.032991 0.666463 0.206109
Si Si4 0.624670 0.169694 0.388426
Si Si5 0.105798 0.904150 0.981384
Si Si6 0.080150 0.686678 0.737933
O O1 0.539440 0.151623 0.624094
O O2 0.764807 0.237447 0.683181
O O3 0.334268 0.269815 0.398908
O O4 0.500000 0.000000 0.500000
O O5 0.562096 0.878996 0.689316
O O6 0.763514 0.130909 0.870651
O O7 0.888863 0.995387 0.854042
O O8 0.071162 0.490798 0.222073
O O9 0.000000 0.714879 0.250000
O O10 0.797705 0.703366 0.020755
O O11 0.500000 0.239355 0.250000
O O12 0.741963 0.011113 0.455162
O O13 0.059528 0.761618 0.908301
O O14 0.000000 0.733126 0.750000
#
# Coordination Sequence:
#
# PCOD8118832 Si02
#       6
#     4   4   4   4   4   4
#     4  12  21  38  64  91 117 159 203 251 300 354
#     4  10  20  35  65  92 118 147 204 254 298 348
#     4  11  24  40  57  87 125 161 199 246 300 366
#     4  10  20  38  63  86 116 157 202 244 296 356
#     4  10  20  39  61  90 121 151 197 256 298 351
#     4  11  24  41  59  86 126 159 198 243 304 365
#
# _framework density 19.548093999999999
#
# number of rings (size 3 to 8) (size 9 to 14) (size 15 to 20)
#    0.000    1.333    3.333    2.500    0.000    1.333 
#    0.000    6.667    0.000    0.000    0.000    0.000 
#    0.000    0.000    0.000    0.000    0.000    0.000 
#
# Total GULP energy -297457.250111 kJ/mol
# GULP energy per Si atom -12394.052088 kJ/mol
# Density = 1.950360 g / cm^3
# Si number density = 19.548094 Si / 1000 Ang^3
#
#
#
# Elastic Constant Matrix: (Units=GPa)
#
#
# Indices 1 2 3 4 5 6 
#
# 1 89.3785 40.8392 47.2391 0.0000 -21.2366 0.0000
# 2 40.8392 86.6491 63.4522 0.0000 -22.3050 0.0000
# 3 47.2391 63.4522 146.6026 0.0000 -14.8819 0.0000
# 4 0.0000 0.0000 0.0000 35.0169 0.0000 4.8769
# 5 -21.2366 -22.3050 -14.8819 0.0000 31.3996 0.0000
# 6 0.0000 0.0000 0.0000 4.8769 0.0000 17.1805
#
#
#
# Elastic Compliance Matrix: (Units=1/GPa)
#
#
# Indices 1 2 3 4 5 6 
#
# 1 0.016018 -0.003681 -0.002872 0.000000 0.006857 0.000000
# 2 -0.003681 0.020544 -0.006804 0.000000 0.008879 0.000000
# 3 -0.002872 -0.006804 0.010509 0.000000 -0.001795 0.000000
# 4 0.000000 0.000000 0.000000 0.029733 0.000000 -0.008440
# 5 0.006857 0.008879 -0.001795 0.000000 0.041942 0.000000
# 6 0.000000 0.000000 0.000000 -0.008440 0.000000 0.060601
#
#
# Mechanical properties :
#
#
# Convention : Reuss Voigt Hill
#
# Bulk Modulus (GPa) = 49.12489 69.52124 59.32306
# Shear Modulus (GPa) = 23.49093 28.12603 25.80848
#
# Velocity S-wave (km/s) = 3.47031 3.79728 3.63747
# Velocity P-wave (km/s) = 6.42201 7.40724 6.93215
#
# Compressibility (1/GPa) = 0.02035628
#
# Stress axis : x y z
#
# Youngs Moduli (GPa) = 62.43154 48.67550 95.15267
#
# Poissons Ratio (x) = 0.17918 0.27327
# Poissons Ratio (y) = 0.22982 0.64746
# Poissons Ratio (z) = 0.17930 0.33121
#
# Static dielectric constant tensor:
#      x y z
#    x 3.751440 0.000000 -0.058540 
#    y 0.000000 3.221560 0.000000 
#    z -0.058540 0.000000 4.022700 
# 
# 
# High freq. dielectric constant tensor:
#      x y z
#    x 1.777380 0.000000 0.001130 
#    y 0.000000 1.727920 0.000000 
#    z 0.001130 0.000000 1.787660 
# 
# From -- ./inp_files/46138.got.cif
#   From: 2010.06.25/outbox.cif.g09.slc.cpg/sg13_24_cif.got.tgz:46138.got - 2010.06.28 04:50:58.
