data_PCOD8118987
_publ_section_title
;
Structure prediction by ZEFSAII (Michael W. Deem and Ramdas Pophale) SiO2 
 PCOD8118987
Probable space group: P 2/C
;
_chemical_formula_sum "Si O2"
_cell_formula_units_Z 26
_cell_length_a 10.599036
_cell_length_b 4.985576
_cell_length_c 22.276769
_cell_angle_alpha 90.000000
_cell_angle_beta 84.588800
_cell_angle_gamma 90.000000
_cell_volume 1171.909763
_symmetry_space_group_name_H-M "P 2/C"
_symmetry_group_IT_number 13
_symmetry_cell_setting 'monoclinic'
loop_
_space_group_symop_operation_xyz
x,y,z
-x,y,1/2-z
-x,-y,-z
x,-y,1/2+z
loop_
_atom_site_type_symbol
_atom_site_label
_atom_site_fract_x
_atom_site_fract_y
_atom_site_fract_z
Si Si1 0.836446 0.735722 0.862972
Si Si2 0.079002 0.776559 0.907166
Si Si3 0.000000 0.461505 0.250000
Si Si4 0.165087 0.723047 0.336752
Si Si5 0.600967 0.365598 0.605274
Si Si6 0.691939 0.133115 0.031727
Si Si7 0.676551 0.223520 0.893950
O O1 0.780852 0.445914 0.877578
O O2 0.926410 0.823482 0.915946
O O3 0.928847 0.727335 0.801142
O O4 0.725286 0.951788 0.860144
O O5 0.096289 0.465055 0.889024
O O6 0.155191 0.831654 0.965499
O O7 0.138999 0.966552 0.852600
O O8 0.890473 0.649878 0.225969
O O9 0.316328 0.667800 0.337233
O O10 0.614274 0.664038 0.577988
O O11 0.456109 0.308226 0.629670
O O12 0.650998 0.165519 0.551351
O O13 0.654370 0.179362 0.965237
#
# Coordination Sequence:
#
# PCOD8118987 Si02
#       7
#     4   4   2   4   4   4   4
#     4  11  24  37  58  84 114 150 195 246 283 332
#     4   9  19  36  55  86 113 146 191 230 278 334
#     4  10  22  44  64  78 106 152 198 244 304 330
#     4   9  19  35  63  83 104 145 196 237 275 341
#     4  10  20  38  59  87 120 154 187 223 280 350
#     4  10  20  36  61  84 120 161 184 220 280 345
#     4  12  23  36  57  91 122 150 188 232 279 343
#
# _framework density 22.18601
#
# number of rings (size 3 to 8) (size 9 to 14) (size 15 to 20)
#    0.000    1.846    0.000    4.615    0.000    6.769 
#    0.000    0.769    0.000    3.692    0.000    0.000 
#    0.000    0.000    0.000    0.000    0.000    0.000 
#
# Total GULP energy -322319.464137 kJ/mol
# GULP energy per Si atom -12396.902467 kJ/mol
# Density = 2.213551 g / cm^3
# Si number density = 22.186010 Si / 1000 Ang^3
#
#
#
# Elastic Constant Matrix: (Units=GPa)
#
#
# Indices 1 2 3 4 5 6 
#
# 1 143.4176 5.8447 40.4101 0.0000 22.7743 0.0000
# 2 5.8447 82.3057 10.9672 0.0000 -0.7800 0.0000
# 3 40.4101 10.9672 53.0109 0.0000 8.2807 0.0000
# 4 0.0000 0.0000 0.0000 22.6224 0.0000 -1.1013
# 5 22.7743 -0.7800 8.2807 0.0000 30.0081 0.0000
# 6 0.0000 0.0000 0.0000 -1.1013 0.0000 34.6514
#
#
#
# Elastic Compliance Matrix: (Units=1/GPa)
#
#
# Indices 1 2 3 4 5 6 
#
# 1 0.009694 0.000132 -0.006550 0.000000 -0.005546 0.000000
# 2 0.000132 0.012530 -0.002851 0.000000 0.001012 0.000000
# 3 -0.006550 -0.002851 0.024749 0.000000 -0.001932 0.000000
# 4 0.000000 0.000000 0.000000 0.044272 0.000000 0.001407
# 5 -0.005546 0.001012 -0.001932 0.000000 0.038093 0.000000
# 6 0.000000 0.000000 0.000000 0.001407 0.000000 0.028904
#
#
# Mechanical properties :
#
#
# Convention : Reuss Voigt Hill
#
# Bulk Modulus (GPa) = 35.16954 43.68648 39.42801
# Shear Modulus (GPa) = 26.84445 32.22386 29.53415
#
# Velocity S-wave (km/s) = 3.48224 3.81522 3.65253
# Velocity P-wave (km/s) = 5.66167 6.25633 5.96641
#
# Compressibility (1/GPa) = 0.02843370
#
# Stress axis : x y z
#
# Youngs Moduli (GPa) = 103.16074 79.80879 40.40557
#
# Poissons Ratio (x) = -0.01053 0.26467
# Poissons Ratio (y) = -0.01361 0.11520
# Poissons Ratio (z) = 0.67575 0.22753
#
# Static dielectric constant tensor:
#      x y z
#    x 4.466370 0.000000 0.401380 
#    y 0.000000 4.030940 0.000000 
#    z 0.401380 0.000000 3.486760 
# 
# 
# High freq. dielectric constant tensor:
#      x y z
#    x 1.891650 0.000000 0.025170 
#    y 0.000000 1.891240 0.000000 
#    z 0.025170 0.000000 1.817220 
# 
# From -- ./inp_files/90796.got.cif
#   From: 2010.06.25/outbox.cif.g09.slc.cpg/sg13_46_cif.got.tgz:90796.got - 2010.06.28 04:50:58.
