data_PCOD8118045
_publ_section_title
;
Structure prediction by ZEFSAII (Michael W. Deem and Ramdas Pophale) SiO2 
 PCOD8118045
Probable space group: P 2/C
;
_chemical_formula_sum "Si O2"
_cell_formula_units_Z 24
_cell_length_a 14.247180
_cell_length_b 11.093466
_cell_length_c 19.607685
_cell_angle_alpha 90.000000
_cell_angle_beta 21.700536
_cell_angle_gamma 90.000000
_cell_volume 1145.874546
_symmetry_space_group_name_H-M "P 2/C"
_symmetry_group_IT_number 13
_symmetry_cell_setting 'monoclinic'
loop_
_space_group_symop_operation_xyz
x,y,z
-x,y,1/2-z
-x,-y,-z
x,-y,1/2+z
loop_
_atom_site_type_symbol
_atom_site_label
_atom_site_fract_x
_atom_site_fract_y
_atom_site_fract_z
Si Si1 0.090878 0.992369 0.264411
Si Si2 0.215831 0.192029 0.276770
Si Si3 0.781688 0.614639 0.083789
Si Si4 0.219125 0.858466 0.922512
Si Si5 0.260754 0.260848 0.616422
Si Si6 0.920426 0.613818 0.140856
O O1 0.267247 0.874293 0.143540
O O2 0.000000 0.026445 0.250000
O O3 0.861618 0.967231 0.472879
O O4 0.236001 0.107648 0.196602
O O5 0.193506 0.108736 0.359570
O O6 0.972933 0.278407 0.435311
O O7 0.478013 0.271062 0.103472
O O8 0.500000 0.648698 0.250000
O O9 0.767532 0.590324 0.174480
O O10 0.881677 0.494147 0.978856
O O11 0.500000 0.822533 0.750000
O O12 0.064070 0.739133 0.041691
O O13 0.271393 0.367490 0.665894
O O14 0.000000 0.275547 0.750000
#
# Coordination Sequence:
#
# PCOD8118045 Si02
#       6
#     4   4   4   4   4   4
#     4  10  21  36  55  82 117 155 192 239 293 345
#     4  11  22  36  57  86 120 152 189 238 297 352
#     4  10  22  39  59  85 118 155 191 233 291 350
#     4  10  19  35  60  84 107 149 202 243 283 339
#     4  10  21  38  60  85 111 147 196 246 289 332
#     4   9  20  38  60  82 111 150 193 240 286 338
#
# _framework density 20.944700999999998
#
# number of rings (size 3 to 8) (size 9 to 14) (size 15 to 20)
#    0.000    2.000    0.000    4.500    0.000    5.333 
#    0.000    5.833    0.000    0.000    0.000    0.000 
#    0.000    0.000    0.000    0.000    0.000    0.000 
#
# Total GULP energy -297457.281586 kJ/mol
# GULP energy per Si atom -12394.053399 kJ/mol
# Density = 2.089703 g / cm^3
# Si number density = 20.944701 Si / 1000 Ang^3
#
#
#
# Elastic Constant Matrix: (Units=GPa)
#
#
# Indices 1 2 3 4 5 6 
#
# 1 129.6676 48.3198 64.5613 0.0000 9.6045 0.0000
# 2 48.3198 62.1329 21.3342 0.0000 1.0874 0.0000
# 3 64.5613 21.3342 129.0617 0.0000 -8.2870 0.0000
# 4 0.0000 0.0000 0.0000 7.9326 0.0000 0.6908
# 5 9.6045 1.0874 -8.2870 0.0000 38.5793 0.0000
# 6 0.0000 0.0000 0.0000 0.6908 0.0000 31.6859
#
#
#
# Elastic Compliance Matrix: (Units=1/GPa)
#
#
# Indices 1 2 3 4 5 6 
#
# 1 0.014433 -0.009078 -0.006017 0.000000 -0.004630 0.000000
# 2 -0.009078 0.022819 0.000885 0.000000 0.001807 0.000000
# 3 -0.006017 0.000885 0.010856 0.000000 0.003805 0.000000
# 4 0.000000 0.000000 0.000000 0.126303 0.000000 -0.002754
# 5 -0.004630 0.001807 0.003805 0.000000 0.027840 0.000000
# 6 0.000000 0.000000 0.000000 -0.002754 0.000000 0.031620
#
#
# Mechanical properties :
#
#
# Convention : Reuss Voigt Hill
#
# Bulk Modulus (GPa) = 50.78942 65.47697 58.13319
# Shear Modulus (GPa) = 18.59757 28.08268 23.34013
#
# Velocity S-wave (km/s) = 2.98306 3.66567 3.34184
# Velocity P-wave (km/s) = 6.01388 7.01754 6.53501
#
# Compressibility (1/GPa) = 0.01968914
#
# Stress axis : x y z
#
# Youngs Moduli (GPa) = 69.28330 43.82392 92.11410
#
# Poissons Ratio (x) = 0.39782 0.55424
# Poissons Ratio (y) = 0.62893 -0.08152
# Poissons Ratio (z) = 0.41687 -0.03879
#
# Static dielectric constant tensor:
#      x y z
#    x 4.044080 0.000000 0.378010 
#    y 0.000000 3.607100 0.000000 
#    z 0.378010 0.000000 3.913550 
# 
# 
# High freq. dielectric constant tensor:
#      x y z
#    x 1.821520 0.000000 0.010190 
#    y 0.000000 1.802480 0.000000 
#    z 0.010190 0.000000 1.822490 
# 
# From -- ./inp_files/80139.got.cif
#   From: 2010.06.25/outbox.cif.g09.slc.cpg/sg13_41_cif.got.tgz:80139.got - 2010.06.28 04:50:58.
