data_PCOD8118187
_publ_section_title
;
Structure prediction by ZEFSAII (Michael W. Deem and Ramdas Pophale) SiO2 
 PCOD8118187
Probable space group: P 2/C
;
_chemical_formula_sum "Si O2"
_cell_formula_units_Z 22
_cell_length_a 13.898489
_cell_length_b 8.684597
_cell_length_c 9.028581
_cell_angle_alpha 90.000000
_cell_angle_beta 85.993918
_cell_angle_gamma 90.000000
_cell_volume 1087.112077
_symmetry_space_group_name_H-M "P 2/C"
_symmetry_group_IT_number 13
_symmetry_cell_setting 'monoclinic'
loop_
_space_group_symop_operation_xyz
x,y,z
-x,y,1/2-z
-x,-y,-z
x,-y,1/2+z
loop_
_atom_site_type_symbol
_atom_site_label
_atom_site_fract_x
_atom_site_fract_y
_atom_site_fract_z
Si Si1 0.500000 0.706863 0.250000
Si Si2 0.809421 0.472308 0.550876
Si Si3 0.301476 0.176126 0.226831
Si Si4 0.600678 0.955474 0.058047
Si Si5 0.677501 0.539922 0.317042
Si Si6 0.107863 0.298115 0.232106
O O1 0.579963 0.806277 0.158022
O O2 0.568079 0.601186 0.346915
O O3 0.738602 0.579699 0.457965
O O4 0.735982 0.384798 0.671721
O O5 0.869027 0.359514 0.436811
O O6 0.884006 0.569204 0.643302
O O7 0.328473 0.355388 0.206937
O O8 0.185376 0.164940 0.263195
O O9 0.359202 0.099732 0.354690
O O10 0.322749 0.083548 0.075406
O O11 0.500000 0.000000 0.000000
O O12 0.000000 0.230540 0.250000
#
# Coordination Sequence:
#
# PCOD8118187 Si02
#       6
#     2   4   4   4   4   4
#     4  12  24  32  66  84 118 152 216 226 308 348
#     4   8  18  35  55  85 128 143 186 240 314 346
#     4  10  24  42  58  83 126 150 204 246 295 354
#     4  12  24  41  57  83 116 172 196 235 296 367
#     4  10  22  37  58  93 117 158 189 265 285 345
#     4  10  19  36  63  89 117 156 194 248 304 357
#
# _framework density 20.237103000000001
#
# number of rings (size 3 to 8) (size 9 to 14) (size 15 to 20)
#    0.000    2.182    1.818    2.727    7.636    1.455 
#    0.000    0.909    0.000    0.000    0.000    0.000 
#    0.000    0.000    0.000    0.000    0.000    0.000 
#
# Total GULP energy -272566.035932 kJ/mol
# GULP energy per Si atom -12389.365270 kJ/mol
# Density = 2.019104 g / cm^3
# Si number density = 20.237103 Si / 1000 Ang^3
#
#
#
# Elastic Constant Matrix: (Units=GPa)
#
#
# Indices 1 2 3 4 5 6 
#
# 1 144.8728 37.8670 21.9880 0.0000 0.5608 0.0000
# 2 37.8670 67.2192 16.7152 0.0000 2.1462 0.0000
# 3 21.9880 16.7152 97.7541 0.0000 2.2560 0.0000
# 4 0.0000 0.0000 0.0000 13.5011 0.0000 -7.1192
# 5 0.5608 2.1462 2.2560 0.0000 25.5095 0.0000
# 6 0.0000 0.0000 0.0000 -7.1192 0.0000 25.1503
#
#
#
# Elastic Compliance Matrix: (Units=1/GPa)
#
#
# Indices 1 2 3 4 5 6 
#
# 1 0.008209 -0.004358 -0.001108 0.000000 0.000284 0.000000
# 2 -0.004358 0.017880 -0.002049 0.000000 -0.001227 0.000000
# 3 -0.001108 -0.002049 0.010847 0.000000 -0.000763 0.000000
# 4 0.000000 0.000000 0.000000 0.087063 0.000000 0.024644
# 5 0.000284 -0.001227 -0.000763 0.000000 0.039365 0.000000
# 6 0.000000 0.000000 0.000000 0.024644 0.000000 0.046737
#
#
# Mechanical properties :
#
#
# Convention : Reuss Voigt Hill
#
# Bulk Modulus (GPa) = 45.64781 51.44296 48.54539
# Shear Modulus (GPa) = 21.51161 28.38392 24.94777
#
# Velocity S-wave (km/s) = 3.26387 3.74915 3.51490
# Velocity P-wave (km/s) = 6.06707 6.64957 6.36499
#
# Compressibility (1/GPa) = 0.02190686
#
# Stress axis : x y z
#
# Youngs Moduli (GPa) = 121.82186 55.92744 92.19253
#
# Poissons Ratio (x) = 0.24372 0.10213
# Poissons Ratio (y) = 0.53088 0.18889
# Poissons Ratio (z) = 0.13495 0.11459
#
# Static dielectric constant tensor:
#      x y z
#    x 3.820400 0.000000 -0.195220 
#    y 0.000000 3.263660 0.000000 
#    z -0.195220 0.000000 2.232760 
# 
# 
# High freq. dielectric constant tensor:
#      x y z
#    x 1.791490 0.000000 0.003960 
#    y 0.000000 1.751610 0.000000 
#    z 0.003960 0.000000 1.807610 
# 
# From -- ./inp_files/17946.got.cif
#   From: 2010.06.25/outbox.cif.g09.slc.cpg/sg13_9_cif.got.tgz:17946.got - 2010.06.28 04:50:58.
