data_PCOD8118973
_publ_section_title
;
Structure prediction by ZEFSAII (Michael W. Deem and Ramdas Pophale) SiO2 
 PCOD8118973
Probable space group: P 2/C
;
_chemical_formula_sum "Si O2"
_cell_formula_units_Z 28
_cell_length_a 16.801801
_cell_length_b 6.224005
_cell_length_c 12.672896
_cell_angle_alpha 90.000000
_cell_angle_beta 68.797180
_cell_angle_gamma 90.000000
_cell_volume 1235.549417
_symmetry_space_group_name_H-M "P 2/C"
_symmetry_group_IT_number 13
_symmetry_cell_setting 'monoclinic'
loop_
_space_group_symop_operation_xyz
x,y,z
-x,y,1/2-z
-x,-y,-z
x,-y,1/2+z
loop_
_atom_site_type_symbol
_atom_site_label
_atom_site_fract_x
_atom_site_fract_y
_atom_site_fract_z
Si Si1 0.135737 0.808683 0.545260
Si Si2 0.089099 0.485553 0.896020
Si Si3 0.779502 0.182810 0.083669
Si Si4 0.425085 0.472829 0.620356
Si Si5 0.500000 0.794392 0.750000
Si Si6 0.633304 0.874855 0.190478
Si Si7 0.000000 0.618805 0.750000
Si Si8 0.705390 0.555983 0.990363
O O1 0.134756 0.722927 0.423526
O O2 0.205182 0.670634 0.576189
O O3 0.045899 0.778083 0.645958
O O4 0.160380 0.057289 0.529125
O O5 0.154867 0.686005 0.874643
O O6 0.066167 0.467433 0.782800
O O7 0.000000 0.500000 0.000000
O O8 0.717522 0.331492 0.044573
O O9 0.721470 0.005741 0.174575
O O10 0.500000 0.500000 0.500000
O O11 0.446301 0.653279 0.694936
O O12 0.409417 0.241342 0.685692
O O13 0.336887 0.524203 0.603432
O O14 0.430333 0.954645 0.833707
O O15 0.645953 0.696360 0.095289
#
# Coordination Sequence:
#
# PCOD8118973 Si02
#       8
#     4   4   4   4   2   4   2   4
#     4   9  21  39  61  89 124 164 209 262 319 374
#     4   9  20  39  59  86 127 163 203 263 315 373
#     4  10  21  41  64  90 127 167 211 263 317 379
#     4  12  25  42  65  96 131 165 209 264 320 380
#     4  12  26  44  64  92 130 168 210 258 316 382
#     4  11  24  42  66  93 125 169 213 262 321 380
#     4  10  20  36  60  90 124 164 210 258 318 382
#     4  10  23  43  65  92 127 166 213 265 317 378
#
# _framework density 22.661982999999999
#
# number of rings (size 3 to 8) (size 9 to 14) (size 15 to 20)
#    0.000    1.714    0.000    3.857    0.000   12.571 
#    0.000   10.000    0.000    0.000    0.000    0.000 
#    0.000    0.000    0.000    0.000    0.000    0.000 
#
# Total GULP energy -346876.419454 kJ/mol
# GULP energy per Si atom -12388.443552 kJ/mol
# Density = 2.261040 g / cm^3
# Si number density = 22.661983 Si / 1000 Ang^3
#
#
#
# Elastic Constant Matrix: (Units=GPa)
#
#
# Indices 1 2 3 4 5 6 
#
# 1 145.2725 61.2776 42.6708 0.0000 29.6952 0.0000
# 2 61.2776 127.9961 48.3540 0.0000 8.3808 0.0000
# 3 42.6708 48.3540 86.2289 0.0000 7.0643 0.0000
# 4 0.0000 0.0000 0.0000 15.0181 0.0000 -15.3282
# 5 29.6952 8.3808 7.0643 0.0000 46.3121 0.0000
# 6 0.0000 0.0000 0.0000 -15.3282 0.0000 27.8807
#
#
#
# Elastic Compliance Matrix: (Units=1/GPa)
#
#
# Indices 1 2 3 4 5 6 
#
# 1 0.010301 -0.003570 -0.002640 0.000000 -0.005556 0.000000
# 2 -0.003570 0.011192 -0.004588 0.000000 0.000964 0.000000
# 3 -0.002640 -0.004588 0.015463 0.000000 0.000165 0.000000
# 4 0.000000 0.000000 0.000000 0.151723 0.000000 0.083414
# 5 -0.005556 0.000964 0.000165 0.000000 0.024956 0.000000
# 6 0.000000 0.000000 0.000000 0.083414 0.000000 0.081726
#
#
# Mechanical properties :
#
#
# Convention : Reuss Voigt Hill
#
# Bulk Modulus (GPa) = 65.11062 73.78914 69.44988
# Shear Modulus (GPa) = 15.52420 31.65517 23.58969
#
# Velocity S-wave (km/s) = 2.62015 3.74149 3.22985
# Velocity P-wave (km/s) = 6.16013 7.16215 6.67995
#
# Compressibility (1/GPa) = 0.01535848
#
# Stress axis : x y z
#
# Youngs Moduli (GPa) = 97.07977 89.34720 64.67028
#
# Poissons Ratio (x) = 0.31900 0.17074
# Poissons Ratio (y) = 0.34660 0.29673
# Poissons Ratio (z) = 0.25630 0.40996
#
# Static dielectric constant tensor:
#      x y z
#    x 4.721380 0.000000 0.183560 
#    y 0.000000 4.272280 0.000000 
#    z 0.183560 0.000000 4.123070 
# 
# 
# High freq. dielectric constant tensor:
#      x y z
#    x 1.919060 0.000000 -0.014660 
#    y 0.000000 1.891140 0.000000 
#    z -0.014660 0.000000 1.870220 
# 
# From -- ./inp_files/54456.got.cif
#   From: 2010.06.25/outbox.cif.g09.slc.cpg/sg13_28_cif.got.tgz:54456.got - 2010.06.28 04:50:58.
