data_PCOD8118079
_publ_section_title
;
Structure prediction by ZEFSAII (Michael W. Deem and Ramdas Pophale) SiO2 
 PCOD8118079
Probable space group: P 2/C
;
_chemical_formula_sum "Si O2"
_cell_formula_units_Z 24
_cell_length_a 19.568132
_cell_length_b 7.975310
_cell_length_c 20.445991
_cell_angle_alpha 90.000000
_cell_angle_beta 22.079541
_cell_angle_gamma 90.000000
_cell_volume 1199.415908
_symmetry_space_group_name_H-M "P 2/C"
_symmetry_group_IT_number 13
_symmetry_cell_setting 'monoclinic'
loop_
_space_group_symop_operation_xyz
x,y,z
-x,y,1/2-z
-x,-y,-z
x,-y,1/2+z
loop_
_atom_site_type_symbol
_atom_site_label
_atom_site_fract_x
_atom_site_fract_y
_atom_site_fract_z
Si Si1 0.341886 0.754172 0.023012
Si Si2 0.805277 0.074131 0.389935
Si Si3 0.500000 0.683044 0.750000
Si Si4 0.730574 0.430096 0.619744
Si Si5 0.149211 0.401138 0.230381
Si Si6 0.359331 0.402811 0.168206
Si Si7 0.500000 0.173284 0.750000
O O1 0.222731 0.923585 0.139362
O O2 0.229662 0.581696 0.135996
O O3 0.401740 0.781731 0.895013
O O4 0.527697 0.753527 0.901320
O O5 0.000000 0.051485 0.250000
O O6 0.777426 0.256290 0.382044
O O7 0.652785 0.058836 0.581281
O O8 0.666136 0.582268 0.633212
O O9 0.719996 0.474783 0.705772
O O10 0.597627 0.276768 0.721480
O O11 0.933807 0.394479 0.416781
O O12 0.198269 0.350833 0.261909
O O13 0.500000 0.500000 0.000000
#
# Coordination Sequence:
#
# PCOD8118079 Si02
#       7
#     4   4   2   4   4   4   2
#     4  10  23  39  61  89 122 159 202 252 300 360
#     4  12  25  39  62  93 122 162 206 250 306 360
#     4   9  19  34  58  87 117 160 197 245 312 345
#     4  10  19  35  63  91 119 161 202 248 305 361
#     4  11  22  39  63  89 125 159 203 252 298 368
#     4   9  19  39  62  87 117 164 204 243 306 358
#     4  11  21  40  60  89 133 156 203 261 298 357
#
# _framework density 20.009740000000001
#
# number of rings (size 3 to 8) (size 9 to 14) (size 15 to 20)
#    0.000    1.667    1.667    5.000    2.333    0.667 
#    0.000    0.000    0.000    6.000    0.000    0.000 
#    0.000    0.000    0.000    0.000    0.000    0.000 
#
# Total GULP energy -297323.533084 kJ/mol
# GULP energy per Si atom -12388.480545 kJ/mol
# Density = 1.996420 g / cm^3
# Si number density = 20.009740 Si / 1000 Ang^3
#
#
#
# Elastic Constant Matrix: (Units=GPa)
#
#
# Indices 1 2 3 4 5 6 
#
# 1 107.5962 36.4480 38.8677 0.0000 -2.8047 0.0000
# 2 36.4480 115.4067 32.0990 0.0000 -12.8563 0.0000
# 3 38.8677 32.0990 114.5883 0.0000 -8.3136 0.0000
# 4 0.0000 0.0000 0.0000 6.9748 0.0000 -2.0232
# 5 -2.8047 -12.8563 -8.3136 0.0000 34.4696 0.0000
# 6 0.0000 0.0000 0.0000 -2.0232 0.0000 22.9952
#
#
#
# Elastic Compliance Matrix: (Units=1/GPa)
#
#
# Indices 1 2 3 4 5 6 
#
# 1 0.011354 -0.002814 -0.003127 0.000000 -0.000880 0.000000
# 2 -0.002814 0.010393 -0.001722 0.000000 0.003232 0.000000
# 3 -0.003127 -0.001722 0.010387 0.000000 0.001608 0.000000
# 4 0.000000 0.000000 0.000000 0.147127 0.000000 0.012945
# 5 -0.000880 0.003232 0.001608 0.000000 0.030533 0.000000
# 6 0.000000 0.000000 0.000000 0.012945 0.000000 0.044626
#
#
# Mechanical properties :
#
#
# Convention : Reuss Voigt Hill
#
# Bulk Modulus (GPa) = 59.49882 61.38004 60.43943
# Shear Modulus (GPa) = 18.15882 28.23303 23.19593
#
# Velocity S-wave (km/s) = 3.01574 3.76036 3.40844
# Velocity P-wave (km/s) = 6.47501 7.04240 6.76465
#
# Compressibility (1/GPa) = 0.01680706
#
# Stress axis : x y z
#
# Youngs Moduli (GPa) = 88.07593 96.22014 96.27806
#
# Poissons Ratio (x) = 0.27078 0.30103
# Poissons Ratio (y) = 0.24786 0.16582
# Poissons Ratio (z) = 0.27539 0.16572
#
# Static dielectric constant tensor:
#      x y z
#    x 3.085400 0.000000 -1.529410 
#    y 0.000000 3.452980 0.000000 
#    z -1.529410 0.000000 2.315250 
# 
# 
# High freq. dielectric constant tensor:
#      x y z
#    x 1.788360 0.000000 -0.006680 
#    y 0.000000 1.766230 0.000000 
#    z -0.006680 0.000000 1.787080 
# 
# From -- ./inp_files/81653.got.cif
#   From: 2010.06.25/outbox.cif.g09.slc.cpg/sg13_41_cif.got.tgz:81653.got - 2010.06.28 04:50:58.
