data_PCOD8118762
_publ_section_title
;
Structure prediction by ZEFSAII (Michael W. Deem and Ramdas Pophale) SiO2 
 PCOD8118762
Probable space group: P 2/C
;
_chemical_formula_sum "Si O2"
_cell_formula_units_Z 30
_cell_length_a 15.828300
_cell_length_b 8.907266
_cell_length_c 10.321581
_cell_angle_alpha 90.000000
_cell_angle_beta 78.965423
_cell_angle_gamma 90.000000
_cell_volume 1428.303398
_symmetry_space_group_name_H-M "P 2/C"
_symmetry_group_IT_number 13
_symmetry_cell_setting 'monoclinic'
loop_
_space_group_symop_operation_xyz
x,y,z
-x,y,1/2-z
-x,-y,-z
x,-y,1/2+z
loop_
_atom_site_type_symbol
_atom_site_label
_atom_site_fract_x
_atom_site_fract_y
_atom_site_fract_z
Si Si1 0.771835 0.336607 0.169057
Si Si2 0.621665 0.739698 0.038619
Si Si3 0.500000 0.112450 0.750000
Si Si4 0.714290 0.524857 0.424523
Si Si5 0.958626 0.315276 0.130402
Si Si6 0.747701 0.776485 0.234594
Si Si7 0.058044 0.328484 0.851071
Si Si8 0.335836 0.927075 0.714424
O O1 0.771762 0.429582 0.304797
O O2 0.862896 0.249027 0.136064
O O3 0.695684 0.212746 0.188362
O O4 0.762612 0.447096 0.047708
O O5 0.527841 0.773596 0.126690
O O6 0.700920 0.743656 0.114217
O O7 0.626413 0.571621 0.975105
O O8 0.639290 0.871726 0.933629
O O9 0.419211 0.006261 0.749650
O O10 0.696352 0.684074 0.361784
O O11 0.943862 0.493079 0.141233
O O12 0.000000 0.252353 0.250000
O O13 0.020154 0.263110 0.995869
O O14 0.846585 0.731678 0.198454
O O15 0.740483 0.951339 0.274452
O O16 0.000000 0.269573 0.750000
#
# Coordination Sequence:
#
# PCOD8118762 Si02
#       8
#     4   4   2   4   4   4   4   4
#     4  11  23  41  63  98 127 173 218 261 321 381
#     4  10  22  42  67  95 124 163 215 264 319 385
#     4  10  22  46  66  98 122 166 206 264 328 400
#     4  11  21  39  67  93 128 166 216 269 306 373
#     4  10  21  32  56  91 127 164 213 272 309 362
#     4  11  22  39  66  93 130 173 214 260 320 379
#     4  10  20  35  57  88 125 169 215 262 314 361
#     4  10  25  42  70  91 129 168 209 257 329 402
#
# _framework density 21.003938999999999
#
# number of rings (size 3 to 8) (size 9 to 14) (size 15 to 20)
#    0.000    1.600    2.667    1.200   11.200    0.000 
#    0.000    4.667    0.000    0.000    0.000    0.000 
#    0.000    0.000    0.000    0.000    0.000    0.000 
#
# Total GULP energy -371824.799098 kJ/mol
# GULP energy per Si atom -12394.159970 kJ/mol
# Density = 2.095613 g / cm^3
# Si number density = 21.003939 Si / 1000 Ang^3
#
#
#
# Elastic Constant Matrix: (Units=GPa)
#
#
# Indices 1 2 3 4 5 6 
#
# 1 98.5394 30.9801 42.4171 0.0000 -13.7762 0.0000
# 2 30.9801 87.9547 50.8663 0.0000 -12.1083 0.0000
# 3 42.4171 50.8663 149.1469 0.0000 -7.7426 0.0000
# 4 0.0000 0.0000 0.0000 -35.9987 0.0000 -13.2823
# 5 -13.7762 -12.1083 -7.7426 0.0000 27.4584 0.0000
# 6 0.0000 0.0000 0.0000 -13.2823 0.0000 24.9272
#
#
#
# Elastic Compliance Matrix: (Units=1/GPa)
#
#
# Indices 1 2 3 4 5 6 
#
# 1 0.012624 -0.002338 -0.002555 0.000000 0.004582 0.000000
# 2 -0.002338 0.015293 -0.004325 0.000000 0.004351 0.000000
# 3 -0.002555 -0.004325 0.008871 0.000000 -0.000688 0.000000
# 4 0.000000 0.000000 0.000000 -0.023215 0.000000 -0.012370
# 5 0.004582 0.004351 -0.000688 0.000000 0.040442 0.000000
# 6 0.000000 0.000000 0.000000 -0.012370 0.000000 0.033526
#
#
# Mechanical properties :
#
#
# Convention : Reuss Voigt Hill
#
# Bulk Modulus (GPa) = 54.49032 64.90753 59.69893
# Shear Modulus (GPa) = 44.60551 17.36924 30.98737
#
# Velocity S-wave (km/s) = 4.61333 2.87880 3.84515
# Velocity P-wave (km/s) = 7.37403 6.48225 6.94248
#
# Compressibility (1/GPa) = 0.01835188
#
# Stress axis : x y z
#
# Youngs Moduli (GPa) = 79.21642 65.38844 112.73063
#
# Poissons Ratio (x) = 0.15288 0.28801
# Poissons Ratio (y) = 0.18521 0.48755
# Poissons Ratio (z) = 0.20239 0.28280
#
# Static dielectric constant tensor:
#      x y z
#    x 3.652410 0.000000 -0.097490 
#    y 0.000000 3.897650 0.000000 
#    z -0.097490 0.000000 4.204360 
# 
# 
# High freq. dielectric constant tensor:
#      x y z
#    x 1.806060 0.000000 -0.005420 
#    y 0.000000 1.805230 0.000000 
#    z -0.005420 0.000000 1.843080 
# 
# From -- ./inp_files/36421.got.cif
#   From: 2010.06.25/outbox.cif.g09.slc.cpg/sg13_19_cif.got.tgz:36421.got - 2010.06.28 04:50:58.
