data_PCOD8118310
_publ_section_title
;
Structure prediction by ZEFSAII (Michael W. Deem and Ramdas Pophale) SiO2 
 PCOD8118310
Probable space group: P 2/C
;
_chemical_formula_sum "Si O2"
_cell_formula_units_Z 28
_cell_length_a 12.673706
_cell_length_b 15.062523
_cell_length_c 8.631899
_cell_angle_alpha 90.000000
_cell_angle_beta 55.629468
_cell_angle_gamma 90.000000
_cell_volume 1360.110675
_symmetry_space_group_name_H-M "P 2/C"
_symmetry_group_IT_number 13
_symmetry_cell_setting 'monoclinic'
loop_
_space_group_symop_operation_xyz
x,y,z
-x,y,1/2-z
-x,-y,-z
x,-y,1/2+z
loop_
_atom_site_type_symbol
_atom_site_label
_atom_site_fract_x
_atom_site_fract_y
_atom_site_fract_z
Si Si1 0.146352 0.614995 0.150634
Si Si2 0.772990 0.753638 0.180264
Si Si3 0.737279 0.529336 0.734777
Si Si4 0.637959 0.617658 0.106010
Si Si5 0.198848 0.961911 0.744449
Si Si6 0.355193 0.080430 0.817143
Si Si7 0.015034 0.871026 0.404692
O O1 0.226530 0.696580 0.160381
O O2 0.161504 0.527461 0.246815
O O3 0.000000 0.640898 0.250000
O O4 0.193656 0.596495 0.938394
O O5 0.749619 0.687551 0.055617
O O6 0.662542 0.829352 0.268999
O O7 0.908600 0.803458 0.047176
O O8 0.643543 0.467009 0.714519
O O9 0.651250 0.589864 0.917453
O O10 0.500000 0.662537 0.250000
O O11 0.253016 0.918821 0.542797
O O12 0.321431 0.995825 0.739100
O O13 0.097405 0.040411 0.799099
O O14 0.122186 0.887166 0.903485
O O15 0.500000 0.070817 0.750000
O O16 0.000000 0.824474 0.250000
#
# Coordination Sequence:
#
# PCOD8118310 Si02
#       7
#     4   4   4   4   4   4   4
#     4  10  19  38  58  85 120 152 192 244 291 343
#     4  10  23  36  56  84 122 157 185 242 302 340
#     4   9  20  35  62  88 109 155 206 233 287 341
#     4  10  19  38  59  85 119 155 197 242 284 344
#     4  10  21  37  65  88 107 154 195 242 293 345
#     4  11  22  41  61  86 120 153 198 242 294 351
#     4  10  19  38  62  85 118 145 196 244 289 351
#
# _framework density 20.586561
#
# number of rings (size 3 to 8) (size 9 to 14) (size 15 to 20)
#    0.000    2.000    1.429    2.143    0.000    0.000 
#    7.714    0.000    3.143    0.000    0.000    0.000 
#    0.000    0.000    0.000    0.000    0.000    0.000 
#
# Total GULP energy -347090.052147 kJ/mol
# GULP energy per Si atom -12396.073291 kJ/mol
# Density = 2.053971 g / cm^3
# Si number density = 20.586561 Si / 1000 Ang^3
#
#
#
# Elastic Constant Matrix: (Units=GPa)
#
#
# Indices 1 2 3 4 5 6 
#
# 1 114.7589 43.5910 45.0702 0.0000 -0.1203 0.0000
# 2 43.5910 92.3834 47.2843 0.0000 1.3358 0.0000
# 3 45.0702 47.2843 116.7069 0.0000 11.3391 0.0000
# 4 0.0000 0.0000 0.0000 0.3190 0.0000 2.8144
# 5 -0.1203 1.3358 11.3391 0.0000 30.0217 0.0000
# 6 0.0000 0.0000 0.0000 2.8144 0.0000 28.8671
#
#
#
# Elastic Compliance Matrix: (Units=1/GPa)
#
#
# Indices 1 2 3 4 5 6 
#
# 1 0.011338 -0.003863 -0.002943 0.000000 0.001329 0.000000
# 2 -0.003863 0.015041 -0.004708 0.000000 0.001094 0.000000
# 3 -0.002943 -0.004708 0.012035 0.000000 -0.004348 0.000000
# 4 0.000000 0.000000 0.000000 22.412744 0.000000 -2.185108
# 5 0.001329 0.001094 -0.004348 0.000000 0.034908 0.000000
# 6 0.000000 0.000000 0.000000 -2.185108 0.000000 0.247676
#
#
# Mechanical properties :
#
#
# Convention : Reuss Voigt Hill
#
# Bulk Modulus (GPa) = 64.99287 66.19336 65.59312
# Shear Modulus (GPa) = 0.21967 24.36848 12.29407
#
# Velocity S-wave (km/s) = 0.32701 3.44424 2.44640
# Velocity P-wave (km/s) = 5.63752 6.93113 6.31752
#
# Compressibility (1/GPa) = 0.01538630
#
# Stress axis : x y z
#
# Youngs Moduli (GPa) = 88.19589 66.48330 83.09127
#
# Poissons Ratio (x) = 0.25683 0.24451
# Poissons Ratio (y) = 0.34071 0.39123
# Poissons Ratio (z) = 0.25953 0.31303
#
# Static dielectric constant tensor:
#      x y z
#    x 3.897040 0.000000 0.187200 
#    y 0.000000 3.737750 0.000000 
#    z 0.187200 0.000000 3.497300 
# 
# 
# High freq. dielectric constant tensor:
#      x y z
#    x 1.819780 0.000000 0.016280 
#    y 0.000000 1.799060 0.000000 
#    z 0.016280 0.000000 1.778300 
# 
# From -- ./inp_files/16664.got.cif
#   From: 2010.06.25/outbox.cif.g09.slc.cpg/sg13_9_cif.got.tgz:16664.got - 2010.06.28 04:50:58.
