data_PCOD8118591
_publ_section_title
;
Structure prediction by ZEFSAII (Michael W. Deem and Ramdas Pophale) SiO2 
 PCOD8118591
Probable space group: P 2/C
;
_chemical_formula_sum "Si O2"
_cell_formula_units_Z 28
_cell_length_a 28.460349
_cell_length_b 9.773925
_cell_length_c 8.944410
_cell_angle_alpha 90.000000
_cell_angle_beta 141.784684
_cell_angle_gamma 90.000000
_cell_volume 1539.160065
_symmetry_space_group_name_H-M "P 2/C"
_symmetry_group_IT_number 13
_symmetry_cell_setting 'monoclinic'
loop_
_space_group_symop_operation_xyz
x,y,z
-x,y,1/2-z
-x,-y,-z
x,-y,1/2+z
loop_
_atom_site_type_symbol
_atom_site_label
_atom_site_fract_x
_atom_site_fract_y
_atom_site_fract_z
Si Si1 0.126045 0.140898 0.389144
Si Si2 1.000000 0.352184 0.426310
Si Si3 0.422907 0.354505 0.129293
Si Si4 0.873955 0.859101 0.258916
Si Si5 0.297828 0.138583 0.819627
Si Si6 0.297828 0.138585 0.169515
Si Si7 0.422907 0.354507 0.485243
O O1 0.074017 0.267182 0.205933
O O2 0.118798 0.119939 0.546996
O O3 0.212171 0.175028 0.554329
O O4 0.097751 1.000000 0.244378
O O5 0.000000 0.373815 0.250000
O O6 0.000000 0.500000 0.500000
O O7 0.074017 0.267182 0.664153
O O8 0.500000 0.293902 0.250000
O O9 0.432228 0.367398 0.330570
O O10 0.404898 0.499999 0.012243
O O11 0.353144 0.259306 0.907240
O O12 0.787829 0.824971 0.993471
O O13 0.326802 0.999999 0.817006
O O14 0.301552 0.114851 0.003881
O O15 0.353144 0.259308 0.358482
O O16 0.500000 0.293904 0.750000
#
# Coordination Sequence:
#
# PCOD8118591 Si02
#       7
#     4   4   4   4   4   4   4
#     4   9  18  34  53  74  99 129 164 202 242 289
#     4  10  21  34  50  74 104 132 163 202 242 286
#     4  10  20  34  51  72  98 130 165 202 243 291
#     4   9  18  34  53  74  99 129 164 202 242 289
#     4   9  19  34  52  74 100 128 162 202 245 290
#     4   9  19  34  52  74 100 128 162 202 245 290
#     4  10  20  34  51  72  98 130 165 202 243 291
#
# _framework density 18.191739999999999
#
# number of rings (size 3 to 8) (size 9 to 14) (size 15 to 20)
#    0.000    2.571    0.000    2.143    0.000    5.143 
#    0.000    2.857    0.000    0.000    0.000    0.000 
#    0.000    0.000    0.000    0.000    0.000    0.000 
#
# Total GULP energy -347197.524468 kJ/mol
# GULP energy per Si atom -12399.911588 kJ/mol
# Density = 1.815033 g / cm^3
# Si number density = 18.191740 Si / 1000 Ang^3
#
#
#
# Elastic Constant Matrix: (Units=GPa)
#
#
# Indices 1 2 3 4 5 6 
#
# 1 83.0759 70.6426 43.1208 0.0000 21.5229 0.0000
# 2 70.6426 149.1184 78.2612 0.0000 25.4625 0.0000
# 3 43.1208 78.2612 95.9863 0.0000 21.6250 0.0000
# 4 0.0000 0.0000 0.0000 36.1488 0.0000 1.4767
# 5 21.5229 25.4625 21.6250 0.0000 23.5401 0.0000
# 6 0.0000 0.0000 0.0000 1.4767 0.0000 35.7069
#
#
#
# Elastic Compliance Matrix: (Units=1/GPa)
#
#
# Indices 1 2 3 4 5 6 
#
# 1 0.022286 -0.008295 -0.000856 0.000000 -0.010617 0.000000
# 2 -0.008295 0.015279 -0.008469 0.000000 -0.001162 0.000000
# 3 -0.000856 -0.008469 0.019505 0.000000 -0.007974 0.000000
# 4 0.000000 0.000000 0.000000 0.027710 0.000000 -0.001146
# 5 -0.010617 -0.001162 -0.007974 0.000000 0.060770 0.000000
# 6 0.000000 0.000000 0.000000 -0.001146 0.000000 0.028053
#
#
# Mechanical properties :
#
#
# Convention : Reuss Voigt Hill
#
# Bulk Modulus (GPa) = 45.81268 79.13666 62.47467
# Shear Modulus (GPa) = 23.13507 28.15621 25.64564
#
# Velocity S-wave (km/s) = 3.57001 3.93841 3.75872
# Velocity P-wave (km/s) = 6.49855 8.01731 7.29755
#
# Compressibility (1/GPa) = 0.02182802
#
# Stress axis : x y z
#
# Youngs Moduli (GPa) = 44.87082 65.44805 51.26978
#
# Poissons Ratio (x) = 0.54292 0.04390
# Poissons Ratio (y) = 0.37222 0.43422
# Poissons Ratio (z) = 0.03842 0.55430
#
# Static dielectric constant tensor:
#      x y z
#    x 3.479760 0.000000 0.217860 
#    y 0.000000 3.381610 0.000000 
#    z 0.217860 0.000000 3.544950 
# 
# 
# High freq. dielectric constant tensor:
#      x y z
#    x 1.708030 0.000000 0.007190 
#    y 0.000000 1.701020 0.000000 
#    z 0.007190 0.000000 1.710180 
# 
# From -- ./inp_files/24886.got.cif
#   From: 2010.06.25/outbox.cif.g09.slc.cpg/sg13_13_cif.got.tgz:24886.got - 2010.06.28 04:50:58.
