data_PCOD8118923
_publ_section_title
;
Structure prediction by ZEFSAII (Michael W. Deem and Ramdas Pophale) SiO2 
 PCOD8118923
Probable space group: P 2/C
;
_chemical_formula_sum "Si O2"
_cell_formula_units_Z 30
_cell_length_a 11.571290
_cell_length_b 15.821477
_cell_length_c 8.361610
_cell_angle_alpha 90.000000
_cell_angle_beta 93.130357
_cell_angle_gamma 90.000000
_cell_volume 1528.516761
_symmetry_space_group_name_H-M "P 2/C"
_symmetry_group_IT_number 13
_symmetry_cell_setting 'monoclinic'
loop_
_space_group_symop_operation_xyz
x,y,z
-x,y,1/2-z
-x,-y,-z
x,-y,1/2+z
loop_
_atom_site_type_symbol
_atom_site_label
_atom_site_fract_x
_atom_site_fract_y
_atom_site_fract_z
Si Si1 0.303627 0.402275 0.060490
Si Si2 0.875470 0.096225 0.303494
Si Si3 0.741458 0.993982 0.050723
Si Si4 0.868893 0.711105 0.769653
Si Si5 0.629675 0.108241 0.805952
Si Si6 0.323649 0.267078 0.491680
Si Si7 0.500000 0.302096 0.250000
Si Si8 0.632069 0.573972 0.289681
O O1 0.189797 0.352483 0.109601
O O2 0.419679 0.359732 0.133983
O O3 0.297714 0.497644 0.124461
O O4 0.304104 0.400964 0.869034
O O5 0.782145 0.073114 0.160267
O O6 0.867830 0.195014 0.344491
O O7 0.000000 0.069158 0.250000
O O8 0.849566 0.041345 0.458509
O O9 0.695608 0.914947 0.148387
O O10 0.639219 0.029136 0.928594
O O11 0.800406 0.712498 0.596140
O O12 0.000000 0.680485 0.750000
O O13 0.500000 0.130060 0.750000
O O14 0.689659 0.190056 0.886876
O O15 0.418759 0.245242 0.360065
O O16 0.367604 0.348549 0.588807
O O17 0.500000 0.545939 0.250000
#
# Coordination Sequence:
#
# PCOD8118923 Si02
#       8
#     4   4   4   4   4   4   2   4
#     4  11  22  38  63  93 123 162 197 250 304 364
#     4  10  20  39  64  87 116 154 209 259 302 343
#     4  10  22  39  60  88 120 159 201 251 307 364
#     4  10  23  43  63  86 126 165 205 251 305 359
#     4  11  23  39  57  89 127 163 198 243 307 372
#     4  11  23  39  62  92 123 159 209 252 300 368
#     4  10  20  36  58  90 122 160 196 248 310 350
#     4  12  22  39  64  98 128 154 202 253 307 355
#
# _framework density 19.626868999999999
#
# number of rings (size 3 to 8) (size 9 to 14) (size 15 to 20)
#    0.000    1.333    3.333    3.200    1.867    1.067 
#    1.200    3.333    0.000    0.000    0.000    0.000 
#    0.000    0.000    0.000    0.000    0.000    0.000 
#
# Total GULP energy -372080.322533 kJ/mol
# GULP energy per Si atom -12402.677418 kJ/mol
# Density = 1.958220 g / cm^3
# Si number density = 19.626869 Si / 1000 Ang^3
#
#
#
# Elastic Constant Matrix: (Units=GPa)
#
#
# Indices 1 2 3 4 5 6 
#
# 1 116.4144 30.7665 46.1370 0.0000 -10.9646 0.0000
# 2 30.7665 85.6073 32.0999 0.0000 -16.8952 0.0000
# 3 46.1370 32.0999 99.7107 0.0000 -12.4372 0.0000
# 4 0.0000 0.0000 0.0000 31.0115 0.0000 -1.5786
# 5 -10.9646 -16.8952 -12.4372 0.0000 25.8720 0.0000
# 6 0.0000 0.0000 0.0000 -1.5786 0.0000 22.4983
#
#
#
# Elastic Compliance Matrix: (Units=1/GPa)
#
#
# Indices 1 2 3 4 5 6 
#
# 1 0.010938 -0.002102 -0.004231 0.000000 0.001229 0.000000
# 2 -0.002102 0.015015 -0.002925 0.000000 0.007509 0.000000
# 3 -0.004231 -0.002925 0.013262 0.000000 0.002672 0.000000
# 4 0.000000 0.000000 0.000000 0.032362 0.000000 0.002271
# 5 0.001229 0.007509 0.002672 0.000000 0.045361 0.000000
# 6 0.000000 0.000000 0.000000 0.002271 0.000000 0.044607
#
#
# Mechanical properties :
#
#
# Convention : Reuss Voigt Hill
#
# Bulk Modulus (GPa) = 48.31074 57.74879 53.02976
# Shear Modulus (GPa) = 26.74371 28.72496 27.73434
#
# Velocity S-wave (km/s) = 3.69536 3.82979 3.76317
# Velocity P-wave (km/s) = 6.54794 7.00311 6.77935
#
# Compressibility (1/GPa) = 0.02069933
#
# Stress axis : x y z
#
# Youngs Moduli (GPa) = 91.42300 66.59914 75.40532
#
# Poissons Ratio (x) = 0.13999 0.31906
# Poissons Ratio (y) = 0.19217 0.22054
# Poissons Ratio (z) = 0.38683 0.19478
#
# Static dielectric constant tensor:
#      x y z
#    x 3.467040 0.000000 -0.018780 
#    y 0.000000 3.497340 0.000000 
#    z -0.018780 0.000000 3.728440 
# 
# 
# High freq. dielectric constant tensor:
#      x y z
#    x 1.749350 0.000000 -0.001280 
#    y 0.000000 1.765170 0.000000 
#    z -0.001280 0.000000 1.774790 
# 
# From -- ./inp_files/16513.got.cif
#   From: 2010.06.25/outbox.cif.g09.slc.cpg/sg13_9_cif.got.tgz:16513.got - 2010.06.28 04:50:58.
