data_PCOD8118649
_publ_section_title
;
Structure prediction by ZEFSAII (Michael W. Deem and Ramdas Pophale) SiO2 
 PCOD8118649
Probable space group: P 2/C
;
_chemical_formula_sum "Si O2"
_cell_formula_units_Z 32
_cell_length_a 19.167604
_cell_length_b 15.154846
_cell_length_c 12.135025
_cell_angle_alpha 90.000000
_cell_angle_beta 27.364870
_cell_angle_gamma 90.000000
_cell_volume 1620.288498
_symmetry_space_group_name_H-M "P 2/C"
_symmetry_group_IT_number 13
_symmetry_cell_setting 'monoclinic'
loop_
_space_group_symop_operation_xyz
x,y,z
-x,y,1/2-z
-x,-y,-z
x,-y,1/2+z
loop_
_atom_site_type_symbol
_atom_site_label
_atom_site_fract_x
_atom_site_fract_y
_atom_site_fract_z
Si Si1 0.823918 0.598765 0.227863
Si Si2 0.173462 0.148221 0.994039
Si Si3 0.180684 0.661645 0.491705
Si Si4 0.193532 0.252068 0.360320
Si Si5 0.814445 0.594761 0.782885
Si Si6 0.837286 0.234901 0.849000
Si Si7 0.674440 0.889726 0.992355
Si Si8 0.159414 0.053778 0.790759
O O1 0.756566 0.506260 0.365425
O O2 0.765416 0.684650 0.377998
O O3 0.764965 0.600240 0.184522
O O4 0.005013 0.597896 0.977200
O O5 0.249876 0.242662 0.863211
O O6 0.239075 0.111036 0.013859
O O7 0.000000 0.172338 0.250000
O O8 0.187526 0.079128 0.877178
O O9 0.248771 0.634144 0.513968
O O10 0.000000 0.658436 0.750000
O O11 0.250124 0.345521 0.228081
O O12 0.245604 0.237854 0.414506
O O13 0.251750 0.173246 0.202168
O O14 0.013561 0.252681 0.613306
O O15 0.821596 0.138783 0.814618
O O16 0.696575 0.990828 0.927523
O O17 0.500000 0.864703 0.250000
O O18 0.000000 0.000000 0.000000
#
# Coordination Sequence:
#
# PCOD8118649 Si02
#       8
#     4   4   4   4   4   4   4   4
#     4   9  17  28  46  84 119 150 192 245 305 348
#     4  11  20  38  64  85 116 159 203 250 298 358
#     4   9  16  28  50  77 115 153 196 238 289 358
#     4  10  20  36  55  82 122 158 194 243 310 362
#     4   9  17  28  48  79 121 158 188 235 303 369
#     4  10  20  34  56  86 119 153 197 253 303 361
#     4  12  27  42  60  90 123 159 207 257 306 365
#     4  12  23  38  63  88 115 159 210 251 305 367
#
# _framework density 19.749569000000001
#
# number of rings (size 3 to 8) (size 9 to 14) (size 15 to 20)
#    0.000    1.750    5.000    0.000    3.500    0.500 
#    0.000    0.000    0.000    0.000    0.000    4.375 
#    0.000    0.000    0.000    0.000    0.000    0.000 
#
# Total GULP energy -396417.626768 kJ/mol
# GULP energy per Si atom -12388.050836 kJ/mol
# Density = 1.970462 g / cm^3
# Si number density = 19.749569 Si / 1000 Ang^3
#
#
#
# Elastic Constant Matrix: (Units=GPa)
#
#
# Indices 1 2 3 4 5 6 
#
# 1 127.3006 70.9507 49.0087 0.0000 49.3332 0.0000
# 2 70.9507 166.3032 26.2393 0.0000 28.3555 0.0000
# 3 49.0087 26.2393 35.7450 0.0000 16.2002 0.0000
# 4 0.0000 0.0000 0.0000 9.8926 0.0000 13.8420
# 5 49.3332 28.3555 16.2002 0.0000 28.6083 0.0000
# 6 0.0000 0.0000 0.0000 13.8420 0.0000 35.9973
#
#
#
# Elastic Compliance Matrix: (Units=1/GPa)
#
#
# Indices 1 2 3 4 5 6 
#
# 1 0.041559 -0.004326 -0.031301 0.000000 -0.049654 0.000000
# 2 -0.004326 0.007896 0.000405 0.000000 -0.000596 0.000000
# 3 -0.031301 0.000405 0.062304 0.000000 0.018295 0.000000
# 4 0.000000 0.000000 0.000000 0.218821 0.000000 -0.084143
# 5 -0.049654 -0.000596 0.018295 0.000000 0.110810 0.000000
# 6 0.000000 0.000000 0.000000 -0.084143 0.000000 0.060135
#
#
# Mechanical properties :
#
#
# Convention : Reuss Voigt Hill
#
# Bulk Modulus (GPa) = 24.20474 69.08292 46.64383
# Shear Modulus (GPa) = 8.53617 27.10965 17.82291
#
# Velocity S-wave (km/s) = 2.08125 3.70898 3.00733
# Velocity P-wave (km/s) = 4.24946 7.30735 5.97726
#
# Compressibility (1/GPa) = 0.04131422
#
# Stress axis : x y z
#
# Youngs Moduli (GPa) = 24.06197 126.63893 16.05042
#
# Poissons Ratio (x) = 0.54781 0.50240
# Poissons Ratio (y) = 0.10409 -0.00649
# Poissons Ratio (z) = 0.75318 -0.05124
#
# Static dielectric constant tensor:
#      x y z
#    x 3.765500 0.000000 0.445140 
#    y 0.000000 3.940990 0.000000 
#    z 0.445140 0.000000 3.176940 
# 
# 
# High freq. dielectric constant tensor:
#      x y z
#    x 1.769100 0.000000 0.039300 
#    y 0.000000 1.789110 0.000000 
#    z 0.039300 0.000000 1.710250 
# 
# From -- ./inp_files/39465.got.cif
#   From: 2010.06.25/outbox.cif.g09.slc.cpg/sg13_20_cif.got.tgz:39465.got - 2010.06.28 04:50:58.
