data_PCOD8118115
_publ_section_title
;
Structure prediction by ZEFSAII (Michael W. Deem and Ramdas Pophale) SiO2 
 PCOD8118115
Probable space group: P 2/C
;
_chemical_formula_sum "Si O2"
_cell_formula_units_Z 24
_cell_length_a 15.997399
_cell_length_b 14.818196
_cell_length_c 9.189417
_cell_angle_alpha 90.000000
_cell_angle_beta 146.648704
_cell_angle_gamma 90.000000
_cell_volume 1197.607222
_symmetry_space_group_name_H-M "P 2/C"
_symmetry_group_IT_number 13
_symmetry_cell_setting 'monoclinic'
loop_
_space_group_symop_operation_xyz
x,y,z
-x,y,1/2-z
-x,-y,-z
x,-y,1/2+z
loop_
_atom_site_type_symbol
_atom_site_label
_atom_site_fract_x
_atom_site_fract_y
_atom_site_fract_z
Si Si1 0.170266 0.439963 0.976487
Si Si2 0.671392 0.914410 0.314072
Si Si3 0.651166 0.236754 0.553096
Si Si4 0.653566 0.441841 0.549398
Si Si5 0.680100 0.081643 0.148759
Si Si6 0.167621 0.235046 0.963794
O O1 0.206795 0.445529 0.859487
O O2 0.180134 0.336545 0.044394
O O3 0.000000 0.478916 0.750000
O O4 0.299472 0.495928 0.247996
O O5 0.688502 0.821384 0.250092
O O6 0.750879 0.910847 0.588735
O O7 0.749355 0.994787 0.333912
O O8 0.498780 0.934328 0.105258
O O9 0.624735 0.339989 0.564862
O O10 0.794285 0.230669 0.652155
O O11 0.500000 0.200618 0.250000
O O12 0.500000 0.478373 0.250000
O O13 0.712480 0.175029 0.276062
O O14 0.000000 0.196260 0.750000
#
# Coordination Sequence:
#
# PCOD8118115 Si02
#       6
#     4   4   4   4   4   4
#     4  10  21  38  58  81 114 156 191 228 287 349
#     4  10  20  34  59  84 110 142 187 231 274 330
#     4  10  19  36  58  80 112 149 189 231 280 329
#     4  10  21  36  57  84 114 148 191 243 285 326
#     4  10  20  35  56  86 111 143 185 230 276 331
#     4  10  21  38  57  81 115 150 184 229 283 335
#
# _framework density 20.039960000000001
#
# number of rings (size 3 to 8) (size 9 to 14) (size 15 to 20)
#    0.000    2.000    1.667    2.000    2.333    1.333 
#    3.000    4.167    0.000    0.000    0.000    0.000 
#    0.000    0.000    0.000    0.000    0.000    0.000 
#
# Total GULP energy -297572.978795 kJ/mol
# GULP energy per Si atom -12398.874116 kJ/mol
# Density = 1.999435 g / cm^3
# Si number density = 20.039960 Si / 1000 Ang^3
#
#
#
# Elastic Constant Matrix: (Units=GPa)
#
#
# Indices 1 2 3 4 5 6 
#
# 1 95.4723 30.2711 25.2011 0.0000 -13.4397 0.0000
# 2 30.2711 95.6209 37.8198 0.0000 -25.2185 0.0000
# 3 25.2011 37.8198 51.4063 0.0000 -14.9193 0.0000
# 4 0.0000 0.0000 0.0000 14.5954 0.0000 -1.8353
# 5 -13.4397 -25.2185 -14.9193 0.0000 39.8244 0.0000
# 6 0.0000 0.0000 0.0000 -1.8353 0.0000 27.1314
#
#
#
# Elastic Compliance Matrix: (Units=1/GPa)
#
#
# Indices 1 2 3 4 5 6 
#
# 1 0.012395 -0.001851 -0.004309 0.000000 0.001396 0.000000
# 2 -0.001851 0.016384 -0.009331 0.000000 0.006255 0.000000
# 3 -0.004309 -0.009331 0.029501 0.000000 0.003689 0.000000
# 4 0.000000 0.000000 0.000000 0.069102 0.000000 0.004674
# 5 0.001396 0.006255 0.003689 0.000000 0.030924 0.000000
# 6 0.000000 0.000000 0.000000 0.004674 0.000000 0.037174
#
#
# Mechanical properties :
#
#
# Convention : Reuss Voigt Hill
#
# Bulk Modulus (GPa) = 36.63409 47.67595 42.15502
# Shear Modulus (GPa) = 21.22571 26.25739 23.74155
#
# Velocity S-wave (km/s) = 3.25802 3.62367 3.44570
# Velocity P-wave (km/s) = 5.69852 6.43040 6.07549
#
# Compressibility (1/GPa) = 0.02729698
#
# Stress axis : x y z
#
# Youngs Moduli (GPa) = 80.67567 61.03418 33.89724
#
# Poissons Ratio (x) = 0.11300 0.14607
# Poissons Ratio (y) = 0.14936 0.31630
# Poissons Ratio (z) = 0.34766 0.56952
#
# Static dielectric constant tensor:
#      x y z
#    x 3.818080 0.000000 -0.048500 
#    y 0.000000 3.595820 0.000000 
#    z -0.048500 0.000000 3.341950 
# 
# 
# High freq. dielectric constant tensor:
#      x y z
#    x 1.790520 0.000000 -0.004340 
#    y 0.000000 1.782140 0.000000 
#    z -0.004340 0.000000 1.747230 
# 
# From -- ./inp_files/19749.got.cif
#   From: 2010.06.25/outbox.cif.g09.slc.cpg/sg13_10_cif.got.tgz:19749.got - 2010.06.28 04:50:58.
