data_PCOD8118855
_publ_section_title
;
Structure prediction by ZEFSAII (Michael W. Deem and Ramdas Pophale) SiO2 
 PCOD8118855
Probable space group: P 2/C
;
_chemical_formula_sum "Si O2"
_cell_formula_units_Z 28
_cell_length_a 7.655008
_cell_length_b 6.491187
_cell_length_c 29.470672
_cell_angle_alpha 90.000000
_cell_angle_beta 63.819192
_cell_angle_gamma 90.000000
_cell_volume 1314.161917
_symmetry_space_group_name_H-M "P 2/C"
_symmetry_group_IT_number 13
_symmetry_cell_setting 'monoclinic'
loop_
_space_group_symop_operation_xyz
x,y,z
-x,y,1/2-z
-x,-y,-z
x,-y,1/2+z
loop_
_atom_site_type_symbol
_atom_site_label
_atom_site_fract_x
_atom_site_fract_y
_atom_site_fract_z
Si Si1 0.225066 0.311212 0.801843
Si Si2 0.978005 0.383326 0.121160
Si Si3 0.604927 0.249612 0.114959
Si Si4 0.633309 0.867191 0.374045
Si Si5 0.406976 0.503573 0.059545
Si Si6 0.398494 0.444479 0.698034
Si Si7 0.011804 0.914810 0.801625
O O1 0.073977 0.382342 0.858221
O O2 0.240341 0.467754 0.756347
O O3 0.431493 0.297199 0.802798
O O4 0.172200 0.090595 0.787955
O O5 0.834841 0.288069 0.098948
O O6 0.927349 0.275691 0.174718
O O7 0.200577 0.382793 0.079576
O O8 0.550313 0.380842 0.076776
O O9 0.476729 0.333095 0.172474
O O10 0.561026 0.005904 0.112856
O O11 0.612839 0.745472 0.424100
O O12 0.687801 0.680981 0.333985
O O13 0.810389 0.023710 0.349310
O O14 0.500000 0.500000 0.000000
O O15 0.000000 0.852316 0.750000
#
# Coordination Sequence:
#
# PCOD8118855 Si02
#       7
#     4   4   4   4   4   4   4
#     4  10  20  36  55  87 123 170 204 250 298 373
#     4  11  24  42  63  90 130 165 213 261 321 388
#     4  10  23  43  63  92 127 165 207 267 325 384
#     4  11  21  40  61  89 130 160 207 265 314 380
#     4  11  25  45  69  92 119 164 220 279 333 383
#     4   9  20  35  58  85 126 166 209 242 305 374
#     4  12  23  34  61  95 127 169 207 248 309 381
#
# _framework density 21.306353999999999
#
# number of rings (size 3 to 8) (size 9 to 14) (size 15 to 20)
#    0.000    1.429    4.286    0.857    2.000    1.714 
#    0.000    0.714    0.000    0.000    0.000    0.000 
#    0.000    0.000    0.000    0.000    0.000    0.000 
#
# Total GULP energy -346966.119557 kJ/mol
# GULP energy per Si atom -12391.647127 kJ/mol
# Density = 2.125786 g / cm^3
# Si number density = 21.306354 Si / 1000 Ang^3
#
#
#
# Elastic Constant Matrix: (Units=GPa)
#
#
# Indices 1 2 3 4 5 6 
#
# 1 106.9327 31.8527 44.4573 0.0000 1.4030 0.0000
# 2 31.8527 67.3368 27.5848 0.0000 0.7580 0.0000
# 3 44.4573 27.5848 128.9254 0.0000 -2.3414 0.0000
# 4 0.0000 0.0000 0.0000 26.1888 0.0000 7.2156
# 5 1.4030 0.7580 -2.3414 0.0000 20.0591 0.0000
# 6 0.0000 0.0000 0.0000 7.2156 0.0000 31.9955
#
#
#
# Elastic Compliance Matrix: (Units=1/GPa)
#
#
# Indices 1 2 3 4 5 6 
#
# 1 0.012001 -0.004343 -0.003228 0.000000 -0.001052 0.000000
# 2 -0.004343 0.017870 -0.002338 0.000000 -0.000644 0.000000
# 3 -0.003228 -0.002338 0.009395 0.000000 0.001411 0.000000
# 4 0.000000 0.000000 0.000000 0.040714 0.000000 -0.009182
# 5 -0.001052 -0.000644 0.001411 0.000000 0.050115 0.000000
# 6 0.000000 0.000000 0.000000 -0.009182 0.000000 0.033325
#
#
# Mechanical properties :
#
#
# Convention : Reuss Voigt Hill
#
# Bulk Modulus (GPa) = 51.41594 56.77605 54.09600
# Shear Modulus (GPa) = 26.35445 28.93536 27.64490
#
# Velocity S-wave (km/s) = 3.52082 3.68919 3.60598
# Velocity P-wave (km/s) = 6.38062 6.69717 6.54081
#
# Compressibility (1/GPa) = 0.01944922
#
# Stress axis : x y z
#
# Youngs Moduli (GPa) = 83.32473 55.96018 106.43479
#
# Poissons Ratio (x) = 0.24302 0.34361
# Poissons Ratio (y) = 0.36185 0.24881
# Poissons Ratio (z) = 0.26900 0.13081
#
# Static dielectric constant tensor:
#      x y z
#    x 3.945780 0.000000 0.118600 
#    y 0.000000 3.778000 0.000000 
#    z 0.118600 0.000000 3.590650 
# 
# 
# High freq. dielectric constant tensor:
#      x y z
#    x 1.841800 0.000000 0.005730 
#    y 0.000000 1.833380 0.000000 
#    z 0.005730 0.000000 1.806870 
# 
# From -- ./inp_files/95589.got.cif
#   From: 2010.06.25/outbox.cif.g09.slc.cpg/sg13_48_cif.got.tgz:95589.got - 2010.06.28 04:50:58.
