data_PCOD8118233
_publ_section_title
;
Structure prediction by ZEFSAII (Michael W. Deem and Ramdas Pophale) SiO2 
 PCOD8118233
Probable space group: P 2/C
;
_chemical_formula_sum "Si O2"
_cell_formula_units_Z 16
_cell_length_a 12.825364
_cell_length_b 7.669789
_cell_length_c 16.081349
_cell_angle_alpha 90.000000
_cell_angle_beta 28.638310
_cell_angle_gamma 90.000000
_cell_volume 758.165144
_symmetry_space_group_name_H-M "P 2/C"
_symmetry_group_IT_number 13
_symmetry_cell_setting 'monoclinic'
loop_
_space_group_symop_operation_xyz
x,y,z
-x,y,1/2-z
-x,-y,-z
x,-y,1/2+z
loop_
_atom_site_type_symbol
_atom_site_label
_atom_site_fract_x
_atom_site_fract_y
_atom_site_fract_z
Si Si1 0.624819 0.298171 0.083164
Si Si2 0.784738 0.169857 0.227233
Si Si3 0.252169 0.502784 0.650549
Si Si4 0.977156 0.814338 0.107012
O O1 0.500000 0.382852 0.250000
O O2 0.458345 0.197726 0.139002
O O3 0.198065 0.160115 0.506553
O O4 0.760290 0.449658 0.938697
O O5 0.836594 0.303697 0.266492
O O6 0.811635 0.973045 0.242457
O O7 0.967317 0.197631 0.029123
O O8 0.500000 0.500000 0.500000
O O9 0.133296 0.366267 0.792843
#
# Coordination Sequence:
#
# PCOD8118233 Si02
#       4
#     4   4   4   4
#     4   9  19  36  56  81 114 150 189 234 279 330
#     4   9  20  37  60  84 111 149 189 230 284 339
#     4  10  20  35  56  81 111 148 188 231 280 335
#     4  10  19  37  60  84 115 147 185 236 283 332
#
# _framework density 21.103581999999999
#
# number of rings (size 3 to 8) (size 9 to 14) (size 15 to 20)
#    0.000    2.500    0.000    1.500    0.000    4.000 
#    0.000   12.500    0.000   24.000    0.000    0.000 
#    0.000    0.000    0.000    0.000    0.000    0.000 
#
# Total GULP energy -198291.164237 kJ/mol
# GULP energy per Si atom -12393.197765 kJ/mol
# Density = 2.105555 g / cm^3
# Si number density = 21.103582 Si / 1000 Ang^3
#
#
#
# Elastic Constant Matrix: (Units=GPa)
#
#
# Indices 1 2 3 4 5 6 
#
# 1 75.2244 39.2659 23.7696 0.0000 9.4257 0.0000
# 2 39.2659 107.6626 30.4323 0.0000 -2.8680 0.0000
# 3 23.7696 30.4323 73.1341 0.0000 4.3046 0.0000
# 4 0.0000 0.0000 0.0000 34.3663 0.0000 -2.3371
# 5 9.4257 -2.8680 4.3046 0.0000 26.7032 0.0000
# 6 0.0000 0.0000 0.0000 -2.3371 0.0000 26.3943
#
#
#
# Elastic Compliance Matrix: (Units=1/GPa)
#
#
# Indices 1 2 3 4 5 6 
#
# 1 0.018183 -0.005944 -0.003050 0.000000 -0.006565 0.000000
# 2 -0.005944 0.012561 -0.003531 0.000000 0.004017 0.000000
# 3 -0.003050 -0.003531 0.016247 0.000000 -0.001922 0.000000
# 4 0.000000 0.000000 0.000000 0.029275 0.000000 0.002592
# 5 -0.006565 0.004017 -0.001922 0.000000 0.040507 0.000000
# 6 0.000000 0.000000 0.000000 0.002592 0.000000 0.038116
#
#
# Mechanical properties :
#
#
# Convention : Reuss Voigt Hill
#
# Bulk Modulus (GPa) = 45.57778 49.21742 47.39760
# Shear Modulus (GPa) = 26.70172 28.32966 27.51569
#
# Velocity S-wave (km/s) = 3.56092 3.66787 3.61479
# Velocity P-wave (km/s) = 6.20894 6.42729 6.31906
#
# Compressibility (1/GPa) = 0.02194051
#
# Stress axis : x y z
#
# Youngs Moduli (GPa) = 54.99765 79.60875 61.54855
#
# Poissons Ratio (x) = 0.47322 0.18770
# Poissons Ratio (y) = 0.32692 0.21736
# Poissons Ratio (z) = 0.16773 0.28114
#
# Static dielectric constant tensor:
#      x y z
#    x 4.113250 0.000000 0.156010 
#    y 0.000000 3.891480 0.000000 
#    z 0.156010 0.000000 3.511620 
# 
# 
# High freq. dielectric constant tensor:
#      x y z
#    x 1.820700 0.000000 -0.002940 
#    y 0.000000 1.799120 0.000000 
#    z -0.002940 0.000000 1.848380 
# 
# From -- ./inp_files/69251.got.cif
#   From: 2010.06.25/outbox.cif.g09.slc.cpg/sg13_35_cif.got.tgz:69251.got - 2010.06.28 04:50:58.
