data_PCOD8118676
_publ_section_title
;
Structure prediction by ZEFSAII (Michael W. Deem and Ramdas Pophale) SiO2 
 PCOD8118676
Probable space group: P 2/C
;
_chemical_formula_sum "Si O2"
_cell_formula_units_Z 28
_cell_length_a 11.226774
_cell_length_b 8.809494
_cell_length_c 15.013867
_cell_angle_alpha 90.000000
_cell_angle_beta 68.107341
_cell_angle_gamma 90.000000
_cell_volume 1377.819133
_symmetry_space_group_name_H-M "P 2/C"
_symmetry_group_IT_number 13
_symmetry_cell_setting 'monoclinic'
loop_
_space_group_symop_operation_xyz
x,y,z
-x,y,1/2-z
-x,-y,-z
x,-y,1/2+z
loop_
_atom_site_type_symbol
_atom_site_label
_atom_site_fract_x
_atom_site_fract_y
_atom_site_fract_z
Si Si1 0.758201 0.391814 0.033745
Si Si2 0.146595 0.639661 0.688460
Si Si3 0.289058 0.664776 0.147498
Si Si4 0.815095 0.182896 0.156594
Si Si5 0.071792 0.341046 0.017890
Si Si6 0.766695 0.168780 0.664621
Si Si7 0.557724 0.366332 0.644543
O O1 0.713883 0.277370 0.124777
O O2 0.656462 0.528015 0.064264
O O3 0.753975 0.300980 0.941622
O O4 0.903646 0.471959 0.003255
O O5 0.238287 0.500787 0.690266
O O6 0.190874 0.782080 0.736778
O O7 0.161999 0.685493 0.580922
O O8 0.000000 0.591597 0.750000
O O9 0.229296 0.787989 0.231854
O O10 0.443615 0.673395 0.108607
O O11 0.941276 0.255833 0.077620
O O12 0.796101 0.007288 0.145146
O O13 0.122325 0.260066 0.915820
O O14 0.630164 0.213227 0.658500
O O15 0.500000 0.445479 0.750000
#
# Coordination Sequence:
#
# PCOD8118676 Si02
#       7
#     4   4   4   4   4   4   4
#     4  10  20  34  59  84 103 141 192 234 274 324
#     4   9  19  35  57  81 104 136 185 234 276 323
#     4  10  20  37  56  78 108 145 186 231 274 322
#     4  11  20  34  53  81 113 142 177 225 280 337
#     4   9  19  36  55  77 108 143 181 230 277 326
#     4  10  21  34  52  78 112 149 178 219 280 340
#     4   9  18  36  56  77 108 146 187 231 274 320
#
# _framework density 20.32197
#
# number of rings (size 3 to 8) (size 9 to 14) (size 15 to 20)
#    0.000    2.286    0.000    3.857    0.000    3.429 
#    0.000   10.714    0.000    0.000    0.000    0.000 
#    0.000    0.000    0.000    0.000    0.000    0.000 
#
# Total GULP energy -346901.842157 kJ/mol
# GULP energy per Si atom -12389.351506 kJ/mol
# Density = 2.027572 g / cm^3
# Si number density = 20.321970 Si / 1000 Ang^3
#
#
#
# Elastic Constant Matrix: (Units=GPa)
#
#
# Indices 1 2 3 4 5 6 
#
# 1 61.3398 36.0899 12.7630 0.0000 4.5142 0.0000
# 2 36.0899 132.0764 46.0209 0.0000 12.9541 0.0000
# 3 12.7630 46.0209 95.3273 0.0000 8.6664 0.0000
# 4 0.0000 0.0000 0.0000 22.3447 0.0000 4.6529
# 5 4.5142 12.9541 8.6664 0.0000 26.6990 0.0000
# 6 0.0000 0.0000 0.0000 4.6529 0.0000 15.6275
#
#
#
# Elastic Compliance Matrix: (Units=1/GPa)
#
#
# Indices 1 2 3 4 5 6 
#
# 1 0.019440 -0.005237 -0.000007 0.000000 -0.000744 0.000000
# 2 -0.005237 0.010766 -0.004227 0.000000 -0.002966 0.000000
# 3 -0.000007 -0.004227 0.012720 0.000000 -0.002077 0.000000
# 4 0.000000 0.000000 0.000000 0.047711 0.000000 -0.014205
# 5 -0.000744 -0.002966 -0.002077 0.000000 0.039694 0.000000
# 6 0.000000 0.000000 0.000000 -0.014205 0.000000 0.068219
#
#
# Mechanical properties :
#
#
# Convention : Reuss Voigt Hill
#
# Bulk Modulus (GPa) = 41.69160 53.16568 47.42864
# Shear Modulus (GPa) = 22.17430 25.85887 24.01658
#
# Velocity S-wave (km/s) = 3.30684 3.57102 3.44147
# Velocity P-wave (km/s) = 5.92793 6.57430 6.25946
#
# Compressibility (1/GPa) = 0.02398564
#
# Stress axis : x y z
#
# Youngs Moduli (GPa) = 51.44082 92.88560 78.61351
#
# Poissons Ratio (x) = 0.48640 0.00056
# Poissons Ratio (y) = 0.26937 0.33227
# Poissons Ratio (z) = 0.00036 0.39260
#
# Static dielectric constant tensor:
#      x y z
#    x 3.881730 0.000000 0.143620 
#    y 0.000000 3.349160 0.000000 
#    z 0.143620 0.000000 3.942870 
# 
# 
# High freq. dielectric constant tensor:
#      x y z
#    x 1.797470 0.000000 0.008750 
#    y 0.000000 1.760710 0.000000 
#    z 0.008750 0.000000 1.811430 
# 
# From -- ./inp_files/49983.got.cif
#   From: 2010.06.25/outbox.cif.g09.slc.cpg/sg13_25_cif.got.tgz:49983.got - 2010.06.28 04:50:58.
