data_PCOD8118555
_publ_section_title
;
Structure prediction by ZEFSAII (Michael W. Deem and Ramdas Pophale) SiO2 
 PCOD8118555
Probable space group: P 2/C
;
_chemical_formula_sum "Si O2"
_cell_formula_units_Z 32
_cell_length_a 13.012664
_cell_length_b 24.474516
_cell_length_c 5.089671
_cell_angle_alpha 90.000000
_cell_angle_beta 98.224069
_cell_angle_gamma 90.000000
_cell_volume 1604.282069
_symmetry_space_group_name_H-M "P 2/C"
_symmetry_group_IT_number 13
_symmetry_cell_setting 'monoclinic'
loop_
_space_group_symop_operation_xyz
x,y,z
-x,y,1/2-z
-x,-y,-z
x,-y,1/2+z
loop_
_atom_site_type_symbol
_atom_site_label
_atom_site_fract_x
_atom_site_fract_y
_atom_site_fract_z
Si Si1 0.120927 0.291944 0.294509
Si Si2 0.120591 0.164743 0.284874
Si Si3 0.618773 0.965252 0.291621
Si Si4 0.122230 0.530174 0.283378
Si Si5 0.204213 0.351128 0.824297
Si Si6 0.243468 0.864683 0.338799
Si Si7 0.565351 0.336733 0.515982
Si Si8 0.565353 0.210844 0.514093
O O1 0.138108 0.228599 0.231750
O O2 0.175427 0.306759 0.590734
O O3 0.000000 0.306399 0.250000
O O4 0.172326 0.328522 0.093123
O O5 0.164187 0.152014 0.585835
O O6 0.000000 0.149140 0.250000
O O7 0.177697 0.128104 0.083497
O O8 0.500000 0.943417 0.250000
O O9 0.697137 0.918579 0.231931
O O10 0.638669 0.985037 0.596223
O O11 0.170895 0.507221 0.570382
O O12 0.145871 0.593157 0.238136
O O13 0.000000 0.522490 0.250000
O O14 0.325640 0.365870 0.890065
O O15 0.324413 0.816988 0.421007
O O16 0.500000 0.344579 0.750000
O O17 0.589255 0.273642 0.461657
O O18 0.500000 0.362501 0.250000
O O19 0.500000 0.201699 0.750000
O O20 0.500000 0.184750 0.250000
#
# Coordination Sequence:
#
# PCOD8118555 Si02
#       8
#     4   4   4   4   4   4   4   4
#     4  11  22  36  57  89 121 150 189 234 286 350
#     4  11  24  39  57  85 121 157 196 238 277 333
#     4  10  22  40  62  90 119 146 186 242 299 350
#     4  10  21  37  57  83 112 141 182 239 297 347
#     4  12  22  37  61  83 114 157 195 231 288 349
#     4  12  22  38  63  84 115 159 196 231 289 347
#     4  10  21  36  53  78 113 150 188 230 271 325
#     4  10  20  33  53  84 116 144 182 228 280 343
#
# _framework density 19.946615999999999
#
# number of rings (size 3 to 8) (size 9 to 14) (size 15 to 20)
#    0.000    1.250    0.000    7.125    0.000    6.500 
#    0.000    0.000    0.000    9.750    0.000    0.000 
#    0.000    0.000    0.000    0.000    0.000    0.000 
#
# Total GULP energy -396880.106382 kJ/mol
# GULP energy per Si atom -12402.503324 kJ/mol
# Density = 1.990122 g / cm^3
# Si number density = 19.946616 Si / 1000 Ang^3
#
#
#
# Elastic Constant Matrix: (Units=GPa)
#
#
# Indices 1 2 3 4 5 6 
#
# 1 77.0663 16.3291 38.4465 0.0000 0.3922 0.0000
# 2 16.3291 43.7745 15.8808 0.0000 -13.6917 0.0000
# 3 38.4465 15.8808 112.5471 0.0000 15.1154 0.0000
# 4 0.0000 0.0000 0.0000 33.6543 0.0000 -9.5309
# 5 0.3922 -13.6917 15.1154 0.0000 32.4012 0.0000
# 6 0.0000 0.0000 0.0000 -9.5309 0.0000 29.0907
#
#
#
# Elastic Compliance Matrix: (Units=1/GPa)
#
#
# Indices 1 2 3 4 5 6 
#
# 1 0.016379 -0.004142 -0.005066 0.000000 0.000415 0.000000
# 2 -0.004142 0.031088 -0.005060 0.000000 0.015547 0.000000
# 3 -0.005066 -0.005060 0.012385 0.000000 -0.007854 0.000000
# 4 0.000000 0.000000 0.000000 0.032753 0.000000 0.010731
# 5 0.000415 0.015547 -0.007854 0.000000 0.041092 0.000000
# 6 0.000000 0.000000 0.000000 0.010731 0.000000 0.037891
#
#
# Mechanical properties :
#
#
# Convention : Reuss Voigt Hill
#
# Bulk Modulus (GPa) = 31.93332 41.63341 36.78336
# Shear Modulus (GPa) = 23.74602 29.87800 26.81201
#
# Velocity S-wave (km/s) = 3.45407 3.87447 3.67029
# Velocity P-wave (km/s) = 5.65258 6.39789 6.03675
#
# Compressibility (1/GPa) = 0.03131525
#
# Stress axis : x y z
#
# Youngs Moduli (GPa) = 61.05443 32.16684 80.74503
#
# Poissons Ratio (x) = 0.13323 0.40908
# Poissons Ratio (y) = 0.25289 0.40855
# Poissons Ratio (z) = 0.30932 0.16276
#
# Static dielectric constant tensor:
#      x y z
#    x 3.597270 0.000000 0.001980 
#    y 0.000000 3.381580 0.000000 
#    z 0.001980 0.000000 3.911590 
# 
# 
# High freq. dielectric constant tensor:
#      x y z
#    x 1.780500 0.000000 -0.002700 
#    y 0.000000 1.751620 0.000000 
#    z -0.002700 0.000000 1.802600 
# 
# From -- ./inp_files/4371.got.cif
#   From: 2010.06.25/outbox.cif.g09.slc.cpg/sg13_3_cif.got.tgz:4371.got - 2010.06.28 04:50:58.
