data_PCOD8118384
_publ_section_title
;
Structure prediction by ZEFSAII (Michael W. Deem and Ramdas Pophale) SiO2 
 PCOD8118384
Probable space group: P 2/C
;
_chemical_formula_sum "Si O2"
_cell_formula_units_Z 30
_cell_length_a 9.581302
_cell_length_b 4.981956
_cell_length_c 31.003116
_cell_angle_alpha 90.000000
_cell_angle_beta 104.366819
_cell_angle_gamma 90.000000
_cell_volume 1433.610507
_symmetry_space_group_name_H-M "P 2/C"
_symmetry_group_IT_number 13
_symmetry_cell_setting 'monoclinic'
loop_
_space_group_symop_operation_xyz
x,y,z
-x,y,1/2-z
-x,-y,-z
x,-y,1/2+z
loop_
_atom_site_type_symbol
_atom_site_label
_atom_site_fract_x
_atom_site_fract_y
_atom_site_fract_z
Si Si1 0.956073 0.123320 0.662696
Si Si2 0.500000 0.765878 0.250000
Si Si3 0.018131 0.750110 0.531652
Si Si4 0.135418 0.379082 0.395398
Si Si5 0.256236 0.285765 0.669616
Si Si6 0.676599 0.930233 0.187054
Si Si7 0.721661 0.232273 0.386632
Si Si8 0.411265 0.574070 0.869680
O O1 0.918310 0.322114 0.620131
O O2 0.846306 0.153529 0.694961
O O3 0.121576 0.186129 0.688879
O O4 0.943257 0.823705 0.643528
O O5 0.605233 0.611436 0.291535
O O6 0.617432 0.931691 0.231360
O O7 0.173958 0.793132 0.564874
O O8 0.000000 0.500000 0.500000
O O9 0.896276 0.715557 0.558727
O O10 0.000000 0.000000 0.500000
O O11 0.309296 0.385100 0.403508
O O12 0.207581 0.545290 0.639200
O O13 0.301413 0.044752 0.640931
O O14 0.587819 0.728718 0.148888
O O15 0.654123 0.237037 0.172466
O O16 0.571524 0.338955 0.394284
#
# Coordination Sequence:
#
# PCOD8118384 Si02
#       8
#     4   2   4   4   4   4   4   4
#     4  10  19  39  59  86 115 167 204 239 296 365
#     4  12  24  38  58  98 126 158 204 268 290 342
#     4  12  24  39  63  97 121 150 200 256 304 356
#     4  10  20  38  65  85 120 155 201 245 295 367
#     4  12  23  37  63  87 125 164 205 243 305 352
#     4  10  22  35  60  86 123 155 206 254 293 343
#     4  12  22  42  62  90 120 167 197 242 305 379
#     4  10  20  40  61  87 114 167 202 234 301 369
#
# _framework density 20.926186000000001
#
# number of rings (size 3 to 8) (size 9 to 14) (size 15 to 20)
#    0.000    1.067    5.333    1.600    0.000    2.667 
#    0.000    1.333    0.000    6.400    0.000    0.000 
#    0.000    0.000    0.000    0.000    0.000    0.000 
#
# Total GULP energy -371759.015206 kJ/mol
# GULP energy per Si atom -12391.967174 kJ/mol
# Density = 2.087856 g / cm^3
# Si number density = 20.926186 Si / 1000 Ang^3
#
#
#
# Elastic Constant Matrix: (Units=GPa)
#
#
# Indices 1 2 3 4 5 6 
#
# 1 155.2705 4.9277 42.9814 0.0000 -2.3562 0.0000
# 2 4.9277 89.2993 15.9430 0.0000 3.5236 0.0000
# 3 42.9814 15.9430 84.4147 0.0000 4.9955 0.0000
# 4 0.0000 0.0000 0.0000 9.8214 0.0000 -0.4180
# 5 -2.3562 3.5236 4.9955 0.0000 45.0287 0.0000
# 6 0.0000 0.0000 0.0000 -0.4180 0.0000 29.5187
#
#
#
# Elastic Compliance Matrix: (Units=1/GPa)
#
#
# Indices 1 2 3 4 5 6 
#
# 1 0.007533 0.000254 -0.003932 0.000000 0.000810 0.000000
# 2 0.000254 0.011618 -0.002286 0.000000 -0.000642 0.000000
# 3 -0.003932 -0.002286 0.014376 0.000000 -0.001622 0.000000
# 4 0.000000 0.000000 0.000000 0.101880 0.000000 0.001443
# 5 0.000810 -0.000642 -0.001622 0.000000 0.022481 0.000000
# 6 0.000000 0.000000 0.000000 0.001443 0.000000 0.033897
#
#
# Mechanical properties :
#
#
# Convention : Reuss Voigt Hill
#
# Bulk Modulus (GPa) = 46.29514 50.74320 48.51917
# Shear Modulus (GPa) = 23.70674 34.54925 29.12800
#
# Velocity S-wave (km/s) = 3.36947 4.06767 3.73492
# Velocity P-wave (km/s) = 6.10810 6.80900 6.46805
#
# Compressibility (1/GPa) = 0.02160054
#
# Stress axis : x y z
#
# Youngs Moduli (GPa) = 132.75089 86.07577 69.56170
#
# Poissons Ratio (x) = -0.02188 0.27348
# Poissons Ratio (y) = -0.03375 0.15899
# Poissons Ratio (z) = 0.52191 0.19674
#
# Static dielectric constant tensor:
#      x y z
#    x 6.128970 0.000000 -1.600360 
#    y 0.000000 3.393800 0.000000 
#    z -1.600360 0.000000 4.645160 
# 
# 
# High freq. dielectric constant tensor:
#      x y z
#    x 1.851540 0.000000 -0.006770 
#    y 0.000000 1.829730 0.000000 
#    z -0.006770 0.000000 1.769030 
# 
# From -- ./inp_files/95688.got.cif
#   From: 2010.06.25/outbox.cif.g09.slc.cpg/sg13_48_cif.got.tgz:95688.got - 2010.06.28 04:50:58.
