data_PCOD8118096
_publ_section_title
;
Structure prediction by ZEFSAII (Michael W. Deem and Ramdas Pophale) SiO2 
 PCOD8118096
Probable space group: P 2/C
;
_chemical_formula_sum "Si O2"
_cell_formula_units_Z 16
_cell_length_a 11.321899
_cell_length_b 4.877903
_cell_length_c 18.882064
_cell_angle_alpha 90.000000
_cell_angle_beta 47.896910
_cell_angle_gamma 90.000000
_cell_volume 773.696268
_symmetry_space_group_name_H-M "P 2/C"
_symmetry_group_IT_number 13
_symmetry_cell_setting 'monoclinic'
loop_
_space_group_symop_operation_xyz
x,y,z
-x,y,1/2-z
-x,-y,-z
x,-y,1/2+z
loop_
_atom_site_type_symbol
_atom_site_label
_atom_site_fract_x
_atom_site_fract_y
_atom_site_fract_z
Si Si1 0.420164 0.716125 0.616974
Si Si2 0.632343 0.217660 0.517223
Si Si3 0.676196 0.893955 0.697834
Si Si4 0.177163 0.610836 0.431283
O O1 0.481338 0.405428 0.600240
O O2 0.320162 0.740570 0.584122
O O3 0.306168 0.800715 0.727636
O O4 0.577869 0.905877 0.551152
O O5 0.784052 0.283121 0.505150
O O6 0.500000 0.005819 0.750000
O O7 0.703856 0.632764 0.636751
O O8 0.801998 0.135736 0.631662
O O9 0.000000 0.500000 0.500000
#
# Coordination Sequence:
#
# PCOD8118096 Si02
#       4
#     4   4   4   4
#     4  10  20  33  61  85 114 149 204 254 282 348
#     4  10  19  36  55  88 117 152 192 247 308 345
#     4  12  21  38  62  91 115 158 215 251 289 360
#     4  12  24  38  59  89 129 159 193 252 319 365
#
# _framework density 20.679949000000001
#
# number of rings (size 3 to 8) (size 9 to 14) (size 15 to 20)
#    0.000    1.000    5.000    3.000    0.000    0.000 
#    0.000    1.250    0.000    3.000    0.000    0.000 
#    0.000    0.000    0.000    0.000    0.000    0.000 
#
# Total GULP energy -198450.287155 kJ/mol
# GULP energy per Si atom -12403.142947 kJ/mol
# Density = 2.063288 g / cm^3
# Si number density = 20.679949 Si / 1000 Ang^3
#
#
#
# Elastic Constant Matrix: (Units=GPa)
#
#
# Indices 1 2 3 4 5 6 
#
# 1 127.4534 20.6519 64.7671 0.0000 22.0196 0.0000
# 2 20.6519 95.0105 29.5303 0.0000 8.7995 0.0000
# 3 64.7671 29.5303 99.1249 0.0000 25.7385 0.0000
# 4 0.0000 0.0000 0.0000 40.1345 0.0000 0.7838
# 5 22.0196 8.7995 25.7385 0.0000 26.8253 0.0000
# 6 0.0000 0.0000 0.0000 0.7838 0.0000 27.9874
#
#
#
# Elastic Compliance Matrix: (Units=1/GPa)
#
#
# Indices 1 2 3 4 5 6 
#
# 1 0.011936 -0.000148 -0.006957 0.000000 -0.003075 0.000000
# 2 -0.000148 0.011610 -0.003203 0.000000 -0.000614 0.000000
# 3 -0.006957 -0.003203 0.018422 0.000000 -0.010915 0.000000
# 4 0.000000 0.000000 0.000000 0.024930 0.000000 -0.000698
# 5 -0.003075 -0.000614 -0.010915 0.000000 0.050476 0.000000
# 6 0.000000 0.000000 0.000000 -0.000698 0.000000 0.035750
#
#
# Mechanical properties :
#
#
# Convention : Reuss Voigt Hill
#
# Bulk Modulus (GPa) = 46.83024 61.27638 54.05331
# Shear Modulus (GPa) = 27.64643 32.76539 30.20591
#
# Velocity S-wave (km/s) = 3.66029 3.98478 3.82598
# Velocity P-wave (km/s) = 6.36852 7.13207 6.76108
#
# Compressibility (1/GPa) = 0.02135372
#
# Stress axis : x y z
#
# Youngs Moduli (GPa) = 83.77845 86.13602 54.28328
#
# Poissons Ratio (x) = 0.01271 0.37763
# Poissons Ratio (y) = 0.01236 0.17385
# Poissons Ratio (z) = 0.58282 0.27587
#
# Static dielectric constant tensor:
#      x y z
#    x 3.595610 0.000000 0.553620 
#    y 0.000000 4.009340 0.000000 
#    z 0.553620 0.000000 3.710400 
# 
# 
# High freq. dielectric constant tensor:
#      x y z
#    x 1.789540 0.000000 0.042690 
#    y 0.000000 1.835950 0.000000 
#    z 0.042690 0.000000 1.780810 
# 
# From -- ./inp_files/59066.got.cif
#   From: 2010.06.25/outbox.cif.g09.slc.cpg/sg13_30_cif.got.tgz:59066.got - 2010.06.28 04:50:58.
