data_PCOD8118403
_publ_section_title
;
Structure prediction by ZEFSAII (Michael W. Deem and Ramdas Pophale) SiO2 
 PCOD8118403
Probable space group: P 2/C
;
_chemical_formula_sum "Si O2"
_cell_formula_units_Z 30
_cell_length_a 8.145004
_cell_length_b 10.235949
_cell_length_c 28.913271
_cell_angle_alpha 90.000000
_cell_angle_beta 144.133531
_cell_angle_gamma 90.000000
_cell_volume 1412.338522
_symmetry_space_group_name_H-M "P 2/C"
_symmetry_group_IT_number 13
_symmetry_cell_setting 'monoclinic'
loop_
_space_group_symop_operation_xyz
x,y,z
-x,y,1/2-z
-x,-y,-z
x,-y,1/2+z
loop_
_atom_site_type_symbol
_atom_site_label
_atom_site_fract_x
_atom_site_fract_y
_atom_site_fract_z
Si Si1 0.696941 0.102626 0.752176
Si Si2 0.595728 0.262914 0.071215
Si Si3 0.700757 0.524703 0.951760
Si Si4 0.326269 0.314237 0.828789
Si Si5 0.500000 0.343694 0.250000
Si Si6 0.062366 0.521436 0.897152
Si Si7 0.119023 0.830411 0.729110
Si Si8 0.218733 0.242457 0.901542
O O1 0.500000 0.072741 0.750000
O O2 0.582868 0.218333 0.692521
O O3 0.988768 0.132006 0.843394
O O4 0.738293 0.971881 0.731078
O O5 0.387657 0.320515 0.064157
O O6 0.782060 0.391533 0.104854
O O7 0.822324 0.151655 0.134403
O O8 0.426147 0.203312 0.989905
O O9 0.495021 0.449787 0.869080
O O10 0.000000 0.500000 0.000000
O O11 0.734708 0.467996 0.011685
O O12 0.391016 0.247172 0.892881
O O13 0.000000 0.347109 0.750000
O O14 0.260957 0.431286 0.169954
O O15 0.651740 0.258860 0.244687
O O16 0.053013 0.376029 0.874885
O O17 0.000000 0.769898 0.750000
#
# Coordination Sequence:
#
# PCOD8118403 Si02
#       8
#     4   4   4   4   2   4   4   4
#     4  11  25  42  63  92 125 169 227 278 320 379
#     4  10  21  40  65  91 126 169 206 265 330 396
#     4  11  22  35  59  98 135 163 206 266 329 394
#     4  10  21  38  62  89 124 172 219 267 324 397
#     4  10  24  40  66  98 128 176 210 272 332 386
#     4  10  20  38  62  91 135 162 205 264 328 396
#     4  11  24  46  67  90 131 175 226 269 323 396
#     4  10  19  39  64  90 124 164 214 261 327 389
#
# _framework density 21.241368000000001
#
# number of rings (size 3 to 8) (size 9 to 14) (size 15 to 20)
#    0.000    1.600    3.333    2.000    6.533    2.133 
#    0.000    0.000    0.000    2.400    0.000    0.000 
#    0.000    0.000    0.000    0.000    0.000    0.000 
#
# Total GULP energy -371643.951657 kJ/mol
# GULP energy per Si atom -12388.131722 kJ/mol
# Density = 2.119302 g / cm^3
# Si number density = 21.241368 Si / 1000 Ang^3
#
#
#
# Elastic Constant Matrix: (Units=GPa)
#
#
# Indices 1 2 3 4 5 6 
#
# 1 118.4921 19.2282 14.7372 0.0000 -2.0432 0.0000
# 2 19.2282 48.2262 17.2270 0.0000 -6.9492 0.0000
# 3 14.7372 17.2270 87.1154 0.0000 -6.3656 0.0000
# 4 0.0000 0.0000 0.0000 24.5405 0.0000 2.4702
# 5 -2.0432 -6.9492 -6.3656 0.0000 28.1049 0.0000
# 6 0.0000 0.0000 0.0000 2.4702 0.0000 20.3903
#
#
#
# Elastic Compliance Matrix: (Units=1/GPa)
#
#
# Indices 1 2 3 4 5 6 
#
# 1 0.009090 -0.003356 -0.000901 0.000000 -0.000373 0.000000
# 2 -0.003356 0.024150 -0.003853 0.000000 0.004855 0.000000
# 3 -0.000901 -0.003853 0.012526 0.000000 0.001819 0.000000
# 4 0.000000 0.000000 0.000000 0.041252 0.000000 -0.004997
# 5 -0.000373 0.004855 0.001819 0.000000 0.037166 0.000000
# 6 0.000000 0.000000 0.000000 -0.004997 0.000000 0.049648
#
#
# Mechanical properties :
#
#
# Convention : Reuss Voigt Hill
#
# Bulk Modulus (GPa) = 33.84688 39.57985 36.71337
# Shear Modulus (GPa) = 25.01238 28.11656 26.56447
#
# Velocity S-wave (km/s) = 3.43524 3.64217 3.54022
# Velocity P-wave (km/s) = 5.63059 6.03002 5.83372
#
# Compressibility (1/GPa) = 0.02954482
#
# Stress axis : x y z
#
# Youngs Moduli (GPa) = 110.01553 41.40861 79.83168
#
# Poissons Ratio (x) = 0.13896 0.07195
# Poissons Ratio (y) = 0.36920 0.30760
# Poissons Ratio (z) = 0.09916 0.15955
#
# Static dielectric constant tensor:
#      x y z
#    x 3.766470 0.000000 0.462290 
#    y 0.000000 3.594960 0.000000 
#    z 0.462290 0.000000 3.615240 
# 
# 
# High freq. dielectric constant tensor:
#      x y z
#    x 1.836820 0.000000 0.001350 
#    y 0.000000 1.804800 0.000000 
#    z 0.001350 0.000000 1.840860 
# 
# From -- ./inp_files/96101.got.cif
#   From: 2010.06.25/outbox.cif.g09.slc.cpg/sg13_49_cif.got.tgz:96101.got - 2010.06.28 04:50:58.
