data_PCOD8118474
_publ_section_title
;
Structure prediction by ZEFSAII (Michael W. Deem and Ramdas Pophale) SiO2 
 PCOD8118474
Probable space group: P 2/C
;
_chemical_formula_sum "Si O2"
_cell_formula_units_Z 32
_cell_length_a 23.358999
_cell_length_b 17.216227
_cell_length_c 21.556274
_cell_angle_alpha 90.000000
_cell_angle_beta 167.876917
_cell_angle_gamma 90.000000
_cell_volume 1820.585107
_symmetry_space_group_name_H-M "P 2/C"
_symmetry_group_IT_number 13
_symmetry_cell_setting 'monoclinic'
loop_
_space_group_symop_operation_xyz
x,y,z
-x,y,1/2-z
-x,-y,-z
x,-y,1/2+z
loop_
_atom_site_type_symbol
_atom_site_label
_atom_site_fract_x
_atom_site_fract_y
_atom_site_fract_z
Si Si1 0.347979 0.521498 0.930939
Si Si2 0.772634 0.736249 0.800484
Si Si3 0.470727 0.993627 0.542547
Si Si4 0.425751 0.692615 0.043426
Si Si5 0.727007 0.834792 0.193119
Si Si6 0.173595 0.566288 0.608527
Si Si7 0.968533 0.085502 0.067917
Si Si8 0.999947 0.233467 0.176744
O O1 0.261018 0.542351 0.769661
O O2 0.100884 0.477587 0.703129
O O3 0.439910 0.599497 0.063288
O O4 0.596863 0.461204 0.196187
O O5 0.739524 0.719855 0.692349
O O6 0.493547 0.766951 0.534046
O O7 0.859791 0.659012 0.929766
O O8 0.007622 0.800063 0.059241
O O9 0.392056 0.904855 0.475646
O O10 0.500000 0.000000 0.500000
O O11 0.767360 0.018925 0.883063
O O12 0.240128 0.050456 0.325366
O O13 0.727187 0.728224 0.360066
O O14 0.262874 0.720766 0.930933
O O15 0.803171 0.866673 0.341289
O O16 0.037955 0.143829 0.197050
O O17 0.000000 0.238531 0.250000
#
# Coordination Sequence:
#
# PCOD8118474 Si02
#       8
#     4   4   4   4   4   4   4   4
#     4   9  17  29  45  61  90 122 162 191 222 273
#     4  11  18  28  47  68 100 128 156 195 230 281
#     4  10  20  30  48  68  91 123 163 199 239 292
#     4  11  20  35  49  66  91 132 166 205 242 277
#     4  11  18  29  45  70  95 126 162 194 235 288
#     4   9  17  27  41  68  90 122 157 187 220 273
#     4  11  19  34  47  64  93 126 165 207 239 287
#     4  12  24  36  51  70  93 127 173 216 246 275
#
# _framework density 17.576768000000001
#
# number of rings (size 3 to 8) (size 9 to 14) (size 15 to 20)
#    0.000    1.500    2.500    6.375    0.000    4.000 
#    0.000    0.000    0.000    0.000    0.000    0.000 
#    0.000    0.000    0.000   78.750    0.000    0.000 
#
# Total GULP energy -396763.729148 kJ/mol
# GULP energy per Si atom -12398.866536 kJ/mol
# Density = 1.753676 g / cm^3
# Si number density = 17.576768 Si / 1000 Ang^3
#
#
#
# Elastic Constant Matrix: (Units=GPa)
#
#
# Indices 1 2 3 4 5 6 
#
# 1 29.1258 23.4890 11.0271 0.0000 4.3282 0.0000
# 2 23.4890 106.9450 32.5846 0.0000 3.3697 0.0000
# 3 11.0271 32.5846 100.4166 0.0000 19.5745 0.0000
# 4 0.0000 0.0000 0.0000 41.3311 0.0000 8.2641
# 5 4.3282 3.3697 19.5745 0.0000 12.1419 0.0000
# 6 0.0000 0.0000 0.0000 8.2641 0.0000 11.9271
#
#
#
# Elastic Compliance Matrix: (Units=1/GPa)
#
#
# Indices 1 2 3 4 5 6 
#
# 1 0.043759 -0.009500 0.001173 0.000000 -0.014852 0.000000
# 2 -0.009500 0.012555 -0.004392 0.000000 0.006983 0.000000
# 3 0.001173 -0.004392 0.016185 0.000000 -0.025292 0.000000
# 4 0.000000 0.000000 0.000000 0.028086 0.000000 -0.019460
# 5 -0.014852 0.006983 -0.025292 0.000000 0.126489 0.000000
# 6 0.000000 0.000000 0.000000 -0.019460 0.000000 0.097327
#
#
# Mechanical properties :
#
#
# Convention : Reuss Voigt Hill
#
# Bulk Modulus (GPa) = 21.24956 41.18768 31.21862
# Shear Modulus (GPa) = 13.67889 24.37246 19.02567
#
# Velocity S-wave (km/s) = 2.79272 3.72779 3.29360
# Velocity P-wave (km/s) = 4.74498 6.48170 5.68011
#
# Compressibility (1/GPa) = 0.04705981
#
# Stress axis : x y z
#
# Youngs Moduli (GPa) = 22.85267 79.64707 61.78523
#
# Poissons Ratio (x) = 0.75667 -0.07246
# Poissons Ratio (y) = 0.21711 0.27136
# Poissons Ratio (z) = -0.02680 0.34981
#
# Static dielectric constant tensor:
#      x y z
#    x 2.658810 0.000000 0.152950 
#    y 0.000000 3.701370 0.000000 
#    z 0.152950 0.000000 3.548410 
# 
# 
# High freq. dielectric constant tensor:
#      x y z
#    x 1.597850 0.000000 0.029770 
#    y 0.000000 1.695350 0.000000 
#    z 0.029770 0.000000 1.698900 
# 
# From -- ./inp_files/89289.got.cif
#   From: 2010.06.25/outbox.cif.g09.slc.cpg/sg13_45_cif.got.tgz:89289.got - 2010.06.28 04:50:58.
