data_PCOD8118272
_publ_section_title
;
Structure prediction by ZEFSAII (Michael W. Deem and Ramdas Pophale) SiO2 
 PCOD8118272
Probable space group: P 2/C
;
_chemical_formula_sum "Si O2"
_cell_formula_units_Z 26
_cell_length_a 7.942143
_cell_length_b 9.799562
_cell_length_c 19.191860
_cell_angle_alpha 90.000000
_cell_angle_beta 56.089510
_cell_angle_gamma 90.000000
_cell_volume 1239.631244
_symmetry_space_group_name_H-M "P 2/C"
_symmetry_group_IT_number 13
_symmetry_cell_setting 'monoclinic'
loop_
_space_group_symop_operation_xyz
x,y,z
-x,y,1/2-z
-x,-y,-z
x,-y,1/2+z
loop_
_atom_site_type_symbol
_atom_site_label
_atom_site_fract_x
_atom_site_fract_y
_atom_site_fract_z
Si Si1 0.609585 0.431608 0.294903
Si Si2 0.648431 0.172261 0.934382
Si Si3 0.000000 0.281466 0.250000
Si Si4 0.783561 0.888034 0.915784
Si Si5 0.879927 0.684092 0.004234
Si Si6 0.495441 0.266672 0.825833
Si Si7 0.722525 0.405037 0.016212
O O1 0.500000 0.375056 0.250000
O O2 0.624828 0.595132 0.287112
O O3 0.487819 0.390580 0.393249
O O4 0.838641 0.374025 0.245259
O O5 0.591946 0.177888 0.865695
O O6 0.815506 0.052604 0.906105
O O7 0.456469 0.138856 0.027119
O O8 0.729451 0.317840 0.943451
O O9 0.123142 0.180952 0.172634
O O10 0.888900 0.824657 0.959630
O O11 0.106460 0.645610 0.970287
O O12 0.740893 0.701430 0.104601
O O13 0.770868 0.562549 0.984056
O O14 0.500000 0.187875 0.750000
#
# Coordination Sequence:
#
# PCOD8118272 Si02
#       7
#     4   4   2   4   4   4   4
#     4  10  21  37  60  94 129 158 206 264 318 369
#     4  10  21  40  64  84 121 164 208 251 306 377
#     4  12  22  38  62  90 124 166 202 262 314 378
#     4  10  22  39  59  88 122 164 201 252 309 370
#     4   9  20  36  64  90 126 159 204 254 309 373
#     4   9  20  40  59  89 125 160 203 264 314 365
#     4  10  19  37  63  94 119 163 208 251 310 371
#
# _framework density 20.973980000000001
#
# number of rings (size 3 to 8) (size 9 to 14) (size 15 to 20)
#    0.000    2.154    1.538    0.923    2.154    3.692 
#    2.769    0.769    0.000    0.000    0.000    0.000 
#    0.000    0.000    0.000    0.000    0.000    0.000 
#
# Total GULP energy -322309.441874 kJ/mol
# GULP energy per Si atom -12396.516995 kJ/mol
# Density = 2.092624 g / cm^3
# Si number density = 20.973980 Si / 1000 Ang^3
#
#
#
# Elastic Constant Matrix: (Units=GPa)
#
#
# Indices 1 2 3 4 5 6 
#
# 1 89.6616 42.4868 39.2654 0.0000 5.1957 0.0000
# 2 42.4868 84.4436 47.5085 0.0000 10.4615 0.0000
# 3 39.2654 47.5085 92.0054 0.0000 18.6500 0.0000
# 4 0.0000 0.0000 0.0000 24.1659 0.0000 2.3914
# 5 5.1957 10.4615 18.6500 0.0000 32.1451 0.0000
# 6 0.0000 0.0000 0.0000 2.3914 0.0000 27.5349
#
#
#
# Elastic Compliance Matrix: (Units=1/GPa)
#
#
# Indices 1 2 3 4 5 6 
#
# 1 0.015543 -0.005786 -0.003987 0.000000 0.001684 0.000000
# 2 -0.005786 0.018852 -0.007039 0.000000 -0.001116 0.000000
# 3 -0.003987 -0.007039 0.017691 0.000000 -0.007329 0.000000
# 4 0.000000 0.000000 0.000000 0.041739 0.000000 -0.003625
# 5 0.001684 -0.001116 -0.007329 0.000000 0.035452 0.000000
# 6 0.000000 0.000000 0.000000 -0.003625 0.000000 0.036632
#
#
# Mechanical properties :
#
#
# Convention : Reuss Voigt Hill
#
# Bulk Modulus (GPa) = 54.16560 58.29244 56.22902
# Shear Modulus (GPa) = 24.30875 25.89247 25.10061
#
# Velocity S-wave (km/s) = 3.40810 3.51736 3.46316
# Velocity P-wave (km/s) = 6.43180 6.65949 6.54664
#
# Compressibility (1/GPa) = 0.01846190
#
# Stress axis : x y z
#
# Youngs Moduli (GPa) = 64.33674 53.04561 56.52671
#
# Poissons Ratio (x) = 0.30691 0.22538
# Poissons Ratio (y) = 0.37224 0.39789
# Poissons Ratio (z) = 0.25652 0.37338
#
# Static dielectric constant tensor:
#      x y z
#    x 3.597250 0.000000 -0.011180 
#    y 0.000000 3.884020 0.000000 
#    z -0.011180 0.000000 3.814450 
# 
# 
# High freq. dielectric constant tensor:
#      x y z
#    x 1.807820 0.000000 0.002380 
#    y 0.000000 1.809100 0.000000 
#    z 0.002380 0.000000 1.821140 
# 
# From -- ./inp_files/68432.got.cif
#   From: 2010.06.25/outbox.cif.g09.slc.cpg/sg13_35_cif.got.tgz:68432.got - 2010.06.28 04:50:58.
