data_PCOD8118851
_publ_section_title
;
Structure prediction by ZEFSAII (Michael W. Deem and Ramdas Pophale) SiO2 
 PCOD8118851
Probable space group: P 2/C
;
_chemical_formula_sum "Si O2"
_cell_formula_units_Z 28
_cell_length_a 8.603626
_cell_length_b 12.293498
_cell_length_c 16.440236
_cell_angle_alpha 90.000000
_cell_angle_beta 125.295478
_cell_angle_gamma 90.000000
_cell_volume 1419.229710
_symmetry_space_group_name_H-M "P 2/C"
_symmetry_group_IT_number 13
_symmetry_cell_setting 'monoclinic'
loop_
_space_group_symop_operation_xyz
x,y,z
-x,y,1/2-z
-x,-y,-z
x,-y,1/2+z
loop_
_atom_site_type_symbol
_atom_site_label
_atom_site_fract_x
_atom_site_fract_y
_atom_site_fract_z
Si Si1 0.239317 0.908035 0.391999
Si Si2 0.920217 0.621987 0.390174
Si Si3 0.500000 0.006054 0.250000
Si Si4 0.175208 0.149012 0.694310
Si Si5 0.324792 0.649012 0.805690
Si Si6 0.739317 0.408036 0.391999
Si Si7 0.579782 0.121987 0.109826
Si Si8 0.000000 0.506054 0.250000
O O1 0.239502 0.841453 0.307708
O O2 0.403450 0.856519 0.496701
O O3 0.038579 0.897423 0.376777
O O4 0.274837 0.035752 0.385465
O O5 0.807385 0.733745 0.342737
O O6 0.774836 0.535753 0.385466
O O7 0.003002 0.581383 0.329778
O O8 0.096552 0.643480 0.503298
O O9 0.687601 0.931773 0.312871
O O10 0.496994 0.081382 0.170220
O O11 0.260497 0.658546 0.692292
O O12 0.538578 0.602576 0.876777
O O13 0.307385 0.766256 0.842735
O O14 0.187600 0.568228 0.812872
#
# Coordination Sequence:
#
# PCOD8118851 Si02
#       8
#     4   4   2   4   4   4   4   2
#     4   9  20  37  56  79 107 142 177 212 271 317
#     4  10  20  38  56  77 111 139 173 226 260 309
#     4  10  22  34  54  84 104 138 186 212 260 320
#     4  10  20  36  55  78 107 140 177 218 264 314
#     4  10  20  36  55  78 107 140 177 218 264 314
#     4   9  20  37  56  79 107 142 177 212 271 317
#     4  10  20  38  56  77 111 139 173 226 260 309
#     4  10  22  34  54  84 104 138 186 212 260 320
#
# _framework density 19.729011
#
# number of rings (size 3 to 8) (size 9 to 14) (size 15 to 20)
#    0.000    2.286    0.000    2.571    0.000    5.714 
#    0.000   18.571    0.000    0.000    0.000    0.000 
#    0.000    0.000    0.000    0.000    0.000    0.000 
#
# Total GULP energy -347307.284717 kJ/mol
# GULP energy per Si atom -12403.831597 kJ/mol
# Density = 1.968411 g / cm^3
# Si number density = 19.729011 Si / 1000 Ang^3
#
#
#
# Elastic Constant Matrix: (Units=GPa)
#
#
# Indices 1 2 3 4 5 6 
#
# 1 44.9473 12.2063 -0.5608 0.0000 4.3503 0.0000
# 2 12.2063 73.8903 39.6208 0.0000 9.7324 0.0000
# 3 -0.5608 39.6208 102.4453 0.0000 17.6420 0.0000
# 4 0.0000 0.0000 0.0000 32.1793 0.0000 2.2222
# 5 4.3503 9.7324 17.6420 0.0000 22.1000 0.0000
# 6 0.0000 0.0000 0.0000 2.2222 0.0000 23.3163
#
#
#
# Elastic Compliance Matrix: (Units=1/GPa)
#
#
# Indices 1 2 3 4 5 6 
#
# 1 0.024077 -0.004865 0.002853 0.000000 -0.004874 0.000000
# 2 -0.004865 0.018188 -0.006778 0.000000 -0.001641 0.000000
# 3 0.002853 -0.006778 0.013891 0.000000 -0.008665 0.000000
# 4 0.000000 0.000000 0.000000 0.031282 0.000000 -0.002981
# 5 -0.004874 -0.001641 -0.008665 0.000000 0.053848 0.000000
# 6 0.000000 0.000000 0.000000 -0.002981 0.000000 0.043173
#
#
# Mechanical properties :
#
#
# Convention : Reuss Voigt Hill
#
# Bulk Modulus (GPa) = 25.92397 35.97950 30.95173
# Shear Modulus (GPa) = 23.26695 26.85357 25.06026
#
# Velocity S-wave (km/s) = 3.43786 3.69334 3.56789
# Velocity P-wave (km/s) = 5.37839 6.03855 5.71800
#
# Compressibility (1/GPa) = 0.03857434
#
# Stress axis : x y z
#
# Youngs Moduli (GPa) = 41.53378 54.98149 71.99103
#
# Poissons Ratio (x) = 0.26748 -0.20537
# Poissons Ratio (y) = 0.20206 0.48797
# Poissons Ratio (z) = -0.11848 0.37268
#
# Static dielectric constant tensor:
#      x y z
#    x 3.588450 0.000000 0.057670 
#    y 0.000000 3.540320 0.000000 
#    z 0.057670 0.000000 3.705480 
# 
# 
# High freq. dielectric constant tensor:
#      x y z
#    x 1.763480 0.000000 0.004860 
#    y 0.000000 1.767490 0.000000 
#    z 0.004860 0.000000 1.775680 
# 
# From -- ./inp_files/47021.got.cif
#   From: 2010.06.25/outbox.cif.g09.slc.cpg/sg13_24_cif.got.tgz:47021.got - 2010.06.28 04:50:58.
