data_PCOD8118658
_publ_section_title
;
Structure prediction by ZEFSAII (Michael W. Deem and Ramdas Pophale) SiO2 
 PCOD8118658
Probable space group: P 2/C
;
_chemical_formula_sum "Si O2"
_cell_formula_units_Z 24
_cell_length_a 10.963214
_cell_length_b 15.226746
_cell_length_c 16.881965
_cell_angle_alpha 90.000000
_cell_angle_beta 158.217553
_cell_angle_gamma 90.000000
_cell_volume 1045.777953
_symmetry_space_group_name_H-M "P 2/C"
_symmetry_group_IT_number 13
_symmetry_cell_setting 'monoclinic'
loop_
_space_group_symop_operation_xyz
x,y,z
-x,y,1/2-z
-x,-y,-z
x,-y,1/2+z
loop_
_atom_site_type_symbol
_atom_site_label
_atom_site_fract_x
_atom_site_fract_y
_atom_site_fract_z
Si Si1 0.519564 0.408764 0.353244
Si Si2 0.190388 0.750526 0.741829
Si Si3 0.484916 0.079954 0.096226
Si Si4 0.807338 0.905299 0.255298
Si Si5 0.253609 0.548500 0.289804
Si Si6 0.460250 0.735712 0.076023
O O1 0.500000 0.384427 0.250000
O O2 0.420503 0.323714 0.343206
O O3 0.261424 0.486254 0.217139
O O4 0.883356 0.441662 0.599399
O O5 0.251992 0.841663 0.732839
O O6 0.799960 0.728395 0.507643
O O7 0.282399 0.761618 0.888292
O O8 0.662690 0.987185 0.216900
O O9 0.331363 0.090002 0.916858
O O10 0.201351 0.088409 0.991027
O O11 0.717378 0.814709 0.246630
O O12 0.500000 0.500000 0.500000
O O13 0.360991 0.643725 0.325973
#
# Coordination Sequence:
#
# PCOD8118658 Si02
#       6
#     4   4   4   4   4   4
#     4  12  26  43  62  89 125 164 206 259 318 379
#     4  10  20  35  56  85 120 157 203 249 311 372
#     4   9  16  27  47  77 119 158 194 243 305 377
#     4   9  16  27  46  79 119 155 193 247 315 362
#     4  12  24  40  65  89 119 159 210 262 313 374
#     4  10  20  34  57  87 117 154 202 259 308 368
#
# _framework density 22.949421999999998
#
# number of rings (size 3 to 8) (size 9 to 14) (size 15 to 20)
#    0.000    1.667    1.667    4.000    2.333    5.333 
#    0.000    0.000    0.000    0.000    0.000   11.667 
#    0.000    0.000    0.000    0.000    0.000    0.000 
#
# Total GULP energy -297503.262565 kJ/mol
# GULP energy per Si atom -12395.969274 kJ/mol
# Density = 2.289719 g / cm^3
# Si number density = 22.949422 Si / 1000 Ang^3
#
#
#
# Elastic Constant Matrix: (Units=GPa)
#
#
# Indices 1 2 3 4 5 6 
#
# 1 66.2467 41.0721 52.4026 0.0000 37.5907 0.0000
# 2 41.0721 215.6283 57.6667 0.0000 44.9431 0.0000
# 3 52.4026 57.6667 92.2972 0.0000 41.0849 0.0000
# 4 0.0000 0.0000 0.0000 35.6620 0.0000 22.8234
# 5 37.5907 44.9431 41.0849 0.0000 44.4247 0.0000
# 6 0.0000 0.0000 0.0000 22.8234 0.0000 13.2507
#
#
#
# Elastic Compliance Matrix: (Units=1/GPa)
#
#
# Indices 1 2 3 4 5 6 
#
# 1 0.034867 0.000461 -0.011462 0.000000 -0.019369 0.000000
# 2 0.000461 0.006053 -0.001945 0.000000 -0.004715 0.000000
# 3 -0.011462 -0.001945 0.022716 0.000000 -0.009342 0.000000
# 4 0.000000 0.000000 0.000000 -0.273994 0.000000 0.471936
# 5 -0.019369 -0.004715 -0.009342 0.000000 0.052309 0.000000
# 6 0.000000 0.000000 0.000000 0.471936 0.000000 -0.737410
#
#
# Mechanical properties :
#
#
# Convention : Reuss Voigt Hill
#
# Bulk Modulus (GPa) = 26.49445 75.16168 50.82806
# Shear Modulus (GPa) = -5.83439 33.53619 13.85090
#
# Velocity S-wave (km/s) = -1.59618 3.82685 2.45937
# Velocity P-wave (km/s) = 2.85880 7.23523 5.50097
#
# Compressibility (1/GPa) = 0.03774375
#
# Stress axis : x y z
#
# Youngs Moduli (GPa) = 28.68069 165.21913 44.02256
#
# Poissons Ratio (x) = -0.07619 0.50459
# Poissons Ratio (y) = -0.01323 0.08561
# Poissons Ratio (z) = 0.32874 0.32129
#
# Static dielectric constant tensor:
#      x y z
#    x 3.997790 0.000000 0.601920 
#    y 0.000000 4.250670 0.000000 
#    z 0.601920 0.000000 4.221440 
# 
# 
# High freq. dielectric constant tensor:
#      x y z
#    x 1.884850 0.000000 0.040750 
#    y 0.000000 1.921290 0.000000 
#    z 0.040750 0.000000 1.893240 
# 
# From -- ./inp_files/78747.got.cif
#   From: 2010.06.25/outbox.cif.g09.slc.cpg/sg13_40_cif.got.tgz:78747.got - 2010.06.28 04:50:58.
