data_PCOD8118613
_publ_section_title
;
Structure prediction by ZEFSAII (Michael W. Deem and Ramdas Pophale) SiO2 
 PCOD8118613
Probable space group: P 2/C
;
_chemical_formula_sum "Si O2"
_cell_formula_units_Z 30
_cell_length_a 10.743878
_cell_length_b 13.229362
_cell_length_c 12.877399
_cell_angle_alpha 90.000000
_cell_angle_beta 57.255691
_cell_angle_gamma 90.000000
_cell_volume 1539.472751
_symmetry_space_group_name_H-M "P 2/C"
_symmetry_group_IT_number 13
_symmetry_cell_setting 'monoclinic'
loop_
_space_group_symop_operation_xyz
x,y,z
-x,y,1/2-z
-x,-y,-z
x,-y,1/2+z
loop_
_atom_site_type_symbol
_atom_site_label
_atom_site_fract_x
_atom_site_fract_y
_atom_site_fract_z
Si Si1 0.789877 0.475684 0.430840
Si Si2 0.288510 0.676608 0.277932
Si Si3 0.243177 0.661794 0.940201
Si Si4 0.403231 0.710950 0.436461
Si Si5 0.883911 0.515966 0.653776
Si Si6 0.472903 0.113184 0.479751
Si Si7 0.157567 0.798303 0.155980
Si Si8 0.500000 0.194717 0.250000
O O1 0.688905 0.567213 0.522441
O O2 0.710773 0.367729 0.461161
O O3 0.840104 0.495830 0.292487
O O4 0.937445 0.489084 0.438497
O O5 0.331751 0.745250 0.358674
O O6 0.442028 0.651315 0.148986
O O7 0.208663 0.575746 0.358450
O O8 0.181059 0.735594 0.250388
O O9 0.160693 0.623826 0.874092
O O10 0.368678 0.733539 0.842162
O O11 0.136735 0.724269 0.066216
O O12 0.430939 0.809438 0.494233
O O13 0.296057 0.128452 0.572383
O O14 0.531249 0.124247 0.335381
O O15 0.500000 0.000000 0.500000
O O16 0.000000 0.855065 0.250000
#
# Coordination Sequence:
#
# PCOD8118613 Si02
#       8
#     4   4   4   4   4   4   4   2
#     4  11  22  33  52  82 127 171 208 242 296 372
#     4  10  20  34  53  85 122 156 214 242 290 364
#     4  11  21  34  57  84 128 164 198 258 290 366
#     4  10  22  36  56  90 115 161 208 256 304 369
#     4  11  22  33  50  81 125 177 207 239 297 355
#     4  10  23  46  71  90 121 157 206 276 327 371
#     4  10  21  38  63  92 118 160 214 252 307 383
#     4  10  24  40  64  96 112 160 208 250 324 366
#
# _framework density 19.487192
#
# number of rings (size 3 to 8) (size 9 to 14) (size 15 to 20)
#    0.000    1.600    2.667    2.000    3.733    2.667 
#    0.000    0.000    5.867    2.400    0.000    0.000 
#    0.000    0.000    0.000    0.000    0.000    0.000 
#
# Total GULP energy -371760.860428 kJ/mol
# GULP energy per Si atom -12392.028681 kJ/mol
# Density = 1.944284 g / cm^3
# Si number density = 19.487192 Si / 1000 Ang^3
#
#
#
# Elastic Constant Matrix: (Units=GPa)
#
#
# Indices 1 2 3 4 5 6 
#
# 1 97.8800 47.3795 47.6597 0.0000 5.3282 0.0000
# 2 47.3795 122.1782 57.1224 0.0000 1.4115 0.0000
# 3 47.6597 57.1224 114.4920 0.0000 1.9458 0.0000
# 4 0.0000 0.0000 0.0000 19.0497 0.0000 2.8711
# 5 5.3282 1.4115 1.9458 0.0000 27.4889 0.0000
# 6 0.0000 0.0000 0.0000 2.8711 0.0000 11.1574
#
#
#
# Elastic Compliance Matrix: (Units=1/GPa)
#
#
# Indices 1 2 3 4 5 6 
#
# 1 0.014008 -0.003519 -0.004037 0.000000 -0.002249 0.000000
# 2 -0.003519 0.011559 -0.004309 0.000000 0.000393 0.000000
# 3 -0.004037 -0.004309 0.012563 0.000000 0.000115 0.000000
# 4 0.000000 0.000000 0.000000 0.054612 0.000000 -0.014053
# 5 -0.002249 0.000393 0.000115 0.000000 0.036786 0.000000
# 6 0.000000 0.000000 0.000000 -0.014053 0.000000 0.093243
#
#
# Mechanical properties :
#
#
# Convention : Reuss Voigt Hill
#
# Bulk Modulus (GPa) = 69.44489 70.98593 70.21541
# Shear Modulus (GPa) = 19.89636 23.69844 21.79740
#
# Velocity S-wave (km/s) = 3.19877 3.49105 3.34810
# Velocity P-wave (km/s) = 7.02541 7.26333 7.14536
#
# Compressibility (1/GPa) = 0.01439991
#
# Stress axis : x y z
#
# Youngs Moduli (GPa) = 71.38712 86.50967 79.59924
#
# Poissons Ratio (x) = 0.30439 0.32138
# Poissons Ratio (y) = 0.25118 0.34301
# Poissons Ratio (z) = 0.28822 0.37279
#
# Static dielectric constant tensor:
#      x y z
#    x 3.854640 0.000000 0.148520 
#    y 0.000000 3.195770 0.000000 
#    z 0.148520 0.000000 4.375290 
# 
# 
# High freq. dielectric constant tensor:
#      x y z
#    x 1.765840 0.000000 0.015850 
#    y 0.000000 1.712750 0.000000 
#    z 0.015850 0.000000 1.788400 
# 
# From -- ./inp_files/51175.got.cif
#   From: 2010.06.25/outbox.cif.g09.slc.cpg/sg13_26_cif.got.tgz:51175.got - 2010.06.28 04:50:58.
