data_PCOD8118492
_publ_section_title
;
Structure prediction by ZEFSAII (Michael W. Deem and Ramdas Pophale) SiO2 
 PCOD8118492
Probable space group: P 2/C
;
_chemical_formula_sum "Si O2"
_cell_formula_units_Z 32
_cell_length_a 14.683641
_cell_length_b 13.749733
_cell_length_c 9.707879
_cell_angle_alpha 90.000000
_cell_angle_beta 100.758605
_cell_angle_gamma 90.000000
_cell_volume 1925.531474
_symmetry_space_group_name_H-M "P 2/C"
_symmetry_group_IT_number 13
_symmetry_cell_setting 'monoclinic'
loop_
_space_group_symop_operation_xyz
x,y,z
-x,y,1/2-z
-x,-y,-z
x,-y,1/2+z
loop_
_atom_site_type_symbol
_atom_site_label
_atom_site_fract_x
_atom_site_fract_y
_atom_site_fract_z
Si Si1 0.254245 0.550011 0.826626
Si Si2 0.584539 0.688107 0.683259
Si Si3 0.758000 0.377381 0.875651
Si Si4 0.388928 0.107435 0.228664
Si Si5 0.958969 0.633606 0.377416
Si Si6 0.581135 0.754208 0.378802
Si Si7 0.930702 0.404057 0.342532
Si Si8 0.600104 0.963858 0.484902
O O1 0.350398 0.596333 0.810676
O O2 0.255597 0.440575 0.767598
O O3 0.174313 0.616062 0.733647
O O4 0.241533 0.551666 0.989201
O O5 0.500000 0.649723 0.750000
O O6 0.635229 0.778014 0.776628
O O7 0.549706 0.722564 0.523022
O O8 0.858282 0.322652 0.892496
O O9 0.677478 0.297354 0.863541
O O10 0.500000 0.096541 0.250000
O O11 0.347137 0.061271 0.357984
O O12 0.346931 0.049517 0.085467
O O13 0.942017 0.519266 0.357929
O O14 0.000000 0.680547 0.250000
O O15 0.041206 0.651468 0.510152
O O16 0.500000 0.724547 0.250000
O O17 0.595205 0.870265 0.382783
O O18 0.000000 0.360894 0.250000
O O19 0.500000 0.000000 0.500000
#
# Coordination Sequence:
#
# PCOD8118492 Si02
#       8
#     4   4   4   4   4   4   4   4
#     4  10  20  32  46  63  89 122 159 189 225 268
#     4   9  19  33  45  62  89 122 155 191 218 259
#     4  10  21  33  45  65  92 124 158 192 227 270
#     4   8  14  25  43  63  84 108 139 179 225 262
#     4   9  17  28  46  66  88 110 147 194 240 273
#     4  10  20  33  46  65  94 124 153 187 228 271
#     4   9  15  27  46  66  83 109 145 192 239 272
#     4   9  15  26  47  68  85 111 143 182 231 272
#
# _framework density 16.618787999999999
#
# number of rings (size 3 to 8) (size 9 to 14) (size 15 to 20)
#    0.000    2.750    1.250    1.875    5.250    1.500 
#    0.000    2.500    0.000    0.000    0.000    0.000 
#    0.000    2.000    0.000    0.125    0.000    0.000 
#
# Total GULP energy -396464.000334 kJ/mol
# GULP energy per Si atom -12389.500010 kJ/mol
# Density = 1.658096 g / cm^3
# Si number density = 16.618788 Si / 1000 Ang^3
#
#
#
# Elastic Constant Matrix: (Units=GPa)
#
#
# Indices 1 2 3 4 5 6 
#
# 1 71.9025 15.1134 28.3120 0.0000 -10.8591 0.0000
# 2 15.1134 37.0053 11.6711 0.0000 -1.7872 0.0000
# 3 28.3120 11.6711 71.0917 0.0000 -7.9973 0.0000
# 4 0.0000 0.0000 0.0000 16.7994 0.0000 -2.6136
# 5 -10.8591 -1.7872 -7.9973 0.0000 23.7880 0.0000
# 6 0.0000 0.0000 0.0000 -2.6136 0.0000 4.2657
#
#
#
# Elastic Compliance Matrix: (Units=1/GPa)
#
#
# Indices 1 2 3 4 5 6 
#
# 1 0.018173 -0.005339 -0.005688 0.000000 0.005983 0.000000
# 2 -0.005339 0.030075 -0.002942 0.000000 -0.001167 0.000000
# 3 -0.005688 -0.002942 0.017146 0.000000 0.002947 0.000000
# 4 0.000000 0.000000 0.000000 0.065798 0.000000 0.040315
# 5 0.005983 -0.001167 0.002947 0.000000 0.045672 0.000000
# 6 0.000000 0.000000 0.000000 0.040315 0.000000 0.259129
#
#
# Mechanical properties :
#
#
# Convention : Reuss Voigt Hill
#
# Bulk Modulus (GPa) = 26.69830 32.24361 29.47095
# Shear Modulus (GPa) = 10.49499 17.29748 13.89623
#
# Velocity S-wave (km/s) = 2.51572 3.22970 2.89481
# Velocity P-wave (km/s) = 4.95363 5.77512 5.38008
#
# Compressibility (1/GPa) = 0.03745558
#
# Stress axis : x y z
#
# Youngs Moduli (GPa) = 55.02621 33.24967 58.32248
#
# Poissons Ratio (x) = 0.17753 0.33173
# Poissons Ratio (y) = 0.29380 0.17161
# Poissons Ratio (z) = 0.31298 0.09783
#
# Static dielectric constant tensor:
#      x y z
#    x 3.061840 0.000000 -0.177070 
#    y 0.000000 2.869430 0.000000 
#    z -0.177070 0.000000 3.541930 
# 
# 
# High freq. dielectric constant tensor:
#      x y z
#    x 1.613790 0.000000 -0.019430 
#    y 0.000000 1.591900 0.000000 
#    z -0.019430 0.000000 1.656960 
# 
# From -- ./inp_files/19407.got.cif
#   From: 2010.06.25/outbox.cif.g09.slc.cpg/sg13_10_cif.got.tgz:19407.got - 2010.06.28 04:50:58.
