data_PCOD8118035
_publ_section_title
;
Structure prediction by ZEFSAII (Michael W. Deem and Ramdas Pophale) SiO2 
 PCOD8118035
Probable space group: P 2/C
;
_chemical_formula_sum "Si O2"
_cell_formula_units_Z 16
_cell_length_a 8.124797
_cell_length_b 18.030656
_cell_length_c 10.045060
_cell_angle_alpha 90.000000
_cell_angle_beta 149.391321
_cell_angle_gamma 90.000000
_cell_volume 749.274441
_symmetry_space_group_name_H-M "P 2/C"
_symmetry_group_IT_number 13
_symmetry_cell_setting 'monoclinic'
loop_
_space_group_symop_operation_xyz
x,y,z
-x,y,1/2-z
-x,-y,-z
x,-y,1/2+z
loop_
_atom_site_type_symbol
_atom_site_label
_atom_site_fract_x
_atom_site_fract_y
_atom_site_fract_z
Si Si1 0.677200 0.717337 0.740080
Si Si2 0.189538 0.790219 0.247207
Si Si3 0.689817 0.955461 0.246347
Si Si4 0.612538 0.557486 0.969470
O O1 0.500000 0.745482 0.750000
O O2 0.557277 0.763369 0.528000
O O3 0.603981 0.631160 0.662519
O O4 0.049931 0.740591 0.026878
O O5 0.186702 0.877084 0.220226
O O6 0.000000 0.770519 0.250000
O O7 0.500000 0.942994 0.250000
O O8 0.000000 0.000000 0.500000
O O9 0.500000 0.000000 0.000000
O O10 0.000000 0.573502 0.250000
O O11 0.500000 0.523345 0.750000
O O12 0.500000 0.500000 0.000000
#
# Coordination Sequence:
#
# PCOD8118035 Si02
#       4
#     4   4   4   4
#     4   9  18  34  58  83 114 156 201 242 296 366
#     4  10  19  35  59  85 112 153 202 248 296 357
#     4  12  25  42  63  91 125 161 201 250 305 366
#     4  11  22  39  62  91 125 164 209 258 309 369
#
# _framework density 21.353991000000001
#
# number of rings (size 3 to 8) (size 9 to 14) (size 15 to 20)
#    0.000    1.500    0.000    8.250    0.000    2.000 
#    0.000    3.750    0.000    0.000    0.000    0.000 
#    0.000    0.000    0.000    0.000    0.000    0.000 
#
# Total GULP energy -198248.681541 kJ/mol
# GULP energy per Si atom -12390.542596 kJ/mol
# Density = 2.130539 g / cm^3
# Si number density = 21.353991 Si / 1000 Ang^3
#
#
#
# Elastic Constant Matrix: (Units=GPa)
#
#
# Indices 1 2 3 4 5 6 
#
# 1 31.6822 22.8093 33.3795 0.0000 -5.4260 0.0000
# 2 22.8093 162.0431 102.7984 0.0000 -5.0915 0.0000
# 3 33.3795 102.7984 230.0859 0.0000 -6.3504 0.0000
# 4 0.0000 0.0000 0.0000 49.6487 0.0000 -7.2600
# 5 -5.4260 -5.0915 -6.3504 0.0000 24.2056 0.0000
# 6 0.0000 0.0000 0.0000 -7.2600 0.0000 29.0598
#
#
#
# Elastic Compliance Matrix: (Units=1/GPa)
#
#
# Indices 1 2 3 4 5 6 
#
# 1 0.039195 -0.002527 -0.004361 0.000000 0.007110 0.000000
# 2 -0.002527 0.008791 -0.003551 0.000000 0.000351 0.000000
# 3 -0.004361 -0.003551 0.006565 0.000000 -0.000002 0.000000
# 4 0.000000 0.000000 0.000000 0.020905 0.000000 0.005223
# 5 0.007110 0.000351 -0.000002 0.000000 0.042980 0.000000
# 6 0.000000 0.000000 0.000000 0.005223 0.000000 0.035717
#
#
# Mechanical properties :
#
#
# Convention : Reuss Voigt Hill
#
# Bulk Modulus (GPa) = 29.69769 82.42063 56.05916
# Shear Modulus (GPa) = 26.84479 38.23778 32.54128
#
# Velocity S-wave (km/s) = 3.54945 4.23621 3.90795
# Velocity P-wave (km/s) = 5.54398 7.91255 6.83169
#
# Compressibility (1/GPa) = 0.03367266
#
# Stress axis : x y z
#
# Youngs Moduli (GPa) = 25.51342 113.75465 152.31295
#
# Poissons Ratio (x) = 0.28749 0.66421
# Poissons Ratio (y) = 0.06448 0.54090
# Poissons Ratio (z) = 0.11126 0.40397
#
# Static dielectric constant tensor:
#      x y z
#    x 3.449850 0.000000 -0.046470 
#    y 0.000000 3.700920 0.000000 
#    z -0.046470 0.000000 4.862350 
# 
# 
# High freq. dielectric constant tensor:
#      x y z
#    x 1.792560 0.000000 -0.007710 
#    y 0.000000 1.843830 0.000000 
#    z -0.007710 0.000000 1.879660 
# 
# From -- ./inp_files/9231.got.cif
#   From: 2010.06.25/outbox.cif.g09.slc.cpg/sg13_5_cif.got.tgz:9231.got - 2010.06.28 04:50:58.
