data_PCOD8118688
_publ_section_title
;
Structure prediction by ZEFSAII (Michael W. Deem and Ramdas Pophale) SiO2 
 PCOD8118688
Probable space group: P 2/C
;
_chemical_formula_sum "Si O2"
_cell_formula_units_Z 20
_cell_length_a 5.731353
_cell_length_b 10.906882
_cell_length_c 15.401324
_cell_angle_alpha 90.000000
_cell_angle_beta 83.249408
_cell_angle_gamma 90.000000
_cell_volume 956.080557
_symmetry_space_group_name_H-M "P 2/C"
_symmetry_group_IT_number 13
_symmetry_cell_setting 'monoclinic'
loop_
_space_group_symop_operation_xyz
x,y,z
-x,y,1/2-z
-x,-y,-z
x,-y,1/2+z
loop_
_atom_site_type_symbol
_atom_site_label
_atom_site_fract_x
_atom_site_fract_y
_atom_site_fract_z
Si Si1 0.610565 0.757632 0.363547
Si Si2 0.760365 0.199688 0.213174
Si Si3 0.174688 0.310070 0.471486
Si Si4 0.500000 0.032242 0.750000
Si Si5 0.000000 0.629352 0.250000
Si Si6 0.220722 0.431818 0.910437
O O1 0.711328 0.767838 0.456031
O O2 0.503288 0.887210 0.338185
O O3 0.436015 0.644732 0.367926
O O4 0.796362 0.724338 0.281892
O O5 0.500000 0.261181 0.250000
O O6 0.816302 0.220032 0.109921
O O7 0.000000 0.248288 0.250000
O O8 0.731846 0.054246 0.233192
O O9 0.310000 0.437576 0.443283
O O10 0.912411 0.353377 0.509289
O O11 0.056545 0.545240 0.332000
#
# Coordination Sequence:
#
# PCOD8118688 Si02
#       6
#     4   4   4   2   2   4
#     4  11  21  40  66  94 128 167 219 270 326 394
#     4  10  26  46  67  94 132 178 226 273 328 392
#     4  10  24  40  64  97 130 170 213 276 331 399
#     4  10  24  42  66  92 126 176 226 276 316 392
#     4  10  20  34  62 100 122 176 206 266 334 392
#     4  10  21  38  63  97 133 164 214 268 334 400
#
# _framework density 20.918738999999999
#
# number of rings (size 3 to 8) (size 9 to 14) (size 15 to 20)
#    0.600    1.200    2.000    0.600    5.600    2.400 
#    0.000    2.000    0.000    0.000    0.000    0.000 
#    0.000    0.000    0.000    0.000    0.000    0.000 
#
# Total GULP energy -247766.397002 kJ/mol
# GULP energy per Si atom -12388.319850 kJ/mol
# Density = 2.087113 g / cm^3
# Si number density = 20.918739 Si / 1000 Ang^3
#
#
#
# Elastic Constant Matrix: (Units=GPa)
#
#
# Indices 1 2 3 4 5 6 
#
# 1 97.5636 21.1473 35.9076 0.0000 -11.7375 0.0000
# 2 21.1473 61.8018 35.8666 0.0000 -3.5424 0.0000
# 3 35.9076 35.8666 141.0903 0.0000 -1.0715 0.0000
# 4 0.0000 0.0000 0.0000 28.8876 0.0000 -4.8307
# 5 -11.7375 -3.5424 -1.0715 0.0000 29.3712 0.0000
# 6 0.0000 0.0000 0.0000 -4.8307 0.0000 19.2798
#
#
#
# Elastic Compliance Matrix: (Units=1/GPa)
#
#
# Indices 1 2 3 4 5 6 
#
# 1 0.012233 -0.002512 -0.002441 0.000000 0.004497 0.000000
# 2 -0.002512 0.019629 -0.004341 0.000000 0.001205 0.000000
# 3 -0.002441 -0.004341 0.008804 0.000000 -0.001178 0.000000
# 4 0.000000 0.000000 0.000000 0.036131 0.000000 0.009053
# 5 0.004497 0.001205 -0.001178 0.000000 0.035946 0.000000
# 6 0.000000 0.000000 0.000000 0.009053 0.000000 0.054136
#
#
# Mechanical properties :
#
#
# Convention : Reuss Voigt Hill
#
# Bulk Modulus (GPa) = 45.29425 54.03320 49.66373
# Shear Modulus (GPa) = 25.93007 29.34335 27.63671
#
# Velocity S-wave (km/s) = 3.52456 3.74937 3.63870
# Velocity P-wave (km/s) = 6.18570 6.68055 6.43788
#
# Compressibility (1/GPa) = 0.02207786
#
# Stress axis : x y z
#
# Youngs Moduli (GPa) = 81.74300 50.94532 113.59080
#
# Poissons Ratio (x) = 0.12796 0.27725
# Poissons Ratio (y) = 0.20532 0.49315
# Poissons Ratio (z) = 0.19951 0.22118
#
# Static dielectric constant tensor:
#      x y z
#    x 3.903360 0.000000 0.065780 
#    y 0.000000 3.459400 0.000000 
#    z 0.065780 0.000000 3.968510 
# 
# 
# High freq. dielectric constant tensor:
#      x y z
#    x 1.815790 0.000000 -0.001110 
#    y 0.000000 1.792610 0.000000 
#    z -0.001110 0.000000 1.834140 
# 
# From -- ./inp_files/43500.got.cif
#   From: 2010.06.25/outbox.cif.g09.slc.cpg/sg13_22_cif.got.tgz:43500.got - 2010.06.28 04:50:58.
