data_PCOD8118429
_publ_section_title
;
Structure prediction by ZEFSAII (Michael W. Deem and Ramdas Pophale) SiO2 
 PCOD8118429
Probable space group: P 2/C
;
_chemical_formula_sum "Si O2"
_cell_formula_units_Z 28
_cell_length_a 11.710384
_cell_length_b 8.609864
_cell_length_c 30.373877
_cell_angle_alpha 90.000000
_cell_angle_beta 26.056584
_cell_angle_gamma 90.000000
_cell_volume 1345.203203
_symmetry_space_group_name_H-M "P 2/C"
_symmetry_group_IT_number 13
_symmetry_cell_setting 'monoclinic'
loop_
_space_group_symop_operation_xyz
x,y,z
-x,y,1/2-z
-x,-y,-z
x,-y,1/2+z
loop_
_atom_site_type_symbol
_atom_site_label
_atom_site_fract_x
_atom_site_fract_y
_atom_site_fract_z
Si Si1 0.784095 0.847499 0.259681
Si Si2 0.883450 0.866089 0.616436
Si Si3 0.789424 0.777329 0.165111
Si Si4 0.633613 0.163283 0.956102
Si Si5 0.592542 0.694792 0.045924
Si Si6 0.311050 0.661522 0.971121
Si Si7 0.481870 0.160102 0.181058
O O1 0.616833 0.001641 0.306924
O O2 0.774949 0.731270 0.221226
O O3 0.665047 0.758203 0.341822
O O4 0.088737 0.874325 0.162650
O O5 0.721601 0.779658 0.711421
O O6 0.755210 0.859043 0.612358
O O7 0.165282 0.789147 0.517675
O O8 0.894492 0.046731 0.625100
O O9 0.500000 0.750550 0.250000
O O10 0.001352 0.670133 0.066818
O O11 0.454587 0.280044 0.989580
O O12 0.641804 0.229169 0.002807
O O13 0.500000 0.000000 0.000000
O O14 0.617185 0.513552 0.044656
O O15 0.482835 0.716494 0.870244
#
# Coordination Sequence:
#
# PCOD8118429 Si02
#       7
#     4   4   4   4   4   4   4
#     4  10  21  39  67  94 120 163 216 270 311 371
#     4  10  21  40  67  92 127 168 216 278 299 376
#     4  10  19  40  63  92 121 164 219 267 312 366
#     4  11  23  46  71  93 120 166 227 273 309 368
#     4  12  25  41  60  96 136 170 206 253 338 391
#     4  11  26  39  62  93 134 172 203 264 331 391
#     4  10  20  41  64  96 122 163 224 261 320 364
#
# _framework density 20.814699000000001
#
# number of rings (size 3 to 8) (size 9 to 14) (size 15 to 20)
#    0.000    1.429    2.857    5.143    2.000    4.000 
#    2.571    6.429    0.000    0.000    0.000    0.000 
#    0.000    0.000    0.000    0.000    0.000    0.000 
#
# Total GULP energy -347023.211019 kJ/mol
# GULP energy per Si atom -12393.686108 kJ/mol
# Density = 2.076732 g / cm^3
# Si number density = 20.814699 Si / 1000 Ang^3
#
#
#
# Elastic Constant Matrix: (Units=GPa)
#
#
# Indices 1 2 3 4 5 6 
#
# 1 98.6459 66.2537 45.5838 0.0000 -9.6838 0.0000
# 2 66.2537 103.2506 61.9351 0.0000 -2.4124 0.0000
# 3 45.5838 61.9351 114.6105 0.0000 -11.1042 0.0000
# 4 0.0000 0.0000 0.0000 13.5684 0.0000 3.5956
# 5 -9.6838 -2.4124 -11.1042 0.0000 38.4189 0.0000
# 6 0.0000 0.0000 0.0000 3.5956 0.0000 25.0357
#
#
#
# Elastic Compliance Matrix: (Units=1/GPa)
#
#
# Indices 1 2 3 4 5 6 
#
# 1 0.018445 -0.011190 -0.000933 0.000000 0.003677 0.000000
# 2 -0.011190 0.021191 -0.007351 0.000000 -0.003615 0.000000
# 3 -0.000933 -0.007351 0.013376 0.000000 0.003169 0.000000
# 4 0.000000 0.000000 0.000000 0.076617 0.000000 -0.011003
# 5 0.003677 -0.003615 0.003169 0.000000 0.027645 0.000000
# 6 0.000000 0.000000 0.000000 -0.011003 0.000000 0.041523
#
#
# Mechanical properties :
#
#
# Convention : Reuss Voigt Hill
#
# Bulk Modulus (GPa) = 71.10564 73.78358 72.44461
# Shear Modulus (GPa) = 20.62435 24.92022 22.77229
#
# Velocity S-wave (km/s) = 3.15120 3.46387 3.31123
# Velocity P-wave (km/s) = 6.89025 7.17793 7.03556
#
# Compressibility (1/GPa) = 0.01406358
#
# Stress axis : x y z
#
# Youngs Moduli (GPa) = 54.21513 47.19018 74.76309
#
# Poissons Ratio (x) = 0.52808 0.06972
# Poissons Ratio (y) = 0.60669 0.54958
# Poissons Ratio (z) = 0.05056 0.34689
#
# Static dielectric constant tensor:
#      x y z
#    x 5.101780 0.000000 0.223820 
#    y 0.000000 3.464290 0.000000 
#    z 0.223820 0.000000 4.167660 
# 
# 
# High freq. dielectric constant tensor:
#      x y z
#    x 1.829630 0.000000 -0.001570 
#    y 0.000000 1.786380 0.000000 
#    z -0.001570 0.000000 1.826820 
# 
# From -- ./inp_files/96537.got.cif
#   From: 2010.06.25/outbox.cif.g09.slc.cpg/sg13_49_cif.got.tgz:96537.got - 2010.06.28 04:50:58.
