data_PCOD8118447
_publ_section_title
;
Structure prediction by ZEFSAII (Michael W. Deem and Ramdas Pophale) SiO2 
 PCOD8118447
Probable space group: P 2/C
;
_chemical_formula_sum "Si O2"
_cell_formula_units_Z 28
_cell_length_a 12.334912
_cell_length_b 12.890089
_cell_length_c 9.998304
_cell_angle_alpha 90.000000
_cell_angle_beta 55.022485
_cell_angle_gamma 90.000000
_cell_volume 1302.573136
_symmetry_space_group_name_H-M "P 2/C"
_symmetry_group_IT_number 13
_symmetry_cell_setting 'monoclinic'
loop_
_space_group_symop_operation_xyz
x,y,z
-x,y,1/2-z
-x,-y,-z
x,-y,1/2+z
loop_
_atom_site_type_symbol
_atom_site_label
_atom_site_fract_x
_atom_site_fract_y
_atom_site_fract_z
Si Si1 0.364785 0.060362 0.912913
Si Si2 0.284390 0.085911 0.261879
Si Si3 0.767271 0.260750 0.555667
Si Si4 0.359609 0.634720 0.105955
Si Si5 0.644270 0.709926 0.663928
Si Si6 0.332215 0.395133 0.098972
Si Si7 0.998009 0.902851 0.601210
O O1 0.500000 0.019429 0.750000
O O2 0.350365 0.182253 0.900347
O O3 0.254981 0.001920 0.897338
O O4 0.352834 0.035380 0.080067
O O5 0.373645 0.173572 0.267543
O O6 0.149344 0.143791 0.315016
O O7 0.729513 0.327319 0.710064
O O8 0.770794 0.343258 0.432154
O O9 0.900637 0.193429 0.487566
O O10 0.325846 0.517676 0.089004
O O11 0.300981 0.705457 0.025692
O O12 0.516161 0.646893 0.028375
O O13 0.500000 0.658253 0.750000
O O14 0.720423 0.637534 0.716516
O O15 0.000000 0.947675 0.750000
O O16 0.000000 0.000000 0.500000
#
# Coordination Sequence:
#
# PCOD8118447 Si02
#       7
#     4   4   4   4   4   4   4
#     4  12  25  39  65  95 131 166 211 275 341 406
#     4  12  24  43  60  91 128 170 214 268 326 398
#     4  12  23  39  67  95 132 175 222 270 325 397
#     4  10  22  35  66  97 132 168 214 277 333 401
#     4  10  21  36  58  88 124 161 201 261 333 390
#     4  10  19  41  61  97 133 169 216 271 339 395
#     4  12  24  45  65  89 125 183 232 273 319 394
#
# _framework density 21.495915
#
# number of rings (size 3 to 8) (size 9 to 14) (size 15 to 20)
#    0.000    0.857    4.286    3.000    4.000    3.429 
#    0.000    0.000    0.000    9.429    0.000    0.000 
#    0.000    0.000    0.000    0.000    0.000    0.000 
#
# Total GULP energy -346902.787053 kJ/mol
# GULP energy per Si atom -12389.385252 kJ/mol
# Density = 2.144699 g / cm^3
# Si number density = 21.495915 Si / 1000 Ang^3
#
#
#
# Elastic Constant Matrix: (Units=GPa)
#
#
# Indices 1 2 3 4 5 6 
#
# 1 89.3032 42.4496 53.7149 0.0000 19.3244 0.0000
# 2 42.4496 100.4880 48.4878 0.0000 20.2179 0.0000
# 3 53.7149 48.4878 137.7438 0.0000 40.6428 0.0000
# 4 0.0000 0.0000 0.0000 30.8966 0.0000 9.2533
# 5 19.3244 20.2179 40.6428 0.0000 41.8593 0.0000
# 6 0.0000 0.0000 0.0000 9.2533 0.0000 38.7574
#
#
#
# Elastic Compliance Matrix: (Units=1/GPa)
#
#
# Indices 1 2 3 4 5 6 
#
# 1 0.016233 -0.004510 -0.004449 0.000000 -0.000996 0.000000
# 2 -0.004510 0.013411 -0.002334 0.000000 -0.002129 0.000000
# 3 -0.004449 -0.002334 0.012442 0.000000 -0.008900 0.000000
# 4 0.000000 0.000000 0.000000 0.034859 0.000000 -0.008322
# 5 -0.000996 -0.002129 -0.008900 0.000000 0.034019 0.000000
# 6 0.000000 0.000000 0.000000 -0.008322 0.000000 0.027788
#
#
# Mechanical properties :
#
#
# Convention : Reuss Voigt Hill
#
# Bulk Modulus (GPa) = 51.27974 68.53773 59.90874
# Shear Modulus (GPa) = 29.79051 34.49485 32.14268
#
# Velocity S-wave (km/s) = 3.72676 4.01024 3.87110
# Velocity P-wave (km/s) = 6.51350 7.30725 6.92177
#
# Compressibility (1/GPa) = 0.01950088
#
# Stress axis : x y z
#
# Youngs Moduli (GPa) = 61.60211 74.56372 80.37227
#
# Poissons Ratio (x) = 0.33632 0.35755
# Poissons Ratio (y) = 0.27785 0.18757
# Poissons Ratio (z) = 0.27405 0.17401
#
# Static dielectric constant tensor:
#      x y z
#    x 4.073890 0.000000 0.260130 
#    y 0.000000 3.710580 0.000000 
#    z 0.260130 0.000000 4.028130 
# 
# 
# High freq. dielectric constant tensor:
#      x y z
#    x 1.836260 0.000000 0.032560 
#    y 0.000000 1.840020 0.000000 
#    z 0.032560 0.000000 1.841780 
# 
# From -- ./inp_files/16672.got.cif
#   From: 2010.06.25/outbox.cif.g09.slc.cpg/sg13_9_cif.got.tgz:16672.got - 2010.06.28 04:50:58.
