data_PCOD8118563
_publ_section_title
;
Structure prediction by ZEFSAII (Michael W. Deem and Ramdas Pophale) SiO2 
 PCOD8118563
Probable space group: P 2/C
;
_chemical_formula_sum "Si O2"
_cell_formula_units_Z 24
_cell_length_a 14.293592
_cell_length_b 6.152180
_cell_length_c 22.203936
_cell_angle_alpha 90.000000
_cell_angle_beta 38.143346
_cell_angle_gamma 90.000000
_cell_volume 1205.950536
_symmetry_space_group_name_H-M "P 2/C"
_symmetry_group_IT_number 13
_symmetry_cell_setting 'monoclinic'
loop_
_space_group_symop_operation_xyz
x,y,z
-x,y,1/2-z
-x,-y,-z
x,-y,1/2+z
loop_
_atom_site_type_symbol
_atom_site_label
_atom_site_fract_x
_atom_site_fract_y
_atom_site_fract_z
Si Si1 0.318932 0.415605 0.609462
Si Si2 0.257931 0.797911 0.019421
Si Si3 0.487883 0.558644 0.826934
Si Si4 0.297500 0.798284 0.700362
Si Si5 0.060073 0.106214 0.785507
Si Si6 0.461560 0.176397 0.925696
O O1 0.302884 0.382047 0.546499
O O2 0.304613 0.667945 0.633765
O O3 0.187442 0.289427 0.712507
O O4 0.487475 0.331105 0.544303
O O5 0.076405 0.799224 0.104213
O O6 0.348212 0.721603 0.914223
O O7 0.305102 0.044326 0.015522
O O8 0.500000 0.547307 0.750000
O O9 0.650906 0.639194 0.771170
O O10 0.452006 0.317511 0.869557
O O11 0.128881 0.901251 0.788001
O O12 0.413183 0.993448 0.642761
O O13 0.000000 0.033707 0.750000
#
# Coordination Sequence:
#
# PCOD8118563 Si02
#       6
#     4   4   4   4   4   4
#     4   9  18  33  53  82 114 140 171 218 278 339
#     4  10  20  33  55  84 111 143 182 222 274 331
#     4  10  22  38  55  77 107 147 196 241 272 305
#     4   9  19  36  58  80 111 147 178 220 276 333
#     4   9  19  33  53  85 119 146 172 210 275 345
#     4   9  19  33  53  78 108 142 182 229 278 327
#
# _framework density 19.901313999999999
#
# number of rings (size 3 to 8) (size 9 to 14) (size 15 to 20)
#    0.000    2.667    0.000    0.500    0.000   17.333 
#    0.000    0.833    0.000   10.000    0.000    0.000 
#    0.000    0.000    0.000    0.000    0.000    0.000 
#
# Total GULP energy -297411.604379 kJ/mol
# GULP energy per Si atom -12392.150182 kJ/mol
# Density = 1.985602 g / cm^3
# Si number density = 19.901314 Si / 1000 Ang^3
#
#
#
# Elastic Constant Matrix: (Units=GPa)
#
#
# Indices 1 2 3 4 5 6 
#
# 1 71.2021 30.2588 47.7148 0.0000 -3.6304 0.0000
# 2 30.2588 83.7575 26.5841 0.0000 -2.8437 0.0000
# 3 47.7148 26.5841 101.2267 0.0000 -7.1366 0.0000
# 4 0.0000 0.0000 0.0000 15.6348 0.0000 1.3281
# 5 -3.6304 -2.8437 -7.1366 0.0000 37.6425 0.0000
# 6 0.0000 0.0000 0.0000 1.3281 0.0000 25.4632
#
#
#
# Elastic Compliance Matrix: (Units=1/GPa)
#
#
# Indices 1 2 3 4 5 6 
#
# 1 0.022413 -0.005175 -0.009204 0.000000 0.000026 0.000000
# 2 -0.005175 0.014224 -0.001273 0.000000 0.000334 0.000000
# 3 -0.009204 -0.001273 0.014678 0.000000 0.001799 0.000000
# 4 0.000000 0.000000 0.000000 0.064245 0.000000 -0.003351
# 5 0.000026 0.000334 0.001799 0.000000 0.026935 0.000000
# 6 0.000000 0.000000 0.000000 -0.003351 0.000000 0.039447
#
#
# Mechanical properties :
#
#
# Convention : Reuss Voigt Hill
#
# Bulk Modulus (GPa) = 49.96919 51.70019 50.83469
# Shear Modulus (GPa) = 22.73607 25.85666 24.29637
#
# Velocity S-wave (km/s) = 3.38367 3.60841 3.49785
# Velocity P-wave (km/s) = 6.35835 6.58753 6.47395
#
# Compressibility (1/GPa) = 0.02001233
#
# Stress axis : x y z
#
# Youngs Moduli (GPa) = 44.61745 70.30354 68.12818
#
# Poissons Ratio (x) = 0.36381 0.62704
# Poissons Ratio (y) = 0.23089 0.08671
# Poissons Ratio (z) = 0.41065 0.08947
#
# Static dielectric constant tensor:
#      x y z
#    x 3.767720 0.000000 -0.466700 
#    y 0.000000 4.111770 0.000000 
#    z -0.466700 0.000000 3.448870 
# 
# 
# High freq. dielectric constant tensor:
#      x y z
#    x 1.752790 0.000000 -0.028600 
#    y 0.000000 1.795140 0.000000 
#    z -0.028600 0.000000 1.750070 
# 
# From -- ./inp_files/78982.got.cif
#   From: 2010.06.25/outbox.cif.g09.slc.cpg/sg13_40_cif.got.tgz:78982.got - 2010.06.28 04:50:58.
