data_PCOD8118542
_publ_section_title
;
Structure prediction by ZEFSAII (Michael W. Deem and Ramdas Pophale) SiO2 
 PCOD8118542
Probable space group: P 2/C
;
_chemical_formula_sum "Si O2"
_cell_formula_units_Z 32
_cell_length_a 17.883855
_cell_length_b 12.159380
_cell_length_c 24.024932
_cell_angle_alpha 90.000000
_cell_angle_beta 19.518787
_cell_angle_gamma 90.000000
_cell_volume 1745.548495
_symmetry_space_group_name_H-M "P 2/C"
_symmetry_group_IT_number 13
_symmetry_cell_setting 'monoclinic'
loop_
_space_group_symop_operation_xyz
x,y,z
-x,y,1/2-z
-x,-y,-z
x,-y,1/2+z
loop_
_atom_site_type_symbol
_atom_site_label
_atom_site_fract_x
_atom_site_fract_y
_atom_site_fract_z
Si Si1 0.247660 0.466758 0.911371
Si Si2 0.826624 0.312902 0.918761
Si Si3 0.645454 0.054431 0.756513
Si Si4 0.072733 0.928032 0.028628
Si Si5 0.374947 0.306955 0.729371
Si Si6 0.981628 0.682170 0.430101
Si Si7 0.200612 0.925779 0.064814
Si Si8 0.200348 0.551831 0.566319
O O1 0.500000 0.496458 0.750000
O O2 0.239248 0.365716 0.874592
O O3 0.149839 0.577631 0.951643
O O4 0.119931 0.432003 0.058373
O O5 0.978441 0.329265 0.866478
O O6 0.689993 0.198194 0.016378
O O7 0.692922 0.427417 0.002606
O O8 0.000000 0.291355 0.750000
O O9 0.598874 0.180316 0.773120
O O10 0.820317 0.041660 0.685181
O O11 0.743117 0.998094 0.632924
O O12 0.405213 0.002567 0.940333
O O13 0.124028 0.799755 0.978180
O O14 0.097367 0.955900 0.076716
O O15 0.614402 0.359124 0.549109
O O16 0.238294 0.322313 0.768593
O O17 0.000000 0.938125 0.250000
O O18 0.000000 0.569010 0.750000
#
# Coordination Sequence:
#
# PCOD8118542 Si02
#       8
#     4   4   4   4   4   4   4   4
#     4   9  18  31  50  74 100 129 163 205 248 292
#     4   8  16  33  52  73 100 126 162 208 251 295
#     4  10  21  36  52  74 105 138 171 209 252 303
#     4   9  20  36  54  76 102 134 172 212 253 300
#     4  10  20  33  50  73 104 133 163 205 249 291
#     4   9  17  32  54  76  97 126 168 210 247 291
#     4  10  20  34  57  80 100 133 171 212 259 299
#     4   9  18  33  51  71 100 135 165 198 243 300
#
# _framework density 18.332346000000001
#
# number of rings (size 3 to 8) (size 9 to 14) (size 15 to 20)
#    0.000    2.750    0.000    0.750    0.000    8.000 
#    0.000    6.875    0.000    7.500    0.000    0.000 
#    0.000    0.000    0.000    0.000    0.000    0.000 
#
# Total GULP energy -396444.155937 kJ/mol
# GULP energy per Si atom -12388.879873 kJ/mol
# Density = 1.829062 g / cm^3
# Si number density = 18.332346 Si / 1000 Ang^3
#
#
#
# Elastic Constant Matrix: (Units=GPa)
#
#
# Indices 1 2 3 4 5 6 
#
# 1 66.1812 48.8803 47.2106 0.0000 3.6056 0.0000
# 2 48.8803 142.3492 63.2754 0.0000 -6.9118 0.0000
# 3 47.2106 63.2754 95.6806 0.0000 7.7725 0.0000
# 4 0.0000 0.0000 0.0000 31.6606 0.0000 -5.0767
# 5 3.6056 -6.9118 7.7725 0.0000 27.7341 0.0000
# 6 0.0000 0.0000 0.0000 -5.0767 0.0000 25.6522
#
#
#
# Elastic Compliance Matrix: (Units=1/GPa)
#
#
# Indices 1 2 3 4 5 6 
#
# 1 0.025224 -0.004655 -0.009217 0.000000 -0.001856 0.000000
# 2 -0.004655 0.011369 -0.005629 0.000000 0.005016 0.000000
# 3 -0.009217 -0.005629 0.019175 0.000000 -0.005579 0.000000
# 4 0.000000 0.000000 0.000000 0.032620 0.000000 0.006456
# 5 -0.001856 0.005016 -0.005579 0.000000 0.039111 0.000000
# 6 0.000000 0.000000 0.000000 0.006456 0.000000 0.040261
#
#
# Mechanical properties :
#
#
# Convention : Reuss Voigt Hill
#
# Bulk Modulus (GPa) = 59.64337 69.21595 64.42966
# Shear Modulus (GPa) = 23.54584 26.66570 25.10577
#
# Velocity S-wave (km/s) = 3.58772 3.81802 3.70466
# Velocity P-wave (km/s) = 7.05461 7.56799 7.31581
#
# Compressibility (1/GPa) = 0.01676632
#
# Stress axis : x y z
#
# Youngs Moduli (GPa) = 39.64487 87.95696 52.15031
#
# Poissons Ratio (x) = 0.40940 0.48067
# Poissons Ratio (y) = 0.18453 0.29358
# Poissons Ratio (z) = 0.36541 0.49515
#
# Static dielectric constant tensor:
#      x y z
#    x 3.512430 0.000000 0.052170 
#    y 0.000000 3.732890 0.000000 
#    z 0.052170 0.000000 2.941590 
# 
# 
# High freq. dielectric constant tensor:
#      x y z
#    x 1.710520 0.000000 0.006520 
#    y 0.000000 1.726760 0.000000 
#    z 0.006520 0.000000 1.683260 
# 
# From -- ./inp_files/88172.got.cif
#   From: 2010.06.25/outbox.cif.g09.slc.cpg/sg13_45_cif.got.tgz:88172.got - 2010.06.28 04:50:58.
