data_PCOD8118609
_publ_section_title
;
Structure prediction by ZEFSAII (Michael W. Deem and Ramdas Pophale) SiO2 
 PCOD8118609
Probable space group: P 2/C
;
_chemical_formula_sum "Si O2"
_cell_formula_units_Z 24
_cell_length_a 18.894493
_cell_length_b 7.959475
_cell_length_c 24.844020
_cell_angle_alpha 90.000000
_cell_angle_beta 19.035740
_cell_angle_gamma 90.000000
_cell_volume 1218.623142
_symmetry_space_group_name_H-M "P 2/C"
_symmetry_group_IT_number 13
_symmetry_cell_setting 'monoclinic'
loop_
_space_group_symop_operation_xyz
x,y,z
-x,y,1/2-z
-x,-y,-z
x,-y,1/2+z
loop_
_atom_site_type_symbol
_atom_site_label
_atom_site_fract_x
_atom_site_fract_y
_atom_site_fract_z
Si Si1 0.591883 0.856752 0.896939
Si Si2 0.860142 0.553969 0.727992
Si Si3 0.992417 0.053977 0.595729
Si Si4 0.136547 0.754902 0.204529
Si Si5 0.727757 0.254899 0.613321
Si Si6 0.136602 0.356748 0.874580
O O1 0.692344 0.704400 0.860318
O O2 0.389508 0.789168 0.007486
O O3 0.789700 0.937323 0.720573
O O4 0.500000 0.000000 0.000000
O O5 0.890113 0.440081 0.759243
O O6 0.751377 0.437317 0.758889
O O7 0.094626 0.622442 0.541128
O O8 0.948418 0.122447 0.687347
O O9 0.018309 0.204410 0.534360
O O10 0.207340 0.940085 0.442025
O O11 0.000000 0.793127 0.250000
O O12 0.500000 0.293146 0.750000
O O13 0.698472 0.289143 0.698523
O O14 0.000000 0.500000 0.000000
#
# Coordination Sequence:
#
# PCOD8118609 Si02
#       6
#     4   4   4   4   4   4
#     4   9  18  34  55  74 101 140 174 208 256 313
#     4   9  19  36  53  75 106 138 175 210 253 317
#     4   9  19  36  53  75 106 138 175 210 253 317
#     4  10  20  34  53  79 105 134 172 218 260 298
#     4  10  20  34  53  79 105 134 172 218 260 298
#     4   9  18  34  55  74 101 140 174 208 256 313
#
# _framework density 19.694358000000001
#
# number of rings (size 3 to 8) (size 9 to 14) (size 15 to 20)
#    0.000    2.667    0.000    1.000    0.000    2.667 
#    0.000   15.000    0.000    0.000    0.000    0.000 
#    0.000    0.000    0.000    0.000    0.000    0.000 
#
# Total GULP energy -297372.708134 kJ/mol
# GULP energy per Si atom -12390.529506 kJ/mol
# Density = 1.964953 g / cm^3
# Si number density = 19.694358 Si / 1000 Ang^3
#
#
#
# Elastic Constant Matrix: (Units=GPa)
#
#
# Indices 1 2 3 4 5 6 
#
# 1 127.1782 45.9157 43.9384 0.0000 -21.1548 0.0000
# 2 45.9157 125.3221 37.0315 0.0000 -7.8126 0.0000
# 3 43.9384 37.0315 75.4821 0.0000 -24.2405 0.0000
# 4 0.0000 0.0000 0.0000 23.7626 0.0000 -1.1345
# 5 -21.1548 -7.8126 -24.2405 0.0000 26.8538 0.0000
# 6 0.0000 0.0000 0.0000 -1.1345 0.0000 25.0551
#
#
#
# Elastic Compliance Matrix: (Units=1/GPa)
#
#
# Indices 1 2 3 4 5 6 
#
# 1 0.010787 -0.002625 -0.003531 0.000000 0.004546 0.000000
# 2 -0.002625 0.010048 -0.004403 0.000000 -0.003120 0.000000
# 3 -0.003531 -0.004403 0.022756 0.000000 0.016479 0.000000
# 4 0.000000 0.000000 0.000000 0.042174 0.000000 0.001910
# 5 0.004546 -0.003120 0.016479 0.000000 0.054788 0.000000
# 6 0.000000 0.000000 0.000000 0.001910 0.000000 0.039999
#
#
# Mechanical properties :
#
#
# Convention : Reuss Voigt Hill
#
# Bulk Modulus (GPa) = 44.50059 64.63930 54.56994
# Shear Modulus (GPa) = 23.90507 28.54075 26.22291
#
# Velocity S-wave (km/s) = 3.48775 3.81095 3.65292
# Velocity P-wave (km/s) = 6.23409 7.22889 6.74984
#
# Compressibility (1/GPa) = 0.02247161
#
# Stress axis : x y z
#
# Youngs Moduli (GPa) = 92.70395 99.52313 43.94488
#
# Poissons Ratio (x) = 0.26128 0.15517
# Poissons Ratio (y) = 0.24338 0.19349
# Poissons Ratio (z) = 0.32735 0.43821
#
# Static dielectric constant tensor:
#      x y z
#    x 3.652670 0.000000 0.131650 
#    y 0.000000 3.982080 0.000000 
#    z 0.131650 0.000000 3.802710 
# 
# 
# High freq. dielectric constant tensor:
#      x y z
#    x 1.742750 0.000000 0.002000 
#    y 0.000000 1.794490 0.000000 
#    z 0.002000 0.000000 1.745020 
# 
# From -- ./inp_files/87862.got.cif
#   From: 2010.06.25/outbox.cif.g09.slc.cpg/sg13_44_cif.got.tgz:87862.got - 2010.06.28 04:50:58.
