data_PCOD8118652
_publ_section_title
;
Structure prediction by ZEFSAII (Michael W. Deem and Ramdas Pophale) SiO2 
 PCOD8118652
Probable space group: P 2/C
;
_chemical_formula_sum "Si O2"
_cell_formula_units_Z 26
_cell_length_a 17.915354
_cell_length_b 9.065072
_cell_length_c 17.944865
_cell_angle_alpha 90.000000
_cell_angle_beta 153.180814
_cell_angle_gamma 90.000000
_cell_volume 1314.871244
_symmetry_space_group_name_H-M "P 2/C"
_symmetry_group_IT_number 13
_symmetry_cell_setting 'monoclinic'
loop_
_space_group_symop_operation_xyz
x,y,z
-x,y,1/2-z
-x,-y,-z
x,-y,1/2+z
loop_
_atom_site_type_symbol
_atom_site_label
_atom_site_fract_x
_atom_site_fract_y
_atom_site_fract_z
Si Si1 0.197724 0.596884 0.134892
Si Si2 0.500000 0.803105 0.250000
Si Si3 0.861229 0.741783 0.564763
Si Si4 0.975852 0.936797 0.144977
Si Si5 0.243580 0.061292 0.280215
Si Si6 0.906897 0.286135 0.459995
Si Si7 0.563010 0.848067 0.146374
O O1 0.225870 0.420192 0.156759
O O2 0.374972 0.678129 0.296802
O O3 0.098053 0.645438 0.971520
O O4 0.087955 0.641342 0.109318
O O5 0.669188 0.708093 0.417275
O O6 0.527573 0.900432 0.199736
O O7 0.000000 0.702223 0.750000
O O8 0.864465 0.916153 0.548159
O O9 0.000000 0.875864 0.250000
O O10 0.152996 0.976346 0.266220
O O11 0.892056 0.805645 0.023257
O O12 0.122391 0.179605 0.136085
O O13 0.401979 0.145839 0.452396
O O14 0.292224 0.948114 0.258454
#
# Coordination Sequence:
#
# PCOD8118652 Si02
#       7
#     4   2   4   4   4   4   4
#     4  10  21  36  57  81 117 159 191 232 295 359
#     4  10  20  34  56  88 114 146 196 252 284 354
#     4  10  20  36  61  86 117 156 201 245 300 350
#     4  11  21  36  61  88 115 153 197 251 303 351
#     4  11  21  36  61  87 116 151 198 251 296 351
#     4  11  21  36  57  84 118 151 190 242 292 362
#     4  10  21  37  59  85 116 153 199 245 297 351
#
# _framework density 19.773799
#
# number of rings (size 3 to 8) (size 9 to 14) (size 15 to 20)
#    0.000    1.538    3.077    4.154    0.000    1.231 
#    0.000    0.000    0.000   20.308    0.000    0.000 
#    0.000    0.000    0.000    0.000    0.000    0.000 
#
# Total GULP energy -322257.346738 kJ/mol
# GULP energy per Si atom -12394.513336 kJ/mol
# Density = 1.972879 g / cm^3
# Si number density = 19.773799 Si / 1000 Ang^3
#
#
#
# Elastic Constant Matrix: (Units=GPa)
#
#
# Indices 1 2 3 4 5 6 
#
# 1 125.4033 36.5286 29.4325 0.0000 -9.3210 0.0000
# 2 36.5286 94.1767 26.0983 0.0000 -7.1126 0.0000
# 3 29.4325 26.0983 87.1966 0.0000 0.4446 0.0000
# 4 0.0000 0.0000 0.0000 18.6322 0.0000 2.4224
# 5 -9.3210 -7.1126 0.4446 0.0000 36.0384 0.0000
# 6 0.0000 0.0000 0.0000 2.4224 0.0000 19.4897
#
#
#
# Elastic Compliance Matrix: (Units=1/GPa)
#
#
# Indices 1 2 3 4 5 6 
#
# 1 0.009512 -0.002892 -0.002355 0.000000 0.001918 0.000000
# 2 -0.002892 0.012657 -0.002821 0.000000 0.001785 0.000000
# 3 -0.002355 -0.002821 0.013114 0.000000 -0.001328 0.000000
# 4 0.000000 0.000000 0.000000 0.054552 0.000000 -0.006780
# 5 0.001918 0.001785 -0.001328 0.000000 0.028613 0.000000
# 6 0.000000 0.000000 0.000000 -0.006780 0.000000 0.052152
#
#
# Mechanical properties :
#
#
# Convention : Reuss Voigt Hill
#
# Bulk Modulus (GPa) = 52.22749 54.54393 53.38571
# Shear Modulus (GPa) = 25.89091 29.14656 27.51873
#
# Velocity S-wave (km/s) = 3.62243 3.84343 3.73457
# Velocity P-wave (km/s) = 6.63067 6.88039 6.75668
#
# Compressibility (1/GPa) = 0.01914700
#
# Stress axis : x y z
#
# Youngs Moduli (GPa) = 105.13075 79.00997 76.25224
#
# Poissons Ratio (x) = 0.22849 0.17957
# Poissons Ratio (y) = 0.30403 0.21512
# Poissons Ratio (z) = 0.24757 0.22290
#
# Static dielectric constant tensor:
#      x y z
#    x 3.810510 0.000000 -0.017870 
#    y 0.000000 3.429880 0.000000 
#    z -0.017870 0.000000 3.522210 
# 
# 
# High freq. dielectric constant tensor:
#      x y z
#    x 1.783400 0.000000 -0.003680 
#    y 0.000000 1.738980 0.000000 
#    z -0.003680 0.000000 1.766010 
# 
# From -- ./inp_files/69702.got.cif
#   From: 2010.06.25/outbox.cif.g09.slc.cpg/sg13_35_cif.got.tgz:69702.got - 2010.06.28 04:50:58.
