data_PCOD8118925
_publ_section_title
;
Structure prediction by ZEFSAII (Michael W. Deem and Ramdas Pophale) SiO2 
 PCOD8118925
Probable space group: P 2/C
;
_chemical_formula_sum "Si O2"
_cell_formula_units_Z 30
_cell_length_a 16.097701
_cell_length_b 7.038304
_cell_length_c 23.001578
_cell_angle_alpha 90.000000
_cell_angle_beta 34.519337
_cell_angle_gamma 90.000000
_cell_volume 1476.830736
_symmetry_space_group_name_H-M "P 2/C"
_symmetry_group_IT_number 13
_symmetry_cell_setting 'monoclinic'
loop_
_space_group_symop_operation_xyz
x,y,z
-x,y,1/2-z
-x,-y,-z
x,-y,1/2+z
loop_
_atom_site_type_symbol
_atom_site_label
_atom_site_fract_x
_atom_site_fract_y
_atom_site_fract_z
Si Si1 0.801185 0.158239 0.729446
Si Si2 0.864597 0.215301 0.405970
Si Si3 0.193482 0.177061 0.188681
Si Si4 0.870483 0.855092 0.475098
Si Si5 0.657406 0.559818 0.555244
Si Si6 0.343355 0.440118 0.182828
Si Si7 0.500000 0.330302 0.250000
Si Si8 0.252923 0.841078 0.828620
O O1 0.695982 0.338475 0.794550
O O2 0.969810 0.224585 0.633572
O O3 0.768656 0.022125 0.802642
O O4 0.769309 0.044763 0.688198
O O5 0.797805 0.131417 0.384736
O O6 0.771426 0.399345 0.473624
O O7 0.035183 0.262040 0.297917
O O8 0.854193 0.075272 0.467031
O O9 0.310743 0.339770 0.139614
O O10 0.749462 0.754284 0.504677
O O11 0.853865 0.824199 0.554109
O O12 0.518114 0.576398 0.592797
O O13 0.600106 0.527691 0.654374
O O14 0.237642 0.331595 0.290782
O O15 0.581921 0.181548 0.244359
#
# Coordination Sequence:
#
# PCOD8118925 Si02
#       8
#     4   4   4   4   4   4   2   4
#     4  10  20  36  59  80 107 150 187 226 286 330
#     4  10  21  38  61  82 109 150 189 227 279 328
#     4   9  21  40  57  83 114 141 188 242 270 317
#     4  10  21  36  55  82 111 142 188 236 275 329
#     4  10  21  36  55  83 114 149 186 224 278 334
#     4  10  21  36  55  81 113 147 181 226 280 330
#     4   8  18  36  52  78 122 150 176 230 274 326
#     4   9  19  34  53  82 115 142 184 234 272 325
#
# _framework density 20.313770999999999
#
# number of rings (size 3 to 8) (size 9 to 14) (size 15 to 20)
#    0.000    2.400    0.000    1.200    0.000    9.600 
#    0.000    5.333    0.000    0.000    0.000    0.000 
#    0.000    0.000    0.000    0.000    0.000    0.000 
#
# Total GULP energy -371768.733699 kJ/mol
# GULP energy per Si atom -12392.291123 kJ/mol
# Density = 2.026754 g / cm^3
# Si number density = 20.313771 Si / 1000 Ang^3
#
#
#
# Elastic Constant Matrix: (Units=GPa)
#
#
# Indices 1 2 3 4 5 6 
#
# 1 99.4649 22.6036 6.0654 0.0000 -0.7244 0.0000
# 2 22.6036 70.2043 12.7140 0.0000 -1.8454 0.0000
# 3 6.0654 12.7140 39.8826 0.0000 3.6522 0.0000
# 4 0.0000 0.0000 0.0000 22.3424 0.0000 -6.1725
# 5 -0.7244 -1.8454 3.6522 0.0000 24.1804 0.0000
# 6 0.0000 0.0000 0.0000 -6.1725 0.0000 32.8033
#
#
#
# Elastic Compliance Matrix: (Units=1/GPa)
#
#
# Indices 1 2 3 4 5 6 
#
# 1 0.010860 -0.003386 -0.000586 0.000000 0.000155 0.000000
# 2 -0.003386 0.016260 -0.004840 0.000000 0.001871 0.000000
# 3 -0.000586 -0.004840 0.027116 0.000000 -0.004483 0.000000
# 4 0.000000 0.000000 0.000000 0.047212 0.000000 0.008884
# 5 0.000155 0.001871 -0.004483 0.000000 0.042180 0.000000
# 6 0.000000 0.000000 0.000000 0.008884 0.000000 0.032156
#
#
# Mechanical properties :
#
#
# Convention : Reuss Voigt Hill
#
# Bulk Modulus (GPa) = 27.31384 32.47973 29.89678
# Shear Modulus (GPa) = 24.31741 27.07649 25.69695
#
# Velocity S-wave (km/s) = 3.46365 3.65487 3.56054
# Velocity P-wave (km/s) = 5.42872 5.81674 5.62608
#
# Compressibility (1/GPa) = 0.03661148
#
# Stress axis : x y z
#
# Youngs Moduli (GPa) = 92.07891 61.50023 36.87845
#
# Poissons Ratio (x) = 0.20826 0.02162
# Poissons Ratio (y) = 0.31181 0.17848
# Poissons Ratio (z) = 0.05399 0.29765
#
# Static dielectric constant tensor:
#      x y z
#    x 4.008650 0.000000 0.039260 
#    y 0.000000 3.460600 0.000000 
#    z 0.039260 0.000000 3.671530 
# 
# 
# High freq. dielectric constant tensor:
#      x y z
#    x 1.812010 0.000000 -0.002090 
#    y 0.000000 1.775560 0.000000 
#    z -0.002090 0.000000 1.783230 
# 
# From -- ./inp_files/86996.got.cif
#   From: 2010.06.25/outbox.cif.g09.slc.cpg/sg13_44_cif.got.tgz:86996.got - 2010.06.28 04:50:58.
