data_PCOD8118811
_publ_section_title
;
Structure prediction by ZEFSAII (Michael W. Deem and Ramdas Pophale) SiO2 
 PCOD8118811
Probable space group: P 2/C
;
_chemical_formula_sum "Si O2"
_cell_formula_units_Z 24
_cell_length_a 19.375686
_cell_length_b 8.779948
_cell_length_c 20.489536
_cell_angle_alpha 90.000000
_cell_angle_beta 159.074487
_cell_angle_gamma 90.000000
_cell_volume 1244.906158
_symmetry_space_group_name_H-M "P 2/C"
_symmetry_group_IT_number 13
_symmetry_cell_setting 'monoclinic'
loop_
_space_group_symop_operation_xyz
x,y,z
-x,y,1/2-z
-x,-y,-z
x,-y,1/2+z
loop_
_atom_site_type_symbol
_atom_site_label
_atom_site_fract_x
_atom_site_fract_y
_atom_site_fract_z
Si Si1 0.232380 0.850732 0.778357
Si Si2 0.333751 0.616079 0.512749
Si Si3 0.756456 0.426751 0.424308
Si Si4 0.995845 0.669643 0.468584
Si Si5 0.345331 0.807407 0.399250
Si Si6 0.058975 0.650319 0.731790
O O1 0.173244 0.781283 0.795494
O O2 0.066712 0.798843 0.581512
O O3 0.244901 0.030150 0.799928
O O4 0.437570 0.791087 0.934434
O O5 0.249299 0.656617 0.509872
O O6 0.544551 0.541871 0.708491
O O7 0.340586 0.763938 0.471972
O O8 0.198281 0.494407 0.358631
O O9 0.869003 0.313565 0.475663
O O10 0.864537 0.590914 0.523758
O O11 0.775131 0.693619 0.252647
O O12 0.000000 0.500000 0.500000
O O13 0.000000 0.716775 0.750000
#
# Coordination Sequence:
#
# PCOD8118811 Si02
#       6
#     4   4   4   4   4   4
#     4  11  24  40  57  85 126 152 194 238 292 356
#     4  10  20  37  61  85 117 149 197 243 287 345
#     4  10  20  35  61  89 113 144 198 247 284 336
#     4  12  22  37  63  88 113 153 198 244 291 335
#     4  11  24  39  59  86 119 162 190 237 292 351
#     4  10  21  39  60  87 113 151 195 245 291 341
#
# _framework density 19.278562000000001
#
# number of rings (size 3 to 8) (size 9 to 14) (size 15 to 20)
#    0.000    1.333    5.000    0.500    2.333    1.333 
#    3.000    0.000    0.000    2.000    0.000    0.000 
#    0.000    0.000    0.000    0.000    0.000    0.000 
#
# Total GULP energy -297563.389139 kJ/mol
# GULP energy per Si atom -12398.474547 kJ/mol
# Density = 1.923468 g / cm^3
# Si number density = 19.278562 Si / 1000 Ang^3
#
#
#
# Elastic Constant Matrix: (Units=GPa)
#
#
# Indices 1 2 3 4 5 6 
#
# 1 135.2526 51.4643 30.6769 0.0000 -2.6034 0.0000
# 2 51.4643 76.5786 34.9510 0.0000 -5.9827 0.0000
# 3 30.6769 34.9510 103.4883 0.0000 -5.8277 0.0000
# 4 0.0000 0.0000 0.0000 25.9074 0.0000 3.5464
# 5 -2.6034 -5.9827 -5.8277 0.0000 24.4767 0.0000
# 6 0.0000 0.0000 0.0000 3.5464 0.0000 27.4033
#
#
#
# Elastic Compliance Matrix: (Units=1/GPa)
#
#
# Indices 1 2 3 4 5 6 
#
# 1 0.010004 -0.006392 -0.000846 0.000000 -0.000700 0.000000
# 2 -0.006392 0.019682 -0.004581 0.000000 0.003040 0.000000
# 3 -0.000846 -0.004581 0.011548 0.000000 0.001540 0.000000
# 4 0.000000 0.000000 0.000000 0.039295 0.000000 -0.005085
# 5 -0.000700 0.003040 0.001540 0.000000 0.041890 0.000000
# 6 0.000000 0.000000 0.000000 -0.005085 0.000000 0.037150
#
#
# Mechanical properties :
#
#
# Convention : Reuss Voigt Hill
#
# Bulk Modulus (GPa) = 56.83238 61.05601 58.94419
# Shear Modulus (GPa) = 26.44468 28.77263 27.60865
#
# Velocity S-wave (km/s) = 3.70768 3.86744 3.78840
# Velocity P-wave (km/s) = 6.91902 7.18902 7.05531
#
# Compressibility (1/GPa) = 0.01759560
#
# Stress axis : x y z
#
# Youngs Moduli (GPa) = 99.95900 50.80658 86.59670
#
# Poissons Ratio (x) = 0.32474 0.07328
# Poissons Ratio (y) = 0.63890 0.39674
# Poissons Ratio (z) = 0.08459 0.23277
#
# Static dielectric constant tensor:
#      x y z
#    x 3.845490 0.000000 0.016410 
#    y 0.000000 3.173140 0.000000 
#    z 0.016410 0.000000 3.758390 
# 
# 
# High freq. dielectric constant tensor:
#      x y z
#    x 1.769420 0.000000 0.000180 
#    y 0.000000 1.711830 0.000000 
#    z 0.000180 0.000000 1.769630 
# 
# From -- ./inp_files/81727.got.cif
#   From: 2010.06.25/outbox.cif.g09.slc.cpg/sg13_41_cif.got.tgz:81727.got - 2010.06.28 04:50:58.
