data_PCOD8118180
_publ_section_title
;
Structure prediction by ZEFSAII (Michael W. Deem and Ramdas Pophale) SiO2 
 PCOD8118180
Probable space group: P 2/C
;
_chemical_formula_sum "Si O2"
_cell_formula_units_Z 20
_cell_length_a 10.843898
_cell_length_b 11.969068
_cell_length_c 8.592108
_cell_angle_alpha 90.000000
_cell_angle_beta 126.217078
_cell_angle_gamma 90.000000
_cell_volume 899.710708
_symmetry_space_group_name_H-M "P 2/C"
_symmetry_group_IT_number 13
_symmetry_cell_setting 'monoclinic'
loop_
_space_group_symop_operation_xyz
x,y,z
-x,y,1/2-z
-x,-y,-z
x,-y,1/2+z
loop_
_atom_site_type_symbol
_atom_site_label
_atom_site_fract_x
_atom_site_fract_y
_atom_site_fract_z
Si Si1 0.558548 0.754707 0.120217
Si Si2 0.885412 0.136835 0.445058
Si Si3 0.661290 0.449836 0.559194
Si Si4 0.715876 0.350449 0.265871
Si Si5 0.205420 0.071119 0.781198
O O1 0.500000 0.741783 0.250000
O O2 0.691529 0.662706 0.183022
O O3 0.632387 0.877053 0.151477
O O4 0.423732 0.728354 0.896374
O O5 0.856709 0.268216 0.401433
O O6 0.816974 0.094984 0.555778
O O7 0.067943 0.122017 0.574104
O O8 0.799282 0.063038 0.248581
O O9 0.500000 0.500000 0.500000
O O10 0.666205 0.418785 0.382442
O O11 0.772828 0.554295 0.684618
#
# Coordination Sequence:
#
# PCOD8118180 Si02
#       5
#     4   4   4   4   4
#     4  11  22  38  62  97 126 166 212 262 311 379
#     4  10  23  44  68  92 125 173 209 265 319 383
#     4  10  19  36  62  91 128 168 204 256 317 374
#     4  11  22  40  65  94 128 169 215 259 315 373
#     4  10  23  44  67  90 130 167 213 258 328 377
#
# _framework density 22.229369999999999
#
# number of rings (size 3 to 8) (size 9 to 14) (size 15 to 20)
#    0.000    1.600    2.000    4.800    2.800    0.800 
#    0.000    1.000    0.000    0.000    0.000    0.000 
#    0.000    0.000    0.000    0.000    0.000    0.000 
#
# Total GULP energy -247812.874942 kJ/mol
# GULP energy per Si atom -12390.643747 kJ/mol
# Density = 2.217877 g / cm^3
# Si number density = 22.229370 Si / 1000 Ang^3
#
#
#
# Elastic Constant Matrix: (Units=GPa)
#
#
# Indices 1 2 3 4 5 6 
#
# 1 46.6330 18.0487 36.0400 0.0000 -11.8654 0.0000
# 2 18.0487 95.9433 32.8013 0.0000 -5.1548 0.0000
# 3 36.0400 32.8013 80.3204 0.0000 -26.6224 0.0000
# 4 0.0000 0.0000 0.0000 41.6095 0.0000 0.7969
# 5 -11.8654 -5.1548 -26.6224 0.0000 23.6630 0.0000
# 6 0.0000 0.0000 0.0000 0.7969 0.0000 31.5507
#
#
#
# Elastic Compliance Matrix: (Units=1/GPa)
#
#
# Indices 1 2 3 4 5 6 
#
# 1 0.032975 -0.001354 -0.014129 0.000000 0.000344 0.000000
# 2 -0.001354 0.012502 -0.006092 0.000000 -0.004809 0.000000
# 3 -0.014129 -0.006092 0.029485 0.000000 0.024760 0.000000
# 4 0.000000 0.000000 0.000000 0.024045 0.000000 -0.000607
# 5 0.000344 -0.004809 0.024760 0.000000 0.069241 0.000000
# 6 0.000000 0.000000 0.000000 -0.000607 0.000000 0.031710
#
#
# Mechanical properties :
#
#
# Convention : Reuss Voigt Hill
#
# Bulk Modulus (GPa) = 31.43575 44.07518 37.75546
# Shear Modulus (GPa) = 19.70734 28.43175 24.06954
#
# Velocity S-wave (km/s) = 2.98072 3.58022 3.29413
# Velocity P-wave (km/s) = 5.10083 6.07956 5.61158
#
# Compressibility (1/GPa) = 0.03181092
#
# Stress axis : x y z
#
# Youngs Moduli (GPa) = 30.32573 79.98764 33.91599
#
# Poissons Ratio (x) = 0.10832 0.47921
# Poissons Ratio (y) = 0.04107 0.20662
# Poissons Ratio (z) = 0.42848 0.48729
#
# Static dielectric constant tensor:
#      x y z
#    x 3.634960 0.000000 -0.090290 
#    y 0.000000 5.030580 0.000000 
#    z -0.090290 0.000000 4.154190 
# 
# 
# High freq. dielectric constant tensor:
#      x y z
#    x 1.838050 0.000000 -0.022760 
#    y 0.000000 1.893910 0.000000 
#    z -0.022760 0.000000 1.868810 
# 
# From -- ./inp_files/15641.got.cif
#   From: 2010.06.25/outbox.cif.g09.slc.cpg/sg13_8_cif.got.tgz:15641.got - 2010.06.28 04:50:58.
