data_PCOD8118694
_publ_section_title
;
Structure prediction by ZEFSAII (Michael W. Deem and Ramdas Pophale) SiO2 
 PCOD8118694
Probable space group: P 2/C
;
_chemical_formula_sum "Si O2"
_cell_formula_units_Z 26
_cell_length_a 8.490617
_cell_length_b 9.687382
_cell_length_c 19.087559
_cell_angle_alpha 90.000000
_cell_angle_beta 55.093891
_cell_angle_gamma 90.000000
_cell_volume 1287.532038
_symmetry_space_group_name_H-M "P 2/C"
_symmetry_group_IT_number 13
_symmetry_cell_setting 'monoclinic'
loop_
_space_group_symop_operation_xyz
x,y,z
-x,y,1/2-z
-x,-y,-z
x,-y,1/2+z
loop_
_atom_site_type_symbol
_atom_site_label
_atom_site_fract_x
_atom_site_fract_y
_atom_site_fract_z
Si Si1 0.600535 0.632137 0.387316
Si Si2 0.000000 0.504473 0.750000
Si Si3 0.653862 0.374977 0.035759
Si Si4 0.944996 0.367462 0.116603
Si Si5 0.601694 0.145160 0.651464
Si Si6 0.643170 0.160492 0.149699
Si Si7 0.889679 0.633247 0.062649
O O1 0.810396 0.590413 0.303499
O O2 0.441628 0.516032 0.409565
O O3 0.597835 0.654532 0.470617
O O4 0.536183 0.775940 0.368123
O O5 0.000099 0.605727 0.817171
O O6 0.564568 0.253933 0.106287
O O7 0.883362 0.365941 0.980932
O O8 0.841078 0.220896 0.131955
O O9 0.809248 0.493979 0.121357
O O10 0.134713 0.368381 0.017116
O O11 0.500000 0.125731 0.750000
O O12 0.792941 0.232542 0.618821
O O13 0.666832 0.992703 0.610483
O O14 0.500000 0.162334 0.250000
#
# Coordination Sequence:
#
# PCOD8118694 Si02
#       7
#     4   2   4   4   4   4   4
#     4  11  23  38  63  98 121 161 201 264 314 360
#     4  12  22  36  64 100 130 156 210 270 312 370
#     4  10  22  40  66  92 127 155 207 261 313 366
#     4  10  20  34  63  87 121 158 199 258 309 358
#     4  11  24  39  63  87 125 166 211 251 305 372
#     4  10  22  41  60  87 123 166 210 248 304 374
#     4  10  20  40  63  94 120 161 209 259 305 376
#
# _framework density 20.193670999999998
#
# number of rings (size 3 to 8) (size 9 to 14) (size 15 to 20)
#    0.000    1.538    1.538    4.615    2.154    4.308 
#    0.000    0.000   10.154    0.923    0.000    0.000 
#    0.000    0.000    0.000    0.000    0.000    0.000 
#
# Total GULP energy -322121.577162 kJ/mol
# GULP energy per Si atom -12389.291429 kJ/mol
# Density = 2.014771 g / cm^3
# Si number density = 20.193671 Si / 1000 Ang^3
#
#
#
# Elastic Constant Matrix: (Units=GPa)
#
#
# Indices 1 2 3 4 5 6 
#
# 1 92.2777 49.5505 33.3179 0.0000 3.1793 0.0000
# 2 49.5505 174.6641 45.6881 0.0000 -1.4922 0.0000
# 3 33.3179 45.6881 67.0572 0.0000 1.0544 0.0000
# 4 0.0000 0.0000 0.0000 10.0402 0.0000 70.7567
# 5 3.1793 -1.4922 1.0544 0.0000 45.2918 0.0000
# 6 0.0000 0.0000 0.0000 70.7567 0.0000 -196.9750
#
#
#
# Elastic Compliance Matrix: (Units=1/GPa)
#
#
# Indices 1 2 3 4 5 6 
#
# 1 0.014186 -0.002668 -0.005215 0.000000 -0.000962 0.000000
# 2 -0.002668 0.007474 -0.003775 0.000000 0.000521 0.000000
# 3 -0.005215 -0.003775 0.020079 0.000000 -0.000226 0.000000
# 4 0.000000 0.000000 0.000000 0.028203 0.000000 0.010131
# 5 -0.000962 0.000521 -0.000226 0.000000 0.022169 0.000000
# 6 0.000000 0.000000 0.000000 0.010131 0.000000 -0.001438
#
#
# Mechanical properties :
#
#
# Convention : Reuss Voigt Hill
#
# Bulk Modulus (GPa) = 54.28115 65.67912 59.98013
# Shear Modulus (GPa) = 41.62116 -14.63246 13.49435
#
# Velocity S-wave (km/s) = 4.54486 -2.69477 2.58785
# Velocity P-wave (km/s) = 7.38103 4.78673 6.22063
#
# Compressibility (1/GPa) = 0.01842260
#
# Stress axis : x y z
#
# Youngs Moduli (GPa) = 70.49258 133.79494 49.80280
#
# Poissons Ratio (x) = 0.35703 0.25973
# Poissons Ratio (y) = 0.18811 0.18799
# Poissons Ratio (z) = 0.36763 0.50504
#
# Static dielectric constant tensor:
#      x y z
#    x 3.704500 0.000000 0.089480 
#    y 0.000000 4.048920 0.000000 
#    z 0.089480 0.000000 4.045060 
# 
# 
# High freq. dielectric constant tensor:
#      x y z
#    x 1.783900 0.000000 0.004350 
#    y 0.000000 1.778260 0.000000 
#    z 0.004350 0.000000 1.804140 
# 
# From -- ./inp_files/75945.got.cif
#   From: 2010.06.25/outbox.cif.g09.slc.cpg/sg13_38_cif.got.tgz:75945.got - 2010.06.28 04:50:58.
