data_PCOD8118535
_publ_section_title
;
Structure prediction by ZEFSAII (Michael W. Deem and Ramdas Pophale) SiO2 
 PCOD8118535
Probable space group: P 2/C
;
_chemical_formula_sum "Si O2"
_cell_formula_units_Z 32
_cell_length_a 7.849749
_cell_length_b 12.965644
_cell_length_c 22.412427
_cell_angle_alpha 90.000000
_cell_angle_beta 127.834174
_cell_angle_gamma 90.000000
_cell_volume 1801.565262
_symmetry_space_group_name_H-M "P 2/C"
_symmetry_group_IT_number 13
_symmetry_cell_setting 'monoclinic'
loop_
_space_group_symop_operation_xyz
x,y,z
-x,y,1/2-z
-x,-y,-z
x,-y,1/2+z
loop_
_atom_site_type_symbol
_atom_site_label
_atom_site_fract_x
_atom_site_fract_y
_atom_site_fract_z
Si Si1 0.254696 0.755798 0.470895
Si Si2 0.545962 0.848996 0.636318
Si Si3 0.016581 0.379395 0.011207
Si Si4 0.333487 0.051170 0.580024
Si Si5 0.308269 0.285770 0.175397
Si Si6 0.361452 0.747447 0.022874
Si Si7 0.068352 0.835560 0.855421
Si Si8 0.035378 0.038499 0.912348
O O1 0.397982 0.803056 0.553279
O O2 0.094695 0.671747 0.465820
O O3 0.414801 0.702676 0.456666
O O4 0.126902 0.849894 0.411656
O O5 0.447679 0.806552 0.676113
O O6 0.798686 0.820999 0.678262
O O7 0.532145 0.973179 0.631995
O O8 0.183128 0.355165 0.100681
O O9 0.000000 0.500000 0.000000
O O10 0.775443 0.341462 0.974317
O O11 0.423854 0.164025 0.583728
O O12 0.202062 0.058023 0.613112
O O13 0.182676 0.010239 0.495006
O O14 0.500000 0.351244 0.250000
O O15 0.146976 0.234023 0.189184
O O16 0.216085 0.798252 0.941162
O O17 0.018538 0.957361 0.854118
#
# Coordination Sequence:
#
# PCOD8118535 Si02
#       8
#     4   4   4   4   4   4   4   4
#     4   9  16  26  42  65  92 119 148 185 231 277
#     4   9  16  26  42  65  93 122 147 175 215 269
#     4  10  20  33  47  65  89 119 157 208 257 287
#     4   9  13  21  39  64  94 123 145 169 206 258
#     4  10  20  33  47  65  91 121 154 188 231 291
#     4   9  16  26  42  65  92 119 148 185 231 277
#     4   9  16  26  42  65  93 122 147 175 215 269
#     4   9  13  21  39  64  94 123 145 169 206 258
#
# _framework density 17.762332000000001
#
# number of rings (size 3 to 8) (size 9 to 14) (size 15 to 20)
#    0.000    2.750    2.500    0.750    0.000    4.000 
#    0.000    0.000    0.000    0.000    0.000    3.500 
#    0.000    2.000    0.000    0.000    0.000    0.000 
#
# Total GULP energy -396443.854109 kJ/mol
# GULP energy per Si atom -12388.870441 kJ/mol
# Density = 1.772190 g / cm^3
# Si number density = 17.762332 Si / 1000 Ang^3
#
#
#
# Elastic Constant Matrix: (Units=GPa)
#
#
# Indices 1 2 3 4 5 6 
#
# 1 157.5304 50.4415 12.3961 0.0000 1.7473 0.0000
# 2 50.4415 104.1716 10.5641 0.0000 2.9289 0.0000
# 3 12.3961 10.5641 20.6435 0.0000 8.8281 0.0000
# 4 0.0000 0.0000 0.0000 6.6601 0.0000 1.1198
# 5 1.7473 2.9289 8.8281 0.0000 16.0727 0.0000
# 6 0.0000 0.0000 0.0000 1.1198 0.0000 16.0801
#
#
#
# Elastic Compliance Matrix: (Units=1/GPa)
#
#
# Indices 1 2 3 4 5 6 
#
# 1 0.007708 -0.003413 -0.003646 0.000000 0.001787 0.000000
# 2 -0.003413 0.011657 -0.004138 0.000000 0.000520 0.000000
# 3 -0.003646 -0.004138 0.068299 0.000000 -0.036364 0.000000
# 4 0.000000 0.000000 0.000000 0.151926 0.000000 -0.010580
# 5 0.001787 0.000520 -0.036364 0.000000 0.081901 0.000000
# 6 0.000000 0.000000 0.000000 -0.010580 0.000000 0.062925
#
#
# Mechanical properties :
#
#
# Convention : Reuss Voigt Hill
#
# Bulk Modulus (GPa) = 15.32100 47.68321 31.50210
# Shear Modulus (GPa) = 11.66676 21.69218 16.67947
#
# Velocity S-wave (km/s) = 2.56564 3.49842 3.06769
# Velocity P-wave (km/s) = 4.17384 6.57435 5.50650
#
# Compressibility (1/GPa) = 0.06526989
#
# Stress axis : x y z
#
# Youngs Moduli (GPa) = 129.73812 85.78461 14.64144
#
# Poissons Ratio (x) = 0.29276 0.05338
# Poissons Ratio (y) = 0.44276 0.06059
# Poissons Ratio (z) = 0.47303 0.35501
#
# Static dielectric constant tensor:
#      x y z
#    x 3.873300 0.000000 0.024860 
#    y 0.000000 2.971420 0.000000 
#    z 0.024860 0.000000 2.919420 
# 
# 
# High freq. dielectric constant tensor:
#      x y z
#    x 1.714870 0.000000 0.002760 
#    y 0.000000 1.645110 0.000000 
#    z 0.002760 0.000000 1.633590 
# 
# From -- ./inp_files/85135.got.cif
#   From: 2010.06.25/outbox.cif.g09.slc.cpg/sg13_43_cif.got.tgz:85135.got - 2010.06.28 04:50:58.
