data_PCOD8118418
_publ_section_title
;
Structure prediction by ZEFSAII (Michael W. Deem and Ramdas Pophale) SiO2 
 PCOD8118418
Probable space group: P 2/C
;
_chemical_formula_sum "Si O2"
_cell_formula_units_Z 32
_cell_length_a 10.861599
_cell_length_b 14.063766
_cell_length_c 18.105545
_cell_angle_alpha 90.000000
_cell_angle_beta 148.656224
_cell_angle_gamma 90.000000
_cell_volume 1438.645530
_symmetry_space_group_name_H-M "P 2/C"
_symmetry_group_IT_number 13
_symmetry_cell_setting 'monoclinic'
loop_
_space_group_symop_operation_xyz
x,y,z
-x,y,1/2-z
-x,-y,-z
x,-y,1/2+z
loop_
_atom_site_type_symbol
_atom_site_label
_atom_site_fract_x
_atom_site_fract_y
_atom_site_fract_z
Si Si1 0.672489 0.319424 0.401997
Si Si2 0.483952 0.268197 0.822740
Si Si3 0.594954 0.363889 0.014626
Si Si4 0.201481 0.550804 0.407569
Si Si5 0.189551 0.943485 0.411613
Si Si6 0.607810 0.195326 0.123622
Si Si7 0.898668 0.868229 0.562037
Si Si8 0.028314 0.840761 0.061576
O O1 0.500000 0.361378 0.250000
O O2 0.809454 0.404670 0.515693
O O3 0.514572 0.256242 0.375422
O O4 0.874690 0.254679 0.468316
O O5 0.500000 0.316254 0.750000
O O6 0.289576 0.185889 0.723599
O O7 0.430703 0.347292 0.857723
O O8 0.739542 0.225843 0.976320
O O9 0.807818 0.434948 0.097784
O O10 0.674214 0.261532 0.087313
O O11 0.453610 0.416762 0.006082
O O12 0.000000 0.592392 0.250000
O O13 0.430165 0.890641 0.510067
O O14 0.000000 0.929950 0.250000
O O15 0.090746 0.902746 0.437118
O O16 0.235878 0.053580 0.456309
O O17 0.849549 0.149047 0.272266
O O18 0.949035 0.900274 0.502935
#
# Coordination Sequence:
#
# PCOD8118418 Si02
#       8
#     4   4   4   4   4   4   4   4
#     4  10  19  39  68  95 125 166 221 261 319 392
#     4  10  23  39  60  87 119 165 208 249 324 384
#     4  10  22  41  62  89 129 162 205 259 321 385
#     4  10  22  38  65  98 125 164 211 265 322 389
#     4  11  25  39  62  93 122 163 221 271 311 371
#     4  10  23  40  65  89 123 172 213 258 326 378
#     4  11  24  39  61  91 124 168 210 264 317 379
#     4  10  21  43  63  86 127 168 206 265 323 381
#
# _framework density 22.243144000000001
#
# number of rings (size 3 to 8) (size 9 to 14) (size 15 to 20)
#    0.000    1.750    1.250    1.875    5.250    4.500 
#    2.250    0.000    0.000    5.250    0.000    0.000 
#    0.000    0.000    0.000    0.000    0.000    0.000 
#
# Total GULP energy -396642.942903 kJ/mol
# GULP energy per Si atom -12395.091966 kJ/mol
# Density = 2.219252 g / cm^3
# Si number density = 22.243144 Si / 1000 Ang^3
#
#
#
# Elastic Constant Matrix: (Units=GPa)
#
#
# Indices 1 2 3 4 5 6 
#
# 1 48.3146 19.2751 22.0995 0.0000 -9.7317 0.0000
# 2 19.2751 89.2473 39.3963 0.0000 -12.5029 0.0000
# 3 22.0995 39.3963 148.1396 0.0000 -15.4496 0.0000
# 4 0.0000 0.0000 0.0000 22.1226 0.0000 -6.2860
# 5 -9.7317 -12.5029 -15.4496 0.0000 34.8103 0.0000
# 6 0.0000 0.0000 0.0000 -6.2860 0.0000 14.0802
#
#
#
# Elastic Compliance Matrix: (Units=1/GPa)
#
#
# Indices 1 2 3 4 5 6 
#
# 1 0.024024 -0.003611 -0.002158 0.000000 0.004461 0.000000
# 2 -0.003611 0.013589 -0.002801 0.000000 0.002628 0.000000
# 3 -0.002158 -0.002801 0.008021 0.000000 0.001950 0.000000
# 4 0.000000 0.000000 0.000000 0.051770 0.000000 0.023112
# 5 0.004461 0.002628 0.001950 0.000000 0.031784 0.000000
# 6 0.000000 0.000000 0.000000 0.023112 0.000000 0.081340
#
#
# Mechanical properties :
#
#
# Convention : Reuss Voigt Hill
#
# Bulk Modulus (GPa) = 35.09580 49.69371 42.39475
# Shear Modulus (GPa) = 21.08223 27.86467 24.47345
#
# Velocity S-wave (km/s) = 3.08199 3.54323 3.32063
# Velocity P-wave (km/s) = 5.33642 6.25532 5.81405
#
# Compressibility (1/GPa) = 0.02849344
#
# Stress axis : x y z
#
# Youngs Moduli (GPa) = 41.62492 73.58684 124.67704
#
# Poissons Ratio (x) = 0.26571 0.26910
# Poissons Ratio (y) = 0.15030 0.34925
# Poissons Ratio (z) = 0.08984 0.20613
#
# Static dielectric constant tensor:
#      x y z
#    x 4.222070 0.000000 -0.192340 
#    y 0.000000 4.067770 0.000000 
#    z -0.192340 0.000000 3.959110 
# 
# 
# High freq. dielectric constant tensor:
#      x y z
#    x 1.880120 0.000000 -0.012620 
#    y 0.000000 1.857940 0.000000 
#    z -0.012620 0.000000 1.881190 
# 
# From -- ./inp_files/66965.got.cif
#   From: 2010.06.25/outbox.cif.g09.slc.cpg/sg13_34_cif.got.tgz:66965.got - 2010.06.28 04:50:58.
