data_PCOD8118572
_publ_section_title
;
Structure prediction by ZEFSAII (Michael W. Deem and Ramdas Pophale) SiO2 
 PCOD8118572
Probable space group: P 2/C
;
_chemical_formula_sum "Si O2"
_cell_formula_units_Z 20
_cell_length_a 12.976648
_cell_length_b 9.359756
_cell_length_c 18.018664
_cell_angle_alpha 90.000000
_cell_angle_beta 152.224929
_cell_angle_gamma 90.000000
_cell_volume 1019.852017
_symmetry_space_group_name_H-M "P 2/C"
_symmetry_group_IT_number 13
_symmetry_cell_setting 'monoclinic'
loop_
_space_group_symop_operation_xyz
x,y,z
-x,y,1/2-z
-x,-y,-z
x,-y,1/2+z
loop_
_atom_site_type_symbol
_atom_site_label
_atom_site_fract_x
_atom_site_fract_y
_atom_site_fract_z
Si Si1 0.947691 0.558990 0.798845
Si Si2 0.383483 0.647805 0.800869
Si Si3 0.275557 0.633178 0.137235
Si Si4 0.881790 0.256764 0.606127
Si Si5 0.059225 0.842819 0.513016
O O1 0.951756 0.388072 0.802059
O O2 0.000000 0.620871 0.750000
O O3 0.707437 0.612083 0.674519
O O4 0.126579 0.614535 0.970468
O O5 0.326078 0.517965 0.708518
O O6 0.264820 0.788149 0.692707
O O7 0.642332 0.677214 0.972838
O O8 0.500000 0.703919 0.250000
O O9 0.154628 0.740657 0.116067
O O10 0.869194 0.153144 0.527598
O O11 0.000000 0.172265 0.750000
O O12 0.000000 0.000000 0.500000
#
# Coordination Sequence:
#
# PCOD8118572 Si02
#       5
#     4   4   4   4   4
#     4  10  20  33  57  93 121 149 188 249 304 348
#     4  11  20  40  63  87 123 157 200 251 303 359
#     4  11  19  36  60  87 115 152 203 249 297 361
#     4  11  22  37  63  93 123 155 200 251 311 356
#     4  11  23  40  59  86 121 165 205 241 298 364
#
# _framework density 19.610690000000002
#
# number of rings (size 3 to 8) (size 9 to 14) (size 15 to 20)
#    0.000    1.200    6.000    1.800    0.000    6.400 
#    0.000    5.000    0.000    0.000    0.000    0.000 
#    0.000    0.000    0.000    0.000    0.000    0.000 
#
# Total GULP energy -247950.553314 kJ/mol
# GULP energy per Si atom -12397.527666 kJ/mol
# Density = 1.956606 g / cm^3
# Si number density = 19.610690 Si / 1000 Ang^3
#
#
#
# Elastic Constant Matrix: (Units=GPa)
#
#
# Indices 1 2 3 4 5 6 
#
# 1 165.7935 34.6090 54.9995 0.0000 -3.6654 0.0000
# 2 34.6090 81.8640 38.4161 0.0000 2.1206 0.0000
# 3 54.9995 38.4161 92.6130 0.0000 5.8709 0.0000
# 4 0.0000 0.0000 0.0000 9.7393 0.0000 3.3020
# 5 -3.6654 2.1206 5.8709 0.0000 28.8107 0.0000
# 6 0.0000 0.0000 0.0000 3.3020 0.0000 23.8485
#
#
#
# Elastic Compliance Matrix: (Units=1/GPa)
#
#
# Indices 1 2 3 4 5 6 
#
# 1 0.007737 -0.001375 -0.004147 0.000000 0.001931 0.000000
# 2 -0.001375 0.015413 -0.005566 0.000000 -0.000175 0.000000
# 3 -0.004147 -0.005566 0.015780 0.000000 -0.003334 0.000000
# 4 0.000000 0.000000 0.000000 0.107735 0.000000 -0.014917
# 5 0.001931 -0.000175 -0.003334 0.000000 0.035647 0.000000
# 6 0.000000 0.000000 0.000000 -0.014917 0.000000 0.043997
#
#
# Mechanical properties :
#
#
# Convention : Reuss Voigt Hill
#
# Bulk Modulus (GPa) = 59.68247 66.25777 62.97012
# Shear Modulus (GPa) = 19.67974 26.62940 23.15457
#
# Velocity S-wave (km/s) = 3.17128 3.68897 3.43988
# Velocity P-wave (km/s) = 6.62639 7.21142 6.92509
#
# Compressibility (1/GPa) = 0.01675534
#
# Stress axis : x y z
#
# Youngs Moduli (GPa) = 129.25053 64.88024 63.37061
#
# Poissons Ratio (x) = 0.08921 0.26278
# Poissons Ratio (y) = 0.17772 0.35270
# Poissons Ratio (z) = 0.53596 0.36110
#
# Static dielectric constant tensor:
#      x y z
#    x 4.418720 0.000000 0.136840 
#    y 0.000000 3.161780 0.000000 
#    z 0.136840 0.000000 3.734600 
# 
# 
# High freq. dielectric constant tensor:
#      x y z
#    x 1.786890 0.000000 0.005270 
#    y 0.000000 1.714120 0.000000 
#    z 0.005270 0.000000 1.768440 
# 
# From -- ./inp_files/63564.got.cif
#   From: 2010.06.25/outbox.cif.g09.slc.cpg/sg13_32_cif.got.tgz:63564.got - 2010.06.28 04:50:58.
