data_PCOD8118048
_publ_section_title
;
Structure prediction by ZEFSAII (Michael W. Deem and Ramdas Pophale) SiO2 
 PCOD8118048
Probable space group: P 2/C
;
_chemical_formula_sum "Si O2"
_cell_formula_units_Z 22
_cell_length_a 5.223132
_cell_length_b 9.683746
_cell_length_c 19.942152
_cell_angle_alpha 90.000000
_cell_angle_beta 101.344100
_cell_angle_gamma 90.000000
_cell_volume 988.958042
_symmetry_space_group_name_H-M "P 2/C"
_symmetry_group_IT_number 13
_symmetry_cell_setting 'monoclinic'
loop_
_space_group_symop_operation_xyz
x,y,z
-x,y,1/2-z
-x,-y,-z
x,-y,1/2+z
loop_
_atom_site_type_symbol
_atom_site_label
_atom_site_fract_x
_atom_site_fract_y
_atom_site_fract_z
Si Si1 0.500000 0.604716 0.250000
Si Si2 0.087507 0.007925 0.155713
Si Si3 0.114322 0.274999 0.424439
Si Si4 0.000000 0.211536 0.750000
Si Si5 0.730400 0.071657 0.970393
Si Si6 0.554488 0.378172 0.362990
Si Si7 0.500000 0.842205 0.750000
O O1 0.250230 0.695034 0.251793
O O2 0.566609 0.514376 0.318979
O O3 0.933855 0.878075 0.179395
O O4 0.296702 0.948403 0.111090
O O5 0.246628 0.063541 0.228261
O O6 0.902507 0.129730 0.117851
O O7 0.229041 0.231622 0.503703
O O8 0.321647 0.384453 0.405231
O O9 0.833004 0.349488 0.413057
O O10 0.500000 0.000000 0.000000
O O11 0.000000 0.000000 0.000000
O O12 0.468455 0.249119 0.314089
#
# Coordination Sequence:
#
# PCOD8118048 Si02
#       7
#     2   4   4   2   4   4   2
#     4  11  25  40  56  80 109 157 198 236 286 327
#     4  10  21  35  57  89 123 148 180 225 293 362
#     4  10  19  35  60  86 109 142 182 237 287 324
#     4  12  24  38  56  80 120 156 184 226 286 358
#     4  10  20  34  55  87 123 151 179 223 288 356
#     4  10  20  36  58  79 107 140 196 245 272 321
#     4   9  17  32  54  84 109 139 176 230 286 325
#
# _framework density 22.245636000000001
#
# number of rings (size 3 to 8) (size 9 to 14) (size 15 to 20)
#    0.000    1.818    0.000    6.000    0.000   10.909 
#    0.000    0.000    0.000    6.545    0.000    0.000 
#    0.000    0.000    0.000    0.000    0.000    0.000 
#
# Total GULP energy -272595.274343 kJ/mol
# GULP energy per Si atom -12390.694288 kJ/mol
# Density = 2.219500 g / cm^3
# Si number density = 22.245636 Si / 1000 Ang^3
#
#
#
# Elastic Constant Matrix: (Units=GPa)
#
#
# Indices 1 2 3 4 5 6 
#
# 1 158.7963 37.8406 22.1643 0.0000 -15.4639 0.0000
# 2 37.8406 83.3336 15.5719 0.0000 -9.0530 0.0000
# 3 22.1643 15.5719 35.8312 0.0000 -9.8958 0.0000
# 4 0.0000 0.0000 0.0000 27.6050 0.0000 -12.4706
# 5 -15.4639 -9.0530 -9.8958 0.0000 35.3338 0.0000
# 6 0.0000 0.0000 0.0000 -12.4706 0.0000 35.9053
#
#
#
# Elastic Compliance Matrix: (Units=1/GPa)
#
#
# Indices 1 2 3 4 5 6 
#
# 1 0.007524 -0.002662 -0.003009 0.000000 0.001768 0.000000
# 2 -0.002662 0.014122 -0.004133 0.000000 0.001296 0.000000
# 3 -0.003009 -0.004133 0.033501 0.000000 0.007007 0.000000
# 4 0.000000 0.000000 0.000000 0.042967 0.000000 0.014923
# 5 0.001768 0.001296 0.007007 0.000000 0.031370 0.000000
# 6 0.000000 0.000000 0.000000 0.014923 0.000000 0.033034
#
#
# Mechanical properties :
#
#
# Convention : Reuss Voigt Hill
#
# Bulk Modulus (GPa) = 28.13776 47.67943 37.90859
# Shear Modulus (GPa) = 25.77704 33.26112 29.51908
#
# Velocity S-wave (km/s) = 3.40773 3.87094 3.64670
# Velocity P-wave (km/s) = 5.30656 6.43884 5.89993
#
# Compressibility (1/GPa) = 0.03553943
#
# Stress axis : x y z
#
# Youngs Moduli (GPa) = 132.90956 70.81251 29.84988
#
# Poissons Ratio (x) = 0.18852 0.08981
# Poissons Ratio (y) = 0.35383 0.12336
# Poissons Ratio (z) = 0.39991 0.29264
#
# Static dielectric constant tensor:
#      x y z
#    x 4.128360 0.000000 -0.401780 
#    y 0.000000 3.906600 0.000000 
#    z -0.401780 0.000000 5.192880 
# 
# 
# High freq. dielectric constant tensor:
#      x y z
#    x 1.884710 0.000000 -0.009280 
#    y 0.000000 1.853440 0.000000 
#    z -0.009280 0.000000 1.869390 
# 
# From -- ./inp_files/73071.got.cif
#   From: 2010.06.25/outbox.cif.g09.slc.cpg/sg13_37_cif.got.tgz:73071.got - 2010.06.28 04:50:58.
