data_PCOD8118363
_publ_section_title
;
Structure prediction by ZEFSAII (Michael W. Deem and Ramdas Pophale) SiO2 
 PCOD8118363
Probable space group: P 2/C
;
_chemical_formula_sum "Si O2"
_cell_formula_units_Z 26
_cell_length_a 24.660344
_cell_length_b 8.455670
_cell_length_c 19.034409
_cell_angle_alpha 90.000000
_cell_angle_beta 18.090575
_cell_angle_gamma 90.000000
_cell_volume 1232.469628
_symmetry_space_group_name_H-M "P 2/C"
_symmetry_group_IT_number 13
_symmetry_cell_setting 'monoclinic'
loop_
_space_group_symop_operation_xyz
x,y,z
-x,y,1/2-z
-x,-y,-z
x,-y,1/2+z
loop_
_atom_site_type_symbol
_atom_site_label
_atom_site_fract_x
_atom_site_fract_y
_atom_site_fract_z
Si Si1 0.000000 0.623063 0.750000
Si Si2 0.932794 0.868250 0.445338
Si Si3 0.128943 0.352270 0.349194
Si Si4 0.686453 0.196616 0.008522
Si Si5 0.926658 0.785158 0.980224
Si Si6 0.645788 0.376779 0.915525
Si Si7 0.736593 0.649238 0.587462
O O1 0.018210 0.733604 0.795222
O O2 0.166542 0.516420 0.527512
O O3 0.888279 0.732073 0.555327
O O4 0.856323 0.796370 0.466937
O O5 0.141282 0.906352 0.187344
O O6 0.849761 0.036988 0.567088
O O7 0.319013 0.436431 0.110766
O O8 0.000000 0.500000 0.500000
O O9 0.083968 0.226157 0.343724
O O10 0.703836 0.267986 0.909600
O O11 0.500000 0.104115 0.250000
O O12 0.686503 0.334140 0.067232
O O13 0.760692 0.678747 0.207175
O O14 0.442190 0.357473 0.147422
#
# Coordination Sequence:
#
# PCOD8118363 Si02
#       7
#     2   4   4   4   4   4   4
#     4  12  24  40  62  90 124 162 210 262 312 374
#     4  12  22  39  65  93 129 170 202 262 330 378
#     4  10  19  38  65  87 117 161 215 251 302 372
#     4  10  20  37  64  91 121 161 210 256 307 373
#     4  11  25  39  62  95 129 166 209 262 326 380
#     4  10  22  42  66  94 122 166 217 266 304 380
#     4  11  23  40  67  94 124 165 217 260 319 373
#
# _framework density 21.095855
#
# number of rings (size 3 to 8) (size 9 to 14) (size 15 to 20)
#    0.000    1.231    4.615    3.231    2.154    3.077 
#    0.000    1.538    0.000    0.000    0.000    0.000 
#    0.000    0.000    0.000    0.000    0.000    0.000 
#
# Total GULP energy -322194.048043 kJ/mol
# GULP energy per Si atom -12392.078771 kJ/mol
# Density = 2.104784 g / cm^3
# Si number density = 21.095855 Si / 1000 Ang^3
#
#
#
# Elastic Constant Matrix: (Units=GPa)
#
#
# Indices 1 2 3 4 5 6 
#
# 1 85.5200 23.7264 37.7789 0.0000 4.0961 0.0000
# 2 23.7264 97.7640 28.6722 0.0000 0.4756 0.0000
# 3 37.7789 28.6722 122.0967 0.0000 -12.5789 0.0000
# 4 0.0000 0.0000 0.0000 16.7312 0.0000 6.9304
# 5 4.0961 0.4756 -12.5789 0.0000 38.1535 0.0000
# 6 0.0000 0.0000 0.0000 6.9304 0.0000 18.3438
#
#
#
# Elastic Compliance Matrix: (Units=1/GPa)
#
#
# Indices 1 2 3 4 5 6 
#
# 1 0.014305 -0.002225 -0.004202 0.000000 -0.002893 0.000000
# 2 -0.002225 0.011370 -0.002041 0.000000 -0.000576 0.000000
# 3 -0.004202 -0.002041 0.010371 0.000000 0.003896 0.000000
# 4 0.000000 0.000000 0.000000 0.070857 0.000000 -0.026771
# 5 -0.002893 -0.000576 0.003896 0.000000 0.027812 0.000000
# 6 0.000000 0.000000 0.000000 -0.026771 0.000000 0.064628
#
#
# Mechanical properties :
#
#
# Convention : Reuss Voigt Hill
#
# Bulk Modulus (GPa) = 52.32754 53.97063 53.14908
# Shear Modulus (GPa) = 22.45671 28.99259 25.72465
#
# Velocity S-wave (km/s) = 3.26622 3.71121 3.49580
# Velocity P-wave (km/s) = 6.25162 6.63349 6.44538
#
# Compressibility (1/GPa) = 0.01911040
#
# Stress axis : x y z
#
# Youngs Moduli (GPa) = 69.90398 87.94981 96.42315
#
# Poissons Ratio (x) = 0.19572 0.40515
# Poissons Ratio (y) = 0.15556 0.19678
# Poissons Ratio (z) = 0.29372 0.17949
#
# Static dielectric constant tensor:
#      x y z
#    x 3.993540 0.000000 -0.195220 
#    y 0.000000 3.624430 0.000000 
#    z -0.195220 0.000000 4.078390 
# 
# 
# High freq. dielectric constant tensor:
#      x y z
#    x 1.838780 0.000000 0.004290 
#    y 0.000000 1.797300 0.000000 
#    z 0.004290 0.000000 1.824610 
# 
# From -- ./inp_files/71276.got.cif
#   From: 2010.06.25/outbox.cif.g09.slc.cpg/sg13_36_cif.got.tgz:71276.got - 2010.06.28 04:50:58.
