data_PCOD8118511
_publ_section_title
;
Structure prediction by ZEFSAII (Michael W. Deem and Ramdas Pophale) SiO2 
 PCOD8118511
Probable space group: P 2/C
;
_chemical_formula_sum "Si O2"
_cell_formula_units_Z 24
_cell_length_a 24.059058
_cell_length_b 7.973805
_cell_length_c 19.700275
_cell_angle_alpha 90.000000
_cell_angle_beta 162.358591
_cell_angle_gamma 90.000000
_cell_volume 1145.363348
_symmetry_space_group_name_H-M "P 2/C"
_symmetry_group_IT_number 13
_symmetry_cell_setting 'monoclinic'
loop_
_space_group_symop_operation_xyz
x,y,z
-x,y,1/2-z
-x,-y,-z
x,-y,1/2+z
loop_
_atom_site_type_symbol
_atom_site_label
_atom_site_fract_x
_atom_site_fract_y
_atom_site_fract_z
Si Si1 0.000000 0.749996 0.750000
Si Si2 0.795655 0.484405 0.921780
Si Si3 0.141721 0.669534 0.267841
Si Si4 0.749999 0.249996 0.749997
Si Si5 0.389480 0.169532 0.263360
Si Si6 0.500000 0.749996 0.750000
Si Si7 0.956599 0.015595 0.082727
O O1 0.831350 0.633460 0.528608
O O2 0.063167 0.866532 0.760425
O O3 0.695072 0.379374 0.745745
O O4 0.671571 0.637166 0.800659
O O5 0.991920 0.542487 0.121004
O O6 0.171276 0.644399 0.221941
O O7 0.330720 0.634093 0.527980
O O8 0.086609 0.862835 0.215702
O O9 0.569948 0.144389 0.519283
O O10 0.906273 0.120618 0.956946
O O11 0.436204 0.134100 0.238944
O O12 0.233749 0.042487 0.104661
#
# Coordination Sequence:
#
# PCOD8118511 Si02
#       7
#     2   4   4   4   4   2   4
#     4  10  20  32  52  76 100 136 180 216 248 300
#     4  10  20  35  55  78 106 140 174 211 260 312
#     4  10  20  35  55  78 106 140 174 211 260 312
#     4  10  20  34  56  82 108 134 172 218 256 306
#     4  10  20  35  55  78 106 140 174 211 260 312
#     4  10  20  32  52  76 100 136 180 216 248 300
#     4  10  20  35  55  78 106 140 174 211 260 312
#
# _framework density 20.954049000000001
#
# number of rings (size 3 to 8) (size 9 to 14) (size 15 to 20)
#    0.000    2.000    0.000    4.000    0.000    2.667 
#    0.000    0.000    0.000   76.000    0.000    0.000 
#    0.000    0.000    0.000    0.000    0.000    0.000 
#
# Total GULP energy -297592.628310 kJ/mol
# GULP energy per Si atom -12399.692846 kJ/mol
# Density = 2.090636 g / cm^3
# Si number density = 20.954049 Si / 1000 Ang^3
#
#
#
# Elastic Constant Matrix: (Units=GPa)
#
#
# Indices 1 2 3 4 5 6 
#
# 1 88.0202 14.0869 50.8676 0.0000 -18.3524 0.0000
# 2 14.0869 71.0147 19.1917 0.0000 -14.4313 0.0000
# 3 50.8676 19.1917 103.5188 0.0000 -25.2852 0.0000
# 4 0.0000 0.0000 0.0000 20.2254 0.0000 -1.9206
# 5 -18.3524 -14.4313 -25.2852 0.0000 41.3983 0.0000
# 6 0.0000 0.0000 0.0000 -1.9206 0.0000 19.5459
#
#
#
# Elastic Compliance Matrix: (Units=1/GPa)
#
#
# Indices 1 2 3 4 5 6 
#
# 1 0.016159 -0.000753 -0.007187 0.000000 0.002511 0.000000
# 2 -0.000753 0.015476 -0.001485 0.000000 0.004155 0.000000
# 3 -0.007187 -0.001485 0.014765 0.000000 0.005314 0.000000
# 4 0.000000 0.000000 0.000000 0.049908 0.000000 0.004904
# 5 0.002511 0.004155 0.005314 0.000000 0.029963 0.000000
# 6 0.000000 0.000000 0.000000 0.004904 0.000000 0.051644
#
#
# Mechanical properties :
#
#
# Convention : Reuss Voigt Hill
#
# Bulk Modulus (GPa) = 36.29605 47.87178 42.08392
# Shear Modulus (GPa) = 24.27800 28.12776 26.20288
#
# Velocity S-wave (km/s) = 3.40756 3.66779 3.54007
# Velocity P-wave (km/s) = 5.73073 6.39004 6.06934
#
# Compressibility (1/GPa) = 0.02755121
#
# Stress axis : x y z
#
# Youngs Moduli (GPa) = 61.88652 64.61462 67.72730
#
# Poissons Ratio (x) = 0.04863 0.48677
# Poissons Ratio (y) = 0.04658 0.10055
# Poissons Ratio (z) = 0.44479 0.09593
#
# Static dielectric constant tensor:
#      x y z
#    x 3.767800 0.000000 -0.220050 
#    y 0.000000 3.583770 0.000000 
#    z -0.220050 0.000000 3.845890 
# 
# 
# High freq. dielectric constant tensor:
#      x y z
#    x 1.820930 0.000000 -0.022870 
#    y 0.000000 1.801790 0.000000 
#    z -0.022870 0.000000 1.829050 
# 
# From -- ./inp_files/63466.got.cif
#   From: 2010.06.25/outbox.cif.g09.slc.cpg/sg13_32_cif.got.tgz:63466.got - 2010.06.28 04:50:58.
