data_PCOD8119235
_publ_section_title
;
Structure prediction by ZEFSAII (Michael W. Deem and Ramdas Pophale) SiO2 
 PCOD8119235
Probable space group: P 2/C
;
_chemical_formula_sum "Si O2"
_cell_formula_units_Z 22
_cell_length_a 9.774909
_cell_length_b 6.323701
_cell_length_c 26.565942
_cell_angle_alpha 90.000000
_cell_angle_beta 136.961025
_cell_angle_gamma 90.000000
_cell_volume 1120.751141
_symmetry_space_group_name_H-M "P 2/C"
_symmetry_group_IT_number 13
_symmetry_cell_setting 'monoclinic'
loop_
_space_group_symop_operation_xyz
x,y,z
-x,y,1/2-z
-x,-y,-z
x,-y,1/2+z
loop_
_atom_site_type_symbol
_atom_site_label
_atom_site_fract_x
_atom_site_fract_y
_atom_site_fract_z
Si Si1 0.576356 0.810319 0.554003
Si Si2 0.208802 0.571107 0.434229
Si Si3 0.500000 0.134691 0.250000
Si Si4 0.769327 0.516749 0.340567
Si Si5 0.790690 0.149534 0.665949
Si Si6 0.558628 0.248589 0.697144
O O1 0.378457 0.674693 0.516342
O O2 0.726167 0.663651 0.563033
O O3 0.500000 0.000000 0.500000
O O4 0.701894 0.913332 0.633205
O O5 0.181364 0.714519 0.376955
O O6 0.006576 0.542256 0.411856
O O7 0.693180 0.274612 0.317920
O O8 0.443899 0.992013 0.283208
O O9 0.661053 0.644482 0.356770
O O10 0.713739 0.619365 0.272289
O O11 0.630405 0.265020 0.659030
O O12 0.000000 0.120178 0.750000
#
# Coordination Sequence:
#
# PCOD8119235 Si02
#       6
#     4   4   2   4   4   4
#     4   9  22  37  55  81 114 148 187 221 272 334
#     4  10  20  38  57  79 112 150 184 228 274 328
#     4   8  18  30  52  74 112 148 180 220 278 328
#     4   9  18  33  54  75 109 149 181 219 280 325
#     4  11  21  34  57  87 113 139 182 236 284 322
#     4   9  19  34  49  84 116 134 182 231 266 336
#
# _framework density 19.629691999999999
#
# number of rings (size 3 to 8) (size 9 to 14) (size 15 to 20)
#    0.000    2.909    1.818    0.000    2.545    5.091 
#    0.000    0.909    0.000   10.909    0.000    0.000 
#    0.000    0.000    0.000    0.000    0.000    0.000 
#
# Total GULP energy -272629.880256 kJ/mol
# GULP energy per Si atom -12392.267284 kJ/mol
# Density = 1.958501 g / cm^3
# Si number density = 19.629692 Si / 1000 Ang^3
#
#
#
# Elastic Constant Matrix: (Units=GPa)
#
#
# Indices 1 2 3 4 5 6 
#
# 1 93.5962 7.9611 31.1602 0.0000 31.4512 0.0000
# 2 7.9611 91.6547 28.8762 0.0000 11.2803 0.0000
# 3 31.1602 28.8762 72.8320 0.0000 24.6123 0.0000
# 4 0.0000 0.0000 0.0000 6.2989 0.0000 0.9032
# 5 31.4512 11.2803 24.6123 0.0000 37.6592 0.0000
# 6 0.0000 0.0000 0.0000 0.9032 0.0000 16.4146
#
#
#
# Elastic Compliance Matrix: (Units=1/GPa)
#
#
# Indices 1 2 3 4 5 6 
#
# 1 0.015391 0.001052 -0.003275 0.000000 -0.011029 0.000000
# 2 0.001052 0.012552 -0.004953 0.000000 -0.001401 0.000000
# 3 -0.003275 -0.004953 0.020111 0.000000 -0.008925 0.000000
# 4 0.000000 0.000000 0.000000 0.160020 0.000000 -0.008805
# 5 -0.011029 -0.001401 -0.008925 0.000000 0.042017 0.000000
# 6 0.000000 0.000000 0.000000 -0.008805 0.000000 0.061406
#
#
# Mechanical properties :
#
#
# Convention : Reuss Voigt Hill
#
# Bulk Modulus (GPa) = 29.67159 43.78644 36.72901
# Shear Modulus (GPa) = 14.83310 24.74689 19.79000
#
# Velocity S-wave (km/s) = 2.75188 3.55447 3.17861
# Velocity P-wave (km/s) = 5.02450 6.26101 5.67653
#
# Compressibility (1/GPa) = 0.03370227
#
# Stress axis : x y z
#
# Youngs Moduli (GPa) = 64.97303 79.66770 49.72325
#
# Poissons Ratio (x) = -0.08384 0.16285
# Poissons Ratio (y) = -0.06837 0.24629
# Poissons Ratio (z) = 0.21280 0.39461
#
# Static dielectric constant tensor:
#      x y z
#    x 3.482620 0.000000 0.263340 
#    y 0.000000 3.896780 0.000000 
#    z 0.263340 0.000000 3.626380 
# 
# 
# High freq. dielectric constant tensor:
#      x y z
#    x 1.752690 0.000000 0.024360 
#    y 0.000000 1.778810 0.000000 
#    z 0.024360 0.000000 1.741990 
# 
# From -- ./inp_files/96366.got.cif
#   From: 2010.06.25/outbox.cif.g09.slc.cpg/sg13_49_cif.got.tgz:96366.got - 2010.06.28 04:50:58.
