data_PCOD8119237
_publ_section_title
;
Structure prediction by ZEFSAII (Michael W. Deem and Ramdas Pophale) SiO2 
 PCOD8119237
Probable space group: P 2/C
;
_chemical_formula_sum "Si O2"
_cell_formula_units_Z 26
_cell_length_a 7.610070
_cell_length_b 5.996093
_cell_length_c 26.574211
_cell_angle_alpha 90.000000
_cell_angle_beta 86.427232
_cell_angle_gamma 90.000000
_cell_volume 1210.242780
_symmetry_space_group_name_H-M "P 2/C"
_symmetry_group_IT_number 13
_symmetry_cell_setting 'monoclinic'
loop_
_space_group_symop_operation_xyz
x,y,z
-x,y,1/2-z
-x,-y,-z
x,-y,1/2+z
loop_
_atom_site_type_symbol
_atom_site_label
_atom_site_fract_x
_atom_site_fract_y
_atom_site_fract_z
Si Si1 0.500000 0.399771 0.250000
Si Si2 0.729750 0.967816 0.006416
Si Si3 0.532042 0.198298 0.922580
Si Si4 0.968428 0.688980 0.539965
Si Si5 0.197805 0.458540 0.119687
Si Si6 0.188809 0.706276 0.221298
Si Si7 0.609308 0.918622 0.829110
O O1 0.322844 0.547809 0.249885
O O2 0.519335 0.247557 0.199409
O O3 0.776556 0.194087 0.038022
O O4 0.660873 0.774761 0.047549
O O5 0.602271 0.018457 0.961696
O O6 0.896955 0.886370 0.973249
O O7 0.650447 0.421875 0.917640
O O8 0.507101 0.093427 0.866939
O O9 0.014914 0.583590 0.593554
O O10 0.000000 0.500000 0.500000
O O11 0.152071 0.619259 0.166160
O O12 0.263851 0.220671 0.137203
O O13 0.000000 0.725273 0.250000
O O14 0.276000 0.950184 0.214889
#
# Coordination Sequence:
#
# PCOD8119237 Si02
#       7
#     2   4   4   4   4   4   4
#     4  10  22  42  66  94 120 162 206 262 318 384
#     4  10  22  34  58  85 122 160 205 244 295 351
#     4  10  20  38  57  88 117 161 202 247 296 358
#     4  11  21  37  55  86 125 165 199 250 297 360
#     4  10  21  38  61  87 123 161 202 248 308 369
#     4  10  23  42  66  93 123 161 208 264 320 380
#     4  10  21  40  64  87 126 158 199 258 313 368
#
# _framework density 21.483294999999998
#
# number of rings (size 3 to 8) (size 9 to 14) (size 15 to 20)
#    0.000    1.846    3.077    0.462    0.000    5.538 
#    0.000    9.231    0.000    0.000    0.000    0.000 
#    0.000    0.000    0.000    0.000    0.000    0.000 
#
# Total GULP energy -322108.351354 kJ/mol
# GULP energy per Si atom -12388.782744 kJ/mol
# Density = 2.143440 g / cm^3
# Si number density = 21.483295 Si / 1000 Ang^3
#
#
#
# Elastic Constant Matrix: (Units=GPa)
#
#
# Indices 1 2 3 4 5 6 
#
# 1 72.5109 19.1683 50.4995 0.0000 -0.4781 0.0000
# 2 19.1683 76.9447 30.9286 0.0000 4.1709 0.0000
# 3 50.4995 30.9286 101.4149 0.0000 10.0334 0.0000
# 4 0.0000 0.0000 0.0000 35.3248 0.0000 6.7483
# 5 -0.4781 4.1709 10.0334 0.0000 42.6396 0.0000
# 6 0.0000 0.0000 0.0000 6.7483 0.0000 26.9081
#
#
#
# Elastic Compliance Matrix: (Units=1/GPa)
#
#
# Indices 1 2 3 4 5 6 
#
# 1 0.021543 -0.001249 -0.010630 0.000000 0.002865 0.000000
# 2 -0.001249 0.014891 -0.003864 0.000000 -0.000561 0.000000
# 3 -0.010630 -0.003864 0.016695 0.000000 -0.003670 0.000000
# 4 0.000000 0.000000 0.000000 0.029733 0.000000 -0.007457
# 5 0.002865 -0.000561 -0.003670 0.000000 0.024403 0.000000
# 6 0.000000 0.000000 0.000000 -0.007457 0.000000 0.039034
#
#
# Mechanical properties :
#
#
# Convention : Reuss Voigt Hill
#
# Bulk Modulus (GPa) = 46.20324 50.22924 48.21624
# Shear Modulus (GPa) = 27.02711 30.99278 29.00995
#
# Velocity S-wave (km/s) = 3.55075 3.80234 3.67870
# Velocity P-wave (km/s) = 6.19385 6.53517 6.36679
#
# Compressibility (1/GPa) = 0.02164350
#
# Stress axis : x y z
#
# Youngs Moduli (GPa) = 46.41823 67.15441 59.89822
#
# Poissons Ratio (x) = 0.08390 0.63671
# Poissons Ratio (y) = 0.05799 0.23143
# Poissons Ratio (z) = 0.49342 0.25946
#
# Static dielectric constant tensor:
#      x y z
#    x 3.194460 0.000000 0.846340 
#    y 0.000000 4.068720 0.000000 
#    z 0.846340 0.000000 3.497740 
# 
# 
# High freq. dielectric constant tensor:
#      x y z
#    x 1.822880 0.000000 0.018390 
#    y 0.000000 1.848550 0.000000 
#    z 0.018390 0.000000 1.845270 
# 
# From -- ./inp_files/90794.got.cif
#   From: 2010.06.25/outbox.cif.g09.slc.cpg/sg13_46_cif.got.tgz:90794.got - 2010.06.28 04:50:58.
