data_PCOD8119861
_publ_section_title
;
Structure prediction by ZEFSAII (Michael W. Deem and Ramdas Pophale) SiO2 
 PCOD8119861
Probable space group: P 2/C
;
_chemical_formula_sum "Si O2"
_cell_formula_units_Z 28
_cell_length_a 9.478617
_cell_length_b 8.629388
_cell_length_c 29.362479
_cell_angle_alpha 90.000000
_cell_angle_beta 140.677220
_cell_angle_gamma 90.000000
_cell_volume 1521.925908
_symmetry_space_group_name_H-M "P 2/C"
_symmetry_group_IT_number 13
_symmetry_cell_setting 'monoclinic'
loop_
_space_group_symop_operation_xyz
x,y,z
-x,y,1/2-z
-x,-y,-z
x,-y,1/2+z
loop_
_atom_site_type_symbol
_atom_site_label
_atom_site_fract_x
_atom_site_fract_y
_atom_site_fract_z
Si Si1 0.745038 0.976474 0.925786
Si Si2 0.115723 0.901134 0.734764
Si Si3 0.703934 0.161031 0.080464
Si Si4 0.266141 0.622193 0.316279
Si Si5 0.537569 0.705001 0.626767
Si Si6 0.526201 0.148796 0.564742
Si Si7 0.553114 0.850277 0.212506
O O1 0.684459 0.791391 0.908447
O O2 0.598004 0.053699 0.927864
O O3 0.675172 0.071453 0.863248
O O4 0.000000 0.000000 0.000000
O O5 0.255721 0.768589 0.793500
O O6 0.000000 0.988198 0.750000
O O7 0.956755 0.810512 0.659577
O O8 0.257966 0.018921 0.740622
O O9 0.543494 0.253371 0.074714
O O10 0.679991 0.973546 0.076303
O O11 0.650458 0.220269 0.015915
O O12 0.438782 0.478264 0.361654
O O13 0.316315 0.721045 0.374274
O O14 0.348248 0.707660 0.291352
O O15 0.000000 0.582267 0.250000
O O16 0.500000 0.791893 0.250000
#
# Coordination Sequence:
#
# PCOD8119861 Si02
#       7
#     4   4   4   4   4   4   4
#     4   9  19  37  56  76 106 146 181 223 277 316
#     4   9  16  32  56  76  99 135 180 228 272 313
#     4   9  16  31  52  79 105 130 182 233 266 307
#     4  11  20  36  56  77 113 149 175 220 284 330
#     4   9  19  34  55  79 105 139 177 220 268 329
#     4   9  19  30  50  80 107 136 178 228 266 320
#     4  10  21  34  53  82 107 141 189 226 262 329
#
# _framework density 18.397742000000001
#
# number of rings (size 3 to 8) (size 9 to 14) (size 15 to 20)
#    0.000    2.571    0.000    5.143    2.000    0.571 
#    2.571    5.714    3.143    0.000    0.000    0.000 
#    0.000    0.000    0.000    0.000    0.000    0.000 
#
# Total GULP energy -346865.690135 kJ/mol
# GULP energy per Si atom -12388.060362 kJ/mol
# Density = 1.835587 g / cm^3
# Si number density = 18.397742 Si / 1000 Ang^3
#
#
#
# Elastic Constant Matrix: (Units=GPa)
#
#
# Indices 1 2 3 4 5 6 
#
# 1 54.4086 27.9884 34.4981 0.0000 -8.7669 0.0000
# 2 27.9884 87.0399 27.1014 0.0000 -2.0947 0.0000
# 3 34.4981 27.1014 118.7907 0.0000 -3.3044 0.0000
# 4 0.0000 0.0000 0.0000 15.1288 0.0000 3.7062
# 5 -8.7669 -2.0947 -3.3044 0.0000 40.2356 0.0000
# 6 0.0000 0.0000 0.0000 3.7062 0.0000 11.8803
#
#
#
# Elastic Compliance Matrix: (Units=1/GPa)
#
#
# Indices 1 2 3 4 5 6 
#
# 1 0.026321 -0.006468 -0.006032 0.000000 0.004903 0.000000
# 2 -0.006468 0.013964 -0.001329 0.000000 -0.000791 0.000000
# 3 -0.006032 -0.001329 0.010459 0.000000 -0.000525 0.000000
# 4 0.000000 0.000000 0.000000 0.071568 0.000000 -0.022326
# 5 0.004903 -0.000791 -0.000525 0.000000 0.025838 0.000000
# 6 0.000000 0.000000 0.000000 -0.022326 0.000000 0.091138
#
#
# Mechanical properties :
#
#
# Convention : Reuss Voigt Hill
#
# Bulk Modulus (GPa) = 43.31780 48.82388 46.07084
# Shear Modulus (GPa) = 18.20563 24.82569 21.51566
#
# Velocity S-wave (km/s) = 3.14914 3.67739 3.42347
# Velocity P-wave (km/s) = 6.06787 6.68031 6.38144
#
# Compressibility (1/GPa) = 0.02308520
#
# Stress axis : x y z
#
# Youngs Moduli (GPa) = 37.99237 71.61473 95.61467
#
# Poissons Ratio (x) = 0.46318 0.57675
# Poissons Ratio (y) = 0.24572 0.12712
# Poissons Ratio (z) = 0.22917 0.09521
#
# Static dielectric constant tensor:
#      x y z
#    x 3.180060 0.000000 -0.238790 
#    y 0.000000 3.309930 0.000000 
#    z -0.238790 0.000000 3.151840 
# 
# 
# High freq. dielectric constant tensor:
#      x y z
#    x 1.685000 0.000000 -0.009760 
#    y 0.000000 1.691140 0.000000 
#    z -0.009760 0.000000 1.727320 
# 
# From -- ./inp_files/95978.got.cif
#   From: 2010.06.25/outbox.cif.g09.slc.cpg/sg13_48_cif.got.tgz:95978.got - 2010.06.28 04:50:58.
