data_PCOD8119859
_publ_section_title
;
Structure prediction by ZEFSAII (Michael W. Deem and Ramdas Pophale) SiO2 
 PCOD8119859
Probable space group: P 2/C
;
_chemical_formula_sum "Si O2"
_cell_formula_units_Z 20
_cell_length_a 8.861899
_cell_length_b 24.228823
_cell_length_c 5.139935
_cell_angle_alpha 90.000000
_cell_angle_beta 57.098948
_cell_angle_gamma 90.000000
_cell_volume 926.604247
_symmetry_space_group_name_H-M "P 2/C"
_symmetry_group_IT_number 13
_symmetry_cell_setting 'monoclinic'
loop_
_space_group_symop_operation_xyz
x,y,z
-x,y,1/2-z
-x,-y,-z
x,-y,1/2+z
loop_
_atom_site_type_symbol
_atom_site_label
_atom_site_fract_x
_atom_site_fract_y
_atom_site_fract_z
Si Si1 0.207658 0.534728 0.059221
Si Si2 0.209361 0.789856 0.544866
Si Si3 0.302554 0.023176 0.620147
Si Si4 0.791646 0.141115 0.951597
Si Si5 0.500000 0.375029 0.250000
Si Si6 0.500000 0.698981 0.250000
O O1 0.254586 0.511624 0.300456
O O2 0.000000 0.552497 0.250000
O O3 0.323046 0.588098 0.881857
O O4 0.259241 0.814103 0.217533
O O5 0.324388 0.735123 0.476289
O O6 0.000000 0.773629 0.750000
O O7 0.260902 0.834459 0.718433
O O8 0.317643 0.085943 0.510226
O O9 0.500000 0.000000 0.500000
O O10 0.201672 0.986270 0.490900
O O11 0.000000 0.125317 0.750000
O O12 0.465336 0.338205 0.533321
#
# Coordination Sequence:
#
# PCOD8119859 Si02
#       6
#     4   4   4   4   2   2
#     4  10  21  39  64  92 125 169 211 244 287 347
#     4  10  23  43  63  84 113 152 202 251 290 348
#     4  10  21  34  51  81 113 141 176 226 289 353
#     4  10  21  39  61  81 109 152 194 238 293 351
#     4  12  24  39  60  94 130 161 198 252 304 348
#     4  12  26  39  62  92 120 159 200 246 312 354
#
# _framework density 21.584188000000001
#
# number of rings (size 3 to 8) (size 9 to 14) (size 15 to 20)
#    0.000    1.600    0.000    4.200    0.000    7.200 
#    0.000    0.000    0.000    0.000    0.000    0.000 
#    0.000    0.000    0.000    0.000    0.000    0.000 
#
# Total GULP energy -247988.747650 kJ/mol
# GULP energy per Si atom -12399.437383 kJ/mol
# Density = 2.153506 g / cm^3
# Si number density = 21.584188 Si / 1000 Ang^3
#
#
#
# Elastic Constant Matrix: (Units=GPa)
#
#
# Indices 1 2 3 4 5 6 
#
# 1 89.1319 58.1387 51.7278 0.0000 11.2495 0.0000
# 2 58.1387 119.7408 34.8549 0.0000 -10.4514 0.0000
# 3 51.7278 34.8549 96.9299 0.0000 20.4693 0.0000
# 4 0.0000 0.0000 0.0000 28.4571 0.0000 3.6441
# 5 11.2495 -10.4514 20.4693 0.0000 44.4489 0.0000
# 6 0.0000 0.0000 0.0000 3.6441 0.0000 21.6344
#
#
#
# Elastic Compliance Matrix: (Units=1/GPa)
#
#
# Indices 1 2 3 4 5 6 
#
# 1 0.021898 -0.008751 -0.007682 0.000000 -0.004062 0.000000
# 2 -0.008751 0.013567 -0.001495 0.000000 0.006094 0.000000
# 3 -0.007682 -0.001495 0.016192 0.000000 -0.005864 0.000000
# 4 0.000000 0.000000 0.000000 0.035915 0.000000 -0.006050
# 5 -0.004062 0.006094 -0.005864 0.000000 0.027659 0.000000
# 6 0.000000 0.000000 0.000000 -0.006050 0.000000 0.047242
#
#
# Mechanical properties :
#
#
# Convention : Reuss Voigt Hill
#
# Bulk Modulus (GPa) = 63.28390 66.13838 64.71114
# Shear Modulus (GPa) = 24.55829 29.64683 27.10256
#
# Velocity S-wave (km/s) = 3.37678 3.71016 3.54738
# Velocity P-wave (km/s) = 6.67733 7.00445 6.84284
#
# Compressibility (1/GPa) = 0.01580181
#
# Stress axis : x y z
#
# Youngs Moduli (GPa) = 45.66610 73.70581 61.75794
#
# Poissons Ratio (x) = 0.64499 0.47440
# Poissons Ratio (y) = 0.39962 0.09236
# Poissons Ratio (z) = 0.35079 0.11023
#
# Static dielectric constant tensor:
#      x y z
#    x 3.846730 0.000000 -0.230370 
#    y 0.000000 3.711470 0.000000 
#    z -0.230370 0.000000 2.923250 
# 
# 
# High freq. dielectric constant tensor:
#      x y z
#    x 1.858140 0.000000 0.016730 
#    y 0.000000 1.836440 0.000000 
#    z 0.016730 0.000000 1.867590 
# 
# From -- ./inp_files/1978.got.cif
#   From: 2010.06.25/outbox.cif.g09.slc.cpg/sg13_1_cif.got.tgz:1978.got - 2010.06.28 04:50:58.
