data_PCOD8119563
_publ_section_title
;
Structure prediction by ZEFSAII (Michael W. Deem and Ramdas Pophale) SiO2 
 PCOD8119563
Probable space group: P 2/C
;
_chemical_formula_sum "Si O2"
_cell_formula_units_Z 30
_cell_length_a 12.711627
_cell_length_b 11.510406
_cell_length_c 14.922399
_cell_angle_alpha 90.000000
_cell_angle_beta 38.711926
_cell_angle_gamma 90.000000
_cell_volume 1365.500431
_symmetry_space_group_name_H-M "P 2/C"
_symmetry_group_IT_number 13
_symmetry_cell_setting 'monoclinic'
loop_
_space_group_symop_operation_xyz
x,y,z
-x,y,1/2-z
-x,-y,-z
x,-y,1/2+z
loop_
_atom_site_type_symbol
_atom_site_label
_atom_site_fract_x
_atom_site_fract_y
_atom_site_fract_z
Si Si1 0.257250 0.764271 0.718010
Si Si2 0.744677 0.514004 0.033534
Si Si3 0.815733 0.926809 0.900424
Si Si4 0.739780 0.286678 0.793710
Si Si5 0.000000 0.627199 0.250000
Si Si6 0.553642 0.898793 0.526900
Si Si7 0.613963 0.473521 0.310737
Si Si8 0.127079 0.243745 0.987661
O O1 0.242775 0.826073 0.630343
O O2 0.388608 0.846362 0.688806
O O3 0.343651 0.637030 0.655199
O O4 0.075412 0.749499 0.883999
O O5 0.718282 0.460158 0.149542
O O6 0.582621 0.489681 0.080053
O O7 0.902539 0.453938 0.883999
O O8 0.789308 0.649407 0.014283
O O9 0.817517 0.872067 0.997853
O O10 0.000000 0.970888 0.750000
O O11 0.701685 0.043704 0.987487
O O12 0.889147 0.286694 0.765411
O O13 0.601517 0.204615 0.928016
O O14 0.669624 0.416097 0.830740
O O15 0.800231 0.233845 0.659758
O O16 0.500000 0.000000 0.500000
#
# Coordination Sequence:
#
# PCOD8119563 Si02
#       8
#     4   4   4   4   2   4   4   4
#     4  10  20  39  68  95 131 171 213 263 326 383
#     4  10  23  37  62  99 137 169 212 252 321 393
#     4   9  21  40  68  92 121 170 224 274 313 380
#     4  11  25  41  66  95 134 169 212 265 329 384
#     4  12  24  36  64 102 132 172 200 264 328 394
#     4  10  23  42  64  90 123 166 220 273 315 372
#     4  10  22  41  61  96 139 170 206 264 320 397
#     4  10  22  42  68  96 125 173 220 261 312 391
#
# _framework density 21.969968000000001
#
# number of rings (size 3 to 8) (size 9 to 14) (size 15 to 20)
#    0.000    1.867    0.000    2.400    9.333    3.200 
#    0.000    6.000   23.467    0.000    0.000    0.000 
#    0.000    0.000    0.000    0.000    0.000    0.000 
#
# Total GULP energy -371787.487575 kJ/mol
# GULP energy per Si atom -12392.916253 kJ/mol
# Density = 2.191996 g / cm^3
# Si number density = 21.969968 Si / 1000 Ang^3
#
#
#
# Elastic Constant Matrix: (Units=GPa)
#
#
# Indices 1 2 3 4 5 6 
#
# 1 88.6760 47.0817 20.2236 0.0000 -18.9918 0.0000
# 2 47.0817 108.7210 44.9840 0.0000 -18.3105 0.0000
# 3 20.2236 44.9840 75.9855 0.0000 -17.9975 0.0000
# 4 0.0000 0.0000 0.0000 30.2155 0.0000 -3.9918
# 5 -18.9918 -18.3105 -17.9975 0.0000 36.5275 0.0000
# 6 0.0000 0.0000 0.0000 -3.9918 0.0000 -82.6328
#
#
#
# Elastic Compliance Matrix: (Units=1/GPa)
#
#
# Indices 1 2 3 4 5 6 
#
# 1 0.015506 -0.006131 0.000775 0.000000 0.005370 0.000000
# 2 -0.006131 0.014881 -0.006981 0.000000 0.000833 0.000000
# 3 0.000775 -0.006981 0.018514 0.000000 0.006025 0.000000
# 4 0.000000 0.000000 0.000000 0.032886 0.000000 -0.001589
# 5 0.005370 0.000833 0.006025 0.000000 0.033555 0.000000
# 6 0.000000 0.000000 0.000000 -0.001589 0.000000 -0.012025
#
#
# Mechanical properties :
#
#
# Convention : Reuss Voigt Hill
#
# Bulk Modulus (GPa) = 41.27648 55.32901 48.30275
# Shear Modulus (GPa) = 36.74665 7.56160 22.15412
#
# Velocity S-wave (km/s) = 4.09416 1.85722 3.17895
# Velocity P-wave (km/s) = 6.41701 5.46238 5.95884
#
# Compressibility (1/GPa) = 0.02422687
#
# Stress axis : x y z
#
# Youngs Moduli (GPa) = 64.49301 67.19781 54.01261
#
# Poissons Ratio (x) = 0.41197 -0.04184
# Poissons Ratio (y) = 0.39539 0.37706
# Poissons Ratio (z) = -0.04996 0.46911
#
# Static dielectric constant tensor:
#      x y z
#    x 4.378780 0.000000 -0.587450 
#    y 0.000000 4.440030 0.000000 
#    z -0.587450 0.000000 4.302090 
# 
# 
# High freq. dielectric constant tensor:
#      x y z
#    x 1.862260 0.000000 -0.022870 
#    y 0.000000 1.865180 0.000000 
#    z -0.022870 0.000000 1.871110 
# 
# From -- ./inp_files/68547.got.cif
#   From: 2010.06.25/outbox.cif.g09.slc.cpg/sg13_35_cif.got.tgz:68547.got - 2010.06.28 04:50:58.
