data_PCOD8119516
_publ_section_title
;
Structure prediction by ZEFSAII (Michael W. Deem and Ramdas Pophale) SiO2 
 PCOD8119516
Probable space group: P 2/C
;
_chemical_formula_sum "Si O2"
_cell_formula_units_Z 24
_cell_length_a 19.266540
_cell_length_b 6.343983
_cell_length_c 14.151227
_cell_angle_alpha 90.000000
_cell_angle_beta 143.248225
_cell_angle_gamma 90.000000
_cell_volume 1034.938905
_symmetry_space_group_name_H-M "P 2/C"
_symmetry_group_IT_number 13
_symmetry_cell_setting 'monoclinic'
loop_
_space_group_symop_operation_xyz
x,y,z
-x,y,1/2-z
-x,-y,-z
x,-y,1/2+z
loop_
_atom_site_type_symbol
_atom_site_label
_atom_site_fract_x
_atom_site_fract_y
_atom_site_fract_z
Si Si1 0.071030 0.835355 0.689008
Si Si2 0.640073 0.758919 0.659543
Si Si3 0.888358 0.814702 0.982891
Si Si4 0.500000 0.269837 0.750000
Si Si5 0.427811 0.606214 0.529997
Si Si6 0.000000 0.496172 0.750000
Si Si7 0.683950 0.009736 0.523549
O O1 0.080900 0.751862 0.592040
O O2 0.177640 0.988539 0.833135
O O3 0.079736 0.639553 0.769279
O O4 0.951019 0.962836 0.573906
O O5 0.749527 0.825379 0.843936
O O6 0.520663 0.769477 0.587405
O O7 0.652447 0.515829 0.634328
O O8 0.636709 0.925685 0.571712
O O9 0.923310 0.641143 0.096497
O O10 0.498877 0.420022 0.658109
O O11 0.385014 0.121703 0.631928
O O12 0.346861 0.740844 0.513002
#
# Coordination Sequence:
#
# PCOD8119516 Si02
#       7
#     4   4   4   2   4   2   4
#     4  10  24  44  65  95 133 173 224 268 338 393
#     4   9  21  39  65  92 120 163 216 256 319 387
#     4  10  23  44  67  96 132 174 216 280 329 382
#     4  10  22  36  56  96 120 166 204 248 324 376
#     4  10  20  39  63  93 125 163 210 258 314 387
#     4  12  24  42  66 100 126 176 226 272 324 396
#     4  10  21  40  61  89 128 164 205 269 320 381
#
# _framework density 23.189774
#
# number of rings (size 3 to 8) (size 9 to 14) (size 15 to 20)
#    0.000    2.000    0.000    2.000    2.333    8.000 
#    9.000    0.000    0.000    0.000    0.000    0.000 
#    0.000    0.000    0.000    0.000    0.000    0.000 
#
# Total GULP energy -297485.398076 kJ/mol
# GULP energy per Si atom -12395.224920 kJ/mol
# Density = 2.313699 g / cm^3
# Si number density = 23.189774 Si / 1000 Ang^3
#
#
#
# Elastic Constant Matrix: (Units=GPa)
#
#
# Indices 1 2 3 4 5 6 
#
# 1 37.8929 20.1109 19.5872 0.0000 -1.0976 0.0000
# 2 20.1109 91.6380 51.2728 0.0000 -1.5526 0.0000
# 3 19.5872 51.2728 147.9253 0.0000 7.6592 0.0000
# 4 0.0000 0.0000 0.0000 32.3566 0.0000 -7.7148
# 5 -1.0976 -1.5526 7.6592 0.0000 29.9807 0.0000
# 6 0.0000 0.0000 0.0000 -7.7148 0.0000 34.6323
#
#
#
# Elastic Compliance Matrix: (Units=1/GPa)
#
#
# Indices 1 2 3 4 5 6 
#
# 1 0.030456 -0.005413 -0.002229 0.000000 0.001404 0.000000
# 2 -0.005413 0.014611 -0.004435 0.000000 0.001692 0.000000
# 3 -0.002229 -0.004435 0.008724 0.000000 -0.002540 0.000000
# 4 0.000000 0.000000 0.000000 0.032639 0.000000 0.007271
# 5 0.001404 0.001692 -0.002540 0.000000 0.034143 0.000000
# 6 0.000000 0.000000 0.000000 0.007271 0.000000 0.030494
#
#
# Mechanical properties :
#
#
# Convention : Reuss Voigt Hill
#
# Bulk Modulus (GPa) = 33.74242 51.04424 42.39333
# Shear Modulus (GPa) = 27.01246 31.82628 29.41937
#
# Velocity S-wave (km/s) = 3.41668 3.70865 3.56566
# Velocity P-wave (km/s) = 5.49064 6.35595 5.93907
#
# Compressibility (1/GPa) = 0.02963629
#
# Stress axis : x y z
#
# Youngs Moduli (GPa) = 32.83440 68.44383 114.62462
#
# Poissons Ratio (x) = 0.37047 0.25554
# Poissons Ratio (y) = 0.17772 0.50837
# Poissons Ratio (z) = 0.07320 0.30355
#
# Static dielectric constant tensor:
#      x y z
#    x 3.962000 0.000000 -0.163320 
#    y 0.000000 4.120840 0.000000 
#    z -0.163320 0.000000 4.421200 
# 
# 
# High freq. dielectric constant tensor:
#      x y z
#    x 1.899740 0.000000 -0.009210 
#    y 0.000000 1.915320 0.000000 
#    z -0.009210 0.000000 1.922460 
# 
# From -- ./inp_files/56481.got.cif
#   From: 2010.06.25/outbox.cif.g09.slc.cpg/sg13_29_cif.got.tgz:56481.got - 2010.06.28 04:50:58.
