data_PCOD8119220
_publ_section_title
;
Structure prediction by ZEFSAII (Michael W. Deem and Ramdas Pophale) SiO2 
 PCOD8119220
Probable space group: P 2/C
;
_chemical_formula_sum "Si O2"
_cell_formula_units_Z 32
_cell_length_a 29.064022
_cell_length_b 9.490738
_cell_length_c 16.477955
_cell_angle_alpha 90.000000
_cell_angle_beta 157.410737
_cell_angle_gamma 90.000000
_cell_volume 1745.936895
_symmetry_space_group_name_H-M "P 2/C"
_symmetry_group_IT_number 13
_symmetry_cell_setting 'monoclinic'
loop_
_space_group_symop_operation_xyz
x,y,z
-x,y,1/2-z
-x,-y,-z
x,-y,1/2+z
loop_
_atom_site_type_symbol
_atom_site_label
_atom_site_fract_x
_atom_site_fract_y
_atom_site_fract_z
Si Si1 0.299132 0.405053 0.791340
Si Si2 0.155247 0.890919 0.286059
Si Si3 0.627883 0.235428 0.447533
Si Si4 0.142195 0.688102 0.401088
Si Si5 0.903790 0.210507 0.330786
Si Si6 0.540097 0.525299 0.231096
Si Si7 0.753323 0.404729 0.975156
Si Si8 0.871383 0.355462 0.443690
O O1 0.259417 0.351462 0.637964
O O2 0.197486 0.496138 0.672624
O O3 0.317659 0.266089 0.875000
O O4 0.422657 0.494471 0.985506
O O5 0.282396 0.864303 0.453020
O O6 0.156031 0.838165 0.380159
O O7 0.143682 0.057193 0.268181
O O8 0.048509 0.803527 0.067706
O O9 0.500000 0.156328 0.250000
O O10 0.606410 0.381422 0.365104
O O11 0.227915 0.573169 0.498619
O O12 0.174033 0.719387 0.547039
O O13 0.012250 0.617129 0.180275
O O14 0.863426 0.321579 0.196372
O O15 0.847952 0.259552 0.326288
O O16 0.500000 0.603188 0.250000
O O17 0.631889 0.621548 0.329215
#
# Coordination Sequence:
#
# PCOD8119220 Si02
#       8
#     4   4   4   4   4   4   4   4
#     4   9  19  31  53  82 110 131 175 225 271 316
#     4  10  20  38  53  77 105 149 176 218 268 320
#     4   9  18  34  55  73 102 142 180 210 257 324
#     4   9  19  32  57  72 107 138 174 213 271 314
#     4  10  22  34  55  78 112 137 181 219 271 315
#     4   9  17  31  53  78 105 141 172 218 271 317
#     4  11  19  33  52  84 105 137 173 228 262 318
#     4   9  18  34  50  80 103 136 174 217 264 322
#
# _framework density 18.328268999999999
#
# number of rings (size 3 to 8) (size 9 to 14) (size 15 to 20)
#    0.000    2.750    1.250    1.875    1.750    1.000 
#    2.250    1.875    0.000    3.000    0.000    0.000 
#    0.000    0.000    0.000    0.000    0.000    0.000 
#
# Total GULP energy -396561.993033 kJ/mol
# GULP energy per Si atom -12392.562282 kJ/mol
# Density = 1.828655 g / cm^3
# Si number density = 18.328269 Si / 1000 Ang^3
#
#
#
# Elastic Constant Matrix: (Units=GPa)
#
#
# Indices 1 2 3 4 5 6 
#
# 1 112.0968 43.5544 47.0021 0.0000 -1.3524 0.0000
# 2 43.5544 48.9121 22.6499 0.0000 -10.6679 0.0000
# 3 47.0021 22.6499 69.7326 0.0000 -12.9343 0.0000
# 4 0.0000 0.0000 0.0000 19.6815 0.0000 -1.1902
# 5 -1.3524 -10.6679 -12.9343 0.0000 40.1660 0.0000
# 6 0.0000 0.0000 0.0000 -1.1902 0.0000 16.8741
#
#
#
# Elastic Compliance Matrix: (Units=1/GPa)
#
#
# Indices 1 2 3 4 5 6 
#
# 1 0.017424 -0.012729 -0.008644 0.000000 -0.005578 0.000000
# 2 -0.012729 0.034022 -0.000930 0.000000 0.008308 0.000000
# 3 -0.008644 -0.000930 0.021663 0.000000 0.006438 0.000000
# 4 0.000000 0.000000 0.000000 0.051027 0.000000 0.003599
# 5 -0.005578 0.008308 0.006438 0.000000 0.028989 0.000000
# 6 0.000000 0.000000 0.000000 0.003599 0.000000 0.059516
#
#
# Mechanical properties :
#
#
# Convention : Reuss Voigt Hill
#
# Bulk Modulus (GPa) = 35.08442 50.79493 42.93967
# Shear Modulus (GPa) = 18.74426 23.17999 20.96213
#
# Velocity S-wave (km/s) = 3.20143 3.56014 3.38554
# Velocity P-wave (km/s) = 5.73144 6.68383 6.22587
#
# Compressibility (1/GPa) = 0.02850268
#
# Stress axis : x y z
#
# Youngs Moduli (GPa) = 57.39264 29.39271 46.16094
#
# Poissons Ratio (x) = 0.37413 0.39903
# Poissons Ratio (y) = 0.73054 0.04293
# Poissons Ratio (z) = 0.49612 0.02734
#
# Static dielectric constant tensor:
#      x y z
#    x 3.530360 0.000000 0.010300 
#    y 0.000000 2.866790 0.000000 
#    z 0.010300 0.000000 3.557870 
# 
# 
# High freq. dielectric constant tensor:
#      x y z
#    x 1.721230 0.000000 0.001010 
#    y 0.000000 1.657010 0.000000 
#    z 0.001010 0.000000 1.719530 
# 
# From -- ./inp_files/59533.got.cif
#   From: 2010.06.25/outbox.cif.g09.slc.cpg/sg13_30_cif.got.tgz:59533.got - 2010.06.28 04:50:58.
