data_PCOD8119310
_publ_section_title
;
Structure prediction by ZEFSAII (Michael W. Deem and Ramdas Pophale) SiO2 
 PCOD8119310
Probable space group: P 2/C
;
_chemical_formula_sum "Si O2"
_cell_formula_units_Z 22
_cell_length_a 11.091443
_cell_length_b 11.727708
_cell_length_c 11.602722
_cell_angle_alpha 90.000000
_cell_angle_beta 44.510024
_cell_angle_gamma 90.000000
_cell_volume 1058.035374
_symmetry_space_group_name_H-M "P 2/C"
_symmetry_group_IT_number 13
_symmetry_cell_setting 'monoclinic'
loop_
_space_group_symop_operation_xyz
x,y,z
-x,y,1/2-z
-x,-y,-z
x,-y,1/2+z
loop_
_atom_site_type_symbol
_atom_site_label
_atom_site_fract_x
_atom_site_fract_y
_atom_site_fract_z
Si Si1 0.817226 0.732891 0.353250
Si Si2 0.145249 0.349769 0.925695
Si Si3 0.559768 0.785490 0.867701
Si Si4 0.777952 0.401388 0.101271
Si Si5 0.649609 0.194439 0.568041
Si Si6 0.500000 0.024115 0.250000
O O1 0.795061 0.693516 0.238604
O O2 0.647037 0.805125 0.495500
O O3 0.820542 0.626709 0.439410
O O4 0.000000 0.799801 0.250000
O O5 0.257625 0.463776 0.872207
O O6 0.177479 0.252744 0.000902
O O7 0.942135 0.373514 0.069768
O O8 0.617168 0.671231 0.760545
O O9 0.614953 0.899135 0.760220
O O10 0.633604 0.777657 0.944763
O O11 0.500000 0.251033 0.750000
O O12 0.640670 0.057017 0.589946
#
# Coordination Sequence:
#
# PCOD8119310 Si02
#       6
#     4   4   4   4   4   2
#     4  10  20  38  61  87 124 163 199 252 306 370
#     4  10  22  42  57  93 130 160 201 245 321 363
#     4  12  21  41  66  92 118 162 215 250 311 363
#     4  10  23  37  65  91 125 163 201 257 295 382
#     4  10  23  38  64  87 125 163 197 262 310 365
#     4  10  22  42  62  88 120 160 214 266 304 358
#
# _framework density 20.793256
#
# number of rings (size 3 to 8) (size 9 to 14) (size 15 to 20)
#    0.545    1.091    3.636    0.545    2.545    2.909 
#    0.000    0.909    8.000    0.000    0.000    0.000 
#    0.000    0.000    0.000    0.000    0.000    0.000 
#
# Total GULP energy -272582.018599 kJ/mol
# GULP energy per Si atom -12390.091755 kJ/mol
# Density = 2.074593 g / cm^3
# Si number density = 20.793256 Si / 1000 Ang^3
#
#
#
# Elastic Constant Matrix: (Units=GPa)
#
#
# Indices 1 2 3 4 5 6 
#
# 1 123.1983 43.5341 40.2767 0.0000 25.4205 0.0000
# 2 43.5341 103.3376 20.0854 0.0000 6.6688 0.0000
# 3 40.2767 20.0854 78.2496 0.0000 10.6595 0.0000
# 4 0.0000 0.0000 0.0000 14.3297 0.0000 -2.4488
# 5 25.4205 6.6688 10.6595 0.0000 47.6619 0.0000
# 6 0.0000 0.0000 0.0000 -2.4488 0.0000 28.7746
#
#
#
# Elastic Compliance Matrix: (Units=1/GPa)
#
#
# Indices 1 2 3 4 5 6 
#
# 1 0.011943 -0.003845 -0.004503 0.000000 -0.004825 0.000000
# 2 -0.003845 0.011458 -0.001055 0.000000 0.000683 0.000000
# 3 -0.004503 -0.001055 0.015493 0.000000 -0.000916 0.000000
# 4 0.000000 0.000000 0.000000 0.070815 0.000000 0.006027
# 5 -0.004825 0.000683 -0.000916 0.000000 0.023664 0.000000
# 6 0.000000 0.000000 0.000000 0.006027 0.000000 0.035266
#
#
# Mechanical properties :
#
#
# Convention : Reuss Voigt Hill
#
# Bulk Modulus (GPa) = 49.78171 56.95310 53.36741
# Shear Modulus (GPa) = 25.75445 31.54586 28.65015
#
# Velocity S-wave (km/s) = 3.52319 3.89925 3.71598
# Velocity P-wave (km/s) = 6.36739 6.90810 6.64325
#
# Compressibility (1/GPa) = 0.02008770
#
# Stress axis : x y z
#
# Youngs Moduli (GPa) = 83.72769 87.27713 64.54474
#
# Poissons Ratio (x) = 0.33557 0.29067
# Poissons Ratio (y) = 0.32192 0.06810
# Poissons Ratio (z) = 0.37706 0.09208
#
# Static dielectric constant tensor:
#      x y z
#    x 3.866330 0.000000 0.036320 
#    y 0.000000 3.517090 0.000000 
#    z 0.036320 0.000000 3.702570 
# 
# 
# High freq. dielectric constant tensor:
#      x y z
#    x 1.818870 0.000000 0.017600 
#    y 0.000000 1.790690 0.000000 
#    z 0.017600 0.000000 1.808920 
# 
# From -- ./inp_files/33097.got.cif
#   From: 2010.06.25/outbox.cif.g09.slc.cpg/sg13_17_cif.got.tgz:33097.got - 2010.06.28 04:50:58.
