data_PCOD8119622
_publ_section_title
;
Structure prediction by ZEFSAII (Michael W. Deem and Ramdas Pophale) SiO2 
 PCOD8119622
Probable space group: P 2/C
;
_chemical_formula_sum "Si O2"
_cell_formula_units_Z 26
_cell_length_a 9.765144
_cell_length_b 7.417370
_cell_length_c 18.794506
_cell_angle_alpha 90.000000
_cell_angle_beta 63.222476
_cell_angle_gamma 90.000000
_cell_volume 1215.333610
_symmetry_space_group_name_H-M "P 2/C"
_symmetry_group_IT_number 13
_symmetry_cell_setting 'monoclinic'
loop_
_space_group_symop_operation_xyz
x,y,z
-x,y,1/2-z
-x,-y,-z
x,-y,1/2+z
loop_
_atom_site_type_symbol
_atom_site_label
_atom_site_fract_x
_atom_site_fract_y
_atom_site_fract_z
Si Si1 0.075594 0.315050 0.345074
Si Si2 0.543557 0.139387 0.431934
Si Si3 0.301138 0.661455 0.914671
Si Si4 0.261766 0.457026 0.069678
Si Si5 0.500000 0.717795 0.750000
Si Si6 0.828351 0.645177 0.271250
Si Si7 0.746667 0.033211 0.262138
O O1 0.142033 0.300879 0.410300
O O2 0.170187 0.473810 0.281858
O O3 0.895898 0.347058 0.389226
O O4 0.091758 0.129449 0.295685
O O5 0.387711 0.157654 0.421875
O O6 0.589622 0.330508 0.456331
O O7 0.500000 0.000000 0.500000
O O8 0.691399 0.068170 0.355113
O O9 0.433096 0.587227 0.828145
O O10 0.267908 0.536897 0.989398
O O11 0.262506 0.601851 0.133990
O O12 0.364220 0.856240 0.764067
O O13 0.752759 0.817375 0.248895
O O14 0.000000 0.704514 0.250000
#
# Coordination Sequence:
#
# PCOD8119622 Si02
#       7
#     4   4   4   4   2   4   4
#     4  10  22  43  65  94 130 168 210 272 326 371
#     4  11  23  40  62  93 131 170 212 261 318 378
#     4  10  21  42  64  89 131 169 215 267 318 387
#     4  11  22  41  66  95 127 170 217 268 321 379
#     4   8  20  40  60  86 128 170 206 268 322 380
#     4  10  22  37  65  96 123 163 213 259 323 380
#     4  10  20  40  63  88 128 164 211 261 318 380
#
# _framework density 21.393303
#
# number of rings (size 3 to 8) (size 9 to 14) (size 15 to 20)
#    0.000    1.846    1.538    1.846    2.154    0.000 
#   11.077    0.769    0.000    0.000    0.000    0.000 
#    0.000    0.000    0.000    0.000    0.000    0.000 
#
# Total GULP energy -322090.352974 kJ/mol
# GULP energy per Si atom -12388.090499 kJ/mol
# Density = 2.134461 g / cm^3
# Si number density = 21.393303 Si / 1000 Ang^3
#
#
#
# Elastic Constant Matrix: (Units=GPa)
#
#
# Indices 1 2 3 4 5 6 
#
# 1 68.2325 21.9293 21.8231 0.0000 10.5689 0.0000
# 2 21.9293 119.8983 53.0446 0.0000 6.1008 0.0000
# 3 21.8231 53.0446 143.0190 0.0000 11.5802 0.0000
# 4 0.0000 0.0000 0.0000 35.8227 0.0000 0.4803
# 5 10.5689 6.1008 11.5802 0.0000 29.1743 0.0000
# 6 0.0000 0.0000 0.0000 0.4803 0.0000 19.8898
#
#
#
# Elastic Compliance Matrix: (Units=1/GPa)
#
#
# Indices 1 2 3 4 5 6 
#
# 1 0.016557 -0.002195 -0.001306 0.000000 -0.005021 0.000000
# 2 -0.002195 0.010280 -0.003480 0.000000 0.000027 0.000000
# 3 -0.001306 -0.003480 0.008663 0.000000 -0.002238 0.000000
# 4 0.000000 0.000000 0.000000 0.027924 0.000000 -0.000674
# 5 -0.005021 0.000027 -0.002238 0.000000 0.036978 0.000000
# 6 0.000000 0.000000 0.000000 -0.000674 0.000000 0.050293
#
#
# Mechanical properties :
#
#
# Convention : Reuss Voigt Hill
#
# Bulk Modulus (GPa) = 46.42890 58.30484 52.36687
# Shear Modulus (GPa) = 29.09741 32.60090 30.84916
#
# Velocity S-wave (km/s) = 3.69198 3.90793 3.80149
# Velocity P-wave (km/s) = 6.31854 6.90475 6.61814
#
# Compressibility (1/GPa) = 0.02153831
#
# Stress axis : x y z
#
# Youngs Moduli (GPa) = 60.39920 97.27502 115.43026
#
# Poissons Ratio (x) = 0.21352 0.15072
# Poissons Ratio (y) = 0.13258 0.40170
# Poissons Ratio (z) = 0.07886 0.33852
#
# Static dielectric constant tensor:
#      x y z
#    x 4.135570 0.000000 0.203420 
#    y 0.000000 4.038790 0.000000 
#    z 0.203420 0.000000 4.672730 
# 
# 
# High freq. dielectric constant tensor:
#      x y z
#    x 1.847240 0.000000 -0.001550 
#    y 0.000000 1.809960 0.000000 
#    z -0.001550 0.000000 1.854530 
# 
# From -- ./inp_files/77183.got.cif
#   From: 2010.06.25/outbox.cif.g09.slc.cpg/sg13_39_cif.got.tgz:77183.got - 2010.06.28 04:50:58.
