data_PCOD8119078
_publ_section_title
;
Structure prediction by ZEFSAII (Michael W. Deem and Ramdas Pophale) SiO2 
 PCOD8119078
Probable space group: P 2/C
;
_chemical_formula_sum "Si O2"
_cell_formula_units_Z 32
_cell_length_a 15.530490
_cell_length_b 11.877160
_cell_length_c 18.537319
_cell_angle_alpha 90.000000
_cell_angle_beta 29.147403
_cell_angle_gamma 90.000000
_cell_volume 1665.426521
_symmetry_space_group_name_H-M "P 2/C"
_symmetry_group_IT_number 13
_symmetry_cell_setting 'monoclinic'
loop_
_space_group_symop_operation_xyz
x,y,z
-x,y,1/2-z
-x,-y,-z
x,-y,1/2+z
loop_
_atom_site_type_symbol
_atom_site_label
_atom_site_fract_x
_atom_site_fract_y
_atom_site_fract_z
Si Si1 0.536325 0.998334 0.057094
Si Si2 0.309002 0.018319 0.850959
Si Si3 0.901482 0.770100 0.935131
Si Si4 0.255625 0.221169 0.097046
Si Si5 0.066013 0.379794 0.427398
Si Si6 0.770878 0.775066 0.580504
Si Si7 0.595570 0.236949 0.068370
Si Si8 0.430272 0.618427 0.576624
O O1 0.350801 0.978526 0.234755
O O2 0.633572 0.113402 0.008683
O O3 0.665018 0.897597 0.984242
O O4 0.500000 0.000000 0.000000
O O5 0.500000 0.006211 0.750000
O O6 0.186362 0.908751 0.955923
O O7 0.202942 0.127462 0.952665
O O8 0.804614 0.721980 0.934434
O O9 0.097691 0.807567 0.767945
O O10 0.918902 0.670933 0.981012
O O11 0.397092 0.302463 0.031447
O O12 0.080608 0.296807 0.486319
O O13 0.251927 0.396540 0.252049
O O14 0.000000 0.500000 0.500000
O O15 0.591670 0.763835 0.755773
O O16 0.746541 0.729119 0.516144
O O17 0.586576 0.327062 0.010349
O O18 0.500000 0.500000 0.500000
#
# Coordination Sequence:
#
# PCOD8119078 Si02
#       8
#     4   4   4   4   4   4   4   4
#     4  11  19  33  58  87 119 145 182 232 285 344
#     4  11  19  35  61  91 115 142 192 238 281 357
#     4  10  22  38  57  83 120 154 184 231 298 349
#     4  10  20  37  57  83 119 153 181 231 296 349
#     4  10  23  41  55  77 115 154 195 238 282 333
#     4   9  17  34  59  81 110 147 184 228 283 332
#     4   9  16  32  56  84 109 141 181 232 279 328
#     4  10  21  36  56  81 106 146 197 236 280 333
#
# _framework density 19.214297999999999
#
# number of rings (size 3 to 8) (size 9 to 14) (size 15 to 20)
#    0.000    2.000    5.000    0.000    1.750    2.500 
#    0.000    0.000    0.000    1.500    0.000    0.000 
#    0.000    0.000    0.000    0.000    0.000    0.000 
#
# Total GULP energy -396657.718515 kJ/mol
# GULP energy per Si atom -12395.553704 kJ/mol
# Density = 1.917057 g / cm^3
# Si number density = 19.214298 Si / 1000 Ang^3
#
#
#
# Elastic Constant Matrix: (Units=GPa)
#
#
# Indices 1 2 3 4 5 6 
#
# 1 165.4718 75.5768 34.7804 0.0000 18.2324 0.0000
# 2 75.5768 154.5886 41.7607 0.0000 6.9383 0.0000
# 3 34.7804 41.7607 38.4920 0.0000 8.3729 0.0000
# 4 0.0000 0.0000 0.0000 34.3037 0.0000 2.4447
# 5 18.2324 6.9383 8.3729 0.0000 19.8252 0.0000
# 6 0.0000 0.0000 0.0000 2.4447 0.0000 27.6380
#
#
#
# Elastic Compliance Matrix: (Units=1/GPa)
#
#
# Indices 1 2 3 4 5 6 
#
# 1 0.008796 -0.003156 -0.003309 0.000000 -0.005587 0.000000
# 2 -0.003156 0.010304 -0.009002 0.000000 0.003098 0.000000
# 3 -0.003309 -0.009002 0.041170 0.000000 -0.011194 0.000000
# 4 0.000000 0.000000 0.000000 0.029336 0.000000 -0.002595
# 5 -0.005587 0.003098 -0.011194 0.000000 0.059223 0.000000
# 6 0.000000 0.000000 0.000000 -0.002595 0.000000 0.036412
#
#
# Mechanical properties :
#
#
# Convention : Reuss Voigt Hill
#
# Bulk Modulus (GPa) = 34.08527 73.64313 53.86420
# Shear Modulus (GPa) = 22.12857 30.11568 26.12212
#
# Velocity S-wave (km/s) = 3.39731 3.96328 3.69116
# Velocity P-wave (km/s) = 5.75908 7.70415 6.80150
#
# Compressibility (1/GPa) = 0.02933819
#
# Stress axis : x y z
#
# Youngs Moduli (GPa) = 113.69268 97.04781 24.28938
#
# Poissons Ratio (x) = 0.30624 0.08037
# Poissons Ratio (y) = 0.35876 0.21865
# Poissons Ratio (z) = 0.37617 0.87360
#
# Static dielectric constant tensor:
#      x y z
#    x 4.094080 0.000000 0.104800 
#    y 0.000000 4.918780 0.000000 
#    z 0.104800 0.000000 3.415220 
# 
# 
# High freq. dielectric constant tensor:
#      x y z
#    x 1.767300 0.000000 0.019720 
#    y 0.000000 1.739990 0.000000 
#    z 0.019720 0.000000 1.711380 
# 
# From -- ./inp_files/68674.got.cif
#   From: 2010.06.25/outbox.cif.g09.slc.cpg/sg13_35_cif.got.tgz:68674.got - 2010.06.28 04:50:58.
