data_PCOD8119017
_publ_section_title
;
Structure prediction by ZEFSAII (Michael W. Deem and Ramdas Pophale) SiO2 
 PCOD8119017
Probable space group: P 2/C
;
_chemical_formula_sum "Si O2"
_cell_formula_units_Z 28
_cell_length_a 11.953536
_cell_length_b 13.550323
_cell_length_c 9.731157
_cell_angle_alpha 90.000000
_cell_angle_beta 62.732150
_cell_angle_gamma 90.000000
_cell_volume 1401.041323
_symmetry_space_group_name_H-M "P 2/C"
_symmetry_group_IT_number 13
_symmetry_cell_setting 'monoclinic'
loop_
_space_group_symop_operation_xyz
x,y,z
-x,y,1/2-z
-x,-y,-z
x,-y,1/2+z
loop_
_atom_site_type_symbol
_atom_site_label
_atom_site_fract_x
_atom_site_fract_y
_atom_site_fract_z
Si Si1 0.251291 0.697272 0.314298
Si Si2 0.337481 0.790319 0.543168
Si Si3 0.409658 0.008304 0.925229
Si Si4 0.994347 0.399960 0.915525
Si Si5 0.265399 0.680245 0.838253
Si Si6 0.590215 0.488446 0.823299
Si Si7 0.622395 0.796639 0.487921
O O1 0.303766 0.717830 0.436950
O O2 0.319276 0.604077 0.207031
O O3 0.279298 0.787572 0.193931
O O4 0.103817 0.674049 0.402323
O O5 0.309623 0.903291 0.509201
O O6 0.253585 0.761443 0.722669
O O7 0.483724 0.781953 0.503214
O O8 0.500000 0.037262 0.750000
O O9 0.500000 0.000000 0.000000
O O10 0.347050 0.900188 0.950252
O O11 0.000000 0.425203 0.750000
O O12 0.868799 0.339679 0.018887
O O13 0.000000 0.500000 0.000000
O O14 0.320839 0.582355 0.740361
O O15 0.359497 0.714749 0.905174
O O16 0.500000 0.467548 0.750000
O O17 0.500000 0.500000 0.000000
#
# Coordination Sequence:
#
# PCOD8119017 Si02
#       7
#     4   4   4   4   4   4   4
#     4  12  24  41  63  89 131 169 216 269 311 386
#     4  11  23  38  64 100 128 165 210 263 334 385
#     4  10  20  36  62  95 134 170 209 257 322 401
#     4  12  28  48  67  88 124 178 235 261 312 376
#     4  12  24  41  64  90 130 171 216 264 319 385
#     4  12  24  35  56  91 125 155 192 252 326 382
#     4  11  21  40  64  96 134 168 207 265 328 391
#
# _framework density 19.985136000000001
#
# number of rings (size 3 to 8) (size 9 to 14) (size 15 to 20)
#    0.000    0.571    2.857    8.571    2.000    0.000 
#    0.000    0.000    0.000    5.143    0.000    0.000 
#    0.000    0.000    0.000    0.000    0.000    0.000 
#
# Total GULP energy -347173.852566 kJ/mol
# GULP energy per Si atom -12399.066163 kJ/mol
# Density = 1.993965 g / cm^3
# Si number density = 19.985136 Si / 1000 Ang^3
#
#
#
# Elastic Constant Matrix: (Units=GPa)
#
#
# Indices 1 2 3 4 5 6 
#
# 1 84.8407 45.1456 47.3312 0.0000 -2.5259 0.0000
# 2 45.1456 103.9737 50.1583 0.0000 -6.1643 0.0000
# 3 47.3312 50.1583 150.3047 0.0000 6.0847 0.0000
# 4 0.0000 0.0000 0.0000 40.9260 0.0000 2.8179
# 5 -2.5259 -6.1643 6.0847 0.0000 38.9856 0.0000
# 6 0.0000 0.0000 0.0000 2.8179 0.0000 11.5049
#
#
#
# Elastic Compliance Matrix: (Units=1/GPa)
#
#
# Indices 1 2 3 4 5 6 
#
# 1 0.016671 -0.005539 -0.003431 0.000000 0.000740 0.000000
# 2 -0.005539 0.013536 -0.002863 0.000000 0.002228 0.000000
# 3 -0.003431 -0.002863 0.008772 0.000000 -0.002044 0.000000
# 4 0.000000 0.000000 0.000000 0.024854 0.000000 -0.006087
# 5 0.000740 0.002228 -0.002044 0.000000 0.026370 0.000000
# 6 0.000000 0.000000 0.000000 -0.006087 0.000000 0.088410
#
#
# Mechanical properties :
#
#
# Convention : Reuss Voigt Hill
#
# Bulk Modulus (GPa) = 65.30924 69.37662 67.34293
# Shear Modulus (GPa) = 24.10997 31.38222 27.74610
#
# Velocity S-wave (km/s) = 3.47709 3.96697 3.73008
# Velocity P-wave (km/s) = 6.99071 7.46806 7.23333
#
# Compressibility (1/GPa) = 0.01531177
#
# Stress axis : x y z
#
# Youngs Moduli (GPa) = 59.98603 73.87532 114.00228
#
# Poissons Ratio (x) = 0.40922 0.39114
# Poissons Ratio (y) = 0.33229 0.32640
# Poissons Ratio (z) = 0.20581 0.21151
#
# Static dielectric constant tensor:
#      x y z
#    x 3.467330 0.000000 0.060250 
#    y 0.000000 4.741230 0.000000 
#    z 0.060250 0.000000 3.818160 
# 
# 
# High freq. dielectric constant tensor:
#      x y z
#    x 1.754460 0.000000 0.021370 
#    y 0.000000 1.786890 0.000000 
#    z 0.021370 0.000000 1.799740 
# 
# From -- ./inp_files/16655.got.cif
#   From: 2010.06.25/outbox.cif.g09.slc.cpg/sg13_9_cif.got.tgz:16655.got - 2010.06.28 04:50:58.
