data_PCOD8119442
_publ_section_title
;
Structure prediction by ZEFSAII (Michael W. Deem and Ramdas Pophale) SiO2 
 PCOD8119442
Probable space group: P 2/C
;
_chemical_formula_sum "Si O2"
_cell_formula_units_Z 24
_cell_length_a 5.259124
_cell_length_b 7.149592
_cell_length_c 27.494662
_cell_angle_alpha 90.000000
_cell_angle_beta 74.403524
_cell_angle_gamma 90.000000
_cell_volume 995.749524
_symmetry_space_group_name_H-M "P 2/C"
_symmetry_group_IT_number 13
_symmetry_cell_setting 'monoclinic'
loop_
_space_group_symop_operation_xyz
x,y,z
-x,y,1/2-z
-x,-y,-z
x,-y,1/2+z
loop_
_atom_site_type_symbol
_atom_site_label
_atom_site_fract_x
_atom_site_fract_y
_atom_site_fract_z
Si Si1 0.970784 0.615620 0.916104
Si Si2 0.580819 0.146050 0.928834
Si Si3 0.000000 0.950833 0.250000
Si Si4 0.957310 0.051966 0.149116
Si Si5 0.500000 0.706581 0.250000
Si Si6 0.387058 0.758769 0.965597
Si Si7 0.699127 0.313201 0.642146
O O1 0.133683 0.648256 0.957626
O O2 0.027563 0.409282 0.890514
O O3 0.660942 0.657658 0.935976
O O4 0.118613 0.748920 0.869113
O O5 0.491318 0.303446 0.894739
O O6 0.829417 0.035531 0.897454
O O7 0.368867 0.978608 0.951076
O O8 0.643050 0.260302 0.974815
O O9 0.049210 0.080340 0.200117
O O10 0.746125 0.824566 0.256081
O O11 0.721481 0.902170 0.159022
O O12 0.417405 0.585216 0.302847
#
# Coordination Sequence:
#
# PCOD8119442 Si02
#       7
#     4   4   2   4   2   4   4
#     4  11  25  41  63  94 131 160 217 258 318 376
#     4  10  21  40  68  86 133 169 209 260 325 362
#     4  10  20  38  68  88 118 164 214 248 324 384
#     4  10  22  42  63  94 125 169 208 272 311 386
#     4  10  22  40  64  96 118 162 216 256 314 390
#     4  10  24  41  62  98 125 169 215 259 307 393
#     4  11  23  41  66  92 126 171 206 272 314 385
#
# _framework density 24.102443999999998
#
# number of rings (size 3 to 8) (size 9 to 14) (size 15 to 20)
#    0.000    1.667    3.333    0.000    4.667    3.333 
#    0.000   10.000    0.000    0.000    0.000    0.000 
#    0.000    0.000    0.000    0.000    0.000    0.000 
#
# Total GULP energy -297375.481587 kJ/mol
# GULP energy per Si atom -12390.645066 kJ/mol
# Density = 2.404759 g / cm^3
# Si number density = 24.102444 Si / 1000 Ang^3
#
#
#
# Elastic Constant Matrix: (Units=GPa)
#
#
# Indices 1 2 3 4 5 6 
#
# 1 81.0721 -0.7025 16.4110 0.0000 11.7432 0.0000
# 2 -0.7025 39.3710 17.9998 0.0000 14.6264 0.0000
# 3 16.4110 17.9998 181.8742 0.0000 24.2290 0.0000
# 4 0.0000 0.0000 0.0000 7.3505 0.0000 -11.6179
# 5 11.7432 14.6264 24.2290 0.0000 39.6519 0.0000
# 6 0.0000 0.0000 0.0000 -11.6179 0.0000 21.1874
#
#
#
# Elastic Compliance Matrix: (Units=1/GPa)
#
#
# Indices 1 2 3 4 5 6 
#
# 1 0.013129 0.002170 -0.000843 0.000000 -0.004173 0.000000
# 2 0.002170 0.030224 -0.001759 0.000000 -0.010716 0.000000
# 3 -0.000843 -0.001759 0.006128 0.000000 -0.002845 0.000000
# 4 0.000000 0.000000 0.000000 1.020397 0.000000 0.559522
# 5 -0.004173 -0.010716 -0.002845 0.000000 0.032147 0.000000
# 6 0.000000 0.000000 0.000000 0.559522 0.000000 0.354004
#
#
# Mechanical properties :
#
#
# Convention : Reuss Voigt Hill
#
# Bulk Modulus (GPa) = 20.56986 41.08154 30.82570
# Shear Modulus (GPa) = 3.39421 31.54523 17.46972
#
# Velocity S-wave (km/s) = 1.18798 3.62166 2.69515
# Velocity P-wave (km/s) = 3.23026 5.87963 4.74366
#
# Compressibility (1/GPa) = 0.04861483
#
# Stress axis : x y z
#
# Youngs Moduli (GPa) = 76.16870 33.08669 163.19587
#
# Poissons Ratio (x) = -0.07181 0.13765
# Poissons Ratio (y) = -0.16531 0.28713
# Poissons Ratio (z) = 0.06425 0.05821
#
# Static dielectric constant tensor:
#      x y z
#    x 3.980310 0.000000 0.093270 
#    y 0.000000 4.597860 0.000000 
#    z 0.093270 0.000000 5.123070 
# 
# 
# High freq. dielectric constant tensor:
#      x y z
#    x 1.947080 0.000000 0.006050 
#    y 0.000000 1.928680 0.000000 
#    z 0.006050 0.000000 1.983510 
# 
# From -- ./inp_files/83311.got.cif
#   From: 2010.06.25/outbox.cif.g09.slc.cpg/sg13_42_cif.got.tgz:83311.got - 2010.06.28 04:50:58.
