data_PCOD8119081
_publ_section_title
;
Structure prediction by ZEFSAII (Michael W. Deem and Ramdas Pophale) SiO2 
 PCOD8119081
Probable space group: P 2/C
;
_chemical_formula_sum "Si O2"
_cell_formula_units_Z 30
_cell_length_a 6.381717
_cell_length_b 8.455439
_cell_length_c 29.013326
_cell_angle_alpha 90.000000
_cell_angle_beta 106.232927
_cell_angle_gamma 90.000000
_cell_volume 1503.151328
_symmetry_space_group_name_H-M "P 2/C"
_symmetry_group_IT_number 13
_symmetry_cell_setting 'monoclinic'
loop_
_space_group_symop_operation_xyz
x,y,z
-x,y,1/2-z
-x,-y,-z
x,-y,1/2+z
loop_
_atom_site_type_symbol
_atom_site_label
_atom_site_fract_x
_atom_site_fract_y
_atom_site_fract_z
Si Si1 0.325512 0.175111 0.936368
Si Si2 0.317950 0.467528 0.704392
Si Si3 0.169267 0.260582 0.021429
Si Si4 0.261826 0.389903 0.533423
Si Si5 0.000000 0.363007 0.250000
Si Si6 0.125657 0.262024 0.616002
Si Si7 0.442304 0.222238 0.298119
Si Si8 0.608192 0.041781 0.395069
O O1 0.503662 0.311496 0.951625
O O2 0.131975 0.236550 0.890887
O O3 0.423735 0.015791 0.920081
O O4 0.225548 0.145120 0.981421
O O5 0.500000 0.397744 0.750000
O O6 0.103095 0.526090 0.717400
O O7 0.248192 0.322969 0.668431
O O8 0.425335 0.615460 0.683833
O O9 0.287924 0.428774 0.019450
O O10 0.254224 0.182952 0.073602
O O11 0.908072 0.291365 0.009400
O O12 0.156120 0.392094 0.577974
O O13 0.816672 0.253167 0.215094
O O14 0.227856 0.098063 0.605945
O O15 0.500000 0.159713 0.250000
O O16 0.499653 0.096171 0.340677
#
# Coordination Sequence:
#
# PCOD8119081 Si02
#       8
#     4   4   4   4   2   4   4   4
#     4  10  22  36  54  82 114 146 183 225 271 327
#     4   9  19  37  60  81 105 139 183 232 275 318
#     4  10  20  37  58  81 108 144 186 230 273 320
#     4   9  20  38  59  79 106 144 189 233 269 315
#     4   8  18  36  62  86 104 134 186 240 274 312
#     4  10  22  37  52  80 113 146 183 221 272 331
#     4   9  20  39  60  82 108 141 183 229 273 323
#     4  11  23  36  54  81 116 149 177 219 277 333
#
# _framework density 19.958071
#
# number of rings (size 3 to 8) (size 9 to 14) (size 15 to 20)
#    0.000    2.667    0.000    1.600    0.000   13.867 
#    0.000    0.000    0.000    0.000    0.000    0.000 
#    0.000    0.000    0.000    0.000    0.000    0.000 
#
# Total GULP energy -371923.043387 kJ/mol
# GULP energy per Si atom -12397.434780 kJ/mol
# Density = 1.991265 g / cm^3
# Si number density = 19.958071 Si / 1000 Ang^3
#
#
#
# Elastic Constant Matrix: (Units=GPa)
#
#
# Indices 1 2 3 4 5 6 
#
# 1 112.9388 38.6921 41.9275 0.0000 18.3864 0.0000
# 2 38.6921 77.2801 53.9767 0.0000 4.8321 0.0000
# 3 41.9275 53.9767 122.7121 0.0000 14.0051 0.0000
# 4 0.0000 0.0000 0.0000 45.6646 0.0000 3.9190
# 5 18.3864 4.8321 14.0051 0.0000 25.2911 0.0000
# 6 0.0000 0.0000 0.0000 3.9190 0.0000 17.3978
#
#
#
# Elastic Compliance Matrix: (Units=1/GPa)
#
#
# Indices 1 2 3 4 5 6 
#
# 1 0.012114 -0.004761 -0.001221 0.000000 -0.007221 0.000000
# 2 -0.004761 0.020576 -0.007867 0.000000 0.003887 0.000000
# 3 -0.001221 -0.007867 0.012547 0.000000 -0.004557 0.000000
# 4 0.000000 0.000000 0.000000 0.022331 0.000000 -0.005030
# 5 -0.007221 0.003887 -0.004557 0.000000 0.046570 0.000000
# 6 0.000000 0.000000 0.000000 -0.005030 0.000000 0.058612
#
#
# Mechanical properties :
#
#
# Convention : Reuss Voigt Hill
#
# Bulk Modulus (GPa) = 57.01742 64.68041 60.84892
# Shear Modulus (GPa) = 24.23724 29.55968 26.89846
#
# Velocity S-wave (km/s) = 3.48862 3.85267 3.67515
# Velocity P-wave (km/s) = 6.69760 7.22975 6.96876
#
# Compressibility (1/GPa) = 0.01753850
#
# Stress axis : x y z
#
# Youngs Moduli (GPa) = 82.54700 48.60101 79.70078
#
# Poissons Ratio (x) = 0.23140 0.09729
# Poissons Ratio (y) = 0.39302 0.62703
# Poissons Ratio (z) = 0.10077 0.38236
#
# Static dielectric constant tensor:
#      x y z
#    x 3.710600 0.000000 0.122500 
#    y 0.000000 3.380000 0.000000 
#    z 0.122500 0.000000 3.599850 
# 
# 
# High freq. dielectric constant tensor:
#      x y z
#    x 1.785860 0.000000 0.014790 
#    y 0.000000 1.761690 0.000000 
#    z 0.014790 0.000000 1.776380 
# 
# From -- ./inp_files/95091.got.cif
#   From: 2010.06.25/outbox.cif.g09.slc.cpg/sg13_48_cif.got.tgz:95091.got - 2010.06.28 04:50:58.
