data_PCOD8119455
_publ_section_title
;
Structure prediction by ZEFSAII (Michael W. Deem and Ramdas Pophale) SiO2 
 PCOD8119455
Probable space group: P 2/C
;
_chemical_formula_sum "Si O2"
_cell_formula_units_Z 24
_cell_length_a 9.215297
_cell_length_b 15.674976
_cell_length_c 8.685134
_cell_angle_alpha 90.000000
_cell_angle_beta 93.080609
_cell_angle_gamma 90.000000
_cell_volume 1252.750828
_symmetry_space_group_name_H-M "P 2/C"
_symmetry_group_IT_number 13
_symmetry_cell_setting 'monoclinic'
loop_
_space_group_symop_operation_xyz
x,y,z
-x,y,1/2-z
-x,-y,-z
x,-y,1/2+z
loop_
_atom_site_type_symbol
_atom_site_label
_atom_site_fract_x
_atom_site_fract_y
_atom_site_fract_z
Si Si1 0.479224 0.408394 0.569453
Si Si2 0.851076 0.222970 0.189906
Si Si3 0.151970 0.606029 0.971883
Si Si4 0.400951 0.735788 0.607170
Si Si5 0.608407 0.115349 0.031919
Si Si6 0.500000 0.978600 0.250000
Si Si7 0.000000 0.524902 0.250000
O O1 0.500000 0.415768 0.750000
O O2 0.500000 0.500000 0.500000
O O3 0.321211 0.377046 0.509969
O O4 0.599326 0.339537 0.519031
O O5 0.906959 0.305889 0.100401
O O6 0.760048 0.247016 0.338293
O O7 0.759178 0.163452 0.070224
O O8 0.000000 0.175718 0.250000
O O9 0.121356 0.532064 0.844169
O O10 0.077728 0.584797 0.130082
O O11 0.500000 0.699723 0.750000
O O12 0.468747 0.823731 0.547606
O O13 0.601739 0.035977 0.148014
O O14 0.605896 0.081139 0.857580
#
# Coordination Sequence:
#
# PCOD8119455 Si02
#       7
#     4   4   4   4   4   2   2
#     4  12  25  36  59  87 121 157 209 263 303 352
#     4  11  22  39  63  88 124 167 198 250 314 371
#     4  11  22  41  57  83 119 165 208 252 307 362
#     4  10  20  39  60  87 122 159 207 251 304 361
#     4  10  20  40  66  94 122 160 204 248 306 379
#     4  10  20  38  72  94 122 160 200 252 310 370
#     4  10  24  38  62  84 120 166 214 252 304 372
#
# _framework density 19.15784
#
# number of rings (size 3 to 8) (size 9 to 14) (size 15 to 20)
#    0.000    1.333    6.667    1.500    3.500    1.333 
#    0.000    0.833    0.000    0.000    0.000    0.000 
#    0.000    0.000    0.000    0.000    0.000    0.000 
#
# Total GULP energy -297601.088126 kJ/mol
# GULP energy per Si atom -12400.045339 kJ/mol
# Density = 1.911424 g / cm^3
# Si number density = 19.157840 Si / 1000 Ang^3
#
#
#
# Elastic Constant Matrix: (Units=GPa)
#
#
# Indices 1 2 3 4 5 6 
#
# 1 104.7844 37.8641 40.0288 0.0000 6.0346 0.0000
# 2 37.8641 113.5965 63.8686 0.0000 -5.6694 0.0000
# 3 40.0288 63.8686 134.3216 0.0000 -6.2805 0.0000
# 4 0.0000 0.0000 0.0000 32.9510 0.0000 6.4032
# 5 6.0346 -5.6694 -6.2805 0.0000 23.6041 0.0000
# 6 0.0000 0.0000 0.0000 6.4032 0.0000 19.6531
#
#
#
# Elastic Compliance Matrix: (Units=1/GPa)
#
#
# Indices 1 2 3 4 5 6 
#
# 1 0.011699 -0.002785 -0.002363 0.000000 -0.004289 0.000000
# 2 -0.002785 0.012723 -0.005107 0.000000 0.002409 0.000000
# 3 -0.002363 -0.005107 0.010681 0.000000 0.002219 0.000000
# 4 0.000000 0.000000 0.000000 0.032399 0.000000 -0.010556
# 5 -0.004289 0.002409 0.002219 0.000000 0.044631 0.000000
# 6 0.000000 0.000000 0.000000 -0.010556 0.000000 0.054322
#
#
# Mechanical properties :
#
#
# Convention : Reuss Voigt Hill
#
# Bulk Modulus (GPa) = 68.52336 70.69172 69.60754
# Shear Modulus (GPa) = 26.06466 29.30436 27.68451
#
# Velocity S-wave (km/s) = 3.69253 3.91529 3.80554
# Velocity P-wave (km/s) = 7.35018 7.57754 7.46472
#
# Compressibility (1/GPa) = 0.01459356
#
# Stress axis : x y z
#
# Youngs Moduli (GPa) = 85.47414 78.59706 93.62402
#
# Poissons Ratio (x) = 0.21892 0.22120
# Poissons Ratio (y) = 0.23807 0.47814
# Poissons Ratio (z) = 0.20194 0.40140
#
# Static dielectric constant tensor:
#      x y z
#    x 3.180200 0.000000 -0.032000 
#    y 0.000000 3.526070 0.000000 
#    z -0.032000 0.000000 3.712260 
# 
# 
# High freq. dielectric constant tensor:
#      x y z
#    x 1.726520 0.000000 0.001600 
#    y 0.000000 1.744210 0.000000 
#    z 0.001600 0.000000 1.754090 
# 
# From -- ./inp_files/12572.got.cif
#   From: 2010.06.25/outbox.cif.g09.slc.cpg/sg13_7_cif.got.tgz:12572.got - 2010.06.28 04:50:58.
