data_PCOD8119892
_publ_section_title
;
Structure prediction by ZEFSAII (Michael W. Deem and Ramdas Pophale) SiO2 
 PCOD8119892
Probable space group: P 2/C
;
_chemical_formula_sum "Si O2"
_cell_formula_units_Z 20
_cell_length_a 17.810585
_cell_length_b 9.785935
_cell_length_c 8.560292
_cell_angle_alpha 90.000000
_cell_angle_beta 41.871415
_cell_angle_gamma 90.000000
_cell_volume 995.852624
_symmetry_space_group_name_H-M "P 2/C"
_symmetry_group_IT_number 13
_symmetry_cell_setting 'monoclinic'
loop_
_space_group_symop_operation_xyz
x,y,z
-x,y,1/2-z
-x,-y,-z
x,-y,1/2+z
loop_
_atom_site_type_symbol
_atom_site_label
_atom_site_fract_x
_atom_site_fract_y
_atom_site_fract_z
Si Si1 0.890394 0.347623 0.206571
Si Si2 0.580307 0.067026 0.750831
Si Si3 0.080971 0.922033 0.989357
Si Si4 0.857742 0.376911 0.621927
Si Si5 0.722618 0.123870 0.805419
O O1 0.865810 0.359579 0.425468
O O2 0.823562 0.468004 0.218839
O O3 0.851264 0.202940 0.196384
O O4 0.025017 0.351171 0.970314
O O5 0.500000 0.148648 0.750000
O O6 0.662020 0.159583 0.732214
O O7 0.646037 0.949167 0.553429
O O8 0.500000 0.000000 0.000000
O O9 0.000000 0.865325 0.250000
O O10 0.173760 0.027782 0.907646
O O11 0.000000 0.000000 0.000000
O O12 0.765925 0.264728 0.818520
#
# Coordination Sequence:
#
# PCOD8119892 Si02
#       5
#     4   4   4   4   4
#     4  10  22  35  50  77 122 165 198 230 271 338
#     4   9  20  37  58  87 113 141 194 266 318 345
#     4  12  23  34  53  86 124 160 197 237 284 355
#     4  10  21  35  53  77 115 164 201 230 275 350
#     4  11  20  35  59  86 116 153 193 244 303 360
#
# _framework density 20.083293000000001
#
# number of rings (size 3 to 8) (size 9 to 14) (size 15 to 20)
#    0.000    1.600    2.000    3.600    5.600    0.000 
#    0.000    0.000    0.000    0.000    0.000   88.200 
#    0.000    0.000    0.000    0.000    0.000    0.000 
#
# Total GULP energy -247824.294815 kJ/mol
# GULP energy per Si atom -12391.214741 kJ/mol
# Density = 2.003758 g / cm^3
# Si number density = 20.083293 Si / 1000 Ang^3
#
#
#
# Elastic Constant Matrix: (Units=GPa)
#
#
# Indices 1 2 3 4 5 6 
#
# 1 115.6662 42.8557 15.7644 0.0000 2.1501 0.0000
# 2 42.8557 128.7701 16.1241 0.0000 1.4999 0.0000
# 3 15.7644 16.1241 78.1859 0.0000 5.2460 0.0000
# 4 0.0000 0.0000 0.0000 19.3252 0.0000 5.7936
# 5 2.1501 1.4999 5.2460 0.0000 27.0358 0.0000
# 6 0.0000 0.0000 0.0000 5.7936 0.0000 28.8470
#
#
#
# Elastic Compliance Matrix: (Units=1/GPa)
#
#
# Indices 1 2 3 4 5 6 
#
# 1 0.010005 -0.003158 -0.001342 0.000000 -0.000360 0.000000
# 2 -0.003158 0.008969 -0.001212 0.000000 -0.000011 0.000000
# 3 -0.001342 -0.001212 0.013474 0.000000 -0.002441 0.000000
# 4 0.000000 0.000000 0.000000 0.055061 0.000000 -0.011058
# 5 -0.000360 -0.000011 -0.002441 0.000000 0.037491 0.000000
# 6 0.000000 0.000000 0.000000 -0.011058 0.000000 0.036887
#
#
# Mechanical properties :
#
#
# Convention : Reuss Voigt Hill
#
# Bulk Modulus (GPa) = 47.56326 52.45674 50.01000
# Shear Modulus (GPa) = 27.72880 31.56681 29.64780
#
# Velocity S-wave (km/s) = 3.71979 3.96889 3.84636
# Velocity P-wave (km/s) = 6.49489 6.86870 6.68441
#
# Compressibility (1/GPa) = 0.02102463
#
# Stress axis : x y z
#
# Youngs Moduli (GPa) = 99.94934 111.50083 74.21514
#
# Poissons Ratio (x) = 0.35207 0.09959
# Poissons Ratio (y) = 0.31559 0.08996
# Poissons Ratio (z) = 0.13413 0.13516
#
# Static dielectric constant tensor:
#      x y z
#    x 4.533640 0.000000 -0.201370 
#    y 0.000000 3.867020 0.000000 
#    z -0.201370 0.000000 3.144660 
# 
# 
# High freq. dielectric constant tensor:
#      x y z
#    x 1.787820 0.000000 0.018640 
#    y 0.000000 1.758420 0.000000 
#    z 0.018640 0.000000 1.778200 
# 
# From -- ./inp_files/21042.got.cif
#   From: 2010.06.25/outbox.cif.g09.slc.cpg/sg13_11_cif.got.tgz:21042.got - 2010.06.28 04:50:58.
