data_PCOD8119775
_publ_section_title
;
Structure prediction by ZEFSAII (Michael W. Deem and Ramdas Pophale) SiO2 
 PCOD8119775
Probable space group: P 2/C
;
_chemical_formula_sum "Si O2"
_cell_formula_units_Z 26
_cell_length_a 21.781821
_cell_length_b 11.507422
_cell_length_c 13.919280
_cell_angle_alpha 90.000000
_cell_angle_beta 158.199343
_cell_angle_gamma 90.000000
_cell_volume 1295.703801
_symmetry_space_group_name_H-M "P 2/C"
_symmetry_group_IT_number 13
_symmetry_cell_setting 'monoclinic'
loop_
_space_group_symop_operation_xyz
x,y,z
-x,y,1/2-z
-x,-y,-z
x,-y,1/2+z
loop_
_atom_site_type_symbol
_atom_site_label
_atom_site_fract_x
_atom_site_fract_y
_atom_site_fract_z
Si Si1 0.287038 0.290381 0.350490
Si Si2 0.000000 0.845142 0.750000
Si Si3 0.186581 0.425823 0.856791
Si Si4 0.500000 0.516305 0.250000
Si Si5 0.337228 0.996987 0.194839
Si Si6 0.173433 0.771286 0.483667
Si Si7 0.015962 0.660660 0.603842
Si Si8 0.500000 0.898371 0.250000
O O1 0.385896 0.407200 0.515298
O O2 0.240662 0.297429 0.172758
O O3 0.129892 0.277097 0.190476
O O4 0.397183 0.177351 0.525710
O O5 0.972863 0.758694 0.619940
O O6 0.826188 0.920316 0.507758
O O7 0.108501 0.547427 0.781498
O O8 0.142054 0.391875 0.681690
O O9 0.384827 0.436712 0.149448
O O10 0.129302 0.323842 0.841058
O O11 0.296907 0.131901 0.127057
O O12 0.500000 0.000000 0.500000
O O13 0.380650 0.969476 0.147202
O O14 0.000000 0.836390 0.250000
#
# Coordination Sequence:
#
# PCOD8119775 Si02
#       8
#     4   2   4   2   4   4   4   2
#     4  10  20  42  66  91 132 179 218 279 350 401
#     4  12  26  44  72 102 136 180 238 282 340 408
#     4  10  23  40  63  97 135 173 223 280 341 407
#     4   9  22  39  62  96 134 177 227 274 346 408
#     4  12  27  45  68 104 136 180 238 280 338 416
#     4  12  24  41  66  98 137 177 229 282 342 411
#     4  10  22  41  68  96 131 175 226 278 341 411
#     4  11  22  45  68  92 134 177 221 284 342 394
#
# _framework density 20.066316
#
# number of rings (size 3 to 8) (size 9 to 14) (size 15 to 20)
#    0.000    1.231    5.385    0.000    1.077    3.692 
#    0.000    3.077    0.000    0.000    0.000    0.000 
#    0.000    0.000    0.000    0.000    0.000    0.000 
#
# Total GULP energy -322110.211375 kJ/mol
# GULP energy per Si atom -12388.854284 kJ/mol
# Density = 2.002064 g / cm^3
# Si number density = 20.066316 Si / 1000 Ang^3
#
#
#
# Elastic Constant Matrix: (Units=GPa)
#
#
# Indices 1 2 3 4 5 6 
#
# 1 101.0338 47.3732 37.6608 0.0000 11.8351 0.0000
# 2 47.3732 94.0222 28.0527 0.0000 7.7605 0.0000
# 3 37.6608 28.0527 100.8069 0.0000 12.5987 0.0000
# 4 0.0000 0.0000 0.0000 -78.5772 0.0000 149.0312
# 5 11.8351 7.7605 12.5987 0.0000 32.6220 0.0000
# 6 0.0000 0.0000 0.0000 149.0312 0.0000 -202.0770
#
#
#
# Elastic Compliance Matrix: (Units=1/GPa)
#
#
# Indices 1 2 3 4 5 6 
#
# 1 0.014232 -0.005969 -0.003350 0.000000 -0.002450 0.000000
# 2 -0.005969 0.014181 -0.001645 0.000000 -0.000573 0.000000
# 3 -0.003350 -0.001645 0.012008 0.000000 -0.003031 0.000000
# 4 0.000000 0.000000 0.000000 0.031915 0.000000 0.023537
# 5 -0.002450 -0.000573 -0.003031 0.000000 0.032850 0.000000
# 6 0.000000 0.000000 0.000000 0.023537 0.000000 0.012410
#
#
# Mechanical properties :
#
#
# Convention : Reuss Voigt Hill
#
# Bulk Modulus (GPa) = 54.07176 58.00402 56.03789
# Shear Modulus (GPa) = 34.31973 -37.42136 -1.55081
#
# Velocity S-wave (km/s) = 4.14008 -4.32312 -0.88007
# Velocity P-wave (km/s) = 7.06107 2.01242 5.19175
#
# Compressibility (1/GPa) = 0.01849394
#
# Stress axis : x y z
#
# Youngs Moduli (GPa) = 70.26340 70.51484 83.27838
#
# Poissons Ratio (x) = 0.42092 0.27896
# Poissons Ratio (y) = 0.41942 0.13697
# Poissons Ratio (z) = 0.23537 0.11598
#
# Static dielectric constant tensor:
#      x y z
#    x 3.352920 0.000000 0.111600 
#    y 0.000000 3.681210 0.000000 
#    z 0.111600 0.000000 3.928410 
# 
# 
# High freq. dielectric constant tensor:
#      x y z
#    x 1.776410 0.000000 0.006690 
#    y 0.000000 1.787170 0.000000 
#    z 0.006690 0.000000 1.797330 
# 
# From -- ./inp_files/33997.got.cif
#   From: 2010.06.25/outbox.cif.g09.slc.cpg/sg13_17_cif.got.tgz:33997.got - 2010.06.28 04:50:58.
