data_PCOD8119227
_publ_section_title
;
Structure prediction by ZEFSAII (Michael W. Deem and Ramdas Pophale) SiO2 
 PCOD8119227
Probable space group: P 2/C
;
_chemical_formula_sum "Si O2"
_cell_formula_units_Z 30
_cell_length_a 10.197179
_cell_length_b 9.806889
_cell_length_c 26.932169
_cell_angle_alpha 90.000000
_cell_angle_beta 148.108751
_cell_angle_gamma 90.000000
_cell_volume 1422.886847
_symmetry_space_group_name_H-M "P 2/C"
_symmetry_group_IT_number 13
_symmetry_cell_setting 'monoclinic'
loop_
_space_group_symop_operation_xyz
x,y,z
-x,y,1/2-z
-x,-y,-z
x,-y,1/2+z
loop_
_atom_site_type_symbol
_atom_site_label
_atom_site_fract_x
_atom_site_fract_y
_atom_site_fract_z
Si Si1 0.845445 0.615182 0.976095
Si Si2 0.362963 0.359453 0.259953
Si Si3 0.419396 0.977055 0.049675
Si Si4 0.821418 0.123477 0.235282
Si Si5 0.500000 0.202268 0.750000
Si Si6 0.170379 0.871714 0.057861
Si Si7 0.850565 0.883949 0.120675
Si Si8 0.053924 0.378295 0.645680
O O1 0.564350 0.609240 0.866946
O O2 0.000000 0.500000 0.000000
O O3 0.982531 0.750926 0.004534
O O4 0.851401 0.595722 0.037408
O O5 0.500000 0.346941 0.250000
O O6 0.217438 0.221430 0.229450
O O7 0.152416 0.476309 0.196601
O O8 0.308653 0.859714 0.049432
O O9 0.597513 0.895676 0.069900
O O10 0.555411 0.093749 0.125426
O O11 0.201275 0.059548 0.951395
O O12 0.000000 0.189371 0.250000
O O13 0.933495 0.977317 0.287263
O O14 0.620199 0.110387 0.831931
O O15 0.293048 0.301887 0.703142
O O16 0.000000 0.000000 0.000000
O O17 0.930592 0.724130 0.146559
#
# Coordination Sequence:
#
# PCOD8119227 Si02
#       8
#     4   4   4   4   2   4   4   4
#     4  11  23  41  58  86 129 161 196 261 316 364
#     4  12  23  41  64  93 126 168 210 259 318 380
#     4  10  21  41  62  94 123 161 205 262 317 368
#     4  10  23  43  63  91 129 165 206 261 322 378
#     4  10  20  38  56  84 124 158 196 256 312 360
#     4  11  22  37  62  92 120 157 209 258 313 379
#     4  10  22  40  67  87 125 165 206 258 313 377
#     4  11  21  41  63  89 123 169 209 253 314 374
#
# _framework density 21.083897
#
# number of rings (size 3 to 8) (size 9 to 14) (size 15 to 20)
#    0.000    1.333    2.000    4.800    1.867    0.000 
#    8.400    4.667    0.000    8.800    0.000    0.000 
#    0.000    0.000    0.000    0.000    0.000    0.000 
#
# Total GULP energy -371876.947762 kJ/mol
# GULP energy per Si atom -12395.898259 kJ/mol
# Density = 2.103591 g / cm^3
# Si number density = 21.083897 Si / 1000 Ang^3
#
#
#
# Elastic Constant Matrix: (Units=GPa)
#
#
# Indices 1 2 3 4 5 6 
#
# 1 78.8192 38.7988 18.5777 0.0000 -8.4511 0.0000
# 2 38.7988 102.3865 25.2941 0.0000 -14.0851 0.0000
# 3 18.5777 25.2941 117.2155 0.0000 -18.6362 0.0000
# 4 0.0000 0.0000 0.0000 29.1095 0.0000 2.0741
# 5 -8.4511 -14.0851 -18.6362 0.0000 25.4231 0.0000
# 6 0.0000 0.0000 0.0000 2.0741 0.0000 71.3722
#
#
#
# Elastic Compliance Matrix: (Units=1/GPa)
#
#
# Indices 1 2 3 4 5 6 
#
# 1 0.015817 -0.005533 -0.001092 0.000000 0.001393 0.000000
# 2 -0.005533 0.012755 -0.001182 0.000000 0.004361 0.000000
# 3 -0.001092 -0.001182 0.009958 0.000000 0.006282 0.000000
# 4 0.000000 0.000000 0.000000 0.034424 0.000000 -0.001000
# 5 0.001393 0.004361 0.006282 0.000000 0.046818 0.000000
# 6 0.000000 0.000000 0.000000 -0.001000 0.000000 0.014040
#
#
# Mechanical properties :
#
#
# Convention : Reuss Voigt Hill
#
# Bulk Modulus (GPa) = 43.63393 51.52914 47.58154
# Shear Modulus (GPa) = 31.83373 39.56434 35.69903
#
# Velocity S-wave (km/s) = 3.88991 4.33658 4.11930
# Velocity P-wave (km/s) = 6.39652 7.04043 6.72619
#
# Compressibility (1/GPa) = 0.02291795
#
# Stress axis : x y z
#
# Youngs Moduli (GPa) = 63.22190 78.39760 100.41978
#
# Poissons Ratio (x) = 0.43374 0.10962
# Poissons Ratio (y) = 0.34978 0.11872
# Poissons Ratio (z) = 0.06901 0.09269
#
# Static dielectric constant tensor:
#      x y z
#    x 3.912150 0.000000 -0.223720 
#    y 0.000000 3.588360 0.000000 
#    z -0.223720 0.000000 4.184310 
# 
# 
# High freq. dielectric constant tensor:
#      x y z
#    x 1.820720 0.000000 -0.001400 
#    y 0.000000 1.813970 0.000000 
#    z -0.001400 0.000000 1.845310 
# 
# From -- ./inp_files/96612.got.cif
#   From: 2010.06.25/outbox.cif.g09.slc.cpg/sg13_49_cif.got.tgz:96612.got - 2010.06.28 04:50:58.
