data_PCOD8119215
_publ_section_title
;
Structure prediction by ZEFSAII (Michael W. Deem and Ramdas Pophale) SiO2 
 PCOD8119215
Probable space group: P 2/C
;
_chemical_formula_sum "Si O2"
_cell_formula_units_Z 24
_cell_length_a 9.874799
_cell_length_b 8.379509
_cell_length_c 13.780336
_cell_angle_alpha 90.000000
_cell_angle_beta 92.767622
_cell_angle_gamma 90.000000
_cell_volume 1138.937202
_symmetry_space_group_name_H-M "P 2/C"
_symmetry_group_IT_number 13
_symmetry_cell_setting 'monoclinic'
loop_
_space_group_symop_operation_xyz
x,y,z
-x,y,1/2-z
-x,-y,-z
x,-y,1/2+z
loop_
_atom_site_type_symbol
_atom_site_label
_atom_site_fract_x
_atom_site_fract_y
_atom_site_fract_z
Si Si1 0.533878 0.830644 0.453472
Si Si2 0.193486 0.327603 0.564872
Si Si3 0.000000 0.702867 0.750000
Si Si4 0.273642 0.341437 0.985488
Si Si5 0.783717 0.572412 0.231317
Si Si6 0.963911 0.166293 0.451915
Si Si7 0.500000 0.688855 0.250000
O O1 0.693156 0.793470 0.474195
O O2 0.433361 0.698439 0.496775
O O3 0.504832 0.816068 0.337956
O O4 0.500000 0.000000 0.500000
O O5 0.250732 0.503050 0.548589
O O6 0.160547 0.312197 0.679698
O O7 0.053608 0.304315 0.504429
O O8 0.135724 0.594679 0.762061
O O9 0.991664 0.825182 0.838751
O O10 0.207527 0.354660 0.875713
O O11 0.193894 0.197194 0.033844
O O12 0.623625 0.562597 0.250592
O O13 0.000000 0.000000 0.500000
#
# Coordination Sequence:
#
# PCOD8119215 Si02
#       7
#     4   4   2   4   4   4   2
#     4  10  21  39  61  92 129 165 201 254 316 362
#     4  11  21  40  64  92 121 165 213 258 302 367
#     4  12  22  42  64  90 122 158 214 262 312 370
#     4  11  21  40  64  92 121 165 213 258 302 367
#     4  10  20  37  67  91 121 158 212 264 298 361
#     4  12  26  41  61  92 130 163 204 260 323 377
#     4   8  20  38  62  96 126 162 210 252 310 360
#
# _framework density 21.072278000000001
#
# number of rings (size 3 to 8) (size 9 to 14) (size 15 to 20)
#    0.000    1.333    3.333    3.000    0.000    1.333 
#    0.000    6.667    0.000    0.000    0.000    0.000 
#    0.000    0.000    0.000    0.000    0.000    0.000 
#
# Total GULP energy -297377.259615 kJ/mol
# GULP energy per Si atom -12390.719151 kJ/mol
# Density = 2.102432 g / cm^3
# Si number density = 21.072278 Si / 1000 Ang^3
#
#
#
# Elastic Constant Matrix: (Units=GPa)
#
#
# Indices 1 2 3 4 5 6 
#
# 1 60.0357 15.8186 32.0802 0.0000 -7.3376 0.0000
# 2 15.8186 96.1798 29.1484 0.0000 -15.9106 0.0000
# 3 32.0802 29.1484 126.3773 0.0000 -12.1544 0.0000
# 4 0.0000 0.0000 0.0000 35.5864 0.0000 -1.2478
# 5 -7.3376 -15.9106 -12.1544 0.0000 28.8840 0.0000
# 6 0.0000 0.0000 0.0000 -1.2478 0.0000 34.0229
#
#
#
# Elastic Compliance Matrix: (Units=1/GPa)
#
#
# Indices 1 2 3 4 5 6 
#
# 1 0.019706 -0.001517 -0.004431 0.000000 0.002306 0.000000
# 2 -0.001517 0.012128 -0.001883 0.000000 0.005503 0.000000
# 3 -0.004431 -0.001883 0.009655 0.000000 0.001900 0.000000
# 4 0.000000 0.000000 0.000000 0.028137 0.000000 0.001032
# 5 0.002306 0.005503 0.001900 0.000000 0.039038 0.000000
# 6 0.000000 0.000000 0.000000 0.001032 0.000000 0.029430
#
#
# Mechanical properties :
#
#
# Convention : Reuss Voigt Hill
#
# Bulk Modulus (GPa) = 38.71869 48.52079 43.61974
# Shear Modulus (GPa) = 30.79542 33.40169 32.09856
#
# Velocity S-wave (km/s) = 3.82700 3.98565 3.90713
# Velocity P-wave (km/s) = 6.15971 6.65255 6.41087
#
# Compressibility (1/GPa) = 0.02582732
#
# Stress axis : x y z
#
# Youngs Moduli (GPa) = 50.74664 82.45665 103.57859
#
# Poissons Ratio (x) = 0.12507 0.45891
# Poissons Ratio (y) = 0.07697 0.19503
# Poissons Ratio (z) = 0.22484 0.15526
#
# Static dielectric constant tensor:
#      x y z
#    x 4.332810 0.000000 -0.102790 
#    y 0.000000 3.445090 0.000000 
#    z -0.102790 0.000000 4.124200 
# 
# 
# High freq. dielectric constant tensor:
#      x y z
#    x 1.844680 0.000000 -0.009090 
#    y 0.000000 1.789300 0.000000 
#    z -0.009090 0.000000 1.841710 
# 
# From -- ./inp_files/46146.got.cif
#   From: 2010.06.25/outbox.cif.g09.slc.cpg/sg13_24_cif.got.tgz:46146.got - 2010.06.28 04:50:58.
