data_PCOD8119057
_publ_section_title
;
Structure prediction by ZEFSAII (Michael W. Deem and Ramdas Pophale) SiO2 
 PCOD8119057
Probable space group: P 2/C
;
_chemical_formula_sum "Si O2"
_cell_formula_units_Z 28
_cell_length_a 9.054313
_cell_length_b 13.814308
_cell_length_c 11.408275
_cell_angle_alpha 90.000000
_cell_angle_beta 116.883956
_cell_angle_gamma 90.000000
_cell_volume 1272.719096
_symmetry_space_group_name_H-M "P 2/C"
_symmetry_group_IT_number 13
_symmetry_cell_setting 'monoclinic'
loop_
_space_group_symop_operation_xyz
x,y,z
-x,y,1/2-z
-x,-y,-z
x,-y,1/2+z
loop_
_atom_site_type_symbol
_atom_site_label
_atom_site_fract_x
_atom_site_fract_y
_atom_site_fract_z
Si Si1 0.130574 0.364589 0.021851
Si Si2 0.101336 0.053048 0.177411
Si Si3 0.780806 0.702239 0.197554
Si Si4 0.228189 0.429297 0.605896
Si Si5 0.592764 0.271974 0.957739
Si Si6 0.180453 0.750492 0.759299
Si Si7 0.168647 0.138954 0.594960
O O1 0.248631 0.458898 0.077439
O O2 0.203229 0.286464 0.135983
O O3 0.120548 0.319383 0.887232
O O4 0.948983 0.391319 0.005069
O O5 0.220157 0.134664 0.273513
O O6 0.000000 0.007149 0.250000
O O7 0.211299 0.966523 0.163780
O O8 0.990687 0.115482 0.043773
O O9 0.768203 0.596059 0.253956
O O10 0.601859 0.747024 0.101659
O O11 0.870545 0.780793 0.317272
O O12 0.379347 0.369094 0.606535
O O13 0.678726 0.179032 0.926738
O O14 0.673527 0.295374 0.111753
O O15 0.000000 0.728157 0.750000
#
# Coordination Sequence:
#
# PCOD8119057 Si02
#       7
#     4   4   4   4   4   4   4
#     4  11  24  39  67  97 126 168 222 277 310 376
#     4  10  20  36  67 100 121 160 224 271 313 375
#     4  11  25  42  63  98 135 170 213 263 331 392
#     4  10  22  40  64  94 125 170 219 267 318 376
#     4  11  22  43  67  89 133 180 207 258 336 393
#     4  11  20  41  65  90 128 170 215 270 323 378
#     4  10  20  38  65  94 126 167 211 264 322 386
#
# _framework density 22.000140999999999
#
# number of rings (size 3 to 8) (size 9 to 14) (size 15 to 20)
#    0.000    1.429    4.286    3.000    2.000    5.714 
#    2.571    0.714    3.143    0.000    0.000    0.000 
#    0.000    0.000    0.000    0.000    0.000    0.000 
#
# Total GULP energy -346912.195533 kJ/mol
# GULP energy per Si atom -12389.721269 kJ/mol
# Density = 2.195007 g / cm^3
# Si number density = 22.000141 Si / 1000 Ang^3
#
#
#
# Elastic Constant Matrix: (Units=GPa)
#
#
# Indices 1 2 3 4 5 6 
#
# 1 47.1876 25.3444 8.4442 0.0000 -4.6344 0.0000
# 2 25.3444 94.0260 19.8692 0.0000 -12.1389 0.0000
# 3 8.4442 19.8692 105.2511 0.0000 -27.5246 0.0000
# 4 0.0000 0.0000 0.0000 31.6877 0.0000 -1.4335
# 5 -4.6344 -12.1389 -27.5246 0.0000 38.6051 0.0000
# 6 0.0000 0.0000 0.0000 -1.4335 0.0000 15.2469
#
#
#
# Elastic Compliance Matrix: (Units=1/GPa)
#
#
# Indices 1 2 3 4 5 6 
#
# 1 0.024845 -0.006499 -0.000640 0.000000 0.000482 0.000000
# 2 -0.006499 0.012969 -0.001308 0.000000 0.002365 0.000000
# 3 -0.000640 -0.001308 0.011888 0.000000 0.007988 0.000000
# 4 0.000000 0.000000 0.000000 0.031693 0.000000 0.002980
# 5 0.000482 0.002365 0.007988 0.000000 0.032400 0.000000
# 6 0.000000 0.000000 0.000000 0.002980 0.000000 0.065867
#
#
# Mechanical properties :
#
#
# Convention : Reuss Voigt Hill
#
# Bulk Modulus (GPa) = 30.48181 39.30893 34.89537
# Shear Modulus (GPa) = 24.09718 29.96174 27.02946
#
# Velocity S-wave (km/s) = 3.31315 3.69438 3.50895
# Velocity P-wave (km/s) = 5.34054 6.00869 5.68444
#
# Compressibility (1/GPa) = 0.03280645
#
# Stress axis : x y z
#
# Youngs Moduli (GPa) = 40.25010 77.10697 84.11571
#
# Poissons Ratio (x) = 0.50114 0.05385
# Poissons Ratio (y) = 0.26159 0.11006
# Poissons Ratio (z) = 0.02577 0.10089
#
# Static dielectric constant tensor:
#      x y z
#    x 3.584920 0.000000 -0.174700 
#    y 0.000000 4.102540 0.000000 
#    z -0.174700 0.000000 4.212170 
# 
# 
# High freq. dielectric constant tensor:
#      x y z
#    x 1.827460 0.000000 -0.014020 
#    y 0.000000 1.862400 0.000000 
#    z -0.014020 0.000000 1.878780 
# 
# From -- ./inp_files/30479.got.cif
#   From: 2010.06.25/outbox.cif.g09.slc.cpg/sg13_16_cif.got.tgz:30479.got - 2010.06.28 04:50:58.
