data_PCOD8119031
_publ_section_title
;
Structure prediction by ZEFSAII (Michael W. Deem and Ramdas Pophale) SiO2 
 PCOD8119031
Probable space group: P 2/C
;
_chemical_formula_sum "Si O2"
_cell_formula_units_Z 28
_cell_length_a 21.465802
_cell_length_b 6.573698
_cell_length_c 9.994212
_cell_angle_alpha 90.000000
_cell_angle_beta 114.008788
_cell_angle_gamma 90.000000
_cell_volume 1288.267124
_symmetry_space_group_name_H-M "P 2/C"
_symmetry_group_IT_number 13
_symmetry_cell_setting 'monoclinic'
loop_
_space_group_symop_operation_xyz
x,y,z
-x,y,1/2-z
-x,-y,-z
x,-y,1/2+z
loop_
_atom_site_type_symbol
_atom_site_label
_atom_site_fract_x
_atom_site_fract_y
_atom_site_fract_z
Si Si1 0.432097 0.025881 0.024048
Si Si2 0.927748 0.923707 0.885637
Si Si3 0.000000 0.348634 0.250000
Si Si4 0.114843 0.424842 0.974869
Si Si5 0.378917 0.615845 0.115841
Si Si6 0.323604 0.689597 0.341465
Si Si7 0.500000 0.636845 0.750000
Si Si8 0.169763 0.296993 0.748637
O O1 0.451039 0.223896 0.122466
O O2 0.408796 0.830892 0.088525
O O3 0.368066 0.103004 0.881912
O O4 0.500000 0.000000 0.000000
O O5 0.941211 0.783830 0.768437
O O6 0.877863 0.100800 0.796961
O O7 0.890412 0.801382 0.970721
O O8 0.000000 0.000000 0.000000
O O9 0.037971 0.487788 0.392758
O O10 0.152110 0.423168 0.865474
O O11 0.158539 0.564397 0.110235
O O12 0.321708 0.629588 0.181803
O O13 0.441650 0.513917 0.255985
O O14 0.350175 0.491620 0.962624
O O15 0.248952 0.760721 0.322076
#
# Coordination Sequence:
#
# PCOD8119031 Si02
#       8
#     4   4   2   4   4   4   2   4
#     4  11  22  39  67  99 135 177 226 281 336 398
#     4  12  24  43  71 101 136 174 229 282 343 410
#     4  12  22  46  68 104 132 176 226 284 346 414
#     4  12  25  45  70  98 139 177 226 282 343 415
#     4  11  23  43  69  96 139 180 224 288 334 407
#     4  11  26  44  66  99 135 181 231 273 345 408
#     4  10  20  36  64 100 128 168 228 274 334 384
#     4  12  27  45  68 101 138 185 227 284 348 415
#
# _framework density 21.734624
#
# number of rings (size 3 to 8) (size 9 to 14) (size 15 to 20)
#    0.000    0.571    2.857    6.000    0.000    5.714 
#    0.000    0.000    0.000    0.000    0.000    0.000 
#    0.000    0.000    0.000    0.000    0.000    0.000 
#
# Total GULP energy -346959.630283 kJ/mol
# GULP energy per Si atom -12391.415367 kJ/mol
# Density = 2.168516 g / cm^3
# Si number density = 21.734624 Si / 1000 Ang^3
#
#
#
# Elastic Constant Matrix: (Units=GPa)
#
#
# Indices 1 2 3 4 5 6 
#
# 1 150.1619 58.7926 55.1882 0.0000 1.7557 0.0000
# 2 58.7926 107.3800 46.8854 0.0000 -4.1914 0.0000
# 3 55.1882 46.8854 103.4583 0.0000 -12.3410 0.0000
# 4 0.0000 0.0000 0.0000 30.9652 0.0000 0.5624
# 5 1.7557 -4.1914 -12.3410 0.0000 40.4614 0.0000
# 6 0.0000 0.0000 0.0000 0.5624 0.0000 24.0116
#
#
#
# Elastic Compliance Matrix: (Units=1/GPa)
#
#
# Indices 1 2 3 4 5 6 
#
# 1 0.009441 -0.003672 -0.003597 0.000000 -0.001887 0.000000
# 2 -0.003672 0.013045 -0.003915 0.000000 0.000317 0.000000
# 3 -0.003597 -0.003915 0.013832 0.000000 0.003969 0.000000
# 4 0.000000 0.000000 0.000000 0.032308 0.000000 -0.000757
# 5 -0.001887 0.000317 0.003969 0.000000 0.026040 0.000000
# 6 0.000000 0.000000 0.000000 -0.000757 0.000000 0.041664
#
#
# Mechanical properties :
#
#
# Convention : Reuss Voigt Hill
#
# Bulk Modulus (GPa) = 71.68690 75.85918 73.77304
# Shear Modulus (GPa) = 30.60891 32.42991 31.51941
#
# Velocity S-wave (km/s) = 3.75681 3.86694 3.81227
# Velocity P-wave (km/s) = 7.20226 7.41053 7.30713
#
# Compressibility (1/GPa) = 0.01394955
#
# Stress axis : x y z
#
# Youngs Moduli (GPa) = 105.91571 76.65626 72.29405
#
# Poissons Ratio (x) = 0.28151 0.26006
# Poissons Ratio (y) = 0.38896 0.28304
# Poissons Ratio (z) = 0.38101 0.30012
#
# Static dielectric constant tensor:
#      x y z
#    x 3.994340 0.000000 0.104130 
#    y 0.000000 3.812940 0.000000 
#    z 0.104130 0.000000 3.969450 
# 
# 
# High freq. dielectric constant tensor:
#      x y z
#    x 1.858080 0.000000 -0.001320 
#    y 0.000000 1.866870 0.000000 
#    z -0.001320 0.000000 1.856270 
# 
# From -- ./inp_files/40168.got.cif
#   From: 2010.06.25/outbox.cif.g09.slc.cpg/sg13_21_cif.got.tgz:40168.got - 2010.06.28 04:50:58.
