data_PCOD8119297
_publ_section_title
;
Structure prediction by ZEFSAII (Michael W. Deem and Ramdas Pophale) SiO2 
 PCOD8119297
Probable space group: P 2/C
;
_chemical_formula_sum "Si O2"
_cell_formula_units_Z 28
_cell_length_a 16.053315
_cell_length_b 5.207473
_cell_length_c 19.990938
_cell_angle_alpha 90.000000
_cell_angle_beta 48.963145
_cell_angle_gamma 90.000000
_cell_volume 1260.554976
_symmetry_space_group_name_H-M "P 2/C"
_symmetry_group_IT_number 13
_symmetry_cell_setting 'monoclinic'
loop_
_space_group_symop_operation_xyz
x,y,z
-x,y,1/2-z
-x,-y,-z
x,-y,1/2+z
loop_
_atom_site_type_symbol
_atom_site_label
_atom_site_fract_x
_atom_site_fract_y
_atom_site_fract_z
Si Si1 0.735249 0.013520 0.784352
Si Si2 0.394172 0.478360 0.182177
Si Si3 0.720129 0.448337 0.129761
Si Si4 0.752830 0.925231 0.424274
Si Si5 0.105060 0.218989 0.901955
Si Si6 0.355017 0.413771 0.968167
Si Si7 0.117315 0.907038 0.020459
O O1 0.651298 0.241784 0.811653
O O2 0.790425 0.060314 0.827645
O O3 0.832041 0.006043 0.677276
O O4 0.669542 0.745803 0.823663
O O5 0.385286 0.408974 0.266418
O O6 0.521093 0.482429 0.094643
O O7 0.814834 0.539536 0.132103
O O8 0.686215 0.636252 0.086699
O O9 0.766089 0.192635 0.070826
O O10 0.715041 0.634678 0.458461
O O11 0.859165 0.989426 0.415454
O O12 0.658332 0.140261 0.487899
O O13 0.987608 0.290580 0.928566
O O14 0.080415 0.138530 0.991926
#
# Coordination Sequence:
#
# PCOD8119297 Si02
#       7
#     4   4   4   4   4   4   4
#     4  11  24  41  60  90 126 159 202 253 302 363
#     4  11  23  39  63  89 122 163 205 251 304 360
#     4  10  20  38  60  94 124 156 202 262 300 362
#     4  11  24  41  60  90 126 159 202 253 302 363
#     4  10  20  38  64  89 118 159 201 248 303 363
#     4  11  23  39  63  89 122 163 205 251 304 360
#     4  10  20  38  64  89 118 159 201 248 303 363
#
# _framework density 22.212440000000001
#
# number of rings (size 3 to 8) (size 9 to 14) (size 15 to 20)
#    0.000    1.429    2.857    2.571    0.000    4.000 
#    0.000    2.857    0.000    3.429    0.000    0.000 
#    0.000    0.000    0.000    0.000    0.000    0.000 
#
# Total GULP energy -346975.731653 kJ/mol
# GULP energy per Si atom -12391.990416 kJ/mol
# Density = 2.216188 g / cm^3
# Si number density = 22.212440 Si / 1000 Ang^3
#
#
#
# Elastic Constant Matrix: (Units=GPa)
#
#
# Indices 1 2 3 4 5 6 
#
# 1 79.1629 1.5572 43.2647 0.0000 12.6500 0.0000
# 2 1.5572 73.0807 3.8477 0.0000 1.2112 0.0000
# 3 43.2647 3.8477 72.4095 0.0000 21.9879 0.0000
# 4 0.0000 0.0000 0.0000 24.1667 0.0000 1.4655
# 5 12.6500 1.2112 21.9879 0.0000 35.4401 0.0000
# 6 0.0000 0.0000 0.0000 1.4655 0.0000 28.1749
#
#
#
# Elastic Compliance Matrix: (Units=1/GPa)
#
#
# Indices 1 2 3 4 5 6 
#
# 1 0.018763 0.000191 -0.011318 0.000000 0.000318 0.000000
# 2 0.000191 0.013724 -0.000838 0.000000 -0.000017 0.000000
# 3 -0.011318 -0.000838 0.023881 0.000000 -0.010748 0.000000
# 4 0.000000 0.000000 0.000000 0.041510 0.000000 -0.002159
# 5 0.000318 -0.000017 -0.010748 0.000000 0.034772 0.000000
# 6 0.000000 0.000000 0.000000 -0.002159 0.000000 0.035605
#
#
# Mechanical properties :
#
#
# Convention : Reuss Voigt Hill
#
# Bulk Modulus (GPa) = 30.82801 35.77694 33.30248
# Shear Modulus (GPa) = 24.63090 29.28857 26.95974
#
# Velocity S-wave (km/s) = 3.33360 3.63515 3.48763
# Velocity P-wave (km/s) = 5.35966 5.81040 5.58958
#
# Compressibility (1/GPa) = 0.03243803
#
# Stress axis : x y z
#
# Youngs Moduli (GPa) = 53.29636 72.86589 41.87456
#
# Poissons Ratio (x) = -0.01390 0.47392
# Poissons Ratio (y) = -0.01017 0.03509
# Poissons Ratio (z) = 0.60319 0.06106
#
# Static dielectric constant tensor:
#      x y z
#    x 4.232960 0.000000 0.101500 
#    y 0.000000 3.698790 0.000000 
#    z 0.101500 0.000000 4.200660 
# 
# 
# High freq. dielectric constant tensor:
#      x y z
#    x 1.872240 0.000000 0.011480 
#    y 0.000000 1.861290 0.000000 
#    z 0.011480 0.000000 1.869060 
# 
# From -- ./inp_files/67474.got.cif
#   From: 2010.06.25/outbox.cif.g09.slc.cpg/sg13_34_cif.got.tgz:67474.got - 2010.06.28 04:50:58.
