data_PCOD8119228
_publ_section_title
;
Structure prediction by ZEFSAII (Michael W. Deem and Ramdas Pophale) SiO2 
 PCOD8119228
Probable space group: P 2/C
;
_chemical_formula_sum "Si O2"
_cell_formula_units_Z 32
_cell_length_a 14.933666
_cell_length_b 11.516782
_cell_length_c 17.757781
_cell_angle_alpha 90.000000
_cell_angle_beta 30.782327
_cell_angle_gamma 90.000000
_cell_volume 1563.031741
_symmetry_space_group_name_H-M "P 2/C"
_symmetry_group_IT_number 13
_symmetry_cell_setting 'monoclinic'
loop_
_space_group_symop_operation_xyz
x,y,z
-x,y,1/2-z
-x,-y,-z
x,-y,1/2+z
loop_
_atom_site_type_symbol
_atom_site_label
_atom_site_fract_x
_atom_site_fract_y
_atom_site_fract_z
Si Si1 0.524700 0.922479 0.320963
Si Si2 0.137307 0.623904 0.714476
Si Si3 0.313646 0.684360 0.242805
Si Si4 0.186557 0.123525 0.157108
Si Si5 0.162149 0.934426 0.843878
Si Si6 0.591382 0.554479 0.762466
Si Si7 0.373076 0.414841 0.549803
Si Si8 0.922529 0.672363 0.574800
O O1 0.500000 0.936824 0.250000
O O2 0.617273 0.800541 0.270177
O O3 0.337113 0.935166 0.497520
O O4 0.653028 0.021662 0.258228
O O5 0.253276 0.742943 0.625217
O O6 0.216281 0.498774 0.637117
O O7 0.060335 0.618668 0.854074
O O8 0.000000 0.648404 0.750000
O O9 0.422818 0.579499 0.201373
O O10 0.325754 0.687446 0.142438
O O11 0.110674 0.665635 0.403088
O O12 0.161408 0.053026 0.253492
O O13 0.000000 0.117759 0.250000
O O14 0.149959 0.801222 0.874684
O O15 0.000000 0.000000 0.000000
O O16 0.500000 0.571785 0.750000
O O17 0.792233 0.594823 0.618147
O O18 0.476985 0.634814 0.902660
O O19 0.500000 0.500000 0.500000
#
# Coordination Sequence:
#
# PCOD8119228 Si02
#       8
#     4   4   4   4   4   4   4   4
#     4  12  25  41  68 100 128 166 218 274 327 384
#     4  10  21  34  63  91 131 166 209 260 325 373
#     4  11  23  39  66  93 131 164 220 268 319 380
#     4  10  22  40  66  99 127 164 216 265 325 388
#     4  11  23  44  66  91 130 171 213 271 327 380
#     4  11  24  39  63  93 132 171 215 261 326 387
#     4  10  20  38  56  89 128 166 203 260 309 384
#     4  11  23  41  63  91 129 172 211 267 322 388
#
# _framework density 20.473033000000001
#
# number of rings (size 3 to 8) (size 9 to 14) (size 15 to 20)
#    0.000    1.250    3.750    3.375    7.000    0.500 
#    0.000    0.000    0.000    0.000    0.000    0.000 
#    0.000    0.000    0.000    0.000    0.000    0.000 
#
# Total GULP energy -396591.631283 kJ/mol
# GULP energy per Si atom -12393.488478 kJ/mol
# Density = 2.042644 g / cm^3
# Si number density = 20.473033 Si / 1000 Ang^3
#
#
#
# Elastic Constant Matrix: (Units=GPa)
#
#
# Indices 1 2 3 4 5 6 
#
# 1 154.3251 27.9269 51.7999 0.0000 13.3818 0.0000
# 2 27.9269 41.5498 -6.9866 0.0000 -0.1885 0.0000
# 3 51.7999 -6.9866 104.3593 0.0000 9.7991 0.0000
# 4 0.0000 0.0000 0.0000 31.0124 0.0000 -4.4694
# 5 13.3818 -0.1885 9.7991 0.0000 29.8506 0.0000
# 6 0.0000 0.0000 0.0000 -4.4694 0.0000 30.8337
#
#
#
# Elastic Compliance Matrix: (Units=1/GPa)
#
#
# Indices 1 2 3 4 5 6 
#
# 1 0.009773 -0.007437 -0.005090 0.000000 -0.002757 0.000000
# 2 -0.007437 0.030006 0.005540 0.000000 0.001705 0.000000
# 3 -0.005090 0.005540 0.012652 0.000000 -0.001837 0.000000
# 4 0.000000 0.000000 0.000000 0.032933 0.000000 0.004774
# 5 -0.002757 0.001705 -0.001837 0.000000 0.035350 0.000000
# 6 0.000000 0.000000 0.000000 0.004774 0.000000 0.033124
#
#
# Mechanical properties :
#
#
# Convention : Reuss Voigt Hill
#
# Bulk Modulus (GPa) = 26.00307 49.52384 37.76346
# Shear Modulus (GPa) = 27.68067 33.50561 30.59314
#
# Velocity S-wave (km/s) = 3.68102 4.04985 3.86983
# Velocity P-wave (km/s) = 5.54935 6.79048 6.20104
#
# Compressibility (1/GPa) = 0.03845699
#
# Stress axis : x y z
#
# Youngs Moduli (GPa) = 102.31950 33.32696 79.03784
#
# Poissons Ratio (x) = 0.24786 0.40231
# Poissons Ratio (y) = 0.76099 -0.43790
# Poissons Ratio (z) = 0.52082 -0.18464
#
# Static dielectric constant tensor:
#      x y z
#    x 3.927690 0.000000 0.247700 
#    y 0.000000 3.660920 0.000000 
#    z 0.247700 0.000000 3.880000 
# 
# 
# High freq. dielectric constant tensor:
#      x y z
#    x 1.801190 0.000000 0.004510 
#    y 0.000000 1.782300 0.000000 
#    z 0.004510 0.000000 1.816530 
# 
# From -- ./inp_files/68658.got.cif
#   From: 2010.06.25/outbox.cif.g09.slc.cpg/sg13_35_cif.got.tgz:68658.got - 2010.06.28 04:50:58.
