data_PCOD8119040
_publ_section_title
;
Structure prediction by ZEFSAII (Michael W. Deem and Ramdas Pophale) SiO2 
 PCOD8119040
Probable space group: P 2/C
;
_chemical_formula_sum "Si O2"
_cell_formula_units_Z 16
_cell_length_a 10.245406
_cell_length_b 10.242690
_cell_length_c 9.776713
_cell_angle_alpha 90.000000
_cell_angle_beta 125.224108
_cell_angle_gamma 90.000000
_cell_volume 838.119951
_symmetry_space_group_name_H-M "P 2/C"
_symmetry_group_IT_number 13
_symmetry_cell_setting 'monoclinic'
loop_
_space_group_symop_operation_xyz
x,y,z
-x,y,1/2-z
-x,-y,-z
x,-y,1/2+z
loop_
_atom_site_type_symbol
_atom_site_label
_atom_site_fract_x
_atom_site_fract_y
_atom_site_fract_z
Si Si1 0.398982 0.336352 0.053209
Si Si2 0.379194 0.379792 0.559722
Si Si3 0.690638 0.119025 0.881138
Si Si4 0.187350 0.899899 0.346472
O O1 0.500000 0.311841 0.250000
O O2 0.305815 0.476968 0.982058
O O3 0.526923 0.318455 0.010448
O O4 0.262667 0.228857 0.957675
O O5 0.500000 0.420448 0.750000
O O6 0.258820 0.267444 0.542184
O O7 0.500000 0.114241 0.750000
O O8 0.774154 0.082459 0.790044
O O9 0.745781 0.024361 0.033873
O O10 0.000000 0.889994 0.250000
#
# Coordination Sequence:
#
# PCOD8119040 Si02
#       4
#     4   4   4   4
#     4  10  20  36  64  90 113 152 201 239 290 346
#     4   9  18  37  63  88 113 146 203 248 275 335
#     4  11  22  41  63  86 114 157 205 240 280 349
#     4  12  25  40  57  89 126 154 189 247 301 344
#
# _framework density 19.090346
#
# number of rings (size 3 to 8) (size 9 to 14) (size 15 to 20)
#    0.000    1.500    5.000    2.250    3.500    0.000 
#    0.000    2.500    0.000    0.000    0.000    0.000 
#    0.000    0.000    0.000    0.000    0.000    0.000 
#
# Total GULP energy -198292.476666 kJ/mol
# GULP energy per Si atom -12393.279792 kJ/mol
# Density = 1.904690 g / cm^3
# Si number density = 19.090346 Si / 1000 Ang^3
#
#
#
# Elastic Constant Matrix: (Units=GPa)
#
#
# Indices 1 2 3 4 5 6 
#
# 1 90.8700 24.6063 32.1733 0.0000 -22.8287 0.0000
# 2 24.6063 159.7142 38.2198 0.0000 -0.7764 0.0000
# 3 32.1733 38.2198 62.1734 0.0000 -17.5472 0.0000
# 4 0.0000 0.0000 0.0000 20.9923 0.0000 -15.2471
# 5 -22.8287 -0.7764 -17.5472 0.0000 37.0925 0.0000
# 6 0.0000 0.0000 0.0000 -15.2471 0.0000 18.4290
#
#
#
# Elastic Compliance Matrix: (Units=1/GPa)
#
#
# Indices 1 2 3 4 5 6 
#
# 1 0.014767 -0.001011 -0.005149 0.000000 0.006632 0.000000
# 2 -0.001011 0.007582 -0.004926 0.000000 -0.002794 0.000000
# 3 -0.005149 -0.004926 0.024067 0.000000 0.008113 0.000000
# 4 0.000000 0.000000 0.000000 0.119365 0.000000 0.098756
# 5 0.006632 -0.002794 0.008113 0.000000 0.034821 0.000000
# 6 0.000000 0.000000 0.000000 0.098756 0.000000 0.135968
#
#
# Mechanical properties :
#
#
# Convention : Reuss Voigt Hill
#
# Bulk Modulus (GPa) = 41.24686 55.86183 48.55435
# Shear Modulus (GPa) = 13.63054 29.81998 21.72526
#
# Velocity S-wave (km/s) = 2.67498 3.95656 3.37712
# Velocity P-wave (km/s) = 5.58514 7.08504 6.37932
#
# Compressibility (1/GPa) = 0.02424427
#
# Stress axis : x y z
#
# Youngs Moduli (GPa) = 67.71634 131.88704 41.55124
#
# Poissons Ratio (x) = 0.13331 0.21394
# Poissons Ratio (y) = 0.06845 0.20470
# Poissons Ratio (z) = 0.34866 0.64974
#
# Static dielectric constant tensor:
#      x y z
#    x 3.326280 0.000000 -0.309770 
#    y 0.000000 4.046190 0.000000 
#    z -0.309770 0.000000 3.370860 
# 
# 
# High freq. dielectric constant tensor:
#      x y z
#    x 1.722290 0.000000 -0.041980 
#    y 0.000000 1.771240 0.000000 
#    z -0.041980 0.000000 1.732920 
# 
# From -- ./inp_files/11153.got.cif
#   From: 2010.06.25/outbox.cif.g09.slc.cpg/sg13_6_cif.got.tgz:11153.got - 2010.06.28 04:50:58.
