data_PCOD8119368
_publ_section_title
;
Structure prediction by ZEFSAII (Michael W. Deem and Ramdas Pophale) SiO2 
 PCOD8119368
Probable space group: P 2/C
;
_chemical_formula_sum "Si O2"
_cell_formula_units_Z 24
_cell_length_a 17.754251
_cell_length_b 9.317425
_cell_length_c 15.060097
_cell_angle_alpha 90.000000
_cell_angle_beta 27.475039
_cell_angle_gamma 90.000000
_cell_volume 1149.391509
_symmetry_space_group_name_H-M "P 2/C"
_symmetry_group_IT_number 13
_symmetry_cell_setting 'monoclinic'
loop_
_space_group_symop_operation_xyz
x,y,z
-x,y,1/2-z
-x,-y,-z
x,-y,1/2+z
loop_
_atom_site_type_symbol
_atom_site_label
_atom_site_fract_x
_atom_site_fract_y
_atom_site_fract_z
Si Si1 0.436391 0.172755 0.716720
Si Si2 0.063068 0.191372 0.094012
Si Si3 0.938200 0.340076 0.052845
Si Si4 0.554595 0.128325 0.093647
Si Si5 0.567687 0.658065 0.922493
Si Si6 0.070516 0.073946 0.836284
O O1 0.500000 0.196592 0.750000
O O2 0.551941 0.263966 0.532948
O O3 0.439902 0.005177 0.686983
O O4 0.253883 0.225708 0.887704
O O5 0.000000 0.263213 0.250000
O O6 0.958261 0.263628 0.126220
O O7 0.024121 0.019367 0.138909
O O8 0.757453 0.346543 0.203560
O O9 0.000000 0.500000 0.000000
O O10 0.032060 0.244483 0.880261
O O11 0.500000 0.176927 0.250000
O O12 0.527370 0.260463 0.056345
O O13 0.737601 0.066328 0.888527
O O14 0.500000 0.500000 0.000000
O O15 0.000000 0.000000 0.000000
#
# Coordination Sequence:
#
# PCOD8119368 Si02
#       6
#     4   4   4   4   4   4
#     4  11  22  39  64  93 122 160 207 259 312 372
#     4  11  21  38  61  90 121 156 200 253 307 365
#     4  11  23  41  60  86 120 162 205 250 310 375
#     4  11  23  41  64  95 128 166 213 267 320 377
#     4  12  24  41  63  89 124 167 209 260 317 382
#     4  10  20  38  63  89 120 161 204 255 310 371
#
# _framework density 20.880614000000001
#
# number of rings (size 3 to 8) (size 9 to 14) (size 15 to 20)
#    0.000    1.000    0.000   10.500    0.000    0.667 
#    0.000    5.833    0.000    0.000    0.000    0.000 
#    0.000    0.000    0.000    0.000    0.000    0.000 
#
# Total GULP energy -297420.734650 kJ/mol
# GULP energy per Si atom -12392.530610 kJ/mol
# Density = 2.083309 g / cm^3
# Si number density = 20.880614 Si / 1000 Ang^3
#
#
#
# Elastic Constant Matrix: (Units=GPa)
#
#
# Indices 1 2 3 4 5 6 
#
# 1 85.5560 33.7493 28.7539 0.0000 2.6275 0.0000
# 2 33.7493 123.5241 11.7010 0.0000 15.0399 0.0000
# 3 28.7539 11.7010 112.2205 0.0000 -2.9582 0.0000
# 4 0.0000 0.0000 0.0000 27.6593 0.0000 -13.5056
# 5 2.6275 15.0399 -2.9582 0.0000 42.7339 0.0000
# 6 0.0000 0.0000 0.0000 -13.5056 0.0000 17.0557
#
#
#
# Elastic Compliance Matrix: (Units=1/GPa)
#
#
# Indices 1 2 3 4 5 6 
#
# 1 0.014194 -0.003590 -0.003258 0.000000 0.000165 0.000000
# 2 -0.003590 0.009471 -0.000150 0.000000 -0.003123 0.000000
# 3 -0.003258 -0.000150 0.009786 0.000000 0.000931 0.000000
# 4 0.000000 0.000000 0.000000 0.058945 0.000000 0.046676
# 5 0.000165 -0.003123 0.000931 0.000000 0.024554 0.000000
# 6 0.000000 0.000000 0.000000 0.046676 0.000000 0.095592
#
#
# Mechanical properties :
#
#
# Convention : Reuss Voigt Hill
#
# Bulk Modulus (GPa) = 51.40031 52.18987 51.79509
# Shear Modulus (GPa) = 21.45707 33.96287 27.70997
#
# Velocity S-wave (km/s) = 3.20911 4.03740 3.64685
# Velocity P-wave (km/s) = 6.19685 6.83979 6.52624
#
# Compressibility (1/GPa) = 0.01945514
#
# Stress axis : x y z
#
# Youngs Moduli (GPa) = 70.45115 105.58788 102.18601
#
# Poissons Ratio (x) = 0.37902 0.33295
# Poissons Ratio (y) = 0.25289 0.01533
# Poissons Ratio (z) = 0.22955 0.01584
#
# Static dielectric constant tensor:
#      x y z
#    x 3.724460 0.000000 -0.085540 
#    y 0.000000 4.423180 0.000000 
#    z -0.085540 0.000000 3.473680 
# 
# 
# High freq. dielectric constant tensor:
#      x y z
#    x 1.814340 0.000000 -0.004130 
#    y 0.000000 1.814720 0.000000 
#    z -0.004130 0.000000 1.834090 
# 
# From -- ./inp_files/55189.got.cif
#   From: 2010.06.25/outbox.cif.g09.slc.cpg/sg13_28_cif.got.tgz:55189.got - 2010.06.28 04:50:58.
