data_PCOD8119796
_publ_section_title
;
Structure prediction by ZEFSAII (Michael W. Deem and Ramdas Pophale) SiO2 
 PCOD8119796
Probable space group: P 2/C
;
_chemical_formula_sum "Si O2"
_cell_formula_units_Z 28
_cell_length_a 13.510394
_cell_length_b 8.626937
_cell_length_c 13.029879
_cell_angle_alpha 90.000000
_cell_angle_beta 127.582945
_cell_angle_gamma 90.000000
_cell_volume 1203.506740
_symmetry_space_group_name_H-M "P 2/C"
_symmetry_group_IT_number 13
_symmetry_cell_setting 'monoclinic'
loop_
_space_group_symop_operation_xyz
x,y,z
-x,y,1/2-z
-x,-y,-z
x,-y,1/2+z
loop_
_atom_site_type_symbol
_atom_site_label
_atom_site_fract_x
_atom_site_fract_y
_atom_site_fract_z
Si Si1 0.601635 0.817986 0.240257
Si Si2 0.031800 0.835331 0.564076
Si Si3 0.235875 0.988727 0.801577
Si Si4 0.204304 0.784308 0.963397
Si Si5 0.285441 0.518619 0.873679
Si Si6 0.924564 0.286460 0.802136
Si Si7 0.483878 0.526639 0.853468
O O1 0.500000 0.901235 0.250000
O O2 0.724739 0.773833 0.383258
O O3 0.536759 0.661423 0.156442
O O4 0.641793 0.937768 0.175541
O O5 0.941493 0.802423 0.603442
O O6 0.012756 0.709002 0.460173
O O7 0.174441 0.844763 0.696812
O O8 0.000000 0.000000 0.500000
O O9 0.265037 0.923537 0.933797
O O10 0.128336 0.115475 0.748049
O O11 0.211629 0.628216 0.903214
O O12 0.191793 0.401993 0.757686
O O13 0.363650 0.605717 0.832323
O O14 0.390766 0.427632 0.006361
O O15 0.000000 0.339363 0.750000
O O16 0.500000 0.592338 0.750000
#
# Coordination Sequence:
#
# PCOD8119796 Si02
#       7
#     4   4   4   4   4   4   4
#     4  11  21  42  69  97 131 187 222 281 347 409
#     4  10  20  42  69  94 129 186 224 272 345 408
#     4  11  23  41  69  99 134 176 230 278 343 409
#     4  12  22  40  69  97 137 171 230 280 341 411
#     4  11  23  40  68 103 129 180 228 278 341 405
#     4  11  23  41  67  99 133 177 229 278 340 410
#     4  10  20  43  70  91 133 185 226 265 342 413
#
# _framework density 23.265346000000001
#
# number of rings (size 3 to 8) (size 9 to 14) (size 15 to 20)
#    0.000    1.143    7.143    2.143    0.000    1.714 
#    2.571    2.143    0.000    0.000    0.000    0.000 
#    0.000    0.000    0.000    0.000    0.000    0.000 
#
# Total GULP energy -347030.069371 kJ/mol
# GULP energy per Si atom -12393.931049 kJ/mol
# Density = 2.321239 g / cm^3
# Si number density = 23.265346 Si / 1000 Ang^3
#
#
#
# Elastic Constant Matrix: (Units=GPa)
#
#
# Indices 1 2 3 4 5 6 
#
# 1 130.4472 8.7408 13.3910 0.0000 -16.7817 0.0000
# 2 8.7408 41.3907 14.7851 0.0000 -1.9576 0.0000
# 3 13.3910 14.7851 71.9086 0.0000 -11.7310 0.0000
# 4 0.0000 0.0000 0.0000 32.1774 0.0000 -1.6048
# 5 -16.7817 -1.9576 -11.7310 0.0000 40.8521 0.0000
# 6 0.0000 0.0000 0.0000 -1.6048 0.0000 33.1178
#
#
#
# Elastic Compliance Matrix: (Units=1/GPa)
#
#
# Indices 1 2 3 4 5 6 
#
# 1 0.008231 -0.001322 -0.000755 0.000000 0.003101 0.000000
# 2 -0.001322 0.026291 -0.005290 0.000000 -0.000802 0.000000
# 3 -0.000755 -0.005290 0.015782 0.000000 0.003968 0.000000
# 4 0.000000 0.000000 0.000000 0.031153 0.000000 0.001510
# 5 0.003101 -0.000802 0.003968 0.000000 0.026854 0.000000
# 6 0.000000 0.000000 0.000000 0.001510 0.000000 0.030268
#
#
# Mechanical properties :
#
#
# Convention : Reuss Voigt Hill
#
# Bulk Modulus (GPa) = 28.11391 35.28671 31.70031
# Shear Modulus (GPa) = 30.27176 35.01808 32.64492
#
# Velocity S-wave (km/s) = 3.61106 3.88385 3.74994
# Velocity P-wave (km/s) = 5.43108 5.94242 5.69249
#
# Compressibility (1/GPa) = 0.03556958
#
# Stress axis : x y z
#
# Youngs Moduli (GPa) = 121.49249 38.03584 63.36208
#
# Poissons Ratio (x) = 0.05028 0.04785
# Poissons Ratio (y) = 0.16059 0.33521
# Poissons Ratio (z) = 0.09174 0.20123
#
# Static dielectric constant tensor:
#      x y z
#    x 4.422900 0.000000 -0.289800 
#    y 0.000000 3.673790 0.000000 
#    z -0.289800 0.000000 4.396560 
# 
# 
# High freq. dielectric constant tensor:
#      x y z
#    x 1.938020 0.000000 -0.011070 
#    y 0.000000 1.875970 0.000000 
#    z -0.011070 0.000000 1.923090 
# 
# From -- ./inp_files/53133.got.cif
#   From: 2010.06.25/outbox.cif.g09.slc.cpg/sg13_27_cif.got.tgz:53133.got - 2010.06.28 04:50:58.
