data_PCOD8119323
_publ_section_title
;
Structure prediction by ZEFSAII (Michael W. Deem and Ramdas Pophale) SiO2 
 PCOD8119323
Probable space group: P 2/C
;
_chemical_formula_sum "Si O2"
_cell_formula_units_Z 28
_cell_length_a 9.462916
_cell_length_b 8.722258
_cell_length_c 28.372838
_cell_angle_alpha 90.000000
_cell_angle_beta 144.879163
_cell_angle_gamma 90.000000
_cell_volume 1347.265365
_symmetry_space_group_name_H-M "P 2/C"
_symmetry_group_IT_number 13
_symmetry_cell_setting 'monoclinic'
loop_
_space_group_symop_operation_xyz
x,y,z
-x,y,1/2-z
-x,-y,-z
x,-y,1/2+z
loop_
_atom_site_type_symbol
_atom_site_label
_atom_site_fract_x
_atom_site_fract_y
_atom_site_fract_z
Si Si1 0.328205 0.406712 0.919028
Si Si2 0.611705 0.467841 0.902882
Si Si3 0.000000 0.879282 0.250000
Si Si4 0.197588 0.636253 0.233859
Si Si5 0.910083 0.997521 0.903256
Si Si6 0.756413 0.942365 0.090218
Si Si7 0.936230 0.247568 0.485201
Si Si8 0.500000 0.829744 0.250000
O O1 0.469105 0.404730 0.908840
O O2 0.267766 0.239100 0.922021
O O3 0.047704 0.470343 0.838429
O O4 0.500000 0.500000 0.000000
O O5 0.416973 0.478123 0.807373
O O6 0.714577 0.638320 0.937536
O O7 0.814975 0.343984 0.944464
O O8 0.174183 0.768666 0.267074
O O9 0.167301 0.978307 0.333572
O O10 0.277648 0.724672 0.208448
O O11 0.630597 0.060612 0.824219
O O12 0.029731 0.986577 0.884017
O O13 0.905530 0.828090 0.925074
O O14 0.073481 0.112211 0.979394
O O15 0.500000 0.000000 0.000000
#
# Coordination Sequence:
#
# PCOD8119323 Si02
#       8
#     4   4   2   4   4   4   4   2
#     4  11  22  38  65  93 126 166 220 271 335 402
#     4  11  20  40  63  93 129 166 219 276 331 401
#     4  10  20  38  62 100 124 174 226 266 336 398
#     4  11  21  38  65  94 123 175 217 275 337 406
#     4  11  22  41  60  94 130 178 221 269 334 408
#     4  11  22  39  67  95 129 174 225 272 334 402
#     4  10  24  37  64  94 131 174 217 276 336 394
#     4  12  22  38  66  92 130 172 224 270 330 420
#
# _framework density 20.782838000000002
#
# number of rings (size 3 to 8) (size 9 to 14) (size 15 to 20)
#    0.000    1.143    7.143    1.714    0.000    0.000 
#    0.000    3.571    3.143    0.000    0.000    0.000 
#    0.000    0.000    0.000    0.000    0.000    0.000 
#
# Total GULP energy -346941.946226 kJ/mol
# GULP energy per Si atom -12390.783794 kJ/mol
# Density = 2.073554 g / cm^3
# Si number density = 20.782838 Si / 1000 Ang^3
#
#
#
# Elastic Constant Matrix: (Units=GPa)
#
#
# Indices 1 2 3 4 5 6 
#
# 1 96.2652 11.8692 27.2136 0.0000 3.0766 0.0000
# 2 11.8692 38.7608 18.3323 0.0000 -1.1500 0.0000
# 3 27.2136 18.3323 155.1363 0.0000 3.2489 0.0000
# 4 0.0000 0.0000 0.0000 33.9947 0.0000 -1.7875
# 5 3.0766 -1.1500 3.2489 0.0000 37.9856 0.0000
# 6 0.0000 0.0000 0.0000 -1.7875 0.0000 23.6757
#
#
#
# Elastic Compliance Matrix: (Units=1/GPa)
#
#
# Indices 1 2 3 4 5 6 
#
# 1 0.011207 -0.002686 -0.001631 0.000000 -0.000850 0.000000
# 2 -0.002686 0.028017 -0.002867 0.000000 0.001311 0.000000
# 3 -0.001631 -0.002867 0.007083 0.000000 -0.000560 0.000000
# 4 0.000000 0.000000 0.000000 0.029534 0.000000 0.002230
# 5 -0.000850 0.001311 -0.000560 0.000000 0.026482 0.000000
# 6 0.000000 0.000000 0.000000 0.002230 0.000000 0.042406
#
#
# Mechanical properties :
#
#
# Convention : Reuss Voigt Hill
#
# Bulk Modulus (GPa) = 31.30947 44.99919 38.15433
# Shear Modulus (GPa) = 29.45657 34.64768 32.05212
#
# Velocity S-wave (km/s) = 3.76886 4.08748 3.93140
# Velocity P-wave (km/s) = 5.83411 6.63142 6.24550
#
# Compressibility (1/GPa) = 0.03193922
#
# Stress axis : x y z
#
# Youngs Moduli (GPa) = 89.22774 35.69320 141.19225
#
# Poissons Ratio (x) = 0.09586 0.23025
# Poissons Ratio (y) = 0.23964 0.40480
# Poissons Ratio (z) = 0.14551 0.10233
#
# Static dielectric constant tensor:
#      x y z
#    x 4.473610 0.000000 -0.268520 
#    y 0.000000 3.075120 0.000000 
#    z -0.268520 0.000000 1.583960 
# 
# 
# High freq. dielectric constant tensor:
#      x y z
#    x 1.819230 0.000000 0.003650 
#    y 0.000000 1.776710 0.000000 
#    z 0.003650 0.000000 1.832390 
# 
# From -- ./inp_files/91345.got.cif
#   From: 2010.06.25/outbox.cif.g09.slc.cpg/sg13_46_cif.got.tgz:91345.got - 2010.06.28 04:50:58.
