data_PCOD8119567
_publ_section_title
;
Structure prediction by ZEFSAII (Michael W. Deem and Ramdas Pophale) SiO2 
 PCOD8119567
Probable space group: P 2/C
;
_chemical_formula_sum "Si O2"
_cell_formula_units_Z 14
_cell_length_a 9.192968
_cell_length_b 8.413233
_cell_length_c 13.730404
_cell_angle_alpha 90.000000
_cell_angle_beta 146.057075
_cell_angle_gamma 90.000000
_cell_volume 592.954754
_symmetry_space_group_name_H-M "P 2/C"
_symmetry_group_IT_number 13
_symmetry_cell_setting 'monoclinic'
loop_
_space_group_symop_operation_xyz
x,y,z
-x,y,1/2-z
-x,-y,-z
x,-y,1/2+z
loop_
_atom_site_type_symbol
_atom_site_label
_atom_site_fract_x
_atom_site_fract_y
_atom_site_fract_z
Si Si1 0.558182 0.702552 0.434740
Si Si2 0.000000 0.914074 0.750000
Si Si3 0.746844 0.368708 0.547483
Si Si4 0.928065 0.874643 0.378695
O O1 0.635333 0.529063 0.436201
O O2 0.469745 0.697479 0.498864
O O3 0.328049 0.770408 0.236720
O O4 0.811890 0.813474 0.575283
O O5 0.158733 0.030082 0.766332
O O6 0.000000 0.417215 0.750000
O O7 0.823544 0.240163 0.506685
O O8 0.000000 0.000000 0.500000
#
# Coordination Sequence:
#
# PCOD8119567 Si02
#       4
#     4   2   4   4
#     4  10  20  39  71  95 131 181 223 282 346 410
#     4  12  22  40  66 100 136 178 230 284 350 396
#     4   9  18  40  70  98 129 178 234 276 345 410
#     4  11  24  41  67 104 138 176 228 286 346 407
#
# _framework density 23.610569000000002
#
# number of rings (size 3 to 8) (size 9 to 14) (size 15 to 20)
#    0.000    1.714    5.714    0.857    0.000    1.143 
#    0.000    1.429   12.571    0.000    0.000    0.000 
#    0.000    0.000    0.000    0.000    0.000    0.000 
#
# Total GULP energy -173573.583498 kJ/mol
# GULP energy per Si atom -12398.113107 kJ/mol
# Density = 2.355683 g / cm^3
# Si number density = 23.610569 Si / 1000 Ang^3
#
#
#
# Elastic Constant Matrix: (Units=GPa)
#
#
# Indices 1 2 3 4 5 6 
#
# 1 65.0370 53.4522 18.7243 0.0000 12.1839 0.0000
# 2 53.4522 189.8340 62.0209 0.0000 3.1229 0.0000
# 3 18.7243 62.0209 77.2844 0.0000 2.5024 0.0000
# 4 0.0000 0.0000 0.0000 46.4397 0.0000 -2.0685
# 5 12.1839 3.1229 2.5024 0.0000 29.2873 0.0000
# 6 0.0000 0.0000 0.0000 -2.0685 0.0000 45.0877
#
#
#
# Elastic Compliance Matrix: (Units=1/GPa)
#
#
# Indices 1 2 3 4 5 6 
#
# 1 0.021927 -0.005948 -0.000265 0.000000 -0.008465 0.000000
# 2 -0.005948 0.008755 -0.005651 0.000000 0.002024 0.000000
# 3 -0.000265 -0.005651 0.017564 0.000000 -0.000788 0.000000
# 4 0.000000 0.000000 0.000000 0.021577 0.000000 0.000990
# 5 -0.008465 0.002024 -0.000788 0.000000 0.037517 0.000000
# 6 0.000000 0.000000 0.000000 0.000990 0.000000 0.022224
#
#
# Mechanical properties :
#
#
# Convention : Reuss Voigt Hill
#
# Bulk Modulus (GPa) = 40.78598 66.72778 53.75688
# Shear Modulus (GPa) = 30.96648 37.36014 34.16331
#
# Velocity S-wave (km/s) = 3.62546 3.98219 3.80801
# Velocity P-wave (km/s) = 5.90231 7.03328 6.49247
#
# Compressibility (1/GPa) = 0.02451823
#
# Stress axis : x y z
#
# Youngs Moduli (GPa) = 45.60691 114.21453 56.93593
#
# Poissons Ratio (x) = 0.67936 0.01508
# Poissons Ratio (y) = 0.27128 0.32173
# Poissons Ratio (z) = 0.01208 0.64539
#
# Static dielectric constant tensor:
#      x y z
#    x 4.362640 0.000000 0.210370 
#    y 0.000000 4.538990 0.000000 
#    z 0.210370 0.000000 4.069870 
# 
# 
# High freq. dielectric constant tensor:
#      x y z
#    x 1.928420 0.000000 0.019200 
#    y 0.000000 1.958650 0.000000 
#    z 0.019200 0.000000 1.895740 
# 
# From -- ./inp_files/10807.got.cif
#   From: 2010.06.25/outbox.cif.g09.slc.cpg/sg13_6_cif.got.tgz:10807.got - 2010.06.28 04:50:58.
