data_PCOD8119105
_publ_section_title
;
Structure prediction by ZEFSAII (Michael W. Deem and Ramdas Pophale) SiO2 
 PCOD8119105
Probable space group: P 2/C
;
_chemical_formula_sum "Si O2"
_cell_formula_units_Z 20
_cell_length_a 12.250494
_cell_length_b 7.194644
_cell_length_c 27.757344
_cell_angle_alpha 90.000000
_cell_angle_beta 160.980507
_cell_angle_gamma 90.000000
_cell_volume 797.281358
_symmetry_space_group_name_H-M "P 2/C"
_symmetry_group_IT_number 13
_symmetry_cell_setting 'monoclinic'
loop_
_space_group_symop_operation_xyz
x,y,z
-x,y,1/2-z
-x,-y,-z
x,-y,1/2+z
loop_
_atom_site_type_symbol
_atom_site_label
_atom_site_fract_x
_atom_site_fract_y
_atom_site_fract_z
Si Si1 0.748972 0.037044 0.312937
Si Si2 0.634466 0.042287 0.107745
Si Si3 0.272294 0.727183 0.535467
Si Si4 0.435081 0.799721 0.103662
Si Si5 0.309071 0.513147 0.720395
O O1 0.500000 0.103150 0.250000
O O2 0.538734 0.989506 0.176588
O O3 0.950412 0.853507 0.414940
O O4 0.029293 0.203782 0.426483
O O5 0.426400 0.201125 0.049395
O O6 0.000000 0.120313 0.250000
O O7 0.616486 0.843676 0.128511
O O8 0.500000 0.000000 0.000000
O O9 0.550432 0.706828 0.695714
O O10 0.093632 0.522099 0.453139
O O11 0.576369 0.624653 0.189448
O O12 0.500000 0.476770 0.750000
#
# Coordination Sequence:
#
# PCOD8119105 Si02
#       5
#     4   4   4   4   4
#     4  10  20  37  59  91 125 162 208 257 310 372
#     4  11  23  44  67  91 122 163 214 273 314 348
#     4  10  23  41  63  92 126 169 211 251 310 379
#     4  10  21  38  62  91 122 161 210 258 310 373
#     4  11  23  42  62  93 134 167 199 251 313 384
#
# _framework density 25.085246000000001
#
# number of rings (size 3 to 8) (size 9 to 14) (size 15 to 20)
#    0.000    1.600    0.000    7.200    0.000    6.400 
#    0.000   15.000    0.000    0.000    0.000    0.000 
#    0.000    0.000    0.000    0.000    0.000    0.000 
#
# Total GULP energy -247911.514185 kJ/mol
# GULP energy per Si atom -12395.575709 kJ/mol
# Density = 2.502815 g / cm^3
# Si number density = 25.085246 Si / 1000 Ang^3
#
#
#
# Elastic Constant Matrix: (Units=GPa)
#
#
# Indices 1 2 3 4 5 6 
#
# 1 179.9683 43.1578 54.3777 -0.0002 -4.5722 0.0000
# 2 43.1578 81.0201 25.7264 0.0001 -3.5927 0.0000
# 3 54.3777 25.7264 183.5460 0.0001 -5.4741 -0.0001
# 4 -0.0002 0.0001 0.0001 17.7306 0.0000 -13.2279
# 5 -4.5722 -3.5927 -5.4741 0.0000 57.2556 0.0000
# 6 0.0000 0.0000 -0.0001 -13.2279 0.0000 33.3934
#
#
#
# Elastic Compliance Matrix: (Units=1/GPa)
#
#
# Indices 1 2 3 4 5 6 
#
# 1 0.006780 -0.003105 -0.001568 0.000000 0.000197 0.000000
# 2 -0.003105 0.014363 -0.001077 0.000000 0.000550 0.000000
# 3 -0.001568 -0.001077 0.006075 0.000000 0.000388 0.000000
# 4 0.000000 0.000000 0.000000 0.080059 0.000000 0.031713
# 5 0.000197 0.000550 0.000388 0.000000 0.017553 0.000000
# 6 0.000000 0.000000 0.000000 0.031713 0.000000 0.042508
#
#
# Mechanical properties :
#
#
# Convention : Reuss Voigt Hill
#
# Bulk Modulus (GPa) = 63.61686 76.78424 70.20055
# Shear Modulus (GPa) = 27.16258 43.09408 35.12833
#
# Velocity S-wave (km/s) = 3.29418 4.14926 3.74620
# Velocity P-wave (km/s) = 6.31539 7.32331 6.83795
#
# Compressibility (1/GPa) = 0.01571910
#
# Stress axis : x y z
#
# Youngs Moduli (GPa) = 147.49792 69.62379 164.60549
#
# Poissons Ratio (x) = 0.21618 0.25802
# Poissons Ratio (y) = 0.45798 0.17726
# Poissons Ratio (z) = 0.23121 0.07497
#
# Static dielectric constant tensor:
#      x y z
#    x 4.183050 0.000000 -0.244130 
#    y 0.000000 5.321840 0.000000 
#    z -0.244130 0.000000 5.421300 
# 
# 
# High freq. dielectric constant tensor:
#      x y z
#    x 1.970830 0.000000 -0.023090 
#    y 0.000000 2.044940 0.000000 
#    z -0.023090 0.000000 2.058230 
# 
# From -- ./inp_files/92301.got.cif
#   From: 2010.06.25/outbox.cif.g09.slc.cpg/sg13_47_cif.got.tgz:92301.got - 2010.06.28 04:50:58.
