data_PCOD8119360
_publ_section_title
;
Structure prediction by ZEFSAII (Michael W. Deem and Ramdas Pophale) SiO2 
 PCOD8119360
Probable space group: P 2/C
;
_chemical_formula_sum "Si O2"
_cell_formula_units_Z 26
_cell_length_a 19.975216
_cell_length_b 5.447427
_cell_length_c 18.306116
_cell_angle_alpha 90.000000
_cell_angle_beta 144.819830
_cell_angle_gamma 90.000000
_cell_volume 1147.662732
_symmetry_space_group_name_H-M "P 2/C"
_symmetry_group_IT_number 13
_symmetry_cell_setting 'monoclinic'
loop_
_space_group_symop_operation_xyz
x,y,z
-x,y,1/2-z
-x,-y,-z
x,-y,1/2+z
loop_
_atom_site_type_symbol
_atom_site_label
_atom_site_fract_x
_atom_site_fract_y
_atom_site_fract_z
Si Si1 0.488692 0.177981 0.057412
Si Si2 0.201227 0.523291 0.899095
Si Si3 0.391597 0.123906 0.605469
Si Si4 0.184570 0.856107 0.500162
Si Si5 0.743345 0.313671 0.693346
Si Si6 0.000000 0.861033 0.750000
Si Si7 0.748080 0.205897 0.280924
O O1 0.616989 0.276777 0.189142
O O2 0.437374 0.061412 0.085411
O O3 0.393592 0.374299 0.943894
O O4 0.500000 0.000000 0.000000
O O5 0.194561 0.311403 0.830962
O O6 0.094426 0.704603 0.789631
O O7 0.326988 0.655285 0.005949
O O8 0.189254 0.413453 0.969307
O O9 0.500000 0.223318 0.750000
O O10 0.298989 0.003621 0.577959
O O11 0.176125 0.833905 0.579515
O O12 0.064885 0.978898 0.368600
O O13 0.795354 0.548554 0.783050
O O14 0.760321 0.045025 0.744501
#
# Coordination Sequence:
#
# PCOD8119360 Si02
#       7
#     4   4   4   4   4   2   4
#     4  10  20  38  62  98 144 189 217 265 338 422
#     4  11  24  43  73  95 135 184 235 290 349 428
#     4  11  22  39  64 105 142 180 231 284 343 411
#     4  11  24  45  69  98 136 177 242 291 350 413
#     4  11  24  43  66 104 144 187 232 280 349 424
#     4  10  26  46  74  94 126 180 244 298 360 408
#     4  11  25  41  69 102 148 185 231 283 347 420
#
# _framework density 22.654741000000001
#
# number of rings (size 3 to 8) (size 9 to 14) (size 15 to 20)
#    0.000    1.231    3.077    2.769    6.462    3.077 
#    0.000    1.538    0.000    0.000    0.000    0.000 
#    0.000    0.000    0.000    0.000    0.000    0.000 
#
# Total GULP energy -322240.083310 kJ/mol
# GULP energy per Si atom -12393.849358 kJ/mol
# Density = 2.260318 g / cm^3
# Si number density = 22.654741 Si / 1000 Ang^3
#
#
#
# Elastic Constant Matrix: (Units=GPa)
#
#
# Indices 1 2 3 4 5 6 
#
# 1 54.1245 20.2593 43.1036 0.0000 -15.9728 0.0000
# 2 20.2593 105.4230 33.0798 0.0000 -10.4804 0.0000
# 3 43.1036 33.0798 137.9388 0.0000 -4.8535 0.0000
# 4 0.0000 0.0000 0.0000 22.4464 0.0000 -8.0691
# 5 -15.9728 -10.4804 -4.8535 0.0000 39.9237 0.0000
# 6 0.0000 0.0000 0.0000 -8.0691 0.0000 33.3241
#
#
#
# Elastic Compliance Matrix: (Units=1/GPa)
#
#
# Indices 1 2 3 4 5 6 
#
# 1 0.028612 -0.001962 -0.008120 0.000000 0.009945 0.000000
# 2 -0.001962 0.010627 -0.001873 0.000000 0.001777 0.000000
# 3 -0.008120 -0.001873 0.010148 0.000000 -0.002507 0.000000
# 4 0.000000 0.000000 0.000000 0.048798 0.000000 0.011816
# 5 0.009945 0.001777 -0.002507 0.000000 0.029188 0.000000
# 6 0.000000 0.000000 0.000000 0.011816 0.000000 0.032869
#
#
# Mechanical properties :
#
#
# Convention : Reuss Voigt Hill
#
# Bulk Modulus (GPa) = 39.25135 54.48574 46.86854
# Shear Modulus (GPa) = 25.95439 32.54175 29.24807
#
# Velocity S-wave (km/s) = 3.38842 3.79413 3.59700
# Velocity P-wave (km/s) = 5.71594 6.58001 6.16314
#
# Compressibility (1/GPa) = 0.02547683
#
# Stress axis : x y z
#
# Youngs Moduli (GPa) = 34.95033 94.10033 98.54109
#
# Poissons Ratio (x) = 0.18460 0.80019
# Poissons Ratio (y) = 0.06856 0.18456
# Poissons Ratio (z) = 0.28381 0.17625
#
# Static dielectric constant tensor:
#      x y z
#    x 4.064190 0.000000 0.093220 
#    y 0.000000 3.895820 0.000000 
#    z 0.093220 0.000000 4.301980 
# 
# 
# High freq. dielectric constant tensor:
#      x y z
#    x 1.890650 0.000000 -0.006500 
#    y 0.000000 1.886750 0.000000 
#    z -0.006500 0.000000 1.893220 
# 
# From -- ./inp_files/70247.got.cif
#   From: 2010.06.25/outbox.cif.g09.slc.cpg/sg13_36_cif.got.tgz:70247.got - 2010.06.28 04:50:58.
