data_PCOD8119429
_publ_section_title
;
Structure prediction by ZEFSAII (Michael W. Deem and Ramdas Pophale) SiO2 
 PCOD8119429
Probable space group: P 2/C
;
_chemical_formula_sum "Si O2"
_cell_formula_units_Z 26
_cell_length_a 9.344474
_cell_length_b 8.108256
_cell_length_c 29.542959
_cell_angle_alpha 90.000000
_cell_angle_beta 145.956522
_cell_angle_gamma 90.000000
_cell_volume 1253.101197
_symmetry_space_group_name_H-M "P 2/C"
_symmetry_group_IT_number 13
_symmetry_cell_setting 'monoclinic'
loop_
_space_group_symop_operation_xyz
x,y,z
-x,y,1/2-z
-x,-y,-z
x,-y,1/2+z
loop_
_atom_site_type_symbol
_atom_site_label
_atom_site_fract_x
_atom_site_fract_y
_atom_site_fract_z
Si Si1 0.356306 0.776796 0.850378
Si Si2 0.731036 0.829553 0.359455
Si Si3 0.000000 0.078722 0.750000
Si Si4 0.250462 0.802128 0.660913
Si Si5 0.044845 0.342655 0.188798
Si Si6 0.167617 0.285372 0.708236
Si Si7 0.089587 0.687057 0.524330
O O1 0.286133 0.699669 0.783607
O O2 0.655289 0.744169 0.935494
O O3 0.255404 0.966644 0.823724
O O4 0.220742 0.677146 0.854815
O O5 0.900099 0.783440 0.359563
O O6 0.472373 0.724136 0.294829
O O7 0.876549 0.801185 0.444803
O O8 0.663013 0.020705 0.335082
O O9 0.973310 0.189347 0.787965
O O10 0.500000 0.716565 0.750000
O O11 0.039148 0.786878 0.645311
O O12 0.122369 0.709736 0.585975
O O13 0.068768 0.529675 0.179854
O O14 0.000000 0.500000 0.500000
#
# Coordination Sequence:
#
# PCOD8119429 Si02
#       7
#     4   4   2   4   4   4   4
#     4  10  21  39  61  90 129 171 211 254 329 379
#     4  11  24  40  63  94 131 164 217 267 322 387
#     4  10  20  38  66  92 126 170 218 262 308 396
#     4  12  22  42  67  93 126 169 218 259 323 387
#     4  10  21  37  64  92 123 171 216 264 314 386
#     4  11  21  39  63  96 124 167 217 263 319 383
#     4  12  25  42  64  98 133 167 212 274 327 377
#
# _framework density 20.748522999999999
#
# number of rings (size 3 to 8) (size 9 to 14) (size 15 to 20)
#    0.000    1.231    3.077    6.000    2.154    0.000 
#    0.000    7.692    0.000    0.000    0.000    0.000 
#    0.000    0.000    0.000    0.000    0.000    0.000 
#
# Total GULP energy -322197.813670 kJ/mol
# GULP energy per Si atom -12392.223603 kJ/mol
# Density = 2.070130 g / cm^3
# Si number density = 20.748523 Si / 1000 Ang^3
#
#
#
# Elastic Constant Matrix: (Units=GPa)
#
#
# Indices 1 2 3 4 5 6 
#
# 1 106.9977 24.6377 46.2414 0.0000 -22.1010 0.0000
# 2 24.6377 66.5698 12.1577 0.0000 -4.4457 0.0000
# 3 46.2414 12.1577 113.9441 0.0000 -16.8861 0.0000
# 4 0.0000 0.0000 0.0000 28.0302 0.0000 -8.5235
# 5 -22.1010 -4.4457 -16.8861 0.0000 37.2585 0.0000
# 6 0.0000 0.0000 0.0000 -8.5235 0.0000 33.9255
#
#
#
# Elastic Compliance Matrix: (Units=1/GPa)
#
#
# Indices 1 2 3 4 5 6 
#
# 1 0.013113 -0.003737 -0.004113 0.000000 0.005469 0.000000
# 2 -0.003737 0.016433 -0.000294 0.000000 -0.000389 0.000000
# 3 -0.004113 -0.000294 0.010838 0.000000 0.002437 0.000000
# 4 0.000000 0.000000 0.000000 0.038627 0.000000 0.009705
# 5 0.005469 -0.000389 0.002437 0.000000 0.031142 0.000000
# 6 0.000000 0.000000 0.000000 0.009705 0.000000 0.031915
#
#
# Mechanical properties :
#
#
# Convention : Reuss Voigt Hill
#
# Bulk Modulus (GPa) = 41.50099 50.39835 45.94967
# Shear Modulus (GPa) = 30.05040 33.47448 31.76244
#
# Velocity S-wave (km/s) = 3.80980 4.02100 3.91683
# Velocity P-wave (km/s) = 6.27679 6.77501 6.53065
#
# Compressibility (1/GPa) = 0.02409581
#
# Stress axis : x y z
#
# Youngs Moduli (GPa) = 76.25748 60.85429 92.26945
#
# Poissons Ratio (x) = 0.22742 0.37946
# Poissons Ratio (y) = 0.28498 0.02717
# Poissons Ratio (z) = 0.31361 0.01792
#
# Static dielectric constant tensor:
#      x y z
#    x 4.103060 0.000000 -0.452120 
#    y 0.000000 3.707720 0.000000 
#    z -0.452120 0.000000 4.108260 
# 
# 
# High freq. dielectric constant tensor:
#      x y z
#    x 1.829330 0.000000 -0.019130 
#    y 0.000000 1.815640 0.000000 
#    z -0.019130 0.000000 1.790090 
# 
# From -- ./inp_files/91339.got.cif
#   From: 2010.06.25/outbox.cif.g09.slc.cpg/sg13_46_cif.got.tgz:91339.got - 2010.06.28 04:50:58.
