data_PCOD8119438
_publ_section_title
;
Structure prediction by ZEFSAII (Michael W. Deem and Ramdas Pophale) SiO2 
 PCOD8119438
Probable space group: P 2/C
;
_chemical_formula_sum "Si O2"
_cell_formula_units_Z 20
_cell_length_a 8.397963
_cell_length_b 8.408413
_cell_length_c 13.562776
_cell_angle_alpha 90.000000
_cell_angle_beta 81.253327
_cell_angle_gamma 90.000000
_cell_volume 946.577737
_symmetry_space_group_name_H-M "P 2/C"
_symmetry_group_IT_number 13
_symmetry_cell_setting 'monoclinic'
loop_
_space_group_symop_operation_xyz
x,y,z
-x,y,1/2-z
-x,-y,-z
x,-y,1/2+z
loop_
_atom_site_type_symbol
_atom_site_label
_atom_site_fract_x
_atom_site_fract_y
_atom_site_fract_z
Si Si1 0.257945 0.908853 0.126548
Si Si2 0.000000 0.314107 0.750000
Si Si3 0.851585 0.561035 0.076735
Si Si4 0.500000 0.048644 0.250000
Si Si5 0.067920 0.153357 0.048021
Si Si6 0.281268 0.754514 0.916431
O O1 0.118775 0.792217 0.174671
O O2 0.400330 0.926059 0.191655
O O3 0.185220 0.087540 0.122196
O O4 0.321581 0.838596 0.016636
O O5 0.104009 0.424797 0.812318
O O6 0.698637 0.439358 0.079202
O O7 0.819509 0.737085 0.033902
O O8 0.000000 0.500000 0.000000
O O9 0.609027 0.165356 0.175512
O O10 0.905933 0.237282 0.102551
O O11 0.000000 0.000000 0.000000
#
# Coordination Sequence:
#
# PCOD8119438 Si02
#       6
#     4   2   4   2   4   4
#     4  11  23  40  66  96 126 173 228 272 318 396
#     4  12  20  38  76  98 122 166 226 276 338 370
#     4  10  20  38  67  99 129 158 212 286 329 377
#     4  12  26  40  64  92 142 186 216 252 334 416
#     4   9  17  38  68  92 120 158 220 284 313 360
#     4  10  22  43  62  96 134 169 219 273 330 388
#
# _framework density 21.128744999999999
#
# number of rings (size 3 to 8) (size 9 to 14) (size 15 to 20)
#    0.000    1.600    6.000    1.800    2.800    3.200 
#    0.000    2.000    0.000    0.000    0.000    0.000 
#    0.000    0.000    0.000    0.000    0.000    0.000 
#
# Total GULP energy -247817.458296 kJ/mol
# GULP energy per Si atom -12390.872915 kJ/mol
# Density = 2.108066 g / cm^3
# Si number density = 21.128745 Si / 1000 Ang^3
#
#
#
# Elastic Constant Matrix: (Units=GPa)
#
#
# Indices 1 2 3 4 5 6 
#
# 1 72.4976 31.1873 40.9368 0.0000 13.9232 0.0000
# 2 31.1873 120.3094 47.6273 0.0000 3.3416 0.0000
# 3 40.9368 47.6273 135.4446 0.0000 0.0086 0.0000
# 4 0.0000 0.0000 0.0000 26.7714 0.0000 6.5903
# 5 13.9232 3.3416 0.0086 0.0000 37.0540 0.0000
# 6 0.0000 0.0000 0.0000 6.5903 0.0000 20.6185
#
#
#
# Elastic Compliance Matrix: (Units=1/GPa)
#
#
# Indices 1 2 3 4 5 6 
#
# 1 0.019027 -0.002863 -0.004744 0.000000 -0.006890 0.000000
# 2 -0.002863 0.010115 -0.002691 0.000000 0.000164 0.000000
# 3 -0.004744 -0.002691 0.009763 0.000000 0.002023 0.000000
# 4 0.000000 0.000000 0.000000 0.040543 0.000000 -0.012959
# 5 -0.006890 0.000164 0.002023 0.000000 0.029561 0.000000
# 6 0.000000 0.000000 0.000000 -0.012959 0.000000 0.052642
#
#
# Mechanical properties :
#
#
# Convention : Reuss Voigt Hill
#
# Bulk Modulus (GPa) = 54.61826 63.08383 58.85104
# Shear Modulus (GPa) = 26.54618 30.78879 28.66748
#
# Velocity S-wave (km/s) = 3.54842 3.82147 3.68747
# Velocity P-wave (km/s) = 6.53412 7.02803 6.78557
#
# Compressibility (1/GPa) = 0.01830890
#
# Stress axis : x y z
#
# Youngs Moduli (GPa) = 52.55696 98.86294 102.42675
#
# Poissons Ratio (x) = 0.28305 0.48586
# Poissons Ratio (y) = 0.15047 0.27568
# Poissons Ratio (z) = 0.24931 0.26609
#
# Static dielectric constant tensor:
#      x y z
#    x 3.915190 0.000000 0.215870 
#    y 0.000000 5.338510 0.000000 
#    z 0.215870 0.000000 3.705520 
# 
# 
# High freq. dielectric constant tensor:
#      x y z
#    x 1.791130 0.000000 0.004210 
#    y 0.000000 1.845780 0.000000 
#    z 0.004210 0.000000 1.830280 
# 
# From -- ./inp_files/28151.got.cif
#   From: 2010.06.25/outbox.cif.g09.slc.cpg/sg13_15_cif.got.tgz:28151.got - 2010.06.28 04:50:58.
