data_PCOD8119606
_publ_section_title
;
Structure prediction by ZEFSAII (Michael W. Deem and Ramdas Pophale) SiO2 
 PCOD8119606
Probable space group: P 2/C
;
_chemical_formula_sum "Si O2"
_cell_formula_units_Z 32
_cell_length_a 12.530073
_cell_length_b 14.306476
_cell_length_c 8.605554
_cell_angle_alpha 90.000000
_cell_angle_beta 92.830596
_cell_angle_gamma 90.000000
_cell_volume 1540.759676
_symmetry_space_group_name_H-M "P 2/C"
_symmetry_group_IT_number 13
_symmetry_cell_setting 'monoclinic'
loop_
_space_group_symop_operation_xyz
x,y,z
-x,y,1/2-z
-x,-y,-z
x,-y,1/2+z
loop_
_atom_site_type_symbol
_atom_site_label
_atom_site_fract_x
_atom_site_fract_y
_atom_site_fract_z
Si Si1 0.982787 0.290185 0.564779
Si Si2 0.620386 0.272466 0.594116
Si Si3 0.293982 0.088194 0.014264
Si Si4 0.610977 0.067875 0.166671
Si Si5 0.806475 0.383566 0.979218
Si Si6 0.206296 0.415887 0.881978
Si Si7 0.054852 0.915068 0.419416
Si Si8 0.618887 0.753619 0.450713
O O1 0.882486 0.358532 0.527141
O O2 0.961410 0.185560 0.498153
O O3 0.000000 0.284508 0.750000
O O4 0.083816 0.328981 0.475650
O O5 0.676007 0.196861 0.488815
O O6 0.677835 0.371815 0.573569
O O7 0.498710 0.289725 0.534674
O O8 0.635994 0.230291 0.768425
O O9 0.181276 0.065184 0.925757
O O10 0.384951 0.028253 0.930509
O O11 0.294679 0.064381 0.197806
O O12 0.500000 0.079626 0.250000
O O13 0.630977 0.150541 0.045135
O O14 0.813442 0.410360 0.801157
O O15 0.706241 0.319357 0.018634
O O16 0.796513 0.475998 0.078981
O O17 0.000000 0.909581 0.250000
O O18 0.000000 0.000000 0.500000
#
# Coordination Sequence:
#
# PCOD8119606 Si02
#       8
#     4   4   4   4   4   4   4   4
#     4   9  19  38  63  87 121 161 203 249 311 366
#     4  10  21  40  64  87 123 165 208 252 311 373
#     4  12  24  40  63  92 125 168 207 257 308 370
#     4  12  25  40  62  94 128 164 210 257 307 373
#     4  10  22  38  64  90 120 161 202 261 311 374
#     4  10  20  40  61  90 120 159 208 253 316 370
#     4  11  24  42  63  92 126 169 207 254 308 371
#     4  10  23  40  61  91 124 163 207 256 309 369
#
# _framework density 20.768975999999999
#
# number of rings (size 3 to 8) (size 9 to 14) (size 15 to 20)
#    0.000    1.500    2.500    2.250    5.250    1.500 
#    0.000    0.000    0.000    0.000    0.000    0.000 
#    0.000    0.000    0.000    0.000    0.000    0.000 
#
# Total GULP energy -396787.168909 kJ/mol
# GULP energy per Si atom -12399.599028 kJ/mol
# Density = 2.072170 g / cm^3
# Si number density = 20.768976 Si / 1000 Ang^3
#
#
#
# Elastic Constant Matrix: (Units=GPa)
#
#
# Indices 1 2 3 4 5 6 
#
# 1 132.5040 41.2594 21.8085 0.0000 -2.0988 0.0000
# 2 41.2594 124.7621 21.3755 0.0000 -14.9009 0.0000
# 3 21.8085 21.3755 44.1912 0.0000 0.5650 0.0000
# 4 0.0000 0.0000 0.0000 37.3960 0.0000 -5.6408
# 5 -2.0988 -14.9009 0.5650 0.0000 25.7221 0.0000
# 6 0.0000 0.0000 0.0000 -5.6408 0.0000 35.1905
#
#
#
# Elastic Compliance Matrix: (Units=1/GPa)
#
#
# Indices 1 2 3 4 5 6 
#
# 1 0.008820 -0.002451 -0.003159 0.000000 -0.000631 0.000000
# 2 -0.002451 0.010163 -0.003780 0.000000 0.005770 0.000000
# 3 -0.003159 -0.003780 0.026055 0.000000 -0.003020 0.000000
# 4 0.000000 0.000000 0.000000 0.027403 0.000000 0.004393
# 5 -0.000631 0.005770 -0.003020 0.000000 0.042235 0.000000
# 6 0.000000 0.000000 0.000000 0.004393 0.000000 0.029121
#
#
# Mechanical properties :
#
#
# Convention : Reuss Voigt Hill
#
# Bulk Modulus (GPa) = 38.08418 52.26047 45.17232
# Shear Modulus (GPa) = 29.18359 34.12930 31.65645
#
# Velocity S-wave (km/s) = 3.75260 4.05814 3.90836
# Velocity P-wave (km/s) = 6.09532 6.86843 6.49339
#
# Compressibility (1/GPa) = 0.02625762
#
# Stress axis : x y z
#
# Youngs Moduli (GPa) = 113.37769 98.40027 38.38040
#
# Poissons Ratio (x) = 0.24117 0.12125
# Poissons Ratio (y) = 0.27788 0.14508
# Poissons Ratio (z) = 0.35818 0.37195
#
# Static dielectric constant tensor:
#      x y z
#    x 3.949670 0.000000 0.081700 
#    y 0.000000 3.957730 0.000000 
#    z 0.081700 0.000000 3.597820 
# 
# 
# High freq. dielectric constant tensor:
#      x y z
#    x 1.823490 0.000000 0.004790 
#    y 0.000000 1.817230 0.000000 
#    z 0.004790 0.000000 1.792820 
# 
# From -- ./inp_files/16801.got.cif
#   From: 2010.06.25/outbox.cif.g09.slc.cpg/sg13_9_cif.got.tgz:16801.got - 2010.06.28 04:50:58.
