data_PCOD8119258
_publ_section_title
;
Structure prediction by ZEFSAII (Michael W. Deem and Ramdas Pophale) SiO2 
 PCOD8119258
Probable space group: P 2/C
;
_chemical_formula_sum "Si O2"
_cell_formula_units_Z 30
_cell_length_a 13.081280
_cell_length_b 6.138458
_cell_length_c 18.023712
_cell_angle_alpha 90.000000
_cell_angle_beta 80.442859
_cell_angle_gamma 90.000000
_cell_volume 1427.196464
_symmetry_space_group_name_H-M "P 2/C"
_symmetry_group_IT_number 13
_symmetry_cell_setting 'monoclinic'
loop_
_space_group_symop_operation_xyz
x,y,z
-x,y,1/2-z
-x,-y,-z
x,-y,1/2+z
loop_
_atom_site_type_symbol
_atom_site_label
_atom_site_fract_x
_atom_site_fract_y
_atom_site_fract_z
Si Si1 0.195627 0.862847 0.845437
Si Si2 0.968761 0.190716 0.338225
Si Si3 0.785356 0.103332 0.910992
Si Si4 0.324097 0.884204 0.221500
Si Si5 0.731993 0.813146 0.041938
Si Si6 0.654299 0.489088 0.664617
Si Si7 0.101979 0.495488 0.036218
Si Si8 0.500000 0.188857 0.250000
O O1 0.235279 0.613786 0.845679
O O2 0.072509 0.872385 0.870839
O O3 0.227831 0.973617 0.763761
O O4 0.252559 0.997475 0.901343
O O5 0.923240 0.414174 0.377363
O O6 0.000000 0.233829 0.250000
O O7 0.885247 0.001712 0.359431
O O8 0.707926 0.194160 0.857265
O O9 0.830201 0.284924 0.962389
O O10 0.711914 0.932272 0.965532
O O11 0.349387 0.669267 0.264550
O O12 0.424997 0.039233 0.209316
O O13 0.645059 0.649427 0.088109
O O14 0.835510 0.678348 0.018652
O O15 0.561558 0.662586 0.683025
O O16 0.000000 0.500000 0.000000
#
# Coordination Sequence:
#
# PCOD8119258 Si02
#       8
#     4   4   4   4   4   4   4   2
#     4  10  20  38  59  85 123 162 205 249 293 351
#     4  11  22  35  55  88 126 167 209 249 291 344
#     4  11  23  38  58  88 132 162 203 255 298 354
#     4  10  22  39  61  91 119 155 197 257 315 363
#     4  10  21  38  59  86 119 164 203 242 299 362
#     4  10  21  38  68  88 114 158 202 246 311 372
#     4  11  23  37  56  86 125 175 213 245 293 354
#     4  10  22  42  66  90 118 144 200 262 314 374
#
# _framework density 21.020230000000002
#
# number of rings (size 3 to 8) (size 9 to 14) (size 15 to 20)
#    0.000    1.600    1.333    3.600    1.867    4.800 
#    0.000    0.667    0.000   15.200    0.000    0.000 
#    0.000    0.000    0.000    0.000    0.000    0.000 
#
# Total GULP energy -371768.578731 kJ/mol
# GULP energy per Si atom -12392.285958 kJ/mol
# Density = 2.097239 g / cm^3
# Si number density = 21.020230 Si / 1000 Ang^3
#
#
#
# Elastic Constant Matrix: (Units=GPa)
#
#
# Indices 1 2 3 4 5 6 
#
# 1 82.3081 33.4179 27.8560 0.0000 -0.5759 0.0000
# 2 33.4179 108.9899 40.5134 0.0000 3.1688 0.0000
# 3 27.8560 40.5134 93.8173 0.0000 2.3471 0.0000
# 4 0.0000 0.0000 0.0000 29.7497 0.0000 -9.8646
# 5 -0.5759 3.1688 2.3471 0.0000 20.1214 0.0000
# 6 0.0000 0.0000 0.0000 -9.8646 0.0000 28.6140
#
#
#
# Elastic Compliance Matrix: (Units=1/GPa)
#
#
# Indices 1 2 3 4 5 6 
#
# 1 0.014518 -0.003424 -0.002864 0.000000 0.001289 0.000000
# 2 -0.003424 0.011765 -0.004027 0.000000 -0.001481 0.000000
# 3 -0.002864 -0.004027 0.013273 0.000000 -0.000996 0.000000
# 4 0.000000 0.000000 0.000000 0.037952 0.000000 0.013084
# 5 0.001289 -0.001481 -0.000996 0.000000 0.050085 0.000000
# 6 0.000000 0.000000 0.000000 0.013084 0.000000 0.039459
#
#
# Mechanical properties :
#
#
# Convention : Reuss Voigt Hill
#
# Bulk Modulus (GPa) = 52.83761 54.29889 53.56825
# Shear Modulus (GPa) = 25.77439 27.91888 26.84663
#
# Velocity S-wave (km/s) = 3.50547 3.64839 3.57764
# Velocity P-wave (km/s) = 6.44791 6.60571 6.52729
#
# Compressibility (1/GPa) = 0.01892591
#
# Stress axis : x y z
#
# Youngs Moduli (GPa) = 68.87939 84.99814 75.33955
#
# Poissons Ratio (x) = 0.29106 0.21579
# Poissons Ratio (y) = 0.23586 0.30337
# Poissons Ratio (z) = 0.19729 0.34226
#
# Static dielectric constant tensor:
#      x y z
#    x 3.568020 0.000000 -0.260740 
#    y 0.000000 4.009640 0.000000 
#    z -0.260740 0.000000 4.028810 
# 
# 
# High freq. dielectric constant tensor:
#      x y z
#    x 1.793530 0.000000 -0.015790 
#    y 0.000000 1.834100 0.000000 
#    z -0.015790 0.000000 1.831700 
# 
# From -- ./inp_files/67562.got.cif
#   From: 2010.06.25/outbox.cif.g09.slc.cpg/sg13_34_cif.got.tgz:67562.got - 2010.06.28 04:50:58.
