data_PCOD8119604
_publ_section_title
;
Structure prediction by ZEFSAII (Michael W. Deem and Ramdas Pophale) SiO2 
 PCOD8119604
Probable space group: P 2/C
;
_chemical_formula_sum "Si O2"
_cell_formula_units_Z 26
_cell_length_a 11.804914
_cell_length_b 14.531146
_cell_length_c 8.699121
_cell_angle_alpha 90.000000
_cell_angle_beta 57.262178
_cell_angle_gamma 90.000000
_cell_volume 1255.201841
_symmetry_space_group_name_H-M "P 2/C"
_symmetry_group_IT_number 13
_symmetry_cell_setting 'monoclinic'
loop_
_space_group_symop_operation_xyz
x,y,z
-x,y,1/2-z
-x,-y,-z
x,-y,1/2+z
loop_
_atom_site_type_symbol
_atom_site_label
_atom_site_fract_x
_atom_site_fract_y
_atom_site_fract_z
Si Si1 0.500000 0.277092 0.750000
Si Si2 0.138328 0.451998 0.331978
Si Si3 0.395582 0.874506 0.120148
Si Si4 0.000000 0.032400 0.250000
Si Si5 0.004813 0.698852 0.073580
Si Si6 0.769186 0.393014 0.564021
Si Si7 0.500000 0.968622 0.750000
Si Si8 0.896568 0.117844 0.608951
O O1 0.509976 0.209624 0.891568
O O2 0.629800 0.341750 0.628842
O O3 0.258544 0.518041 0.304898
O O4 0.000000 0.500000 0.500000
O O5 0.137083 0.348364 0.402433
O O6 0.155455 0.437189 0.138652
O O7 0.244926 0.836019 0.244726
O O8 0.402180 0.965697 0.222762
O O9 0.422974 0.901111 0.923655
O O10 0.900852 0.095364 0.424257
O O11 0.909951 0.973794 0.199783
O O12 0.870637 0.676335 0.074149
O O13 0.016166 0.809920 0.062016
O O14 0.000000 0.661056 0.250000
#
# Coordination Sequence:
#
# PCOD8119604 Si02
#       8
#     2   4   4   2   4   4   2   4
#     4  11  24  40  62  93 136 172 206 259 326 385
#     4  10  21  40  68  90 118 156 209 261 321 381
#     4  10  20  40  61  89 124 173 222 264 310 376
#     4  10  24  36  56  92 128 168 210 262 330 364
#     4  11  21  38  64  92 119 161 208 263 315 377
#     4  11  23  43  65  93 126 159 205 268 318 391
#     4   9  20  38  66  83 118 174 230 261 296 365
#     4  11  21  38  58  87 129 165 206 264 314 374
#
# _framework density 20.713799000000002
#
# number of rings (size 3 to 8) (size 9 to 14) (size 15 to 20)
#    0.000    1.538    2.308    4.615    2.154    0.615 
#    2.769    0.000    0.000    0.000    0.000    0.000 
#    0.000    0.000    0.000    0.000    0.000    0.000 
#
# Total GULP energy -322157.665404 kJ/mol
# GULP energy per Si atom -12390.679439 kJ/mol
# Density = 2.066665 g / cm^3
# Si number density = 20.713799 Si / 1000 Ang^3
#
#
#
# Elastic Constant Matrix: (Units=GPa)
#
#
# Indices 1 2 3 4 5 6 
#
# 1 69.4329 31.2975 45.6583 0.0000 5.2614 0.0000
# 2 31.2975 106.9547 50.5684 0.0000 1.0182 0.0000
# 3 45.6583 50.5684 136.0256 0.0000 25.4179 0.0000
# 4 0.0000 0.0000 0.0000 19.6161 0.0000 -7.1099
# 5 5.2614 1.0182 25.4179 0.0000 32.8496 0.0000
# 6 0.0000 0.0000 0.0000 -7.1099 0.0000 29.0548
#
#
#
# Elastic Compliance Matrix: (Units=1/GPa)
#
#
# Indices 1 2 3 4 5 6 
#
# 1 0.019362 -0.003017 -0.005629 0.000000 0.001348 0.000000
# 2 -0.003017 0.012149 -0.004119 0.000000 0.003294 0.000000
# 3 -0.005629 -0.004119 0.012368 0.000000 -0.008541 0.000000
# 4 0.000000 0.000000 0.000000 0.055940 0.000000 0.013689
# 5 0.001348 0.003294 -0.008541 0.000000 0.036732 0.000000
# 6 0.000000 0.000000 0.000000 0.013689 0.000000 0.037768
#
#
# Mechanical properties :
#
#
# Convention : Reuss Voigt Hill
#
# Bulk Modulus (GPa) = 54.50186 63.05130 58.77658
# Shear Modulus (GPa) = 24.27577 28.63002 26.45289
#
# Velocity S-wave (km/s) = 3.42711 3.72179 3.57748
# Velocity P-wave (km/s) = 6.48298 6.99817 6.74549
#
# Compressibility (1/GPa) = 0.01834800
#
# Stress axis : x y z
#
# Youngs Moduli (GPa) = 51.64763 82.31240 80.85110
#
# Poissons Ratio (x) = 0.24834 0.45514
# Poissons Ratio (y) = 0.15582 0.33304
# Poissons Ratio (z) = 0.29074 0.33906
#
# Static dielectric constant tensor:
#      x y z
#    x 3.528570 0.000000 0.216970 
#    y 0.000000 4.143700 0.000000 
#    z 0.216970 0.000000 3.740030 
# 
# 
# High freq. dielectric constant tensor:
#      x y z
#    x 1.785100 0.000000 0.027750 
#    y 0.000000 1.825140 0.000000 
#    z 0.027750 0.000000 1.804760 
# 
# From -- ./inp_files/16443.got.cif
#   From: 2010.06.25/outbox.cif.g09.slc.cpg/sg13_9_cif.got.tgz:16443.got - 2010.06.28 04:50:58.
