data_PCOD8119742
_publ_section_title
;
Structure prediction by ZEFSAII (Michael W. Deem and Ramdas Pophale) SiO2 
 PCOD8119742
Probable space group: P 2/C
;
_chemical_formula_sum "Si O2"
_cell_formula_units_Z 28
_cell_length_a 13.275357
_cell_length_b 13.568612
_cell_length_c 8.725182
_cell_angle_alpha 90.000000
_cell_angle_beta 122.802528
_cell_angle_gamma 90.000000
_cell_volume 1321.039821
_symmetry_space_group_name_H-M "P 2/C"
_symmetry_group_IT_number 13
_symmetry_cell_setting 'monoclinic'
loop_
_space_group_symop_operation_xyz
x,y,z
-x,y,1/2-z
-x,-y,-z
x,-y,1/2+z
loop_
_atom_site_type_symbol
_atom_site_label
_atom_site_fract_x
_atom_site_fract_y
_atom_site_fract_z
Si Si1 0.261143 0.171017 0.589609
Si Si2 0.344373 0.213533 0.319774
Si Si3 0.058618 0.311344 0.461678
Si Si4 0.170640 0.634033 0.559986
Si Si5 0.443280 0.328270 0.860712
Si Si6 0.229111 0.555207 0.277443
Si Si7 0.592472 0.005011 0.209497
O O1 0.279425 0.176736 0.421467
O O2 0.123967 0.203875 0.513870
O O3 0.353243 0.240607 0.751394
O O4 0.287030 0.062190 0.681988
O O5 0.257910 0.273432 0.136900
O O6 0.457696 0.283424 0.444881
O O7 0.372729 0.118653 0.238894
O O8 0.160851 0.391474 0.580983
O O9 0.000000 0.334948 0.250000
O O10 0.961304 0.322322 0.516144
O O11 0.174622 0.582910 0.397456
O O12 0.211047 0.560531 0.730715
O O13 0.500000 0.370338 0.750000
O O14 0.370401 0.416538 0.884466
O O15 0.500000 0.957662 0.250000
O O16 0.500000 0.000000 0.000000
#
# Coordination Sequence:
#
# PCOD8119742 Si02
#       7
#     4   4   4   4   4   4   4
#     4  10  20  41  68  97 131 174 223 280 342 398
#     4  11  23  40  65 100 138 175 225 275 344 409
#     4  11  22  44  74  91 128 178 230 285 334 402
#     4  12  26  43  66 100 133 180 232 285 341 403
#     4   9  20  39  64  95 136 178 217 280 341 402
#     4  11  26  43  66  99 134 177 232 285 339 407
#     4  12  22  38  67 102 136 175 222 274 337 417
#
# _framework density 21.195426999999999
#
# number of rings (size 3 to 8) (size 9 to 14) (size 15 to 20)
#    0.000    1.143    4.286    2.143    6.000    0.571 
#    0.000    0.714    0.000    0.000    0.000    0.000 
#    0.000    0.000    0.000    0.000    0.000    0.000 
#
# Total GULP energy -346986.517532 kJ/mol
# GULP energy per Si atom -12392.375626 kJ/mol
# Density = 2.114719 g / cm^3
# Si number density = 21.195427 Si / 1000 Ang^3
#
#
#
# Elastic Constant Matrix: (Units=GPa)
#
#
# Indices 1 2 3 4 5 6 
#
# 1 129.5209 44.2762 28.1324 0.0000 7.1758 0.0000
# 2 44.2762 104.0066 31.0529 0.0000 12.8246 0.0000
# 3 28.1324 31.0529 78.9321 0.0000 -4.2379 0.0000
# 4 0.0000 0.0000 0.0000 27.7672 0.0000 3.5817
# 5 7.1758 12.8246 -4.2379 0.0000 30.4950 0.0000
# 6 0.0000 0.0000 0.0000 3.5817 0.0000 33.7584
#
#
#
# Elastic Compliance Matrix: (Units=1/GPa)
#
#
# Indices 1 2 3 4 5 6 
#
# 1 0.009341 -0.003198 -0.002133 0.000000 -0.001150 0.000000
# 2 -0.003198 0.012880 -0.004209 0.000000 -0.005249 0.000000
# 3 -0.002133 -0.004209 0.015322 0.000000 0.004401 0.000000
# 4 0.000000 0.000000 0.000000 0.036513 0.000000 -0.003874
# 5 -0.001150 -0.005249 0.004401 0.000000 0.035882 0.000000
# 6 0.000000 0.000000 0.000000 -0.003874 0.000000 0.030033
#
#
# Mechanical properties :
#
#
# Convention : Reuss Voigt Hill
#
# Bulk Modulus (GPa) = 54.16361 57.70917 55.93639
# Shear Modulus (GPa) = 30.26535 32.33734 31.30134
#
# Velocity S-wave (km/s) = 3.78288 3.91023 3.84708
# Velocity P-wave (km/s) = 6.68507 6.90455 6.79569
#
# Compressibility (1/GPa) = 0.01846258
#
# Stress axis : x y z
#
# Youngs Moduli (GPa) = 107.05599 77.63888 65.26746
#
# Poissons Ratio (x) = 0.24828 0.13920
# Poissons Ratio (y) = 0.34236 0.27473
# Poissons Ratio (z) = 0.22833 0.32680
#
# Static dielectric constant tensor:
#      x y z
#    x 3.751550 0.000000 0.139890 
#    y 0.000000 3.855490 0.000000 
#    z 0.139890 0.000000 3.712080 
# 
# 
# High freq. dielectric constant tensor:
#      x y z
#    x 1.827560 0.000000 0.002230 
#    y 0.000000 1.819730 0.000000 
#    z 0.002230 0.000000 1.833100 
# 
# From -- ./inp_files/16472.got.cif
#   From: 2010.06.25/outbox.cif.g09.slc.cpg/sg13_9_cif.got.tgz:16472.got - 2010.06.28 04:50:58.
