data_PCOD8119541
_publ_section_title
;
Structure prediction by ZEFSAII (Michael W. Deem and Ramdas Pophale) SiO2 
 PCOD8119541
Probable space group: P 2/C
;
_chemical_formula_sum "Si O2"
_cell_formula_units_Z 24
_cell_length_a 8.745322
_cell_length_b 10.942737
_cell_length_c 27.745965
_cell_angle_alpha 90.000000
_cell_angle_beta 27.871535
_cell_angle_gamma 90.000000
_cell_volume 1241.293757
_symmetry_space_group_name_H-M "P 2/C"
_symmetry_group_IT_number 13
_symmetry_cell_setting 'monoclinic'
loop_
_space_group_symop_operation_xyz
x,y,z
-x,y,1/2-z
-x,-y,-z
x,-y,1/2+z
loop_
_atom_site_type_symbol
_atom_site_label
_atom_site_fract_x
_atom_site_fract_y
_atom_site_fract_z
Si Si1 0.273634 0.733386 0.771620
Si Si2 0.451771 0.641176 0.522482
Si Si3 0.169579 0.984515 0.318301
Si Si4 0.388298 0.249141 0.139010
Si Si5 0.734793 0.999885 0.031069
Si Si6 0.791799 0.185975 0.851641
O O1 0.500000 0.682162 0.750000
O O2 0.474061 0.694067 0.667405
O O3 0.925670 0.673352 0.877613
O O4 0.240986 0.879702 0.779750
O O5 0.500000 0.500000 0.500000
O O6 0.550647 0.674395 0.550147
O O7 0.674729 0.712590 0.422124
O O8 0.500000 0.927977 0.250000
O O9 0.894237 0.983832 0.435032
O O10 0.035458 0.907988 0.310625
O O11 0.490138 0.109778 0.107110
O O12 0.000000 0.251378 0.250000
O O13 0.521728 0.876841 0.086519
O O14 0.000000 0.000000 0.000000
O O15 0.000000 0.247139 0.750000
#
# Coordination Sequence:
#
# PCOD8119541 Si02
#       6
#     4   4   4   4   4   4
#     4  10  20  39  65  92 122 156 203 253 307 374
#     4  11  24  43  63  85 118 171 218 251 295 353
#     4  11  21  37  60  97 129 158 193 249 319 385
#     4  10  21  38  63  89 123 157 202 250 310 369
#     4  12  21  35  62  95 127 158 192 250 322 383
#     4  12  23  39  59  90 129 160 199 258 315 363
#
# _framework density 19.334665999999999
#
# number of rings (size 3 to 8) (size 9 to 14) (size 15 to 20)
#    0.000    1.000    3.333    7.000    0.000    2.000 
#    0.000    1.667    0.000    0.000    0.000    0.000 
#    0.000    0.000    0.000    0.000    0.000    0.000 
#
# Total GULP energy -297440.832797 kJ/mol
# GULP energy per Si atom -12393.368033 kJ/mol
# Density = 1.929066 g / cm^3
# Si number density = 19.334666 Si / 1000 Ang^3
#
#
#
# Elastic Constant Matrix: (Units=GPa)
#
#
# Indices 1 2 3 4 5 6 
#
# 1 133.7811 42.8473 50.0612 0.0000 22.5661 0.0000
# 2 42.8473 91.6269 38.0424 0.0000 8.0736 0.0000
# 3 50.0612 38.0424 136.2434 0.0000 41.8690 0.0000
# 4 0.0000 0.0000 0.0000 13.0044 0.0000 6.5251
# 5 22.5661 8.0736 41.8690 0.0000 40.2448 0.0000
# 6 0.0000 0.0000 0.0000 6.5251 0.0000 5.3727
#
#
#
# Elastic Compliance Matrix: (Units=1/GPa)
#
#
# Indices 1 2 3 4 5 6 
#
# 1 0.009760 -0.003614 -0.001644 0.000000 -0.003038 0.000000
# 2 -0.003614 0.013756 -0.003363 0.000000 0.002766 0.000000
# 3 -0.001644 -0.003363 0.012336 0.000000 -0.011238 0.000000
# 4 0.000000 0.000000 0.000000 0.196864 0.000000 -0.239090
# 5 -0.003038 0.002766 -0.011238 0.000000 0.037688 0.000000
# 6 0.000000 0.000000 0.000000 -0.239090 0.000000 0.476499
#
#
# Mechanical properties :
#
#
# Convention : Reuss Voigt Hill
#
# Bulk Modulus (GPa) = 53.73056 69.28371 61.50713
# Shear Modulus (GPa) = 6.49057 27.10440 16.79749
#
# Velocity S-wave (km/s) = 1.83419 3.74820 2.95070
# Velocity P-wave (km/s) = 5.68645 7.39214 6.59467
#
# Compressibility (1/GPa) = 0.01861138
#
# Stress axis : x y z
#
# Youngs Moduli (GPa) = 102.46154 72.69326 81.06166
#
# Poissons Ratio (x) = 0.26271 0.13323
# Poissons Ratio (y) = 0.37029 0.27262
# Poissons Ratio (z) = 0.16840 0.24448
#
# Static dielectric constant tensor:
#      x y z
#    x 3.825930 0.000000 -0.455860 
#    y 0.000000 3.315320 0.000000 
#    z -0.455860 0.000000 2.864330 
# 
# 
# High freq. dielectric constant tensor:
#      x y z
#    x 1.772070 0.000000 0.017520 
#    y 0.000000 1.705110 0.000000 
#    z 0.017520 0.000000 1.775940 
# 
# From -- ./inp_files/57655.got.cif
#   From: 2010.06.25/outbox.cif.g09.slc.cpg/sg13_29_cif.got.tgz:57655.got - 2010.06.28 04:50:58.
