data_PCOD8119165
_publ_section_title
;
Structure prediction by ZEFSAII (Michael W. Deem and Ramdas Pophale) SiO2 
 PCOD8119165
Probable space group: P 2/C
;
_chemical_formula_sum "Si O2"
_cell_formula_units_Z 32
_cell_length_a 16.202224
_cell_length_b 19.383425
_cell_length_c 16.294356
_cell_angle_alpha 90.000000
_cell_angle_beta 162.342405
_cell_angle_gamma 90.000000
_cell_volume 1552.225159
_symmetry_space_group_name_H-M "P 2/C"
_symmetry_group_IT_number 13
_symmetry_cell_setting 'monoclinic'
loop_
_space_group_symop_operation_xyz
x,y,z
-x,y,1/2-z
-x,-y,-z
x,-y,1/2+z
loop_
_atom_site_type_symbol
_atom_site_label
_atom_site_fract_x
_atom_site_fract_y
_atom_site_fract_z
Si Si1 0.283712 0.231195 0.479003
Si Si2 0.208937 0.123686 0.013541
Si Si3 0.975522 0.400849 0.632212
Si Si4 0.403310 0.712510 0.916572
Si Si5 0.546037 0.433862 0.099076
Si Si6 0.986488 0.254161 0.895594
Si Si7 0.382707 0.927771 0.051362
Si Si8 0.107296 0.007659 0.511398
O O1 0.375313 0.271872 0.485418
O O2 0.281816 0.150048 0.459679
O O3 0.000000 0.254663 0.250000
O O4 0.500000 0.253524 0.750000
O O5 0.500000 0.144775 0.250000
O O6 0.047628 0.188807 0.897593
O O7 0.000000 0.092484 0.750000
O O8 0.247819 0.064487 0.118562
O O9 0.753487 0.446402 0.371870
O O10 0.909256 0.319831 0.558755
O O11 0.000000 0.422664 0.750000
O O12 0.262070 0.414303 0.865998
O O13 0.355886 0.630307 0.863352
O O14 0.158920 0.752958 0.641786
O O15 0.674994 0.740281 0.129550
O O16 0.500000 0.500000 0.000000
O O17 0.500000 0.956318 0.250000
O O18 0.651894 0.935450 0.250387
O O19 0.127915 0.970826 0.775714
O O20 0.000000 0.000000 0.500000
#
# Coordination Sequence:
#
# PCOD8119165 Si02
#       8
#     4   4   4   4   4   4   4   4
#     4  11  23  39  64  90 114 156 206 255 302 354
#     4  12  25  40  61  87 121 156 193 247 308 360
#     4  10  20  37  62  91 121 159 207 247 290 355
#     4  10  22  39  63  87 124 157 196 251 297 354
#     4  10  21  39  61  90 125 167 200 240 299 358
#     4  10  22  38  62  89 119 159 195 247 304 360
#     4  11  23  42  63  82 114 160 202 249 306 360
#     4  12  26  40  61  89 119 157 201 252 299 366
#
# _framework density 20.615566000000001
#
# number of rings (size 3 to 8) (size 9 to 14) (size 15 to 20)
#    0.000    1.250    0.000    6.750    3.500    2.000 
#    0.000    1.875    0.000    0.000    0.000    0.000 
#    0.000    0.000    0.000    0.000    0.000    0.000 
#
# Total GULP energy -396723.812058 kJ/mol
# GULP energy per Si atom -12397.619127 kJ/mol
# Density = 2.056864 g / cm^3
# Si number density = 20.615566 Si / 1000 Ang^3
#
#
#
# Elastic Constant Matrix: (Units=GPa)
#
#
# Indices 1 2 3 4 5 6 
#
# 1 113.7518 49.6778 24.2884 0.0000 -6.8728 0.0000
# 2 49.6778 71.4354 30.5764 0.0000 -10.4493 0.0000
# 3 24.2884 30.5764 123.2004 0.0000 -6.3308 0.0000
# 4 0.0000 0.0000 0.0000 25.3692 0.0000 -2.7348
# 5 -6.8728 -10.4493 -6.3308 0.0000 41.9836 0.0000
# 6 0.0000 0.0000 0.0000 -2.7348 0.0000 24.8088
#
#
#
# Elastic Compliance Matrix: (Units=1/GPa)
#
#
# Indices 1 2 3 4 5 6 
#
# 1 0.012640 -0.008661 -0.000350 0.000000 -0.000139 0.000000
# 2 -0.008661 0.022075 -0.003590 0.000000 0.003535 0.000000
# 3 -0.000350 -0.003590 0.009098 0.000000 0.000421 0.000000
# 4 0.000000 0.000000 0.000000 0.039892 0.000000 0.004398
# 5 -0.000139 0.003535 0.000421 0.000000 0.024739 0.000000
# 6 0.000000 0.000000 0.000000 0.004398 0.000000 0.040793
#
#
# Mechanical properties :
#
#
# Convention : Reuss Voigt Hill
#
# Bulk Modulus (GPa) = 53.72486 57.49701 55.61093
# Shear Modulus (GPa) = 27.67917 32.02198 29.85057
#
# Velocity S-wave (km/s) = 3.66817 3.94546 3.80934
# Velocity P-wave (km/s) = 6.63759 6.97898 6.81042
#
# Compressibility (1/GPa) = 0.01861336
#
# Stress axis : x y z
#
# Youngs Moduli (GPa) = 79.11672 45.30014 109.91054
#
# Poissons Ratio (x) = 0.39232 0.03842
# Poissons Ratio (y) = 0.68520 0.39454
# Poissons Ratio (z) = 0.02766 0.16261
#
# Static dielectric constant tensor:
#      x y z
#    x 3.715310 0.000000 -0.037480 
#    y 0.000000 3.802720 0.000000 
#    z -0.037480 0.000000 4.139800 
# 
# 
# High freq. dielectric constant tensor:
#      x y z
#    x 1.812280 0.000000 0.002620 
#    y 0.000000 1.788070 0.000000 
#    z 0.002620 0.000000 1.830230 
# 
# From -- ./inp_files/54028.got.cif
#   From: 2010.06.25/outbox.cif.g09.slc.cpg/sg13_28_cif.got.tgz:54028.got - 2010.06.28 04:50:58.
