data_PCOD8119641
_publ_section_title
;
Structure prediction by ZEFSAII (Michael W. Deem and Ramdas Pophale) SiO2 
 PCOD8119641
Probable space group: P 2/C
;
_chemical_formula_sum "Si O2"
_cell_formula_units_Z 32
_cell_length_a 8.946893
_cell_length_b 11.436337
_cell_length_c 14.979974
_cell_angle_alpha 90.000000
_cell_angle_beta 102.427746
_cell_angle_gamma 90.000000
_cell_volume 1496.831159
_symmetry_space_group_name_H-M "P 2/C"
_symmetry_group_IT_number 13
_symmetry_cell_setting 'monoclinic'
loop_
_space_group_symop_operation_xyz
x,y,z
-x,y,1/2-z
-x,-y,-z
x,-y,1/2+z
loop_
_atom_site_type_symbol
_atom_site_label
_atom_site_fract_x
_atom_site_fract_y
_atom_site_fract_z
Si Si1 0.843707 0.749560 0.829385
Si Si2 0.324322 0.488613 0.449328
Si Si3 0.631415 0.241026 0.990015
Si Si4 0.721700 0.265774 0.503083
Si Si5 0.831615 0.132388 0.152375
Si Si6 0.150486 0.861084 0.316976
Si Si7 0.665740 0.726527 0.295980
Si Si8 0.170063 0.493348 0.742054
O O1 0.762616 0.811367 0.734348
O O2 0.836699 0.610435 0.816872
O O3 0.017306 0.796095 0.856916
O O4 0.752696 0.781825 0.907718
O O5 0.500000 0.500000 0.500000
O O6 0.275096 0.360727 0.476522
O O7 0.235726 0.596141 0.485224
O O8 0.290529 0.495540 0.339286
O O9 0.453031 0.246458 0.990618
O O10 0.660855 0.210216 0.891086
O O11 0.705649 0.138811 0.058649
O O12 0.832779 0.196416 0.583912
O O13 0.868145 0.998575 0.174292
O O14 0.290757 0.824676 0.271345
O O15 0.000000 0.810304 0.250000
O O16 0.500000 0.677012 0.250000
O O17 0.775829 0.613959 0.312523
O O18 0.000000 0.461861 0.750000
#
# Coordination Sequence:
#
# PCOD8119641 Si02
#       8
#     4   4   4   4   4   4   4   4
#     4  11  23  46  68 102 139 178 231 288 345 414
#     4  10  20  40  64  99 145 176 220 287 347 419
#     4  11  23  45  67 101 141 180 228 288 351 413
#     4  11  25  42  68 106 137 180 238 282 347 424
#     4  11  25  48  69  96 140 186 236 290 342 404
#     4  12  26  48  71  99 140 187 237 288 340 407
#     4  12  25  46  70 105 143 182 226 292 357 419
#     4  12  22  42  75 101 141 183 229 292 359 421
#
# _framework density 21.378496999999999
#
# number of rings (size 3 to 8) (size 9 to 14) (size 15 to 20)
#    0.000    0.750    6.250    1.875    1.750    3.500 
#    2.250    2.500    0.000    0.000    0.000    0.000 
#    0.000    0.000    0.000    0.000    0.000    0.000 
#
# Total GULP energy -396759.985559 kJ/mol
# GULP energy per Si atom -12398.749549 kJ/mol
# Density = 2.132984 g / cm^3
# Si number density = 21.378497 Si / 1000 Ang^3
#
#
#
# Elastic Constant Matrix: (Units=GPa)
#
#
# Indices 1 2 3 4 5 6 
#
# 1 91.1290 34.2667 62.6980 0.0000 6.1466 0.0000
# 2 34.2667 95.6498 40.1135 0.0000 5.2720 0.0000
# 3 62.6980 40.1135 161.4922 0.0000 -14.0801 0.0000
# 4 0.0000 0.0000 0.0000 25.5714 0.0000 11.3744
# 5 6.1466 5.2720 -14.0801 0.0000 36.7916 0.0000
# 6 0.0000 0.0000 0.0000 11.3744 0.0000 19.0197
#
#
#
# Elastic Compliance Matrix: (Units=1/GPa)
#
#
# Indices 1 2 3 4 5 6 
#
# 1 0.016668 -0.003159 -0.006093 0.000000 -0.004664 0.000000
# 2 -0.003159 0.012571 -0.002077 0.000000 -0.002068 0.000000
# 3 -0.006093 -0.002077 0.009506 0.000000 0.004953 0.000000
# 4 0.000000 0.000000 0.000000 0.053279 0.000000 -0.031863
# 5 -0.004664 -0.002068 0.004953 0.000000 0.030151 0.000000
# 6 0.000000 0.000000 0.000000 -0.031863 0.000000 0.071632
#
#
# Mechanical properties :
#
#
# Convention : Reuss Voigt Hill
#
# Bulk Modulus (GPa) = 62.15964 69.15860 65.65912
# Shear Modulus (GPa) = 22.54007 30.35605 26.44806
#
# Velocity S-wave (km/s) = 3.25057 3.77229 3.52111
# Velocity P-wave (km/s) = 6.57474 7.16892 6.87825
#
# Compressibility (1/GPa) = 0.01608761
#
# Stress axis : x y z
#
# Youngs Moduli (GPa) = 59.99482 79.54592 105.20167
#
# Poissons Ratio (x) = 0.25128 0.64102
# Poissons Ratio (y) = 0.18952 0.21845
# Poissons Ratio (z) = 0.36556 0.16518
#
# Static dielectric constant tensor:
#      x y z
#    x 3.745450 0.000000 0.116270 
#    y 0.000000 3.977100 0.000000 
#    z 0.116270 0.000000 4.037400 
# 
# 
# High freq. dielectric constant tensor:
#      x y z
#    x 1.826450 0.000000 0.013020 
#    y 0.000000 1.837900 0.000000 
#    z 0.013020 0.000000 1.850300 
# 
# From -- ./inp_files/47268.got.cif
#   From: 2010.06.25/outbox.cif.g09.slc.cpg/sg13_24_cif.got.tgz:47268.got - 2010.06.28 04:50:58.
