data_PCOD8119264
_publ_section_title
;
Structure prediction by ZEFSAII (Michael W. Deem and Ramdas Pophale) SiO2 
 PCOD8119264
Probable space group: P 2/C
;
_chemical_formula_sum "Si O2"
_cell_formula_units_Z 16
_cell_length_a 7.708283
_cell_length_b 15.631213
_cell_length_c 8.661529
_cell_angle_alpha 90.000000
_cell_angle_beta 49.346792
_cell_angle_gamma 90.000000
_cell_volume 791.764236
_symmetry_space_group_name_H-M "P 2/C"
_symmetry_group_IT_number 13
_symmetry_cell_setting 'monoclinic'
loop_
_space_group_symop_operation_xyz
x,y,z
-x,y,1/2-z
-x,-y,-z
x,-y,1/2+z
loop_
_atom_site_type_symbol
_atom_site_label
_atom_site_fract_x
_atom_site_fract_y
_atom_site_fract_z
Si Si1 0.190709 0.607992 0.846210
Si Si2 0.500000 0.968376 0.250000
Si Si3 0.269616 0.105074 0.592105
Si Si4 0.500000 0.240880 0.250000
Si Si5 0.286955 0.553758 0.467211
O O1 0.286158 0.702189 0.819333
O O2 0.327729 0.563069 0.625898
O O3 0.235250 0.546533 0.966562
O O4 0.923324 0.613922 0.963666
O O5 0.646936 0.910209 0.281299
O O6 0.319902 0.024049 0.453132
O O7 0.411840 0.185182 0.444394
O O8 0.000000 0.124044 0.750000
O O9 0.500000 0.590050 0.250000
#
# Coordination Sequence:
#
# PCOD8119264 Si02
#       5
#     4   2   4   2   4
#     4  10  22  38  56  83 114 152 208 261 290 361
#     4   9  20  42  70  93 120 154 214 229 278 390
#     4  10  21  41  66  95 123 164 191 245 303 359
#     4  11  24  40  52  91 134 146 196 259 308 348
#     4  10  20  38  60  78 104 160 214 248 302 348
#
# _framework density 20.208037000000001
#
# number of rings (size 3 to 8) (size 9 to 14) (size 15 to 20)
#    0.000    2.000    1.250    1.500    0.000    2.000 
#   15.750    0.000    0.000    0.000    0.000    0.000 
#    0.000    0.000    0.000    0.000    0.000    0.000 
#
# Total GULP energy -198436.935317 kJ/mol
# GULP energy per Si atom -12402.308457 kJ/mol
# Density = 2.016204 g / cm^3
# Si number density = 20.208037 Si / 1000 Ang^3
#
#
#
# Elastic Constant Matrix: (Units=GPa)
#
#
# Indices 1 2 3 4 5 6 
#
# 1 95.0747 54.7311 44.2946 0.0000 5.4494 0.0000
# 2 54.7311 114.6915 39.1556 0.0000 6.0826 0.0000
# 3 44.2946 39.1556 107.4339 0.0000 -3.8562 0.0000
# 4 0.0000 0.0000 0.0000 23.9936 0.0000 -7.0722
# 5 5.4494 6.0826 -3.8562 0.0000 47.1433 0.0000
# 6 0.0000 0.0000 0.0000 -7.0722 0.0000 26.6142
#
#
#
# Elastic Compliance Matrix: (Units=1/GPa)
#
#
# Indices 1 2 3 4 5 6 
#
# 1 0.016231 -0.006128 -0.004511 0.000000 -0.001454 0.000000
# 2 -0.006128 0.012392 -0.002028 0.000000 -0.001056 0.000000
# 3 -0.004511 -0.002028 0.011970 0.000000 0.001762 0.000000
# 4 0.000000 0.000000 0.000000 0.045220 0.000000 0.012016
# 5 -0.001454 -0.001056 0.001762 0.000000 0.021660 0.000000
# 6 0.000000 0.000000 0.000000 0.012016 0.000000 0.040767
#
#
# Mechanical properties :
#
#
# Convention : Reuss Voigt Hill
#
# Bulk Modulus (GPa) = 65.53260 65.95141 65.74200
# Shear Modulus (GPa) = 27.98635 31.48482 29.73559
#
# Velocity S-wave (km/s) = 3.72548 3.95148 3.84014
# Velocity P-wave (km/s) = 7.14178 7.31614 7.22949
#
# Compressibility (1/GPa) = 0.01525958
#
# Stress axis : x y z
#
# Youngs Moduli (GPa) = 61.61177 80.69910 83.54275
#
# Poissons Ratio (x) = 0.49455 0.37682
# Poissons Ratio (y) = 0.37758 0.16939
# Poissons Ratio (z) = 0.27790 0.16362
#
# Static dielectric constant tensor:
#      x y z
#    x 3.778830 0.000000 0.004910 
#    y 0.000000 3.386810 0.000000 
#    z 0.004910 0.000000 3.886660 
# 
# 
# High freq. dielectric constant tensor:
#      x y z
#    x 1.802330 0.000000 -0.002320 
#    y 0.000000 1.760720 0.000000 
#    z -0.002320 0.000000 1.804280 
# 
# From -- ./inp_files/12110.got.cif
#   From: 2010.06.25/outbox.cif.g09.slc.cpg/sg13_7_cif.got.tgz:12110.got - 2010.06.28 04:50:58.
