data_PCOD8119638
_publ_section_title
;
Structure prediction by ZEFSAII (Michael W. Deem and Ramdas Pophale) SiO2 
 PCOD8119638
Probable space group: P 2/C
;
_chemical_formula_sum "Si O2"
_cell_formula_units_Z 30
_cell_length_a 14.404061
_cell_length_b 14.656055
_cell_length_c 20.283105
_cell_angle_alpha 90.000000
_cell_angle_beta 20.442104
_cell_angle_gamma 90.000000
_cell_volume 1495.499318
_symmetry_space_group_name_H-M "P 2/C"
_symmetry_group_IT_number 13
_symmetry_cell_setting 'monoclinic'
loop_
_space_group_symop_operation_xyz
x,y,z
-x,y,1/2-z
-x,-y,-z
x,-y,1/2+z
loop_
_atom_site_type_symbol
_atom_site_label
_atom_site_fract_x
_atom_site_fract_y
_atom_site_fract_z
Si Si1 0.400860 0.908063 0.204325
Si Si2 0.609488 0.098046 0.043932
Si Si3 0.833891 0.760815 0.923773
Si Si4 0.500000 0.424887 0.250000
Si Si5 0.516790 0.401143 0.665358
Si Si6 0.114700 0.842689 0.274021
Si Si7 0.022776 0.167877 0.433781
Si Si8 0.039478 0.682891 0.413477
O O1 0.212568 0.910886 0.265514
O O2 0.206578 0.908685 0.398300
O O3 0.614245 0.989165 0.054333
O O4 0.553655 0.812100 0.106520
O O5 0.308728 0.125412 0.254677
O O6 0.711663 0.132213 0.905198
O O7 0.801805 0.141086 0.970514
O O8 0.000000 0.787888 0.750000
O O9 0.002820 0.792389 0.874072
O O10 0.768111 0.652162 0.966509
O O11 0.442437 0.489829 0.352394
O O12 0.241019 0.364608 0.412580
O O13 0.500000 0.355641 0.750000
O O14 0.257537 0.390685 0.791515
O O15 0.138947 0.736786 0.281394
O O16 0.994025 0.247296 0.505234
#
# Coordination Sequence:
#
# PCOD8119638 Si02
#       8
#     4   4   4   2   4   4   4   4
#     4  11  23  40  60  87 124 168 221 265 304 364
#     4  11  24  38  58  92 127 170 212 260 312 362
#     4  12  23  39  65  89 125 169 208 262 333 380
#     4  10  22  36  74  98 122 160 214 264 322 384
#     4  10  20  40  64  95 125 153 208 268 310 386
#     4  10  23  40  60  87 134 165 210 257 312 386
#     4  11  22  39  62  91 124 165 217 266 306 376
#     4  11  20  41  66  92 127 166 209 255 327 378
#
# _framework density 20.060189000000001
#
# number of rings (size 3 to 8) (size 9 to 14) (size 15 to 20)
#    0.400    0.800    4.000    3.200    3.733    1.600 
#    4.800    0.000    5.867    1.600    0.000    0.000 
#    0.000    0.000    0.000    0.000    0.000    0.000 
#
# Total GULP energy -371816.971400 kJ/mol
# GULP energy per Si atom -12393.899047 kJ/mol
# Density = 2.001453 g / cm^3
# Si number density = 20.060189 Si / 1000 Ang^3
#
#
#
# Elastic Constant Matrix: (Units=GPa)
#
#
# Indices 1 2 3 4 5 6 
#
# 1 82.0818 33.1965 28.0488 0.0000 -8.2550 0.0000
# 2 33.1965 71.3915 20.2019 0.0000 2.9785 0.0000
# 3 28.0488 20.2019 92.7331 0.0000 -4.8725 0.0000
# 4 0.0000 0.0000 0.0000 32.6911 0.0000 -1.9215
# 5 -8.2550 2.9785 -4.8725 0.0000 32.6684 0.0000
# 6 0.0000 0.0000 0.0000 -1.9215 0.0000 16.4235
#
#
#
# Elastic Compliance Matrix: (Units=1/GPa)
#
#
# Indices 1 2 3 4 5 6 
#
# 1 0.016544 -0.006950 -0.003263 0.000000 0.004328 0.000000
# 2 -0.006950 0.017960 -0.002004 0.000000 -0.003693 0.000000
# 3 -0.003263 -0.002004 0.012270 0.000000 0.001188 0.000000
# 4 0.000000 0.000000 0.000000 0.030801 0.000000 0.003604
# 5 0.004328 -0.003693 0.001188 0.000000 0.032218 0.000000
# 6 0.000000 0.000000 0.000000 0.003604 0.000000 0.061310
#
#
# Mechanical properties :
#
#
# Convention : Reuss Voigt Hill
#
# Bulk Modulus (GPa) = 44.76378 45.45564 45.10971
# Shear Modulus (GPa) = 24.63250 27.34054 25.98652
#
# Velocity S-wave (km/s) = 3.50798 3.69579 3.60311
# Velocity P-wave (km/s) = 6.22665 6.39692 6.31236
#
# Compressibility (1/GPa) = 0.02233949
#
# Stress axis : x y z
#
# Youngs Moduli (GPa) = 60.44511 55.67828 81.50253
#
# Poissons Ratio (x) = 0.38697 0.26591
# Poissons Ratio (y) = 0.42010 0.16337
# Poissons Ratio (z) = 0.19720 0.11161
#
# Static dielectric constant tensor:
#      x y z
#    x 3.859230 0.000000 -0.161610 
#    y 0.000000 3.616010 0.000000 
#    z -0.161610 0.000000 3.608850 
# 
# 
# High freq. dielectric constant tensor:
#      x y z
#    x 1.793300 0.000000 -0.018220 
#    y 0.000000 1.770240 0.000000 
#    z -0.018220 0.000000 1.780340 
# 
# From -- ./inp_files/80287.got.cif
#   From: 2010.06.25/outbox.cif.g09.slc.cpg/sg13_41_cif.got.tgz:80287.got - 2010.06.28 04:50:58.
