data_PCOD8119366
_publ_section_title
;
Structure prediction by ZEFSAII (Michael W. Deem and Ramdas Pophale) SiO2 
 PCOD8119366
Probable space group: P 2/C
;
_chemical_formula_sum "Si O2"
_cell_formula_units_Z 22
_cell_length_a 27.812322
_cell_length_b 6.285650
_cell_length_c 17.068054
_cell_angle_alpha 90.000000
_cell_angle_beta 23.198898
_cell_angle_gamma 90.000000
_cell_volume 1175.395837
_symmetry_space_group_name_H-M "P 2/C"
_symmetry_group_IT_number 13
_symmetry_cell_setting 'monoclinic'
loop_
_space_group_symop_operation_xyz
x,y,z
-x,y,1/2-z
-x,-y,-z
x,-y,1/2+z
loop_
_atom_site_type_symbol
_atom_site_label
_atom_site_fract_x
_atom_site_fract_y
_atom_site_fract_z
Si Si1 0.931411 0.699681 0.066405
Si Si2 0.777191 0.424904 0.657942
Si Si3 0.330500 0.083392 0.800190
Si Si4 0.000000 0.675821 0.250000
Si Si5 0.898913 0.030282 0.763903
Si Si6 0.436045 0.306242 0.054059
O O1 0.817129 0.636060 0.184953
O O2 0.878441 0.840673 0.215266
O O3 0.000000 0.500000 0.000000
O O4 0.019292 0.825907 0.876011
O O5 0.723411 0.223735 0.690843
O O6 0.672194 0.597564 0.836190
O O7 0.886931 0.527650 0.443377
O O8 0.452799 0.185585 0.656356
O O9 0.368095 0.850379 0.715703
O O10 0.231442 0.059266 0.015778
O O11 0.037127 0.825357 0.266471
O O12 0.500000 0.500000 0.000000
#
# Coordination Sequence:
#
# PCOD8119366 Si02
#       6
#     4   4   4   2   4   4
#     4  11  24  39  56  89 131 163 189 246 321 368
#     4  11  21  36  61  90 124 155 202 254 306 364
#     4  10  20  38  63  89 116 158 212 253 295 354
#     4  12  20  36  62  96 116 154 208 254 304 368
#     4  11  23  37  59  90 124 159 203 248 304 373
#     4   9  20  36  62  90 115 153 207 261 298 344
#
# _framework density 18.717099999999999
#
# number of rings (size 3 to 8) (size 9 to 14) (size 15 to 20)
#    0.000    1.455    3.636    2.182    0.000    0.000 
#    0.000    0.000    0.000   26.182    0.000    0.000 
#    0.000    0.000    0.000    0.000    0.000    0.000 
#
# Total GULP energy -272671.857524 kJ/mol
# GULP energy per Si atom -12394.175342 kJ/mol
# Density = 1.867450 g / cm^3
# Si number density = 18.717100 Si / 1000 Ang^3
#
#
#
# Elastic Constant Matrix: (Units=GPa)
#
#
# Indices 1 2 3 4 5 6 
#
# 1 98.5537 50.4253 71.6139 0.0000 -12.2337 0.0000
# 2 50.4253 111.2714 51.7028 0.0000 -11.0445 0.0000
# 3 71.6139 51.7028 125.8080 0.0000 -14.4017 0.0000
# 4 0.0000 0.0000 0.0000 38.1052 0.0000 -8.4914
# 5 -12.2337 -11.0445 -14.4017 0.0000 27.0865 0.0000
# 6 0.0000 0.0000 0.0000 -8.4914 0.0000 34.6596
#
#
#
# Elastic Compliance Matrix: (Units=1/GPa)
#
#
# Indices 1 2 3 4 5 6 
#
# 1 0.019022 -0.004314 -0.008809 0.000000 0.002149 0.000000
# 2 -0.004314 0.012215 -0.002361 0.000000 0.001777 0.000000
# 3 -0.008809 -0.002361 0.014234 0.000000 0.002627 0.000000
# 4 0.000000 0.000000 0.000000 0.027759 0.000000 0.006801
# 5 0.002149 0.001777 0.002627 0.000000 0.040010 0.000000
# 6 0.000000 0.000000 0.000000 0.006801 0.000000 0.030518
#
#
# Mechanical properties :
#
#
# Convention : Reuss Voigt Hill
#
# Bulk Modulus (GPa) = 68.94964 75.90191 72.42577
# Shear Modulus (GPa) = 27.84577 30.76300 29.30438
#
# Velocity S-wave (km/s) = 3.86128 4.05850 3.96112
# Velocity P-wave (km/s) = 7.53638 7.91215 7.72655
#
# Compressibility (1/GPa) = 0.01450334
#
# Stress axis : x y z
#
# Youngs Moduli (GPa) = 52.57177 81.86372 70.25418
#
# Poissons Ratio (x) = 0.35314 0.61887
# Poissons Ratio (y) = 0.22678 0.16588
# Poissons Ratio (z) = 0.46310 0.19330
#
# Static dielectric constant tensor:
#      x y z
#    x 3.385290 0.000000 -0.316490 
#    y 0.000000 3.940140 0.000000 
#    z -0.316490 0.000000 3.857390 
# 
# 
# High freq. dielectric constant tensor:
#      x y z
#    x 1.703590 0.000000 -0.019560 
#    y 0.000000 1.754890 0.000000 
#    z -0.019560 0.000000 1.736080 
# 
# From -- ./inp_files/52355.got.cif
#   From: 2010.06.25/outbox.cif.g09.slc.cpg/sg13_27_cif.got.tgz:52355.got - 2010.06.28 04:50:58.
