data_PCOD8119496
_publ_section_title
;
Structure prediction by ZEFSAII (Michael W. Deem and Ramdas Pophale) SiO2 
 PCOD8119496
Probable space group: P 2/C
;
_chemical_formula_sum "Si O2"
_cell_formula_units_Z 22
_cell_length_a 10.514687
_cell_length_b 6.942939
_cell_length_c 14.637115
_cell_angle_alpha 90.000000
_cell_angle_beta 79.342268
_cell_angle_gamma 90.000000
_cell_volume 1050.117787
_symmetry_space_group_name_H-M "P 2/C"
_symmetry_group_IT_number 13
_symmetry_cell_setting 'monoclinic'
loop_
_space_group_symop_operation_xyz
x,y,z
-x,y,1/2-z
-x,-y,-z
x,-y,1/2+z
loop_
_atom_site_type_symbol
_atom_site_label
_atom_site_fract_x
_atom_site_fract_y
_atom_site_fract_z
Si Si1 0.675406 0.816086 0.038891
Si Si2 0.000000 0.557357 0.750000
Si Si3 0.483932 0.453679 0.650686
Si Si4 0.115116 0.473408 0.915478
Si Si5 0.264532 0.278066 0.165902
Si Si6 0.319541 0.212646 0.357863
O O1 0.540415 0.699853 0.070970
O O2 0.792269 0.699770 0.069045
O O3 0.665786 0.020943 0.086695
O O4 0.700744 0.846588 0.928031
O O5 0.939168 0.424676 0.678466
O O6 0.889428 0.691260 0.809844
O O7 0.500000 0.363874 0.750000
O O8 0.334538 0.509607 0.649562
O O9 0.558538 0.656164 0.634515
O O10 0.188921 0.676788 0.902933
O O11 0.000000 0.500000 0.000000
O O12 0.315108 0.167249 0.249630
#
# Coordination Sequence:
#
# PCOD8119496 Si02
#       6
#     4   2   4   4   4   4
#     4  11  21  39  65  91 115 161 204 246 304 366
#     4  10  20  40  60  86 124 156 196 254 292 348
#     4   9  20  39  62  88 121 158 197 247 305 359
#     4  10  20  40  61  85 119 160 199 246 299 359
#     4  10  20  39  62  86 125 162 195 249 305 351
#     4   9  22  39  57  90 123 150 201 256 296 348
#
# _framework density 20.950030999999999
#
# number of rings (size 3 to 8) (size 9 to 14) (size 15 to 20)
#    0.000    2.182    1.818    1.636    0.000    3.636 
#    3.273    4.545    0.000    0.000    0.000    0.000 
#    0.000    0.000    0.000    0.000    0.000    0.000 
#
# Total GULP energy -272781.181323 kJ/mol
# GULP energy per Si atom -12399.144606 kJ/mol
# Density = 2.090235 g / cm^3
# Si number density = 20.950031 Si / 1000 Ang^3
#
#
#
# Elastic Constant Matrix: (Units=GPa)
#
#
# Indices 1 2 3 4 5 6 
#
# 1 93.4236 26.9862 30.7984 0.0000 -17.8087 0.0000
# 2 26.9862 90.9188 51.8564 0.0000 -4.4084 0.0000
# 3 30.7984 51.8564 155.1721 0.0000 -12.4294 0.0000
# 4 0.0000 0.0000 0.0000 26.9656 0.0000 3.2372
# 5 -17.8087 -4.4084 -12.4294 0.0000 38.6222 0.0000
# 6 0.0000 0.0000 0.0000 3.2372 0.0000 8.4037
#
#
#
# Elastic Compliance Matrix: (Units=1/GPa)
#
#
# Indices 1 2 3 4 5 6 
#
# 1 0.012934 -0.002916 -0.001172 0.000000 0.005254 0.000000
# 2 -0.002916 0.014247 -0.004270 0.000000 -0.001093 0.000000
# 3 -0.001172 -0.004270 0.008234 0.000000 0.001622 0.000000
# 4 0.000000 0.000000 0.000000 0.038882 0.000000 -0.014978
# 5 0.005254 -0.001093 0.001622 0.000000 0.028712 0.000000
# 6 0.000000 0.000000 0.000000 -0.014978 0.000000 0.124765
#
#
# Mechanical properties :
#
#
# Convention : Reuss Voigt Hill
#
# Bulk Modulus (GPa) = 53.47741 62.08852 57.78296
# Shear Modulus (GPa) = 19.94239 30.12318 25.03279
#
# Velocity S-wave (km/s) = 3.08864 3.79602 3.46045
# Velocity P-wave (km/s) = 6.18879 6.99385 6.60360
#
# Compressibility (1/GPa) = 0.01869949
#
# Stress axis : x y z
#
# Youngs Moduli (GPa) = 77.31531 70.19181 121.44932
#
# Poissons Ratio (x) = 0.20467 0.14232
# Poissons Ratio (y) = 0.22545 0.51857
# Poissons Ratio (z) = 0.09060 0.29971
#
# Static dielectric constant tensor:
#      x y z
#    x 4.075860 0.000000 -0.119130 
#    y 0.000000 3.291070 0.000000 
#    z -0.119130 0.000000 4.122780 
# 
# 
# High freq. dielectric constant tensor:
#      x y z
#    x 1.834800 0.000000 -0.007950 
#    y 0.000000 1.768780 0.000000 
#    z -0.007950 0.000000 1.845230 
# 
# From -- ./inp_files/48865.got.cif
#   From: 2010.06.25/outbox.cif.g09.slc.cpg/sg13_25_cif.got.tgz:48865.got - 2010.06.28 04:50:58.
