data_PCOD8119326
_publ_section_title
;
Structure prediction by ZEFSAII (Michael W. Deem and Ramdas Pophale) SiO2 
 PCOD8119326
Probable space group: P 2/C
;
_chemical_formula_sum "Si O2"
_cell_formula_units_Z 28
_cell_length_a 15.086123
_cell_length_b 5.413190
_cell_length_c 18.113724
_cell_angle_alpha 90.000000
_cell_angle_beta 60.335154
_cell_angle_gamma 90.000000
_cell_volume 1285.363971
_symmetry_space_group_name_H-M "P 2/C"
_symmetry_group_IT_number 13
_symmetry_cell_setting 'monoclinic'
loop_
_space_group_symop_operation_xyz
x,y,z
-x,y,1/2-z
-x,-y,-z
x,-y,1/2+z
loop_
_atom_site_type_symbol
_atom_site_label
_atom_site_fract_x
_atom_site_fract_y
_atom_site_fract_z
Si Si1 0.765086 0.339092 0.227600
Si Si2 0.072706 0.332896 0.920869
Si Si3 0.774005 0.971202 0.584925
Si Si4 0.883276 0.236973 0.913520
Si Si5 0.533792 0.578014 0.821205
Si Si6 0.884257 0.743498 0.823848
Si Si7 0.450956 0.082661 0.851130
O O1 0.841285 0.532958 0.160965
O O2 0.753873 0.110691 0.176771
O O3 0.654018 0.456482 0.282609
O O4 0.806872 0.246936 0.287878
O O5 0.001018 0.201881 0.889786
O O6 0.127868 0.150722 0.955309
O O7 0.000000 0.500000 0.000000
O O8 0.807440 0.749730 0.515955
O O9 0.671206 0.097228 0.599035
O O10 0.866374 0.490300 0.876163
O O11 0.855174 0.989407 0.880648
O O12 0.500000 0.588386 0.750000
O O13 0.485264 0.333384 0.879286
O O14 0.491038 0.832629 0.875565
O O15 0.000000 0.754987 0.750000
O O16 0.500000 0.089937 0.750000
#
# Coordination Sequence:
#
# PCOD8119326 Si02
#       7
#     4   4   4   4   4   4   4
#     4  12  25  41  74 100 135 184 239 287 343 412
#     4  12  24  41  65 105 138 176 234 295 340 413
#     4  12  25  41  73 103 135 180 233 294 355 400
#     4  12  27  46  64  98 147 184 223 285 351 414
#     4  10  20  38  62 103 128 162 221 297 337 386
#     4  12  27  47  65  95 143 195 228 273 338 427
#     4  10  20  38  63 100 133 159 217 292 345 393
#
# _framework density 21.783712000000001
#
# number of rings (size 3 to 8) (size 9 to 14) (size 15 to 20)
#    0.000    0.571    5.714    4.286    2.000    0.000 
#    0.000    0.000    0.000    5.143    0.000    0.000 
#    0.000    0.000    0.000    0.000    0.000    0.000 
#
# Total GULP energy -347133.233328 kJ/mol
# GULP energy per Si atom -12397.615476 kJ/mol
# Density = 2.173413 g / cm^3
# Si number density = 21.783712 Si / 1000 Ang^3
#
#
#
# Elastic Constant Matrix: (Units=GPa)
#
#
# Indices 1 2 3 4 5 6 
#
# 1 164.5941 52.3509 51.5364 0.0000 -13.8688 0.0000
# 2 52.3509 174.0114 39.2747 0.0000 -0.6821 0.0000
# 3 51.5364 39.2747 55.0351 0.0000 8.7471 0.0000
# 4 0.0000 0.0000 0.0000 46.5581 0.0000 -20.0797
# 5 -13.8688 -0.6821 8.7471 0.0000 16.3771 0.0000
# 6 0.0000 0.0000 0.0000 -20.0797 0.0000 42.8635
#
#
#
# Elastic Compliance Matrix: (Units=1/GPa)
#
#
# Indices 1 2 3 4 5 6 
#
# 1 0.011953 -0.000450 -0.013635 0.000000 0.017386 0.000000
# 2 -0.000450 0.007021 -0.004998 0.000000 0.002581 0.000000
# 3 -0.013635 -0.004998 0.039748 0.000000 -0.032984 0.000000
# 4 0.000000 0.000000 0.000000 0.026917 0.000000 0.012609
# 5 0.017386 0.002581 -0.032984 0.000000 0.093509 0.000000
# 6 0.000000 0.000000 0.000000 0.012609 0.000000 0.029237
#
#
# Mechanical properties :
#
#
# Convention : Reuss Voigt Hill
#
# Bulk Modulus (GPa) = 48.65291 75.55161 62.10226
# Shear Modulus (GPa) = 19.73146 37.85833 28.79489
#
# Velocity S-wave (km/s) = 3.01290 4.17336 3.63968
# Velocity P-wave (km/s) = 5.87252 7.61449 6.79952
#
# Compressibility (1/GPa) = 0.02055375
#
# Stress axis : x y z
#
# Youngs Moduli (GPa) = 83.66055 142.43938 25.15857
#
# Poissons Ratio (x) = 0.06416 0.34304
# Poissons Ratio (y) = 0.03769 0.12575
# Poissons Ratio (z) = 1.14071 0.71197
#
# Static dielectric constant tensor:
#      x y z
#    x 4.201040 0.000000 0.086280 
#    y 0.000000 4.946220 0.000000 
#    z 0.086280 0.000000 3.747180 
# 
# 
# High freq. dielectric constant tensor:
#      x y z
#    x 1.860610 0.000000 -0.019530 
#    y 0.000000 1.873690 0.000000 
#    z -0.019530 0.000000 1.824310 
# 
# From -- ./inp_files/67494.got.cif
#   From: 2010.06.25/outbox.cif.g09.slc.cpg/sg13_34_cif.got.tgz:67494.got - 2010.06.28 04:50:58.
