data_PCOD8119381
_publ_section_title
;
Structure prediction by ZEFSAII (Michael W. Deem and Ramdas Pophale) SiO2 
 PCOD8119381
Probable space group: P 2/C
;
_chemical_formula_sum "Si O2"
_cell_formula_units_Z 24
_cell_length_a 8.360600
_cell_length_b 10.910029
_cell_length_c 23.914507
_cell_angle_alpha 90.000000
_cell_angle_beta 30.567315
_cell_angle_gamma 90.000000
_cell_volume 1109.324767
_symmetry_space_group_name_H-M "P 2/C"
_symmetry_group_IT_number 13
_symmetry_cell_setting 'monoclinic'
loop_
_space_group_symop_operation_xyz
x,y,z
-x,y,1/2-z
-x,-y,-z
x,-y,1/2+z
loop_
_atom_site_type_symbol
_atom_site_label
_atom_site_fract_x
_atom_site_fract_y
_atom_site_fract_z
Si Si1 0.806944 0.157183 0.752918
Si Si2 0.387771 0.783081 0.011510
Si Si3 0.366172 0.327145 0.348977
Si Si4 0.627112 0.448667 0.371339
Si Si5 0.358733 0.706062 0.454256
Si Si6 0.328587 0.887030 0.675534
O O1 0.496187 0.239511 0.854542
O O2 0.000000 0.186422 0.750000
O O3 0.014312 0.200491 0.637431
O O4 0.710117 0.014846 0.780666
O O5 0.590956 0.798219 0.007721
O O6 0.479508 0.652636 0.956932
O O7 0.456731 0.891032 0.945453
O O8 0.500000 0.367808 0.250000
O O9 0.448784 0.436858 0.365912
O O10 0.529482 0.202846 0.321130
O O11 0.998798 0.312326 0.452542
O O12 0.539230 0.582924 0.419918
O O13 0.000000 0.433321 0.250000
O O14 0.000000 0.835673 0.750000
#
# Coordination Sequence:
#
# PCOD8119381 Si02
#       6
#     4   4   4   4   4   4
#     4   9  21  37  59  88 119 155 201 252 297 355
#     4  10  20  38  64  88 115 159 204 247 298 356
#     4  11  23  38  59  87 119 157 201 250 303 355
#     4  11  22  40  63  88 120 160 205 245 296 363
#     4  11  22  38  59  91 123 153 199 252 303 350
#     4  10  21  39  60  85 116 158 205 246 296 360
#
# _framework density 21.634781
#
# number of rings (size 3 to 8) (size 9 to 14) (size 15 to 20)
#    0.000    1.667    0.000    6.500    0.000    9.333 
#    0.000    5.000    0.000    0.000    0.000    0.000 
#    0.000    0.000    0.000    0.000    0.000    0.000 
#
# Total GULP energy -297438.169891 kJ/mol
# GULP energy per Si atom -12393.257079 kJ/mol
# Density = 2.158554 g / cm^3
# Si number density = 21.634781 Si / 1000 Ang^3
#
#
#
# Elastic Constant Matrix: (Units=GPa)
#
#
# Indices 1 2 3 4 5 6 
#
# 1 65.3947 -1.2760 15.7675 0.0000 8.0795 0.0000
# 2 -1.2760 83.7160 19.9612 0.0000 -2.4503 0.0000
# 3 15.7675 19.9612 107.6413 0.0000 12.4514 0.0000
# 4 0.0000 0.0000 0.0000 42.2498 0.0000 -0.7717
# 5 8.0795 -2.4503 12.4514 0.0000 32.6948 0.0000
# 6 0.0000 0.0000 0.0000 -0.7717 0.0000 9.3216
#
#
#
# Elastic Compliance Matrix: (Units=1/GPa)
#
#
# Indices 1 2 3 4 5 6 
#
# 1 0.016207 0.000664 -0.002134 0.000000 -0.003143 0.000000
# 2 0.000664 0.012639 -0.002648 0.000000 0.001792 0.000000
# 3 -0.002134 -0.002648 0.010519 0.000000 -0.003677 0.000000
# 4 0.000000 0.000000 0.000000 0.023705 0.000000 0.001963
# 5 -0.003143 0.001792 -0.003677 0.000000 0.032897 0.000000
# 6 0.000000 0.000000 0.000000 0.001963 0.000000 0.107440
#
#
# Mechanical properties :
#
#
# Convention : Reuss Voigt Hill
#
# Bulk Modulus (GPa) = 32.12397 36.18415 34.15406
# Shear Modulus (GPa) = 22.52044 31.67320 27.09682
#
# Velocity S-wave (km/s) = 3.22986 3.83037 3.54286
# Velocity P-wave (km/s) = 5.36562 6.02691 5.70585
#
# Compressibility (1/GPa) = 0.03112940
#
# Stress axis : x y z
#
# Youngs Moduli (GPa) = 61.69997 79.11908 95.06479
#
# Poissons Ratio (x) = -0.05252 0.20283
# Poissons Ratio (y) = -0.04096 0.25176
# Poissons Ratio (z) = 0.13165 0.20953
#
# Static dielectric constant tensor:
#      x y z
#    x 3.753030 0.000000 0.127700 
#    y 0.000000 3.844270 0.000000 
#    z 0.127700 0.000000 4.444780 
# 
# 
# High freq. dielectric constant tensor:
#      x y z
#    x 1.829580 0.000000 0.005550 
#    y 0.000000 1.843840 0.000000 
#    z 0.005550 0.000000 1.871440 
# 
# From -- ./inp_files/29327.got.cif
#   From: 2010.06.25/outbox.cif.g09.slc.cpg/sg13_15_cif.got.tgz:29327.got - 2010.06.28 04:50:58.
