data_PCOD8119750
_publ_section_title
;
Structure prediction by ZEFSAII (Michael W. Deem and Ramdas Pophale) SiO2 
 PCOD8119750
Probable space group: P 2/C
;
_chemical_formula_sum "Si O2"
_cell_formula_units_Z 22
_cell_length_a 7.159958
_cell_length_b 6.697349
_cell_length_c 18.178510
_cell_angle_alpha 90.000000
_cell_angle_beta 67.967143
_cell_angle_gamma 90.000000
_cell_volume 808.047410
_symmetry_space_group_name_H-M "P 2/C"
_symmetry_group_IT_number 13
_symmetry_cell_setting 'monoclinic'
loop_
_space_group_symop_operation_xyz
x,y,z
-x,y,1/2-z
-x,-y,-z
x,-y,1/2+z
loop_
_atom_site_type_symbol
_atom_site_label
_atom_site_fract_x
_atom_site_fract_y
_atom_site_fract_z
Si Si1 0.406863 0.651206 0.412187
Si Si2 0.687486 0.863707 0.812504
Si Si3 0.287301 0.906168 0.945606
Si Si4 0.798271 0.408952 0.939576
Si Si5 0.057348 0.745121 0.849371
Si Si6 0.500000 0.214405 0.750000
O O1 0.245197 0.509474 0.474152
O O2 0.627439 0.572330 0.402992
O O3 0.381359 0.648904 0.326982
O O4 0.358308 0.870500 0.451674
O O5 0.513591 0.786920 0.615563
O O6 0.871817 0.870155 0.842343
O O7 0.755907 0.720236 0.735039
O O8 0.647191 0.080439 0.780101
O O9 0.115874 0.884656 0.909388
O O10 0.193680 0.822096 0.036165
O O11 0.996403 0.516596 0.879026
#
# Coordination Sequence:
#
# PCOD8119750 Si02
#       6
#     4   4   4   4   4   2
#     4  10  22  44  70 102 141 191 246 302 363 442
#     4  10  20  41  71 101 137 189 242 305 361 426
#     4  11  22  46  75  94 143 202 241 291 372 451
#     4  11  24  42  68 110 147 186 240 307 379 438
#     4  11  22  40  70 107 142 179 249 307 363 429
#     4  10  20  46  72 100 136 198 254 286 362 458
#
# _framework density 27.226123000000001
#
# number of rings (size 3 to 8) (size 9 to 14) (size 15 to 20)
#    0.000    1.455    3.636    3.273    0.000    2.182 
#    9.818    3.636    0.000    0.000    0.000    0.000 
#    0.000    0.000    0.000    0.000    0.000    0.000 
#
# Total GULP energy -272602.889006 kJ/mol
# GULP energy per Si atom -12391.040409 kJ/mol
# Density = 2.716416 g / cm^3
# Si number density = 27.226123 Si / 1000 Ang^3
#
#
#
# Elastic Constant Matrix: (Units=GPa)
#
#
# Indices 1 2 3 4 5 6 
#
# 1 91.8926 15.8717 2.3507 0.0000 4.3522 0.0000
# 2 15.8717 61.6578 26.4599 0.0000 -6.8611 0.0000
# 3 2.3507 26.4599 83.5422 0.0000 4.4467 0.0000
# 4 0.0000 0.0000 0.0000 43.5684 0.0000 10.5221
# 5 4.3522 -6.8611 4.4467 0.0000 39.3317 0.0000
# 6 0.0000 0.0000 0.0000 10.5221 0.0000 34.7910
#
#
#
# Elastic Compliance Matrix: (Units=1/GPa)
#
#
# Indices 1 2 3 4 5 6 
#
# 1 0.011576 -0.003599 0.000921 0.000000 -0.002013 0.000000
# 2 -0.003599 0.020526 -0.006652 0.000000 0.004731 0.000000
# 3 0.000921 -0.006652 0.014203 0.000000 -0.002868 0.000000
# 4 0.000000 0.000000 0.000000 0.024761 0.000000 -0.007489
# 5 -0.002013 0.004731 -0.002868 0.000000 0.026797 0.000000
# 6 0.000000 0.000000 0.000000 -0.007489 0.000000 0.031008
#
#
# Mechanical properties :
#
#
# Convention : Reuss Voigt Hill
#
# Bulk Modulus (GPa) = 36.17122 36.27303 36.22213
# Shear Modulus (GPa) = 31.89889 36.36556 34.13223
#
# Velocity S-wave (km/s) = 3.42662 3.65867 3.54454
# Velocity P-wave (km/s) = 5.38237 5.58566 5.48496
#
# Compressibility (1/GPa) = 0.02764629
#
# Stress axis : x y z
#
# Youngs Moduli (GPa) = 86.38798 48.71880 70.40538
#
# Poissons Ratio (x) = 0.17535 -0.06487
# Poissons Ratio (y) = 0.31092 0.46831
# Poissons Ratio (z) = -0.07959 0.32406
#
# Static dielectric constant tensor:
#      x y z
#    x 4.830890 0.000000 -0.065520 
#    y 0.000000 4.818040 0.000000 
#    z -0.065520 0.000000 5.330950 
# 
# 
# High freq. dielectric constant tensor:
#      x y z
#    x 2.090070 0.000000 0.010420 
#    y 0.000000 2.083600 0.000000 
#    z 0.010420 0.000000 2.106440 
# 
# From -- ./inp_files/74489.got.cif
#   From: 2010.06.25/outbox.cif.g09.slc.cpg/sg13_38_cif.got.tgz:74489.got - 2010.06.28 04:50:58.
