data_PCOD8119748
_publ_section_title
;
Structure prediction by ZEFSAII (Michael W. Deem and Ramdas Pophale) SiO2 
 PCOD8119748
Probable space group: P 2/C
;
_chemical_formula_sum "Si O2"
_cell_formula_units_Z 22
_cell_length_a 11.606158
_cell_length_b 11.764125
_cell_length_c 14.068052
_cell_angle_alpha 90.000000
_cell_angle_beta 32.057410
_cell_angle_gamma 90.000000
_cell_volume 1019.500418
_symmetry_space_group_name_H-M "P 2/C"
_symmetry_group_IT_number 13
_symmetry_cell_setting 'monoclinic'
loop_
_space_group_symop_operation_xyz
x,y,z
-x,y,1/2-z
-x,-y,-z
x,-y,1/2+z
loop_
_atom_site_type_symbol
_atom_site_label
_atom_site_fract_x
_atom_site_fract_y
_atom_site_fract_z
Si Si1 0.973505 0.867319 0.007881
Si Si2 0.408673 0.720449 0.708166
Si Si3 0.301126 0.249778 0.952041
Si Si4 0.368133 0.753067 0.133252
Si Si5 0.205355 0.509899 0.288081
Si Si6 0.000000 0.430336 0.250000
O O1 0.838235 0.845557 0.005635
O O2 0.839314 0.827945 0.194425
O O3 0.200498 0.801288 0.846400
O O4 0.000000 0.000000 0.000000
O O5 0.500000 0.721995 0.750000
O O6 0.597303 0.762125 0.504111
O O7 0.362333 0.592750 0.706350
O O8 0.500000 0.293712 0.750000
O O9 0.406265 0.200928 0.976302
O O10 0.147421 0.355570 0.078068
O O11 0.331059 0.628592 0.206723
O O12 0.000000 0.500000 0.500000
O O13 0.140485 0.507034 0.222227
#
# Coordination Sequence:
#
# PCOD8119748 Si02
#       6
#     4   4   4   4   4   2
#     4  11  25  48  72 100 136 177 237 297 341 405
#     4  12  27  44  66 101 143 182 230 284 355 416
#     4  10  20  41  70  97 128 172 232 276 339 414
#     4  11  24  45  70 102 139 183 227 283 356 417
#     4  12  24  42  69 106 143 181 225 289 350 421
#     4  12  22  40  72  98 142 182 228 272 346 414
#
# _framework density 21.579197000000001
#
# number of rings (size 3 to 8) (size 9 to 14) (size 15 to 20)
#    0.000    0.727    5.455    1.636    2.545    5.818 
#    0.000    3.636    0.000    0.000    0.000    0.000 
#    0.000    0.000    0.000    0.000    0.000    0.000 
#
# Total GULP energy -272759.004934 kJ/mol
# GULP energy per Si atom -12398.136588 kJ/mol
# Density = 2.153008 g / cm^3
# Si number density = 21.579197 Si / 1000 Ang^3
#
#
#
# Elastic Constant Matrix: (Units=GPa)
#
#
# Indices 1 2 3 4 5 6 
#
# 1 154.6146 53.1456 54.5036 0.0000 18.9656 0.0000
# 2 53.1456 135.6807 55.9050 0.0000 -3.9044 0.0000
# 3 54.5036 55.9050 132.1578 0.0000 9.1771 0.0000
# 4 0.0000 0.0000 0.0000 11.2273 0.0000 -15.3365
# 5 18.9656 -3.9044 9.1771 0.0000 35.1677 0.0000
# 6 0.0000 0.0000 0.0000 -15.3365 0.0000 -50.4822
#
#
#
# Elastic Compliance Matrix: (Units=1/GPa)
#
#
# Indices 1 2 3 4 5 6 
#
# 1 0.008675 -0.002636 -0.002156 0.000000 -0.004408 0.000000
# 2 -0.002636 0.009869 -0.003323 0.000000 0.003384 0.000000
# 3 -0.002156 -0.003323 0.009987 0.000000 -0.001812 0.000000
# 4 0.000000 0.000000 0.000000 0.062946 0.000000 -0.019123
# 5 -0.004408 0.003384 -0.001812 0.000000 0.031661 0.000000
# 6 0.000000 0.000000 0.000000 -0.019123 0.000000 -0.013999
#
#
# Mechanical properties :
#
#
# Convention : Reuss Voigt Hill
#
# Bulk Modulus (GPa) = 81.29431 83.28460 82.28946
# Shear Modulus (GPa) = 38.61886 16.44247 27.53067
#
# Velocity S-wave (km/s) = 4.23500 2.76336 3.57570
# Velocity P-wave (km/s) = 7.85289 6.99000 7.43398
#
# Compressibility (1/GPa) = 0.01230098
#
# Stress axis : x y z
#
# Youngs Moduli (GPa) = 115.27794 101.32427 100.12630
#
# Poissons Ratio (x) = 0.26712 0.21590
# Poissons Ratio (y) = 0.30390 0.33269
# Poissons Ratio (z) = 0.24857 0.33667
#
# Static dielectric constant tensor:
#      x y z
#    x 4.292380 0.000000 0.122650 
#    y 0.000000 4.316480 0.000000 
#    z 0.122650 0.000000 4.300580 
# 
# 
# High freq. dielectric constant tensor:
#      x y z
#    x 1.859800 0.000000 0.004490 
#    y 0.000000 1.814030 0.000000 
#    z 0.004490 0.000000 1.870670 
# 
# From -- ./inp_files/51086.got.cif
#   From: 2010.06.25/outbox.cif.g09.slc.cpg/sg13_26_cif.got.tgz:51086.got - 2010.06.28 04:50:58.
