data_PCOD8119586
_publ_section_title
;
Structure prediction by ZEFSAII (Michael W. Deem and Ramdas Pophale) SiO2 
 PCOD8119586
Probable space group: P 2/C
;
_chemical_formula_sum "Si O2"
_cell_formula_units_Z 20
_cell_length_a 9.166947
_cell_length_b 11.201748
_cell_length_c 17.109905
_cell_angle_alpha 90.000000
_cell_angle_beta 150.157810
_cell_angle_gamma 90.000000
_cell_volume 874.278237
_symmetry_space_group_name_H-M "P 2/C"
_symmetry_group_IT_number 13
_symmetry_cell_setting 'monoclinic'
loop_
_space_group_symop_operation_xyz
x,y,z
-x,y,1/2-z
-x,-y,-z
x,-y,1/2+z
loop_
_atom_site_type_symbol
_atom_site_label
_atom_site_fract_x
_atom_site_fract_y
_atom_site_fract_z
Si Si1 0.930226 0.633657 0.125740
Si Si2 0.668250 0.241462 0.907907
Si Si3 0.521367 0.501069 0.674336
Si Si4 0.811331 0.081542 0.357410
Si Si5 0.164620 0.125322 0.746280
O O1 0.000000 0.638090 0.250000
O O2 0.147106 0.537225 0.188479
O O3 0.976717 0.769299 0.113750
O O4 0.603105 0.591344 0.950074
O O5 0.500000 0.196474 0.750000
O O6 0.681196 0.383238 0.918786
O O7 0.491228 0.184424 0.899932
O O8 0.006880 0.202728 0.071361
O O9 0.500000 0.562226 0.750000
O O10 0.500000 0.113856 0.250000
O O11 0.790455 0.005064 0.268833
O O12 0.000000 0.000000 0.500000
O O13 0.000000 0.101363 0.750000
#
# Coordination Sequence:
#
# PCOD8119586 Si02
#       5
#     4   4   4   4   4
#     4  10  21  40  62  87 123 164 199 244 310 367
#     4  10  20  40  60  84 121 160 198 248 305 354
#     4  10  21  39  61  89 123 158 205 254 299 357
#     4  12  21  40  63  85 115 158 202 242 304 365
#     4  10  21  37  61  87 120 158 196 247 307 357
#
# _framework density 22.876011999999999
#
# number of rings (size 3 to 8) (size 9 to 14) (size 15 to 20)
#    0.000    1.600    4.000    1.200    0.000    0.800 
#    3.600    2.000    0.000    0.000    0.000    0.000 
#    0.000    0.000    0.000    0.000    0.000    0.000 
#
# Total GULP energy -247774.466522 kJ/mol
# GULP energy per Si atom -12388.723326 kJ/mol
# Density = 2.282395 g / cm^3
# Si number density = 22.876012 Si / 1000 Ang^3
#
#
#
# Elastic Constant Matrix: (Units=GPa)
#
#
# Indices 1 2 3 4 5 6 
#
# 1 122.6489 11.7240 31.6528 0.0000 19.3437 0.0000
# 2 11.7240 65.2578 31.8342 0.0000 6.8865 0.0000
# 3 31.6528 31.8342 73.3503 0.0000 15.4994 0.0000
# 4 0.0000 0.0000 0.0000 23.6969 0.0000 8.0274
# 5 19.3437 6.8865 15.4994 0.0000 38.8599 0.0000
# 6 0.0000 0.0000 0.0000 8.0274 0.0000 17.1297
#
#
#
# Elastic Compliance Matrix: (Units=1/GPa)
#
#
# Indices 1 2 3 4 5 6 
#
# 1 0.009578 0.000385 -0.003580 0.000000 -0.003408 0.000000
# 2 0.000385 0.019455 -0.008563 0.000000 -0.000224 0.000000
# 3 -0.003580 -0.008563 0.019872 0.000000 -0.004626 0.000000
# 4 0.000000 0.000000 0.000000 0.050163 0.000000 -0.023507
# 5 -0.003408 -0.000224 -0.004626 0.000000 0.029315 0.000000
# 6 0.000000 0.000000 0.000000 -0.023507 0.000000 0.069394
#
#
# Mechanical properties :
#
#
# Convention : Reuss Voigt Hill
#
# Bulk Modulus (GPa) = 39.38494 45.74208 42.56351
# Shear Modulus (GPa) = 21.76225 28.34038 25.05132
#
# Velocity S-wave (km/s) = 3.08768 3.52358 3.31281
# Velocity P-wave (km/s) = 5.47410 6.04923 5.76884
#
# Compressibility (1/GPa) = 0.02539042
#
# Stress axis : x y z
#
# Youngs Moduli (GPa) = 104.40583 51.39994 50.32216
#
# Poissons Ratio (x) = -0.01981 0.18017
# Poissons Ratio (y) = -0.04024 0.43089
# Poissons Ratio (z) = 0.37381 0.44011
#
# Static dielectric constant tensor:
#      x y z
#    x 4.227650 0.000000 0.104860 
#    y 0.000000 5.625130 0.000000 
#    z 0.104860 0.000000 4.717270 
# 
# 
# High freq. dielectric constant tensor:
#      x y z
#    x 1.905360 0.000000 0.025420 
#    y 0.000000 1.904170 0.000000 
#    z 0.025420 0.000000 1.870440 
# 
# From -- ./inp_files/11869.got.cif
#   From: 2010.06.25/outbox.cif.g09.slc.cpg/sg13_6_cif.got.tgz:11869.got - 2010.06.28 04:50:58.
