data_PCOD8119842
_publ_section_title
;
Structure prediction by ZEFSAII (Michael W. Deem and Ramdas Pophale) SiO2 
 PCOD8119842
Probable space group: P 2/C
;
_chemical_formula_sum "Si O2"
_cell_formula_units_Z 24
_cell_length_a 25.875282
_cell_length_b 5.193284
_cell_length_c 28.701924
_cell_angle_alpha 90.000000
_cell_angle_beta 160.317523
_cell_angle_gamma 90.000000
_cell_volume 1299.031500
_symmetry_space_group_name_H-M "P 2/C"
_symmetry_group_IT_number 13
_symmetry_cell_setting 'monoclinic'
loop_
_space_group_symop_operation_xyz
x,y,z
-x,y,1/2-z
-x,-y,-z
x,-y,1/2+z
loop_
_atom_site_type_symbol
_atom_site_label
_atom_site_fract_x
_atom_site_fract_y
_atom_site_fract_z
Si Si1 0.319798 0.701491 0.424795
Si Si2 0.039709 0.097962 0.730139
Si Si3 0.031740 0.590694 0.671560
Si Si4 0.660812 0.364922 0.214579
Si Si5 0.043381 0.384538 0.987076
Si Si6 0.261194 0.129102 0.775535
O O1 0.218599 0.440629 0.330554
O O2 0.488081 0.646169 0.588049
O O3 0.340911 0.843248 0.393217
O O4 0.225025 0.881201 0.380647
O O5 0.976728 0.849615 0.649534
O O6 0.000000 0.072390 0.750000
O O7 0.959065 0.348538 0.638545
O O8 0.972246 0.591181 0.567867
O O9 0.777561 0.305252 0.356568
O O10 0.682393 0.648092 0.211420
O O11 0.692934 0.151830 0.202720
O O12 0.925493 0.148405 0.876668
O O13 0.000000 0.500000 0.000000
#
# Coordination Sequence:
#
# PCOD8119842 Si02
#       6
#     4   4   4   4   4   4
#     4   9  22  32  56  77 109 135 182 222 272 305
#     4  10  21  37  60  81  99 138 189 239 271 307
#     4   9  21  35  56  79 108 134 183 221 271 317
#     4  11  21  32  51  80 112 146 170 213 259 325
#     4   9  20  34  53  79 113 149 177 204 260 333
#     4  10  21  32  50  76 114 144 181 203 258 319
#
# _framework density 18.475303
#
# number of rings (size 3 to 8) (size 9 to 14) (size 15 to 20)
#    1.000    1.333    0.000    2.000    9.333    2.667 
#    0.000    0.000    0.000    1.000    0.000    0.000 
#    0.000    0.000    0.000    0.000    0.000    0.000 
#
# Total GULP energy -297345.038472 kJ/mol
# GULP energy per Si atom -12389.376603 kJ/mol
# Density = 1.843325 g / cm^3
# Si number density = 18.475303 Si / 1000 Ang^3
#
#
#
# Elastic Constant Matrix: (Units=GPa)
#
#
# Indices 1 2 3 4 5 6 
#
# 1 99.5458 28.6043 38.5617 0.0000 -15.7352 0.0000
# 2 28.6043 81.4189 15.5304 0.0000 -7.3465 0.0000
# 3 38.5617 15.5304 115.8742 0.0000 4.1899 0.0000
# 4 0.0000 0.0000 0.0000 10.0171 0.0000 -4.4549
# 5 -15.7352 -7.3465 4.1899 0.0000 19.9634 0.0000
# 6 0.0000 0.0000 0.0000 -4.4549 0.0000 22.9630
#
#
#
# Elastic Compliance Matrix: (Units=1/GPa)
#
#
# Indices 1 2 3 4 5 6 
#
# 1 0.014644 -0.003191 -0.004858 0.000000 0.011388 0.000000
# 2 -0.003191 0.013822 -0.000890 0.000000 0.002758 0.000000
# 3 -0.004858 -0.000890 0.010597 0.000000 -0.006380 0.000000
# 4 0.000000 0.000000 0.000000 0.109255 0.000000 0.021196
# 5 0.011388 0.002758 -0.006380 0.000000 0.061422 0.000000
# 6 0.000000 0.000000 0.000000 0.021196 0.000000 0.047660
#
#
# Mechanical properties :
#
#
# Convention : Reuss Voigt Hill
#
# Bulk Modulus (GPa) = 47.20252 51.35908 49.28080
# Shear Modulus (GPa) = 17.70920 24.86489 21.28704
#
# Velocity S-wave (km/s) = 3.09938 3.67256 3.39807
# Velocity P-wave (km/s) = 6.19779 6.77072 6.49058
#
# Compressibility (1/GPa) = 0.02118531
#
# Stress axis : x y z
#
# Youngs Moduli (GPa) = 68.28600 72.34910 94.36939
#
# Poissons Ratio (x) = 0.23085 0.45841
# Poissons Ratio (y) = 0.21788 0.08403
# Poissons Ratio (z) = 0.33171 0.06442
#
# Static dielectric constant tensor:
#      x y z
#    x 3.107290 0.000000 -0.014170 
#    y 0.000000 3.268880 0.000000 
#    z -0.014170 0.000000 3.863470 
# 
# 
# High freq. dielectric constant tensor:
#      x y z
#    x 1.681960 0.000000 -0.005210 
#    y 0.000000 1.716630 0.000000 
#    z -0.005210 0.000000 1.701580 
# 
# From -- ./inp_files/93962.got.cif
#   From: 2010.06.25/outbox.cif.g09.slc.cpg/sg13_47_cif.got.tgz:93962.got - 2010.06.28 04:50:58.
