data_PCOD8119971
_publ_section_title
;
Structure prediction by ZEFSAII (Michael W. Deem and Ramdas Pophale) SiO2 
 PCOD8119971
Probable space group: P 2/C
;
_chemical_formula_sum "Si O2"
_cell_formula_units_Z 24
_cell_length_a 8.378710
_cell_length_b 17.220991
_cell_length_c 7.864487
_cell_angle_alpha 90.000000
_cell_angle_beta 83.679110
_cell_angle_gamma 90.000000
_cell_volume 1127.866019
_symmetry_space_group_name_H-M "P 2/C"
_symmetry_group_IT_number 13
_symmetry_cell_setting 'monoclinic'
loop_
_space_group_symop_operation_xyz
x,y,z
-x,y,1/2-z
-x,-y,-z
x,-y,1/2+z
loop_
_atom_site_type_symbol
_atom_site_label
_atom_site_fract_x
_atom_site_fract_y
_atom_site_fract_z
Si Si1 0.319905 0.243046 0.818459
Si Si2 0.813188 0.087185 0.775276
Si Si3 0.707310 0.604644 0.371159
Si Si4 0.379762 0.955132 0.895291
Si Si5 0.823573 0.540332 0.700648
Si Si6 0.596098 0.345920 0.404373
O O1 0.500000 0.218309 0.750000
O O2 0.209077 0.167597 0.822880
O O3 0.247064 0.309816 0.703103
O O4 0.323067 0.272508 0.012663
O O5 0.000000 0.067293 0.750000
O O6 0.728428 0.015998 0.693556
O O7 0.738553 0.098089 0.975466
O O8 0.822699 0.577105 0.512254
O O9 0.730077 0.542499 0.216082
O O10 0.522110 0.608267 0.452453
O O11 0.500000 0.908506 0.750000
O O12 0.500000 0.000000 0.000000
O O13 0.737423 0.596819 0.841350
O O14 0.000000 0.527942 0.750000
O O15 0.500000 0.316522 0.250000
#
# Coordination Sequence:
#
# PCOD8119971 Si02
#       6
#     4   4   4   4   4   4
#     4  10  21  39  60  83 113 154 197 241 295 362
#     4  11  22  38  63  95 127 155 194 252 307 355
#     4  10  21  36  55  79 109 151 197 241 292 354
#     4   9  19  39  65  89 118 160 202 237 284 361
#     4  11  21  34  54  80 112 148 193 249 302 355
#     4   9  20  38  58  78 106 148 199 246 289 353
#
# _framework density 21.279122999999998
#
# number of rings (size 3 to 8) (size 9 to 14) (size 15 to 20)
#    0.000    2.000    0.000    4.000    0.000    6.667 
#    0.000   19.167    0.000    2.000    0.000    0.000 
#    0.000    0.000    0.000    0.000    0.000    0.000 
#
# Total GULP energy -297482.701892 kJ/mol
# GULP energy per Si atom -12395.112579 kJ/mol
# Density = 2.123069 g / cm^3
# Si number density = 21.279123 Si / 1000 Ang^3
#
#
#
# Elastic Constant Matrix: (Units=GPa)
#
#
# Indices 1 2 3 4 5 6 
#
# 1 105.0856 38.3325 51.3806 0.0000 -3.6974 0.0000
# 2 38.3325 91.5262 31.5733 0.0000 4.5891 0.0000
# 3 51.3806 31.5733 92.3302 0.0000 -3.9038 0.0000
# 4 0.0000 0.0000 0.0000 26.5983 0.0000 7.7359
# 5 -3.6974 4.5891 -3.9038 0.0000 28.1202 0.0000
# 6 0.0000 0.0000 0.0000 7.7359 0.0000 27.0403
#
#
#
# Elastic Compliance Matrix: (Units=1/GPa)
#
#
# Indices 1 2 3 4 5 6 
#
# 1 0.014121 -0.003747 -0.006511 0.000000 0.001564 0.000000
# 2 -0.003747 0.013577 -0.002688 0.000000 -0.003081 0.000000
# 3 -0.006511 -0.002688 0.015446 0.000000 0.001727 0.000000
# 4 0.000000 0.000000 0.000000 0.041009 0.000000 -0.011732
# 5 0.001564 -0.003081 0.001727 0.000000 0.036510 0.000000
# 6 0.000000 0.000000 0.000000 -0.011732 0.000000 0.040338
#
#
# Mechanical properties :
#
#
# Convention : Reuss Voigt Hill
#
# Bulk Modulus (GPa) = 57.96113 59.05720 58.50916
# Shear Modulus (GPa) = 25.95473 27.52879 26.74176
#
# Velocity S-wave (km/s) = 3.49625 3.60071 3.54886
# Velocity P-wave (km/s) = 6.60272 6.71570 6.65945
#
# Compressibility (1/GPa) = 0.01725294
#
# Stress axis : x y z
#
# Youngs Moduli (GPa) = 70.81549 73.65538 64.74079
#
# Poissons Ratio (x) = 0.27595 0.42153
# Poissons Ratio (y) = 0.26531 0.17403
# Poissons Ratio (z) = 0.46108 0.19799
#
# Static dielectric constant tensor:
#      x y z
#    x -0.202070 0.000000 -4.702140 
#    y 0.000000 3.550460 0.000000 
#    z -4.702140 0.000000 -0.701100 
# 
# 
# High freq. dielectric constant tensor:
#      x y z
#    x 1.830140 0.000000 0.003540 
#    y 0.000000 1.809160 0.000000 
#    z 0.003540 0.000000 1.850260 
# 
# From -- ./inp_files/12420.got.cif
#   From: 2010.06.25/outbox.cif.g09.slc.cpg/sg13_7_cif.got.tgz:12420.got - 2010.06.28 04:50:58.
