data_PCOD8119984
_publ_section_title
;
Structure prediction by ZEFSAII (Michael W. Deem and Ramdas Pophale) SiO2 
 PCOD8119984
Probable space group: P 2/C
;
_chemical_formula_sum "Si O2"
_cell_formula_units_Z 20
_cell_length_a 24.648117
_cell_length_b 7.593714
_cell_length_c 5.217757
_cell_angle_alpha 90.000000
_cell_angle_beta 95.706522
_cell_angle_gamma 90.000000
_cell_volume 971.771662
_symmetry_space_group_name_H-M "P 2/C"
_symmetry_group_IT_number 13
_symmetry_cell_setting 'monoclinic'
loop_
_space_group_symop_operation_xyz
x,y,z
-x,y,1/2-z
-x,-y,-z
x,-y,1/2+z
loop_
_atom_site_type_symbol
_atom_site_label
_atom_site_fract_x
_atom_site_fract_y
_atom_site_fract_z
Si Si1 0.274106 0.887075 0.389884
Si Si2 0.367064 0.381431 0.945589
Si Si3 0.058489 0.607845 0.230331
Si Si4 0.476300 0.800718 0.488912
Si Si5 0.148660 0.110273 0.835513
O O1 0.307880 0.707047 0.412061
O O2 0.211299 0.827540 0.363023
O O3 0.288750 0.005336 0.641676
O O4 0.374433 0.492142 0.207015
O O5 0.410918 0.220444 0.958348
O O6 0.061291 0.447204 0.434093
O O7 0.110447 0.722667 0.319528
O O8 0.000000 0.705289 0.250000
O O9 0.500000 0.702687 0.750000
O O10 0.500000 0.000000 0.500000
O O11 0.500000 0.702769 0.250000
O O12 0.134803 0.995928 0.582899
#
# Coordination Sequence:
#
# PCOD8119984 Si02
#       5
#     4   4   4   4   4
#     4  10  23  41  65  86 120 162 198 238 294 365
#     4  12  26  41  64  96 122 148 195 251 294 340
#     4  10  21  36  56  85 121 162 200 243 304 360
#     4  10  23  40  63  88 115 158 195 223 287 366
#     4  10  21  38  59  89 116 155 207 248 291 344
#
# _framework density 20.580964000000002
#
# number of rings (size 3 to 8) (size 9 to 14) (size 15 to 20)
#    0.000    1.600    0.000    3.600    5.600    4.800 
#    0.000    0.000    0.000    0.000    0.000    0.000 
#    0.000    0.000    0.000    0.000    0.000    0.000 
#
# Total GULP energy -247939.788873 kJ/mol
# GULP energy per Si atom -12396.989444 kJ/mol
# Density = 2.053412 g / cm^3
# Si number density = 20.580964 Si / 1000 Ang^3
#
#
#
# Elastic Constant Matrix: (Units=GPa)
#
#
# Indices 1 2 3 4 5 6 
#
# 1 118.7110 55.8947 27.7897 0.0000 -1.4844 0.0000
# 2 55.8947 63.4640 11.4972 0.0000 -2.5066 0.0000
# 3 27.7897 11.4972 150.8543 0.0000 7.2376 0.0000
# 4 0.0000 0.0000 0.0000 10.6111 0.0000 2.0234
# 5 -1.4844 -2.5066 7.2376 0.0000 24.1522 0.0000
# 6 0.0000 0.0000 0.0000 2.0234 0.0000 50.3347
#
#
#
# Elastic Compliance Matrix: (Units=1/GPa)
#
#
# Indices 1 2 3 4 5 6 
#
# 1 0.014840 -0.012745 -0.001768 0.000000 0.000119 0.000000
# 2 -0.012745 0.027025 0.000194 0.000000 0.001963 0.000000
# 3 -0.001768 0.000194 0.007045 0.000000 -0.002200 0.000000
# 4 0.000000 0.000000 0.000000 0.094969 0.000000 -0.003818
# 5 0.000119 0.001963 -0.002200 0.000000 0.042274 0.000000
# 6 0.000000 0.000000 0.000000 -0.003818 0.000000 0.020020
#
#
# Mechanical properties :
#
#
# Convention : Reuss Voigt Hill
#
# Bulk Modulus (GPa) = 49.33056 58.15472 53.74264
# Shear Modulus (GPa) = 20.69789 32.87610 26.78700
#
# Velocity S-wave (km/s) = 3.17469 4.00109 3.61160
# Velocity P-wave (km/s) = 6.12040 7.04719 6.60008
#
# Compressibility (1/GPa) = 0.02027141
#
# Stress axis : x y z
#
# Youngs Moduli (GPa) = 67.38399 37.00339 141.93686
#
# Poissons Ratio (x) = 0.47162 0.25097
# Poissons Ratio (y) = 0.85883 -0.02754
# Poissons Ratio (z) = 0.11915 -0.00718
#
# Static dielectric constant tensor:
#      x y z
#    x 3.862980 0.000000 -0.059090 
#    y 0.000000 3.311840 0.000000 
#    z -0.059090 0.000000 4.567970 
# 
# 
# High freq. dielectric constant tensor:
#      x y z
#    x 1.818830 0.000000 0.002700 
#    y 0.000000 1.773440 0.000000 
#    z 0.002700 0.000000 1.841240 
# 
# From -- ./inp_files/6671.got.cif
#   From: 2010.06.25/outbox.cif.g09.slc.cpg/sg13_4_cif.got.tgz:6671.got - 2010.06.28 04:50:58.
