data_PCOD8119435
_publ_section_title
;
Structure prediction by ZEFSAII (Michael W. Deem and Ramdas Pophale) SiO2 
 PCOD8119435
Probable space group: P 2/C
;
_chemical_formula_sum "Si O2"
_cell_formula_units_Z 24
_cell_length_a 20.817324
_cell_length_b 6.048929
_cell_length_c 12.949306
_cell_angle_alpha 90.000000
_cell_angle_beta 137.524845
_cell_angle_gamma 90.000000
_cell_volume 1101.102178
_symmetry_space_group_name_H-M "P 2/C"
_symmetry_group_IT_number 13
_symmetry_cell_setting 'monoclinic'
loop_
_space_group_symop_operation_xyz
x,y,z
-x,y,1/2-z
-x,-y,-z
x,-y,1/2+z
loop_
_atom_site_type_symbol
_atom_site_label
_atom_site_fract_x
_atom_site_fract_y
_atom_site_fract_z
Si Si1 0.658843 0.442631 0.802006
Si Si2 0.585003 0.115590 0.540988
Si Si3 0.000000 0.909851 0.250000
Si Si4 0.838076 0.197391 0.018636
Si Si5 0.073956 0.580569 0.504839
Si Si6 0.500000 0.369247 0.250000
Si Si7 0.745616 0.823302 0.779350
O O1 0.624857 0.311649 0.660112
O O2 0.574811 0.468046 0.784313
O O3 0.693373 0.684951 0.807848
O O4 0.746474 0.314761 0.963276
O O5 0.552372 0.213574 0.393887
O O6 0.500000 0.000000 0.500000
O O7 0.664665 0.927357 0.608956
O O8 0.024148 0.770297 0.379200
O O9 0.090945 0.060878 0.322430
O O10 0.902826 0.379860 0.041771
O O11 0.799204 0.032217 0.887732
O O12 0.172433 0.669442 0.675664
O O13 0.000000 0.500000 0.500000
#
# Coordination Sequence:
#
# PCOD8119435 Si02
#       7
#     4   4   2   4   4   2   4
#     4  10  22  44  64  94 134 170 218 284 323 394
#     4  11  23  43  68  91 137 174 220 281 333 394
#     4  10  20  38  66  96 130 172 218 266 328 390
#     4   9  20  41  65  90 132 173 209 273 332 381
#     4  10  21  40  67  94 132 173 218 264 332 394
#     4  12  24  40  70 100 124 186 230 260 352 402
#     4   9  20  42  63  91 134 170 209 281 329 379
#
# _framework density 21.796341999999999
#
# number of rings (size 3 to 8) (size 9 to 14) (size 15 to 20)
#    0.000    2.000    1.667    1.000    0.000    3.333 
#    0.000   28.333    0.000    0.000    0.000    0.000 
#    0.000    0.000    0.000    0.000    0.000    0.000 
#
# Total GULP energy -297388.989283 kJ/mol
# GULP energy per Si atom -12391.207887 kJ/mol
# Density = 2.174673 g / cm^3
# Si number density = 21.796342 Si / 1000 Ang^3
#
#
#
# Elastic Constant Matrix: (Units=GPa)
#
#
# Indices 1 2 3 4 5 6 
#
# 1 134.9385 53.8938 68.3672 0.0000 30.2248 0.0000
# 2 53.8938 120.9127 69.6066 0.0000 16.8701 0.0000
# 3 68.3672 69.6066 142.9670 0.0000 22.1461 0.0000
# 4 0.0000 0.0000 0.0000 49.1531 0.0000 20.2553
# 5 30.2248 16.8701 22.1461 0.0000 34.2860 0.0000
# 6 0.0000 0.0000 0.0000 20.2553 0.0000 23.9159
#
#
#
# Elastic Compliance Matrix: (Units=1/GPa)
#
#
# Indices 1 2 3 4 5 6 
#
# 1 0.011562 -0.002254 -0.003361 0.000000 -0.006913 0.000000
# 2 -0.002254 0.012092 -0.004662 0.000000 -0.000951 0.000000
# 3 -0.003361 -0.004662 0.011175 0.000000 -0.001962 0.000000
# 4 0.000000 0.000000 0.000000 0.031252 0.000000 -0.026468
# 5 -0.006913 -0.000951 -0.001962 0.000000 0.036996 0.000000
# 6 0.000000 0.000000 0.000000 -0.026468 0.000000 0.064230
#
#
# Mechanical properties :
#
#
# Convention : Reuss Voigt Hill
#
# Bulk Modulus (GPa) = 70.04976 86.95037 78.50007
# Shear Modulus (GPa) = 25.95798 35.26771 30.61284
#
# Velocity S-wave (km/s) = 3.45473 4.02687 3.75172
# Velocity P-wave (km/s) = 6.93698 7.84855 7.40680
#
# Compressibility (1/GPa) = 0.01427557
#
# Stress axis : x y z
#
# Youngs Moduli (GPa) = 86.48819 82.70209 89.48347
#
# Poissons Ratio (x) = 0.18645 0.30073
# Poissons Ratio (y) = 0.19498 0.41714
# Poissons Ratio (z) = 0.29066 0.38553
#
# Static dielectric constant tensor:
#      x y z
#    x 3.580630 0.000000 0.632670 
#    y 0.000000 4.441730 0.000000 
#    z 0.632670 0.000000 4.514270 
# 
# 
# High freq. dielectric constant tensor:
#      x y z
#    x 1.820920 0.000000 0.043300 
#    y 0.000000 1.884290 0.000000 
#    z 0.043300 0.000000 1.868680 
# 
# From -- ./inp_files/56486.got.cif
#   From: 2010.06.25/outbox.cif.g09.slc.cpg/sg13_29_cif.got.tgz:56486.got - 2010.06.28 04:50:58.
