data_PCOD8119538
_publ_section_title
;
Structure prediction by ZEFSAII (Michael W. Deem and Ramdas Pophale) SiO2 
 PCOD8119538
Probable space group: P 2/C
;
_chemical_formula_sum "Si O2"
_cell_formula_units_Z 26
_cell_length_a 17.955786
_cell_length_b 6.935585
_cell_length_c 18.585203
_cell_angle_alpha 90.000000
_cell_angle_beta 148.109175
_cell_angle_gamma 90.000000
_cell_volume 1222.749221
_symmetry_space_group_name_H-M "P 2/C"
_symmetry_group_IT_number 13
_symmetry_cell_setting 'monoclinic'
loop_
_space_group_symop_operation_xyz
x,y,z
-x,y,1/2-z
-x,-y,-z
x,-y,1/2+z
loop_
_atom_site_type_symbol
_atom_site_label
_atom_site_fract_x
_atom_site_fract_y
_atom_site_fract_z
Si Si1 0.187958 0.835654 0.286147
Si Si2 0.181369 0.937393 0.432870
Si Si3 0.561054 0.775637 0.917936
Si Si4 0.778439 0.265659 0.933285
Si Si5 0.089601 0.335190 0.978372
Si Si6 0.267389 0.058341 0.217930
Si Si7 0.500000 0.531695 0.250000
O O1 0.327799 0.718284 0.426623
O O2 0.229747 0.014220 0.269617
O O3 0.079246 0.694536 0.156573
O O4 0.109555 0.925708 0.294032
O O5 0.141993 0.132778 0.442338
O O6 0.353068 0.926104 0.562596
O O7 0.148686 0.746078 0.451913
O O8 0.511770 0.592253 0.832324
O O9 0.427463 0.873221 0.844830
O O10 0.746946 0.139233 0.837658
O O11 0.636554 0.338431 0.853558
O O12 0.880401 0.438244 0.992741
O O13 0.161442 0.223233 0.103555
#
# Coordination Sequence:
#
# PCOD8119538 Si02
#       7
#     4   4   4   4   4   4   2
#     4  10  23  40  62  89 129 166 199 255 319 367
#     4   9  21  39  62  88 118 159 209 256 306 357
#     4  10  20  39  65  86 122 160 207 261 311 357
#     4  11  21  36  68  90 120 162 211 256 310 373
#     4  11  21  41  63  89 126 161 208 258 304 371
#     4  11  22  41  62  91 125 167 206 250 312 381
#     4  12  18  38  62  96 116 158 210 270 304 354
#
# _framework density 21.263559000000001
#
# number of rings (size 3 to 8) (size 9 to 14) (size 15 to 20)
#    0.923    0.615    3.077    3.231    0.000    0.615 
#    0.000   16.154    0.000    0.000    0.000    0.000 
#    0.000    0.000    0.000    0.000    0.000    0.000 
#
# Total GULP energy -322290.773473 kJ/mol
# GULP energy per Si atom -12395.798980 kJ/mol
# Density = 2.121516 g / cm^3
# Si number density = 21.263559 Si / 1000 Ang^3
#
#
#
# Elastic Constant Matrix: (Units=GPa)
#
#
# Indices 1 2 3 4 5 6 
#
# 1 42.7247 -1.3090 -4.8903 0.0000 -10.5384 0.0000
# 2 -1.3090 88.6034 15.4748 0.0000 5.1259 0.0000
# 3 -4.8903 15.4748 104.1821 0.0000 12.6661 0.0000
# 4 0.0000 0.0000 0.0000 15.9768 0.0000 3.9484
# 5 -10.5384 5.1259 12.6661 0.0000 29.6929 0.0000
# 6 0.0000 0.0000 0.0000 3.9484 0.0000 16.8532
#
#
#
# Elastic Compliance Matrix: (Units=1/GPa)
#
#
# Indices 1 2 3 4 5 6 
#
# 1 0.025655 -0.000168 0.000125 0.000000 0.009081 0.000000
# 2 -0.000168 0.011638 -0.001566 0.000000 -0.001401 0.000000
# 3 0.000125 -0.001566 0.010335 0.000000 -0.004094 0.000000
# 4 0.000000 0.000000 0.000000 0.066437 0.000000 -0.015565
# 5 0.009081 -0.001401 -0.004094 0.000000 0.038889 0.000000
# 6 0.000000 0.000000 0.000000 -0.015565 0.000000 0.062982
#
#
# Mechanical properties :
#
#
# Convention : Reuss Voigt Hill
#
# Bulk Modulus (GPa) = 22.51782 28.22901 25.37342
# Shear Modulus (GPa) = 21.37131 27.58690 24.47910
#
# Velocity S-wave (km/s) = 3.17372 3.60582 3.39665
# Velocity P-wave (km/s) = 4.90335 5.53539 5.22893
#
# Compressibility (1/GPa) = 0.04440927
#
# Stress axis : x y z
#
# Youngs Moduli (GPa) = 38.97917 85.92274 96.76043
#
# Poissons Ratio (x) = 0.01445 -0.01211
# Poissons Ratio (y) = 0.00656 0.15156
# Poissons Ratio (z) = -0.00488 0.13458
#
# Static dielectric constant tensor:
#      x y z
#    x 3.820220 0.000000 0.061210 
#    y 0.000000 3.583080 0.000000 
#    z 0.061210 0.000000 3.938070 
# 
# 
# High freq. dielectric constant tensor:
#      x y z
#    x 1.839050 0.000000 0.007900 
#    y 0.000000 1.807890 0.000000 
#    z 0.007900 0.000000 1.844450 
# 
# From -- ./inp_files/81428.got.cif
#   From: 2010.06.25/outbox.cif.g09.slc.cpg/sg13_41_cif.got.tgz:81428.got - 2010.06.28 04:50:58.
