data_PCOD8119426
_publ_section_title
;
Structure prediction by ZEFSAII (Michael W. Deem and Ramdas Pophale) SiO2 
 PCOD8119426
Probable space group: P 2/C
;
_chemical_formula_sum "Si O2"
_cell_formula_units_Z 20
_cell_length_a 11.427411
_cell_length_b 10.390556
_cell_length_c 11.119687
_cell_angle_alpha 90.000000
_cell_angle_beta 127.375397
_cell_angle_gamma 90.000000
_cell_volume 1049.225756
_symmetry_space_group_name_H-M "P 2/C"
_symmetry_group_IT_number 13
_symmetry_cell_setting 'monoclinic'
loop_
_space_group_symop_operation_xyz
x,y,z
-x,y,1/2-z
-x,-y,-z
x,-y,1/2+z
loop_
_atom_site_type_symbol
_atom_site_label
_atom_site_fract_x
_atom_site_fract_y
_atom_site_fract_z
Si Si1 0.500000 0.758066 0.750000
Si Si2 0.000000 0.288983 0.750000
Si Si3 0.686067 0.594668 0.039199
Si Si4 0.453869 0.326588 0.584820
Si Si5 0.627704 0.907517 0.615812
Si Si6 0.066081 0.959756 0.169066
O O1 0.380393 0.668329 0.614596
O O2 0.595579 0.845784 0.723487
O O3 0.139394 0.381628 0.854876
O O4 0.039313 0.194979 0.661480
O O5 0.606625 0.647814 0.109385
O O6 0.658591 0.443812 0.004271
O O7 0.500000 0.303126 0.750000
O O8 0.362691 0.203577 0.479467
O O9 0.500000 0.000000 0.500000
O O10 0.765693 0.999732 0.718971
O O11 0.000000 0.025538 0.250000
O O12 0.000000 0.000000 0.000000
#
# Coordination Sequence:
#
# PCOD8119426 Si02
#       6
#     2   2   4   4   4   4
#     4  10  20  38  66  86 126 162 214 256 320 370
#     4  10  22  40  64  86 128 170 208 256 324 380
#     4  10  20  41  64  89 120 171 204 262 320 367
#     4  10  22  40  66  94 125 158 219 266 303 380
#     4  11  24  38  66  95 122 166 212 258 315 379
#     4  10  23  40  61  90 132 168 205 262 318 379
#
# _framework density 19.061674
#
# number of rings (size 3 to 8) (size 9 to 14) (size 15 to 20)
#    0.600    1.200    1.000    3.600    4.200    1.600 
#    1.800    1.000    0.000    0.000    0.000    0.000 
#    0.000    0.000    0.000    0.000    0.000    0.000 
#
# Total GULP energy -247852.119473 kJ/mol
# GULP energy per Si atom -12392.605974 kJ/mol
# Density = 1.901829 g / cm^3
# Si number density = 19.061674 Si / 1000 Ang^3
#
#
#
# Elastic Constant Matrix: (Units=GPa)
#
#
# Indices 1 2 3 4 5 6 
#
# 1 101.6905 56.8306 88.0492 0.0000 17.3581 0.0000
# 2 56.8306 116.0949 51.5887 0.0000 9.4764 0.0000
# 3 88.0492 51.5887 145.1747 0.0000 1.8278 0.0000
# 4 0.0000 0.0000 0.0000 1.6815 0.0000 15.9893
# 5 17.3581 9.4764 1.8278 0.0000 51.7412 0.0000
# 6 0.0000 0.0000 0.0000 15.9893 0.0000 33.3258
#
#
#
# Elastic Compliance Matrix: (Units=1/GPa)
#
#
# Indices 1 2 3 4 5 6 
#
# 1 0.026457 -0.006258 -0.013731 0.000000 -0.007245 0.000000
# 2 -0.006258 0.011869 -0.000421 0.000000 -0.000059 0.000000
# 3 -0.013731 -0.000421 0.015314 0.000000 0.004143 0.000000
# 4 0.000000 0.000000 0.000000 -0.166947 0.000000 0.080099
# 5 -0.007245 -0.000059 0.004143 0.000000 0.021622 0.000000
# 6 0.000000 0.000000 0.000000 0.080099 0.000000 -0.008424
#
#
# Mechanical properties :
#
#
# Convention : Reuss Voigt Hill
#
# Bulk Modulus (GPa) = 78.01215 83.98856 81.00035
# Shear Modulus (GPa) = -90.88630 28.44917 -31.21857
#
# Velocity S-wave (km/s) = -6.91257 3.86745 -4.05132
# Velocity P-wave (km/s) = 4.76408 8.00625 4.54992
#
# Compressibility (1/GPa) = 0.01281852
#
# Stress axis : x y z
#
# Youngs Moduli (GPa) = 37.79703 84.25127 65.29991
#
# Poissons Ratio (x) = 0.52726 0.89665
# Poissons Ratio (y) = 0.23654 0.02752
# Poissons Ratio (z) = 0.51900 0.03551
#
# Static dielectric constant tensor:
#      x y z
#    x 3.518580 0.000000 -0.188330 
#    y 0.000000 3.588560 0.000000 
#    z -0.188330 0.000000 3.355360 
# 
# 
# High freq. dielectric constant tensor:
#      x y z
#    x 1.737760 0.000000 -0.005810 
#    y 0.000000 1.747110 0.000000 
#    z -0.005810 0.000000 1.746230 
# 
# From -- ./inp_files/29030.got.cif
#   From: 2010.06.25/outbox.cif.g09.slc.cpg/sg13_15_cif.got.tgz:29030.got - 2010.06.28 04:50:58.
