data_PCOD8119535
_publ_section_title
;
Structure prediction by ZEFSAII (Michael W. Deem and Ramdas Pophale) SiO2 
 PCOD8119535
Probable space group: P 2/C
;
_chemical_formula_sum "Si O2"
_cell_formula_units_Z 28
_cell_length_a 24.571880
_cell_length_b 8.783522
_cell_length_c 22.724899
_cell_angle_alpha 90.000000
_cell_angle_beta 17.368255
_cell_angle_gamma 90.000000
_cell_volume 1464.100539
_symmetry_space_group_name_H-M "P 2/C"
_symmetry_group_IT_number 13
_symmetry_cell_setting 'monoclinic'
loop_
_space_group_symop_operation_xyz
x,y,z
-x,y,1/2-z
-x,-y,-z
x,-y,1/2+z
loop_
_atom_site_type_symbol
_atom_site_label
_atom_site_fract_x
_atom_site_fract_y
_atom_site_fract_z
Si Si1 0.235425 0.299651 0.166337
Si Si2 0.308491 0.554016 0.174346
Si Si3 0.478264 0.953806 0.090767
Si Si4 0.470593 0.266738 0.404675
Si Si5 0.779738 0.449184 0.910802
Si Si6 0.201659 0.531670 0.971990
Si Si7 0.835496 0.265591 0.571297
O O1 0.203781 0.411443 0.254236
O O2 0.294451 0.403917 0.049350
O O3 0.045807 0.215396 0.348098
O O4 0.384015 0.176661 0.031005
O O5 0.183395 0.623395 0.353615
O O6 0.500000 0.500000 0.000000
O O7 0.349285 0.682890 0.084754
O O8 0.275683 0.888992 0.307198
O O9 0.495346 0.088818 0.120286
O O10 0.500000 0.000000 0.000000
O O11 0.344185 0.302417 0.478171
O O12 0.665859 0.350903 0.198296
O O13 0.992444 0.415790 0.677317
O O14 0.747960 0.479916 0.011859
O O15 0.229484 0.361653 0.918331
#
# Coordination Sequence:
#
# PCOD8119535 Si02
#       7
#     4   4   4   4   4   4   4
#     4  10  22  37  60  85 113 151 193 238 283 330
#     4  11  17  36  57  83 116 145 191 240 276 330
#     4  12  24  39  52  83 127 156 183 226 281 353
#     4  11  21  35  57  82 118 154 183 226 285 340
#     4   9  21  40  62  88 108 140 198 247 277 330
#     4  10  20  39  65  85 109 145 192 244 287 323
#     4  11  21  37  60  86 113 152 192 234 287 332
#
# _framework density 19.124369999999999
#
# number of rings (size 3 to 8) (size 9 to 14) (size 15 to 20)
#    0.000    1.429    4.286    1.714    0.000    1.714 
#    0.000    2.857    0.000    3.429    0.000    0.000 
#    0.000    0.000    0.000    0.000    0.000    0.000 
#
# Total GULP energy -347129.831588 kJ/mol
# GULP energy per Si atom -12397.493985 kJ/mol
# Density = 1.908084 g / cm^3
# Si number density = 19.124370 Si / 1000 Ang^3
#
#
#
# Elastic Constant Matrix: (Units=GPa)
#
#
# Indices 1 2 3 4 5 6 
#
# 1 112.9815 47.7398 25.6030 0.0000 -0.1919 0.0000
# 2 47.7398 106.8827 32.0828 0.0000 -11.0467 0.0000
# 3 25.6030 32.0828 62.8975 0.0000 -4.4524 0.0000
# 4 0.0000 0.0000 0.0000 23.5520 0.0000 -6.1323
# 5 -0.1919 -11.0467 -4.4524 0.0000 27.9777 0.0000
# 6 0.0000 0.0000 0.0000 -6.1323 0.0000 26.0487
#
#
#
# Elastic Compliance Matrix: (Units=1/GPa)
#
#
# Indices 1 2 3 4 5 6 
#
# 1 0.011319 -0.004541 -0.002440 0.000000 -0.002104 0.000000
# 2 -0.004541 0.013220 -0.004579 0.000000 0.004460 0.000000
# 3 -0.002440 -0.004579 0.019316 0.000000 0.001249 0.000000
# 4 0.000000 0.000000 0.000000 0.045232 0.000000 0.010648
# 5 -0.002104 0.004460 0.001249 0.000000 0.037688 0.000000
# 6 0.000000 0.000000 0.000000 0.010648 0.000000 0.040896
#
#
# Mechanical properties :
#
#
# Convention : Reuss Voigt Hill
#
# Bulk Modulus (GPa) = 48.22772 54.84588 51.53680
# Shear Modulus (GPa) = 25.29049 27.33809 26.31429
#
# Velocity S-wave (km/s) = 3.64046 3.78496 3.71341
# Velocity P-wave (km/s) = 6.55311 6.91679 6.73741
#
# Compressibility (1/GPa) = 0.02073497
#
# Stress axis : x y z
#
# Youngs Moduli (GPa) = 88.34654 75.64549 51.76950
#
# Poissons Ratio (x) = 0.34348 0.12634
# Poissons Ratio (y) = 0.40115 0.23705
# Poissons Ratio (z) = 0.21560 0.34638
#
# Static dielectric constant tensor:
#      x y z
#    x 4.439140 0.000000 0.837930 
#    y 0.000000 3.237620 0.000000 
#    z 0.837930 0.000000 4.687170 
# 
# 
# High freq. dielectric constant tensor:
#      x y z
#    x 1.755420 0.000000 -0.009010 
#    y 0.000000 1.719060 0.000000 
#    z -0.009010 0.000000 1.751680 
# 
# From -- ./inp_files/82125.got.cif
#   From: 2010.06.25/outbox.cif.g09.slc.cpg/sg13_42_cif.got.tgz:82125.got - 2010.06.28 04:50:58.
