data_PCOD8119549
_publ_section_title
;
Structure prediction by ZEFSAII (Michael W. Deem and Ramdas Pophale) SiO2 
 PCOD8119549
Probable space group: P 2/C
;
_chemical_formula_sum "Si O2"
_cell_formula_units_Z 28
_cell_length_a 12.876840
_cell_length_b 11.957451
_cell_length_c 9.425522
_cell_angle_alpha 90.000000
_cell_angle_beta 119.116365
_cell_angle_gamma 90.000000
_cell_volume 1267.892666
_symmetry_space_group_name_H-M "P 2/C"
_symmetry_group_IT_number 13
_symmetry_cell_setting 'monoclinic'
loop_
_space_group_symop_operation_xyz
x,y,z
-x,y,1/2-z
-x,-y,-z
x,-y,1/2+z
loop_
_atom_site_type_symbol
_atom_site_label
_atom_site_fract_x
_atom_site_fract_y
_atom_site_fract_z
Si Si1 0.235964 0.133480 0.585798
Si Si2 0.344846 0.232576 0.394621
Si Si3 0.025266 0.219524 0.614223
Si Si4 0.176252 0.624788 0.620518
Si Si5 0.384925 0.247159 0.916100
Si Si6 0.191644 0.581857 0.316104
Si Si7 0.631973 0.081983 0.338857
O O1 0.256738 0.219872 0.470449
O O2 0.101001 0.141346 0.556728
O O3 0.330027 0.159660 0.770404
O O4 0.267013 0.008250 0.551998
O O5 0.300726 0.330980 0.263148
O O6 0.477624 0.264650 0.530697
O O7 0.343437 0.117523 0.306351
O O8 0.099455 0.325157 0.711173
O O9 0.000000 0.156590 0.750000
O O10 0.911304 0.267321 0.452647
O O11 0.191689 0.560172 0.483589
O O12 0.141106 0.529349 0.709159
O O13 0.322010 0.369201 0.861997
O O14 0.363579 0.191402 0.056815
O O15 0.500000 0.027571 0.250000
#
# Coordination Sequence:
#
# PCOD8119549 Si02
#       7
#     4   4   4   4   4   4   4
#     4  11  22  38  66  95 122 162 220 261 306 374
#     4  11  23  38  62  96 133 163 205 268 307 376
#     4   9  22  44  65  90 124 163 211 268 316 374
#     4  11  23  41  64  93 125 166 217 258 318 368
#     4  10  21  40  62  93 135 168 203 252 322 379
#     4  10  22  40  66  91 121 167 212 263 312 374
#     4  10  20  39  66  93 129 174 209 249 315 385
#
# _framework density 22.083888999999999
#
# number of rings (size 3 to 8) (size 9 to 14) (size 15 to 20)
#    0.000    1.714    1.429    2.571    4.000    3.429 
#    0.000    0.714    0.000    0.000    0.000    0.000 
#    0.000    0.000    0.000    0.000    0.000    0.000 
#
# Total GULP energy -347037.742941 kJ/mol
# GULP energy per Si atom -12394.205105 kJ/mol
# Density = 2.203362 g / cm^3
# Si number density = 22.083889 Si / 1000 Ang^3
#
#
#
# Elastic Constant Matrix: (Units=GPa)
#
#
# Indices 1 2 3 4 5 6 
#
# 1 105.6324 17.8191 21.0707 0.0000 -22.8159 0.0000
# 2 17.8191 43.3824 9.9690 0.0000 -6.7289 0.0000
# 3 21.0707 9.9690 71.6388 0.0000 -7.2648 0.0000
# 4 0.0000 0.0000 0.0000 20.9381 0.0000 -4.0967
# 5 -22.8159 -6.7289 -7.2648 0.0000 29.6021 0.0000
# 6 0.0000 0.0000 0.0000 -4.0967 0.0000 15.1437
#
#
#
# Elastic Compliance Matrix: (Units=1/GPa)
#
#
# Indices 1 2 3 4 5 6 
#
# 1 0.012229 -0.003229 -0.002324 0.000000 0.008121 0.000000
# 2 -0.003229 0.025325 -0.002300 0.000000 0.002703 0.000000
# 3 -0.002324 -0.002300 0.015104 0.000000 0.001393 0.000000
# 4 0.000000 0.000000 0.000000 0.050429 0.000000 0.013642
# 5 0.008121 0.002703 0.001393 0.000000 0.040997 0.000000
# 6 0.000000 0.000000 0.000000 0.013642 0.000000 0.069724
#
#
# Mechanical properties :
#
#
# Convention : Reuss Voigt Hill
#
# Bulk Modulus (GPa) = 27.06282 35.37457 31.21869
# Shear Modulus (GPa) = 20.67545 24.58978 22.63261
#
# Velocity S-wave (km/s) = 3.06310 3.34049 3.20480
# Velocity P-wave (km/s) = 4.97908 5.56161 5.27839
#
# Compressibility (1/GPa) = 0.03695107
#
# Stress axis : x y z
#
# Youngs Moduli (GPa) = 81.77107 39.48643 66.20868
#
# Poissons Ratio (x) = 0.12752 0.15387
# Poissons Ratio (y) = 0.26407 0.15229
# Poissons Ratio (z) = 0.19003 0.09083
#
# Static dielectric constant tensor:
#      x y z
#    x 4.579920 0.000000 -0.117470 
#    y 0.000000 3.723250 0.000000 
#    z -0.117470 0.000000 4.316750 
# 
# 
# High freq. dielectric constant tensor:
#      x y z
#    x 1.868100 0.000000 -0.005850 
#    y 0.000000 1.839650 0.000000 
#    z -0.005850 0.000000 1.880800 
# 
# From -- ./inp_files/16879.got.cif
#   From: 2010.06.25/outbox.cif.g09.slc.cpg/sg13_9_cif.got.tgz:16879.got - 2010.06.28 04:50:58.
