data_PCOD8119783
_publ_section_title
;
Structure prediction by ZEFSAII (Michael W. Deem and Ramdas Pophale) SiO2 
 PCOD8119783
Probable space group: P 2/C
;
_chemical_formula_sum "Si O2"
_cell_formula_units_Z 28
_cell_length_a 11.269763
_cell_length_b 8.472216
_cell_length_c 19.650825
_cell_angle_alpha 90.000000
_cell_angle_beta 42.705155
_cell_angle_gamma 90.000000
_cell_volume 1272.526661
_symmetry_space_group_name_H-M "P 2/C"
_symmetry_group_IT_number 13
_symmetry_cell_setting 'monoclinic'
loop_
_space_group_symop_operation_xyz
x,y,z
-x,y,1/2-z
-x,-y,-z
x,-y,1/2+z
loop_
_atom_site_type_symbol
_atom_site_label
_atom_site_fract_x
_atom_site_fract_y
_atom_site_fract_z
Si Si1 0.727525 0.862377 0.892859
Si Si2 0.500000 0.382698 0.250000
Si Si3 0.818026 0.128219 0.509991
Si Si4 0.842072 0.219112 0.056390
Si Si5 0.165403 0.420626 0.571403
Si Si6 0.455422 0.621977 0.383823
Si Si7 0.000000 0.620889 0.750000
Si Si8 0.656142 0.799993 0.402936
O O1 0.830733 0.730254 0.807205
O O2 0.737232 0.029791 0.849306
O O3 0.815364 0.879030 0.929857
O O4 0.525957 0.815283 0.980468
O O5 0.670906 0.275932 0.168659
O O6 0.531900 0.494748 0.300587
O O7 0.657357 0.237745 0.604304
O O8 0.997066 0.209572 0.459367
O O9 0.795571 0.952262 0.546962
O O10 0.895154 0.344413 0.974762
O O11 0.329732 0.537568 0.492076
O O12 0.015615 0.519040 0.673843
O O13 0.209585 0.279873 0.603217
O O14 0.625811 0.696876 0.348111
#
# Coordination Sequence:
#
# PCOD8119783 Si02
#       8
#     4   2   4   4   4   4   2   4
#     4  10  22  41  67  96 126 176 221 271 322 406
#     4  10  24  42  64 104 134 170 238 268 336 398
#     4  10  20  45  68  89 133 181 220 263 343 384
#     4  10  23  43  70  93 134 181 216 280 320 403
#     4  11  22  40  63  99 134 165 218 274 340 385
#     4  10  22  42  65  95 131 172 215 283 326 393
#     4  12  24  40  62 100 136 170 220 272 332 404
#     4  10  20  42  67  90 129 174 213 275 337 384
#
# _framework density 22.003468000000002
#
# number of rings (size 3 to 8) (size 9 to 14) (size 15 to 20)
#    0.000    1.714    4.286    0.429    0.000    4.571 
#    5.143    1.429    0.000    0.000    0.000    0.000 
#    0.000    0.000    0.000    0.000    0.000    0.000 
#
# Total GULP energy -347169.602096 kJ/mol
# GULP energy per Si atom -12398.914361 kJ/mol
# Density = 2.195339 g / cm^3
# Si number density = 22.003468 Si / 1000 Ang^3
#
#
#
# Elastic Constant Matrix: (Units=GPa)
#
#
# Indices 1 2 3 4 5 6 
#
# 1 94.0698 40.6026 32.1454 0.0000 -1.3360 0.0000
# 2 40.6026 137.5467 60.6374 0.0000 0.1002 0.0000
# 3 32.1454 60.6374 114.9734 0.0000 6.0447 0.0000
# 4 0.0000 0.0000 0.0000 34.1940 0.0000 -3.2403
# 5 -1.3360 0.1002 6.0447 0.0000 16.5849 0.0000
# 6 0.0000 0.0000 0.0000 -3.2403 0.0000 36.2644
#
#
#
# Elastic Compliance Matrix: (Units=1/GPa)
#
#
# Indices 1 2 3 4 5 6 
#
# 1 0.012587 -0.002767 -0.002156 0.000000 0.001816 0.000000
# 2 -0.002767 0.010134 -0.004645 0.000000 0.001409 0.000000
# 3 -0.002156 -0.004645 0.011988 0.000000 -0.004515 0.000000
# 4 0.000000 0.000000 0.000000 0.029495 0.000000 0.002635
# 5 0.001816 0.001409 -0.004515 0.000000 0.062079 0.000000
# 6 0.000000 0.000000 0.000000 0.002635 0.000000 0.027811
#
#
# Mechanical properties :
#
#
# Convention : Reuss Voigt Hill
#
# Bulk Modulus (GPa) = 64.21108 68.15119 66.18114
# Shear Modulus (GPa) = 28.02401 31.62228 29.82315
#
# Velocity S-wave (km/s) = 3.57265 3.79509 3.68555
# Velocity P-wave (km/s) = 6.80177 7.08828 6.94650
#
# Compressibility (1/GPa) = 0.01557364
#
# Stress axis : x y z
#
# Youngs Moduli (GPa) = 79.44757 98.68058 83.41990
#
# Poissons Ratio (x) = 0.27301 0.17982
# Poissons Ratio (y) = 0.21980 0.38750
# Poissons Ratio (z) = 0.17125 0.45838
#
# Static dielectric constant tensor:
#      x y z
#    x 3.850190 0.000000 0.001160 
#    y 0.000000 4.464110 0.000000 
#    z 0.001160 0.000000 3.912750 
# 
# 
# High freq. dielectric constant tensor:
#      x y z
#    x 1.854720 0.000000 -0.003840 
#    y 0.000000 1.897130 0.000000 
#    z -0.003840 0.000000 1.841200 
# 
# From -- ./inp_files/78240.got.cif
#   From: 2010.06.25/outbox.cif.g09.slc.cpg/sg13_40_cif.got.tgz:78240.got - 2010.06.28 04:50:58.
