data_PCOD8119858
_publ_section_title
;
Structure prediction by ZEFSAII (Michael W. Deem and Ramdas Pophale) SiO2 
 PCOD8119858
Probable space group: P 2/C
;
_chemical_formula_sum "Si O2"
_cell_formula_units_Z 30
_cell_length_a 17.828275
_cell_length_b 16.959634
_cell_length_c 5.175361
_cell_angle_alpha 90.000000
_cell_angle_beta 74.599331
_cell_angle_gamma 90.000000
_cell_volume 1508.638077
_symmetry_space_group_name_H-M "P 2/C"
_symmetry_group_IT_number 13
_symmetry_cell_setting 'monoclinic'
loop_
_space_group_symop_operation_xyz
x,y,z
-x,y,1/2-z
-x,-y,-z
x,-y,1/2+z
loop_
_atom_site_type_symbol
_atom_site_label
_atom_site_fract_x
_atom_site_fract_y
_atom_site_fract_z
Si Si1 0.086718 0.049286 0.202343
Si Si2 0.375550 0.810305 0.381462
Si Si3 0.587519 0.463580 0.172170
Si Si4 0.190933 0.705689 0.043668
Si Si5 0.806213 0.195808 0.462971
Si Si6 0.089450 0.550646 0.180081
Si Si7 0.372375 0.711573 0.887895
Si Si8 0.500000 0.054882 0.750000
O O1 0.148981 0.114967 0.088204
O O2 0.000000 0.084348 0.250000
O O3 0.099503 0.020016 0.482704
O O4 0.284172 0.828043 0.447672
O O5 0.395817 0.768117 0.631373
O O6 0.422550 0.891663 0.320658
O O7 0.400322 0.753534 0.124220
O O8 0.500000 0.497777 0.250000
O O9 0.631402 0.500819 0.380769
O O10 0.582575 0.369736 0.182664
O O11 0.166057 0.759202 0.306898
O O12 0.144927 0.624634 0.091313
O O13 0.170549 0.750489 0.799646
O O14 0.282171 0.688401 0.974867
O O15 0.107596 0.512246 0.439906
O O16 0.000000 0.579110 0.250000
O O17 0.500000 0.000000 0.500000
#
# Coordination Sequence:
#
# PCOD8119858 Si02
#       8
#     4   4   4   4   4   4   4   2
#     4  10  21  36  56  83 111 143 180 215 267 335
#     4  10  23  39  59  84 110 147 186 225 279 340
#     4  10  21  34  51  80 110 138 179 224 263 315
#     4  10  21  36  56  82 109 143 191 232 269 330
#     4  10  21  38  57  83 114 143 184 231 277 327
#     4  10  21  36  54  80 114 153 194 236 286 334
#     4  10  21  38  58  81 111 148 186 224 277 334
#     4  12  26  42  62  90 114 140 188 234 276 342
#
# _framework density 19.885486
#
# number of rings (size 3 to 8) (size 9 to 14) (size 15 to 20)
#    0.000    1.867    0.000    3.200    1.867    3.200 
#    0.000    0.000    0.000    0.000    0.000    0.000 
#    0.000    0.000    0.000    0.000    0.000    0.000 
#
# Total GULP energy -372083.392857 kJ/mol
# GULP energy per Si atom -12402.779762 kJ/mol
# Density = 1.984023 g / cm^3
# Si number density = 19.885486 Si / 1000 Ang^3
#
#
#
# Elastic Constant Matrix: (Units=GPa)
#
#
# Indices 1 2 3 4 5 6 
#
# 1 55.8126 44.2987 33.9941 0.0000 -2.6663 0.0000
# 2 44.2987 110.8053 45.2696 0.0000 -9.9120 0.0000
# 3 33.9941 45.2696 139.7194 0.0000 18.7228 0.0000
# 4 0.0000 0.0000 0.0000 39.9395 0.0000 -12.0429
# 5 -2.6663 -9.9120 18.7228 0.0000 31.5998 0.0000
# 6 0.0000 0.0000 0.0000 -12.0429 0.0000 42.3841
#
#
#
# Elastic Compliance Matrix: (Units=1/GPa)
#
#
# Indices 1 2 3 4 5 6 
#
# 1 0.027847 -0.009345 -0.003986 0.000000 0.001780 0.000000
# 2 -0.009345 0.014583 -0.003214 0.000000 0.005690 0.000000
# 3 -0.003986 -0.003214 0.010155 0.000000 -0.007361 0.000000
# 4 0.000000 0.000000 0.000000 0.027384 0.000000 0.007781
# 5 0.001780 0.005690 -0.007361 0.000000 0.037942 0.000000
# 6 0.000000 0.000000 0.000000 0.007781 0.000000 0.025805
#
#
# Mechanical properties :
#
#
# Convention : Reuss Voigt Hill
#
# Bulk Modulus (GPa) = 51.29512 61.49579 56.39546
# Shear Modulus (GPa) = 27.27717 34.96966 31.12342
#
# Velocity S-wave (km/s) = 3.70768 4.19806 3.96047
# Velocity P-wave (km/s) = 6.64684 7.38176 7.02392
#
# Compressibility (1/GPa) = 0.01949503
#
# Stress axis : x y z
#
# Youngs Moduli (GPa) = 35.91013 68.57352 98.47757
#
# Poissons Ratio (x) = 0.64084 0.39252
# Poissons Ratio (y) = 0.33559 0.31647
# Poissons Ratio (z) = 0.14314 0.22037
#
# Static dielectric constant tensor:
#      x y z
#    x 3.569380 0.000000 0.083710 
#    y 0.000000 3.387990 0.000000 
#    z 0.083710 0.000000 4.003220 
# 
# 
# High freq. dielectric constant tensor:
#      x y z
#    x 1.769720 0.000000 0.007540 
#    y 0.000000 1.772320 0.000000 
#    z 0.007540 0.000000 1.802490 
# 
# From -- ./inp_files/6265.got.cif
#   From: 2010.06.25/outbox.cif.g09.slc.cpg/sg13_4_cif.got.tgz:6265.got - 2010.06.28 04:50:58.
