data_PCOD8119645
_publ_section_title
;
Structure prediction by ZEFSAII (Michael W. Deem and Ramdas Pophale) SiO2 
 PCOD8119645
Probable space group: P 2/C
;
_chemical_formula_sum "Si O2"
_cell_formula_units_Z 32
_cell_length_a 11.860427
_cell_length_b 13.960229
_cell_length_c 17.508787
_cell_angle_alpha 90.000000
_cell_angle_beta 147.463725
_cell_angle_gamma 90.000000
_cell_volume 1559.181775
_symmetry_space_group_name_H-M "P 2/C"
_symmetry_group_IT_number 13
_symmetry_cell_setting 'monoclinic'
loop_
_space_group_symop_operation_xyz
x,y,z
-x,y,1/2-z
-x,-y,-z
x,-y,1/2+z
loop_
_atom_site_type_symbol
_atom_site_label
_atom_site_fract_x
_atom_site_fract_y
_atom_site_fract_z
Si Si1 0.260582 0.727709 0.588574
Si Si2 0.399776 0.208190 0.446206
Si Si3 0.933836 0.204181 0.372574
Si Si4 0.832275 0.930536 0.587006
Si Si5 0.479043 0.587990 0.046321
Si Si6 0.109478 0.419045 0.636226
Si Si7 0.216374 0.142475 0.917140
Si Si8 0.856915 0.405670 0.016214
O O1 0.500000 0.699732 0.750000
O O2 0.150396 0.793246 0.589643
O O3 0.255313 0.783703 0.507066
O O4 0.114392 0.635109 0.492852
O O5 0.260567 0.188338 0.293428
O O6 0.336997 0.148581 0.485199
O O7 0.383421 0.321520 0.449031
O O8 0.628281 0.168196 0.561559
O O9 0.075819 0.109118 0.440919
O O10 0.067271 0.297698 0.424773
O O11 0.000000 0.935598 0.750000
O O12 0.740558 0.036705 0.523443
O O13 0.710372 0.621714 0.205991
O O14 0.500000 0.500000 0.000000
O O15 0.327576 0.562447 0.031244
O O16 0.216369 0.418836 0.613474
O O17 0.059256 0.525010 0.639986
O O18 0.000000 0.153433 0.750000
#
# Coordination Sequence:
#
# PCOD8119645 Si02
#       8
#     4   4   4   4   4   4   4   4
#     4  11  23  42  67  93 128 171 214 262 320 380
#     4  11  21  38  63  90 128 164 210 256 320 380
#     4  10  20  40  65  91 120 169 215 256 308 386
#     4   9  20  38  64  91 123 167 212 263 318 381
#     4  12  25  38  63  98 129 165 208 265 317 373
#     4  10  24  41  64  91 127 169 212 256 315 381
#     4  11  23  40  63  94 127 163 211 271 324 374
#     4  10  22  42  63  86 126 166 212 252 312 375
#
# _framework density 20.523585000000001
#
# number of rings (size 3 to 8) (size 9 to 14) (size 15 to 20)
#    0.000    1.500    2.500    2.250    1.750    5.000 
#    0.000    0.000    5.500    0.000    0.000    0.000 
#    0.000    0.000    0.000    0.000    0.000    0.000 
#
# Total GULP energy -396610.171072 kJ/mol
# GULP energy per Si atom -12394.067846 kJ/mol
# Density = 2.047687 g / cm^3
# Si number density = 20.523585 Si / 1000 Ang^3
#
#
#
# Elastic Constant Matrix: (Units=GPa)
#
#
# Indices 1 2 3 4 5 6 
#
# 1 98.9738 30.4746 38.3385 0.0000 21.5750 0.0000
# 2 30.4746 86.2769 20.1991 0.0000 10.0933 0.0000
# 3 38.3385 20.1991 83.0878 0.0000 7.6284 0.0000
# 4 0.0000 0.0000 0.0000 -5.2244 0.0000 -111.0484
# 5 21.5750 10.0933 7.6284 0.0000 17.6591 0.0000
# 6 0.0000 0.0000 0.0000 -111.0484 0.0000 -440.0196
#
#
#
# Elastic Compliance Matrix: (Units=1/GPa)
#
#
# Indices 1 2 3 4 5 6 
#
# 1 0.016645 -0.002664 -0.005524 0.000000 -0.016426 0.000000
# 2 -0.002664 0.013352 -0.001682 0.000000 -0.003650 0.000000
# 3 -0.005524 -0.001682 0.014875 0.000000 0.001285 0.000000
# 4 0.000000 0.000000 0.000000 0.043858 0.000000 -0.011068
# 5 -0.016426 -0.003650 0.001285 0.000000 0.078229 0.000000
# 6 0.000000 0.000000 0.000000 -0.011068 0.000000 0.000521
#
#
# Mechanical properties :
#
#
# Convention : Reuss Voigt Hill
#
# Bulk Modulus (GPa) = 39.78972 49.59588 44.69280
# Shear Modulus (GPa) = 25.56276 -73.56189 -23.99957
#
# Velocity S-wave (km/s) = 3.53304 -5.99337 -3.42331
# Velocity P-wave (km/s) = 6.00604 4.86581 2.48962
#
# Compressibility (1/GPa) = 0.02513212
#
# Stress axis : x y z
#
# Youngs Moduli (GPa) = 60.07926 74.89318 67.22509
#
# Poissons Ratio (x) = 0.19953 0.37138
# Poissons Ratio (y) = 0.16006 0.11305
# Poissons Ratio (z) = 0.33190 0.12594
#
# Static dielectric constant tensor:
#      x y z
#    x 3.915370 0.000000 0.180060 
#    y 0.000000 3.813970 0.000000 
#    z 0.180060 0.000000 3.604160 
# 
# 
# High freq. dielectric constant tensor:
#      x y z
#    x 1.814140 0.000000 0.010990 
#    y 0.000000 1.803310 0.000000 
#    z 0.010990 0.000000 1.790570 
# 
# From -- ./inp_files/66930.got.cif
#   From: 2010.06.25/outbox.cif.g09.slc.cpg/sg13_34_cif.got.tgz:66930.got - 2010.06.28 04:50:58.
