data_PCOD8119330
_publ_section_title
;
Structure prediction by ZEFSAII (Michael W. Deem and Ramdas Pophale) SiO2 
 PCOD8119330
Probable space group: P 2/C
;
_chemical_formula_sum "Si O2"
_cell_formula_units_Z 32
_cell_length_a 21.243417
_cell_length_b 14.222189
_cell_length_c 8.267286
_cell_angle_alpha 90.000000
_cell_angle_beta 141.098064
_cell_angle_gamma 90.000000
_cell_volume 1568.577796
_symmetry_space_group_name_H-M "P 2/C"
_symmetry_group_IT_number 13
_symmetry_cell_setting 'monoclinic'
loop_
_space_group_symop_operation_xyz
x,y,z
-x,y,1/2-z
-x,-y,-z
x,-y,1/2+z
loop_
_atom_site_type_symbol
_atom_site_label
_atom_site_fract_x
_atom_site_fract_y
_atom_site_fract_z
Si Si1 0.884258 0.540120 0.973237
Si Si2 0.812687 0.132238 0.308121
Si Si3 0.805311 0.197243 0.813868
Si Si4 0.911014 0.293989 0.323465
Si Si5 0.605694 0.895876 0.520149
Si Si6 0.395098 0.108512 0.097692
Si Si7 0.862626 0.641118 0.243447
Si Si8 0.113449 0.032249 0.725622
O O1 0.826719 0.586517 0.010517
O O2 0.000000 0.543963 0.250000
O O3 0.865111 0.603338 0.774343
O O4 0.856101 0.433014 0.879232
O O5 0.878661 0.224630 0.405455
O O6 0.697207 0.158844 0.116181
O O7 0.861178 0.077409 0.553694
O O8 0.817881 0.060617 0.165305
O O9 0.695864 0.168335 0.660510
O O10 0.788169 0.272403 0.633063
O O11 0.867061 0.106383 0.879388
O O12 0.868437 0.252624 0.073644
O O13 0.029971 0.306682 0.552602
O O14 0.616445 0.889343 0.733132
O O15 0.611528 0.003859 0.481439
O O16 0.500000 0.851728 0.250000
O O17 0.500000 0.154321 0.250000
O O18 0.000000 0.000000 0.500000
#
# Coordination Sequence:
#
# PCOD8119330 Si02
#       8
#     4   4   4   4   4   4   4   4
#     4  10  20  38  62  85 120 155 203 246 296 342
#     4  12  23  40  56  85 118 159 210 246 301 354
#     4  12  23  39  58  86 122 157 205 244 300 360
#     4  11  24  36  59  85 122 158 201 245 293 355
#     4  11  22  40  65  84 113 153 210 260 313 345
#     4  11  24  40  62  87 115 156 205 263 305 354
#     4  11  22  40  60  92 120 163 197 249 297 358
#     4  12  25  39  53  77 122 172 204 239 285 358
#
# _framework density 20.400646999999999
#
# number of rings (size 3 to 8) (size 9 to 14) (size 15 to 20)
#    0.000    0.750    2.500    7.500    3.500    3.000 
#    0.000    0.000    0.000    0.000    0.000    4.375 
#    0.000    0.000    0.000    0.000    0.000    0.000 
#
# Total GULP energy -396723.821816 kJ/mol
# GULP energy per Si atom -12397.619432 kJ/mol
# Density = 2.035421 g / cm^3
# Si number density = 20.400647 Si / 1000 Ang^3
#
#
#
# Elastic Constant Matrix: (Units=GPa)
#
#
# Indices 1 2 3 4 5 6 
#
# 1 101.9366 29.6368 24.8915 0.0000 19.8027 0.0000
# 2 29.6368 90.2104 20.3354 0.0000 19.0400 0.0000
# 3 24.8915 20.3354 54.5016 0.0000 14.3948 0.0000
# 4 0.0000 0.0000 0.0000 20.2483 0.0000 -10.7502
# 5 19.8027 19.0400 14.3948 0.0000 24.1967 0.0000
# 6 0.0000 0.0000 0.0000 -10.7502 0.0000 43.0940
#
#
#
# Elastic Compliance Matrix: (Units=1/GPa)
#
#
# Indices 1 2 3 4 5 6 
#
# 1 0.012470 -0.001949 -0.003177 0.000000 -0.006782 0.000000
# 2 -0.001949 0.013917 -0.002173 0.000000 -0.008063 0.000000
# 3 -0.003177 -0.002173 0.023101 0.000000 -0.009434 0.000000
# 4 0.000000 0.000000 0.000000 0.056926 0.000000 0.014201
# 5 -0.006782 -0.008063 -0.009434 0.000000 0.058835 0.000000
# 6 0.000000 0.000000 0.000000 0.014201 0.000000 0.026748
#
#
# Mechanical properties :
#
#
# Convention : Reuss Voigt Hill
#
# Bulk Modulus (GPa) = 28.66079 44.04176 36.35127
# Shear Modulus (GPa) = 22.91212 28.96013 25.93613
#
# Velocity S-wave (km/s) = 3.35492 3.77180 3.56945
# Velocity P-wave (km/s) = 5.39321 6.37212 5.90299
#
# Compressibility (1/GPa) = 0.03489088
#
# Stress axis : x y z
#
# Youngs Moduli (GPa) = 80.19317 71.85317 43.28781
#
# Poissons Ratio (x) = 0.14006 0.13751
# Poissons Ratio (y) = 0.15632 0.09406
# Poissons Ratio (z) = 0.25475 0.15612
#
# Static dielectric constant tensor:
#      x y z
#    x 4.294460 0.000000 -0.032780 
#    y 0.000000 4.021570 0.000000 
#    z -0.032780 0.000000 3.721840 
# 
# 
# High freq. dielectric constant tensor:
#      x y z
#    x 1.812340 0.000000 -0.027490 
#    y 0.000000 1.790550 0.000000 
#    z -0.027490 0.000000 1.769360 
# 
# From -- ./inp_files/23564.got.cif
#   From: 2010.06.25/outbox.cif.g09.slc.cpg/sg13_12_cif.got.tgz:23564.got - 2010.06.28 04:50:58.
