data_PCOD8119839
_publ_section_title
;
Structure prediction by ZEFSAII (Michael W. Deem and Ramdas Pophale) SiO2 
 PCOD8119839
Probable space group: P 2/C
;
_chemical_formula_sum "Si O2"
_cell_formula_units_Z 20
_cell_length_a 10.085800
_cell_length_b 8.449629
_cell_length_c 11.585389
_cell_angle_alpha 90.000000
_cell_angle_beta 124.837740
_cell_angle_gamma 90.000000
_cell_volume 810.366973
_symmetry_space_group_name_H-M "P 2/C"
_symmetry_group_IT_number 13
_symmetry_cell_setting 'monoclinic'
loop_
_space_group_symop_operation_xyz
x,y,z
-x,y,1/2-z
-x,-y,-z
x,-y,1/2+z
loop_
_atom_site_type_symbol
_atom_site_label
_atom_site_fract_x
_atom_site_fract_y
_atom_site_fract_z
Si Si1 0.897695 0.651168 0.912505
Si Si2 0.477754 0.774574 0.605511
Si Si3 0.633060 0.463386 0.890725
Si Si4 0.128855 0.112744 0.905141
Si Si5 0.201954 0.777342 0.868910
O O1 0.715101 0.592004 0.843824
O O2 0.918264 0.700704 0.788360
O O3 0.928207 0.810198 0.002389
O O4 0.000000 0.500000 0.000000
O O5 0.500000 0.828884 0.750000
O O6 0.462415 0.584677 0.573291
O O7 0.314784 0.847254 0.469035
O O8 0.632056 0.833831 0.608843
O O9 0.500000 0.363705 0.750000
O O10 0.764109 0.352611 0.015376
O O11 0.000000 0.184385 0.750000
O O12 0.116992 0.921827 0.894160
#
# Coordination Sequence:
#
# PCOD8119839 Si02
#       5
#     4   4   4   4   4
#     4  11  27  47  73 102 146 193 242 300 365 441
#     4  10  20  47  72 100 143 190 244 293 361 443
#     4  10  22  42  71 110 134 184 256 288 357 441
#     4  11  27  45  69 109 145 184 246 298 375 435
#     4  12  24  45  76  99 148 189 238 314 363 427
#
# _framework density 24.680175999999999
#
# number of rings (size 3 to 8) (size 9 to 14) (size 15 to 20)
#    0.000    1.200    6.000    1.200    8.400    1.600 
#    3.600    0.000    0.000    0.000    0.000    0.000 
#    0.000    0.000    0.000    0.000    0.000    0.000 
#
# Total GULP energy -247813.711955 kJ/mol
# GULP energy per Si atom -12390.685598 kJ/mol
# Density = 2.462400 g / cm^3
# Si number density = 24.680176 Si / 1000 Ang^3
#
#
#
# Elastic Constant Matrix: (Units=GPa)
#
#
# Indices 1 2 3 4 5 6 
#
# 1 75.6427 40.5936 38.6472 0.0000 -14.6732 0.0000
# 2 40.5936 153.3385 97.8947 0.0000 -10.1931 0.0000
# 3 38.6472 97.8947 195.6787 0.0000 12.2171 0.0000
# 4 0.0000 0.0000 0.0000 38.9499 0.0000 6.2553
# 5 -14.6732 -10.1931 12.2171 0.0000 48.6995 0.0000
# 6 0.0000 0.0000 0.0000 6.2553 0.0000 40.2966
#
#
#
# Elastic Compliance Matrix: (Units=1/GPa)
#
#
# Indices 1 2 3 4 5 6 
#
# 1 0.016805 -0.002627 -0.002323 0.000000 0.005096 0.000000
# 2 -0.002627 0.010530 -0.004914 0.000000 0.002645 0.000000
# 3 -0.002323 -0.004914 0.008265 0.000000 -0.003802 0.000000
# 4 0.000000 0.000000 0.000000 0.026330 0.000000 -0.004087
# 5 0.005096 0.002645 -0.003802 0.000000 0.023577 0.000000
# 6 0.000000 0.000000 0.000000 -0.004087 0.000000 0.025450
#
#
# Mechanical properties :
#
#
# Convention : Reuss Voigt Hill
#
# Bulk Modulus (GPa) = 63.00483 86.54789 74.77636
# Shear Modulus (GPa) = 36.77050 42.09082 39.43066
#
# Velocity S-wave (km/s) = 3.86408 4.13419 4.00142
# Velocity P-wave (km/s) = 6.74479 7.61135 7.19113
#
# Compressibility (1/GPa) = 0.01587180
#
# Stress axis : x y z
#
# Youngs Moduli (GPa) = 59.50495 94.96380 120.98899
#
# Poissons Ratio (x) = 0.24947 0.28106
# Poissons Ratio (y) = 0.15632 0.59459
# Poissons Ratio (z) = 0.13823 0.46670
#
# Static dielectric constant tensor:
#      x y z
#    x 5.045400 0.000000 0.375630 
#    y 0.000000 4.096420 0.000000 
#    z 0.375630 0.000000 4.484680 
# 
# 
# High freq. dielectric constant tensor:
#      x y z
#    x 2.005480 0.000000 0.029340 
#    y 0.000000 1.965100 0.000000 
#    z 0.029340 0.000000 1.990980 
# 
# From -- ./inp_files/32099.got.cif
#   From: 2010.06.25/outbox.cif.g09.slc.cpg/sg13_17_cif.got.tgz:32099.got - 2010.06.28 04:50:58.
