data_PCOD8119276
_publ_section_title
;
Structure prediction by ZEFSAII (Michael W. Deem and Ramdas Pophale) SiO2 
 PCOD8119276
Probable space group: P 2/C
;
_chemical_formula_sum "Si O2"
_cell_formula_units_Z 30
_cell_length_a 11.559559
_cell_length_b 6.327016
_cell_length_c 19.236999
_cell_angle_alpha 90.000000
_cell_angle_beta 99.531772
_cell_angle_gamma 90.000000
_cell_volume 1387.521894
_symmetry_space_group_name_H-M "P 2/C"
_symmetry_group_IT_number 13
_symmetry_cell_setting 'monoclinic'
loop_
_space_group_symop_operation_xyz
x,y,z
-x,y,1/2-z
-x,-y,-z
x,-y,1/2+z
loop_
_atom_site_type_symbol
_atom_site_label
_atom_site_fract_x
_atom_site_fract_y
_atom_site_fract_z
Si Si1 0.351066 0.684162 0.443973
Si Si2 0.743455 0.367297 0.894719
Si Si3 0.000000 0.358918 0.750000
Si Si4 0.809648 0.666052 0.553276
Si Si5 0.337256 0.078837 0.350364
Si Si6 0.815613 0.951515 0.287770
Si Si7 0.949002 0.339793 0.366593
Si Si8 0.465286 0.642631 0.590945
O O1 0.220618 0.582434 0.436579
O O2 0.391074 0.770008 0.524108
O O3 0.434164 0.488542 0.436217
O O4 0.360749 0.848054 0.383126
O O5 0.844347 0.539261 0.893226
O O6 0.620140 0.490774 0.873025
O O7 0.748076 0.174607 0.841403
O O8 0.757370 0.268312 0.972939
O O9 0.986344 0.511002 0.682789
O O10 0.114666 0.212904 0.753993
O O11 0.752866 0.810509 0.606722
O O12 0.949416 0.707701 0.567074
O O13 0.280883 0.069600 0.268387
O O14 0.464380 0.190616 0.354098
O O15 0.904476 0.121780 0.328790
#
# Coordination Sequence:
#
# PCOD8119276 Si02
#       8
#     4   4   2   4   4   4   4   4
#     4   9  19  37  64  92 116 149 200 255 300 348
#     4  10  24  41  58  88 130 161 196 254 311 359
#     4  10  20  38  60  84 122 158 200 260 304 356
#     4  10  21  38  63  93 119 156 206 254 303 357
#     4  11  21  37  66  91 116 160 208 248 299 363
#     4  11  24  39  59  92 125 163 203 247 309 373
#     4  11  22  39  62  86 121 162 204 250 303 367
#     4   9  20  39  61  88 119 154 200 251 299 355
#
# _framework density 21.621281
#
# number of rings (size 3 to 8) (size 9 to 14) (size 15 to 20)
#    0.000    1.867    0.000    4.400    0.000    8.000 
#    0.000    4.000    0.000    0.000    0.000    0.000 
#    0.000    0.000    0.000    0.000    0.000    0.000 
#
# Total GULP energy -371953.804997 kJ/mol
# GULP energy per Si atom -12398.460167 kJ/mol
# Density = 2.157207 g / cm^3
# Si number density = 21.621281 Si / 1000 Ang^3
#
#
#
# Elastic Constant Matrix: (Units=GPa)
#
#
# Indices 1 2 3 4 5 6 
#
# 1 95.3060 35.4565 59.7044 0.0000 11.9660 0.0000
# 2 35.4565 92.1110 56.5079 0.0000 8.8264 0.0000
# 3 59.7044 56.5079 118.0378 0.0000 9.8210 0.0000
# 4 0.0000 0.0000 0.0000 32.7679 0.0000 -0.9113
# 5 11.9660 8.8264 9.8210 0.0000 30.7109 0.0000
# 6 0.0000 0.0000 0.0000 -0.9113 0.0000 27.5665
#
#
#
# Elastic Compliance Matrix: (Units=1/GPa)
#
#
# Indices 1 2 3 4 5 6 
#
# 1 0.015891 -0.001456 -0.007048 0.000000 -0.003519 0.000000
# 2 -0.001456 0.015640 -0.006599 0.000000 -0.001817 0.000000
# 3 -0.007048 -0.006599 0.015215 0.000000 -0.000223 0.000000
# 4 0.000000 0.000000 0.000000 0.030546 0.000000 0.001010
# 5 -0.003519 -0.001817 -0.000223 0.000000 0.034526 0.000000
# 6 0.000000 0.000000 0.000000 0.001010 0.000000 0.036309
#
#
# Mechanical properties :
#
#
# Convention : Reuss Voigt Hill
#
# Bulk Modulus (GPa) = 60.46480 67.64360 64.05420
# Shear Modulus (GPa) = 27.19648 28.46147 27.82898
#
# Velocity S-wave (km/s) = 3.55048 3.63211 3.59152
# Velocity P-wave (km/s) = 6.69582 6.99594 6.84752
#
# Compressibility (1/GPa) = 0.01653855
#
# Stress axis : x y z
#
# Youngs Moduli (GPa) = 62.92728 63.93996 65.72579
#
# Poissons Ratio (x) = 0.09310 0.46324
# Poissons Ratio (y) = 0.09162 0.43376
# Poissons Ratio (z) = 0.44352 0.42197
#
# Static dielectric constant tensor:
#      x y z
#    x 3.984710 0.000000 0.135940 
#    y 0.000000 3.860270 0.000000 
#    z 0.135940 0.000000 3.853280 
# 
# 
# High freq. dielectric constant tensor:
#      x y z
#    x 1.852600 0.000000 0.007820 
#    y 0.000000 1.844380 0.000000 
#    z 0.007820 0.000000 1.842320 
# 
# From -- ./inp_files/77567.got.cif
#   From: 2010.06.25/outbox.cif.g09.slc.cpg/sg13_39_cif.got.tgz:77567.got - 2010.06.28 04:50:58.
