data_PCOD8119254
_publ_section_title
;
Structure prediction by ZEFSAII (Michael W. Deem and Ramdas Pophale) SiO2 
 PCOD8119254
Probable space group: P 2/C
;
_chemical_formula_sum "Si O2"
_cell_formula_units_Z 20
_cell_length_a 14.697327
_cell_length_b 7.064371
_cell_length_c 24.398243
_cell_angle_alpha 90.000000
_cell_angle_beta 24.831843
_cell_angle_gamma 90.000000
_cell_volume 1063.836154
_symmetry_space_group_name_H-M "P 2/C"
_symmetry_group_IT_number 13
_symmetry_cell_setting 'monoclinic'
loop_
_space_group_symop_operation_xyz
x,y,z
-x,y,1/2-z
-x,-y,-z
x,-y,1/2+z
loop_
_atom_site_type_symbol
_atom_site_label
_atom_site_fract_x
_atom_site_fract_y
_atom_site_fract_z
Si Si1 0.001250 0.172155 0.632711
Si Si2 0.309893 0.460251 0.503194
Si Si3 0.258973 0.515440 0.279737
Si Si4 0.126769 0.238990 0.027623
Si Si5 0.000000 0.290391 0.750000
Si Si6 0.500000 0.657233 0.250000
O O1 0.823921 0.276247 0.691890
O O2 0.925219 0.164569 0.738574
O O3 0.221606 0.296706 0.509830
O O4 0.033723 0.964533 0.592423
O O5 0.570525 0.449936 0.360816
O O6 0.226866 0.664361 0.527054
O O7 0.205447 0.423241 0.620313
O O8 0.387291 0.522811 0.266714
O O9 0.068237 0.364337 0.389874
O O10 0.314474 0.214429 0.879403
#
# Coordination Sequence:
#
# PCOD8119254 Si02
#       6
#     4   4   4   4   2   2
#     4   9  20  37  56  88 116 143 199 225 277 347
#     4   8  19  37  58  81 119 149 185 230 283 334
#     4  10  20  38  59  86 115 149 190 240 275 343
#     4  10  20  38  59  83 117 150 188 241 275 340
#     4   8  18  40  58  82 118 152 186 228 286 340
#     4  10  22  38  60  82 116 156 188 228 302 326
#
# _framework density 18.799887999999999
#
# number of rings (size 3 to 8) (size 9 to 14) (size 15 to 20)
#    1.200    1.600    0.000    0.600    0.000    5.600 
#    0.000   11.000    0.000    0.000    0.000    0.000 
#    0.000    0.000    0.000    0.000    0.000    0.000 
#
# Total GULP energy -247787.733231 kJ/mol
# GULP energy per Si atom -12389.386662 kJ/mol
# Density = 1.875710 g / cm^3
# Si number density = 18.799888 Si / 1000 Ang^3
#
#
#
# Elastic Constant Matrix: (Units=GPa)
#
#
# Indices 1 2 3 4 5 6 
#
# 1 83.5787 47.0614 54.4271 0.0000 3.6782 0.0000
# 2 47.0614 118.1513 58.1782 0.0000 5.3920 0.0000
# 3 54.4271 58.1782 153.9319 0.0000 14.2783 0.0000
# 4 0.0000 0.0000 0.0000 0.3327 0.0000 14.0954
# 5 3.6782 5.3920 14.2783 0.0000 32.2089 0.0000
# 6 0.0000 0.0000 0.0000 14.0954 0.0000 10.0091
#
#
#
# Elastic Compliance Matrix: (Units=1/GPa)
#
#
# Indices 1 2 3 4 5 6 
#
# 1 0.017551 -0.004835 -0.004451 0.000000 0.000778 0.000000
# 2 -0.004835 0.011731 -0.002704 0.000000 -0.000213 0.000000
# 3 -0.004451 -0.002704 0.009389 0.000000 -0.003201 0.000000
# 4 0.000000 0.000000 0.000000 -0.051237 0.000000 0.072154
# 5 0.000778 -0.000213 -0.003201 0.000000 0.032413 0.000000
# 6 0.000000 0.000000 0.000000 0.072154 0.000000 -0.001703
#
#
# Mechanical properties :
#
#
# Convention : Reuss Voigt Hill
#
# Bulk Modulus (GPa) = 68.06699 74.99948 71.53323
# Shear Modulus (GPa) = 106.33419 21.57649 63.95534
#
# Velocity S-wave (km/s) = 7.52887 3.39144 5.83891
# Velocity P-wave (km/s) = 10.57654 7.43747 9.14273
#
# Compressibility (1/GPa) = 0.01469141
#
# Stress axis : x y z
#
# Youngs Moduli (GPa) = 56.97611 85.24477 106.50690
#
# Poissons Ratio (x) = 0.41215 0.47401
# Poissons Ratio (y) = 0.27548 0.28804
# Poissons Ratio (z) = 0.25358 0.23054
#
# Static dielectric constant tensor:
#      x y z
#    x 3.288470 0.000000 0.044290 
#    y 0.000000 3.076330 0.000000 
#    z 0.044290 0.000000 3.673050 
# 
# 
# High freq. dielectric constant tensor:
#      x y z
#    x 1.718750 0.000000 -0.000060 
#    y 0.000000 1.703500 0.000000 
#    z -0.000060 0.000000 1.740590 
# 
# From -- ./inp_files/38108.got.cif
#   From: 2010.06.25/outbox.cif.g09.slc.cpg/sg13_20_cif.got.tgz:38108.got - 2010.06.28 04:50:58.
