data_PCOD8119672
_publ_section_title
;
Structure prediction by ZEFSAII (Michael W. Deem and Ramdas Pophale) SiO2 
 PCOD8119672
Probable space group: P 2/C
;
_chemical_formula_sum "Si O2"
_cell_formula_units_Z 20
_cell_length_a 23.369759
_cell_length_b 7.310088
_cell_length_c 9.760791
_cell_angle_alpha 90.000000
_cell_angle_beta 32.676763
_cell_angle_gamma 90.000000
_cell_volume 900.273296
_symmetry_space_group_name_H-M "P 2/C"
_symmetry_group_IT_number 13
_symmetry_cell_setting 'monoclinic'
loop_
_space_group_symop_operation_xyz
x,y,z
-x,y,1/2-z
-x,-y,-z
x,-y,1/2+z
loop_
_atom_site_type_symbol
_atom_site_label
_atom_site_fract_x
_atom_site_fract_y
_atom_site_fract_z
Si Si1 0.551747 0.250179 0.006274
Si Si2 0.192216 0.817281 0.894903
Si Si3 0.782887 0.150330 0.474814
Si Si4 0.929277 0.466188 0.273770
Si Si5 0.582063 0.323860 0.470416
O O1 0.656868 0.137325 0.756900
O O2 0.587269 0.459669 0.941583
O O3 0.500000 0.176601 0.250000
O O4 0.457733 0.223936 0.086520
O O5 0.193365 0.875257 0.733590
O O6 0.304563 0.744681 0.716189
O O7 0.107526 0.659249 0.090098
O O8 0.160414 0.989339 0.053756
O O9 0.829055 0.341869 0.436430
O O10 0.000000 0.370475 0.250000
O O11 0.000000 0.500000 0.000000
O O12 0.500000 0.264926 0.750000
#
# Coordination Sequence:
#
# PCOD8119672 Si02
#       5
#     4   4   4   4   4
#     4  10  22  38  70 104 142 193 235 284 345 418
#     4  12  28  46  74 109 147 186 240 292 355 431
#     4  12  28  47  72 110 146 187 238 295 356 430
#     4  12  28  52  79 102 138 187 240 305 368 418
#     4  10  20  40  68 101 144 190 237 280 342 422
#
# _framework density 22.215475000000001
#
# number of rings (size 3 to 8) (size 9 to 14) (size 15 to 20)
#    0.000    0.800    6.000    0.000    5.600    3.200 
#    0.000    0.000    0.000    0.000    0.000    0.000 
#    0.000    0.000    0.000    0.000    0.000    0.000 
#
# Total GULP energy -248074.082738 kJ/mol
# GULP energy per Si atom -12403.704137 kJ/mol
# Density = 2.216491 g / cm^3
# Si number density = 22.215475 Si / 1000 Ang^3
#
#
#
# Elastic Constant Matrix: (Units=GPa)
#
#
# Indices 1 2 3 4 5 6 
#
# 1 154.3997 33.3066 58.4078 0.0000 31.6120 0.0000
# 2 33.3066 70.7861 21.0137 0.0000 7.0198 0.0000
# 3 58.4078 21.0137 117.1722 0.0000 16.8176 0.0000
# 4 0.0000 0.0000 0.0000 25.2320 0.0000 12.5336
# 5 31.6120 7.0198 16.8176 0.0000 44.8542 0.0000
# 6 0.0000 0.0000 0.0000 12.5336 0.0000 26.4814
#
#
#
# Elastic Compliance Matrix: (Units=1/GPa)
#
#
# Indices 1 2 3 4 5 6 
#
# 1 0.009418 -0.002917 -0.003471 0.000000 -0.004880 0.000000
# 2 -0.002917 0.015910 -0.001413 0.000000 0.000096 0.000000
# 3 -0.003471 -0.001413 0.010712 0.000000 -0.001349 0.000000
# 4 0.000000 0.000000 0.000000 0.051814 0.000000 -0.024523
# 5 -0.004880 0.000096 -0.001349 0.000000 0.026224 0.000000
# 6 0.000000 0.000000 0.000000 -0.024523 0.000000 0.049369
#
#
# Mechanical properties :
#
#
# Convention : Reuss Voigt Hill
#
# Bulk Modulus (GPa) = 48.93063 63.09047 56.01055
# Shear Modulus (GPa) = 26.90175 34.62217 30.76196
#
# Velocity S-wave (km/s) = 3.48364 3.95203 3.72520
# Velocity P-wave (km/s) = 6.18501 7.02038 6.61589
#
# Compressibility (1/GPa) = 0.02043710
#
# Stress axis : x y z
#
# Youngs Moduli (GPa) = 106.17804 62.85525 93.35556
#
# Poissons Ratio (x) = 0.18335 0.32406
# Poissons Ratio (y) = 0.30973 0.13190
# Poissons Ratio (z) = 0.36857 0.08881
#
# Static dielectric constant tensor:
#      x y z
#    x 4.148990 0.000000 0.202760 
#    y 0.000000 4.069910 0.000000 
#    z 0.202760 0.000000 3.746170 
# 
# 
# High freq. dielectric constant tensor:
#      x y z
#    x 1.894430 0.000000 0.003860 
#    y 0.000000 1.873360 0.000000 
#    z 0.003860 0.000000 1.877460 
# 
# From -- ./inp_files/21236.got.cif
#   From: 2010.06.25/outbox.cif.g09.slc.cpg/sg13_11_cif.got.tgz:21236.got - 2010.06.28 04:50:58.
