data_PCOD8119109
_publ_section_title
;
Structure prediction by ZEFSAII (Michael W. Deem and Ramdas Pophale) SiO2 
 PCOD8119109
Probable space group: P 2/C
;
_chemical_formula_sum "Si O2"
_cell_formula_units_Z 30
_cell_length_a 20.645272
_cell_length_b 6.474988
_cell_length_c 18.945464
_cell_angle_alpha 90.000000
_cell_angle_beta 33.126181
_cell_angle_gamma 90.000000
_cell_volume 1384.021468
_symmetry_space_group_name_H-M "P 2/C"
_symmetry_group_IT_number 13
_symmetry_cell_setting 'monoclinic'
loop_
_space_group_symop_operation_xyz
x,y,z
-x,y,1/2-z
-x,-y,-z
x,-y,1/2+z
loop_
_atom_site_type_symbol
_atom_site_label
_atom_site_fract_x
_atom_site_fract_y
_atom_site_fract_z
Si Si1 0.755720 0.575461 0.693688
Si Si2 0.839488 0.181550 0.682286
Si Si3 0.078027 0.916245 0.011312
Si Si4 0.622242 0.116104 0.403037
Si Si5 0.137138 0.851171 0.107484
Si Si6 0.500000 0.175213 0.250000
Si Si7 0.299038 0.488586 0.411075
Si Si8 0.661944 0.873931 0.024263
O O1 0.798020 0.416996 0.715148
O O2 0.863324 0.731345 0.585793
O O3 0.641345 0.697767 0.829671
O O4 0.730509 0.453634 0.643201
O O5 0.939429 0.145423 0.651700
O O6 0.907205 0.123677 0.547528
O O7 0.724348 0.051001 0.802712
O O8 0.146361 0.954708 0.021751
O O9 0.500000 0.000000 0.500000
O O10 0.631917 0.209105 0.473564
O O11 0.212310 0.002526 0.089649
O O12 0.000000 0.832790 0.250000
O O13 0.191230 0.619576 0.052592
O O14 0.400800 0.319223 0.306681
O O15 0.443328 0.032021 0.361841
O O16 0.339508 0.686983 0.418336
#
# Coordination Sequence:
#
# PCOD8119109 Si02
#       8
#     4   4   4   4   4   2   4   4
#     4  10  21  38  62  88 117 155 199 246 299 360
#     4  10  20  37  60  83 117 157 195 243 303 359
#     4   9  19  36  58  87 116 152 199 247 296 356
#     4  11  25  40  58  89 124 156 198 249 302 355
#     4  10  21  37  57  86 125 158 198 250 299 354
#     4  10  22  40  62  84 116 154 202 256 298 348
#     4  10  22  39  62  89 117 158 205 248 299 358
#     4  11  23  40  63  89 119 161 205 248 302 362
#
# _framework density 21.675964
#
# number of rings (size 3 to 8) (size 9 to 14) (size 15 to 20)
#    0.000    1.867    0.000    3.200    0.000    8.533 
#    0.000    4.000    0.000    0.000    0.000    0.000 
#    0.000    0.000    0.000    0.000    0.000    0.000 
#
# Total GULP energy -371894.753638 kJ/mol
# GULP energy per Si atom -12396.491788 kJ/mol
# Density = 2.162663 g / cm^3
# Si number density = 21.675964 Si / 1000 Ang^3
#
#
#
# Elastic Constant Matrix: (Units=GPa)
#
#
# Indices 1 2 3 4 5 6 
#
# 1 104.3241 32.9188 30.8207 0.0000 -2.8634 0.0000
# 2 32.9188 86.5968 40.7718 0.0000 -2.4745 0.0000
# 3 30.8207 40.7718 112.0042 0.0000 -24.8295 0.0000
# 4 0.0000 0.0000 0.0000 20.8037 0.0000 0.0403
# 5 -2.8634 -2.4745 -24.8295 0.0000 31.2488 0.0000
# 6 0.0000 0.0000 0.0000 0.0403 0.0000 34.4740
#
#
#
# Elastic Compliance Matrix: (Units=1/GPa)
#
#
# Indices 1 2 3 4 5 6 
#
# 1 0.011220 -0.003312 -0.002078 0.000000 -0.000885 0.000000
# 2 -0.003312 0.015247 -0.005387 0.000000 -0.003377 0.000000
# 3 -0.002078 -0.005387 0.013746 0.000000 0.010305 0.000000
# 4 0.000000 0.000000 0.000000 0.048068 0.000000 -0.000056
# 5 -0.000885 -0.003377 0.010305 0.000000 0.039841 0.000000
# 6 0.000000 0.000000 0.000000 -0.000056 0.000000 0.029007
#
#
# Mechanical properties :
#
#
# Convention : Reuss Voigt Hill
#
# Bulk Modulus (GPa) = 53.59756 56.88307 55.24032
# Shear Modulus (GPa) = 27.04112 30.53289 28.78701
#
# Velocity S-wave (km/s) = 3.53585 3.75721 3.64821
# Velocity P-wave (km/s) = 6.43817 6.71726 6.57920
#
# Compressibility (1/GPa) = 0.01865757
#
# Stress axis : x y z
#
# Youngs Moduli (GPa) = 89.12433 65.58748 72.75059
#
# Poissons Ratio (x) = 0.21723 0.15119
# Poissons Ratio (y) = 0.29519 0.39193
# Poissons Ratio (z) = 0.18521 0.35334
#
# Static dielectric constant tensor:
#      x y z
#    x 3.996090 0.000000 -0.047040 
#    y 0.000000 3.790720 0.000000 
#    z -0.047040 0.000000 4.079390 
# 
# 
# High freq. dielectric constant tensor:
#      x y z
#    x 1.857000 0.000000 -0.008080 
#    y 0.000000 1.839710 0.000000 
#    z -0.008080 0.000000 1.854870 
# 
# From -- ./inp_files/81987.got.cif
#   From: 2010.06.25/outbox.cif.g09.slc.cpg/sg13_41_cif.got.tgz:81987.got - 2010.06.28 04:50:58.
