data_PCOD8119931
_publ_section_title
;
Structure prediction by ZEFSAII (Michael W. Deem and Ramdas Pophale) SiO2 
 PCOD8119931
Probable space group: P 2/C
;
_chemical_formula_sum "Si O2"
_cell_formula_units_Z 32
_cell_length_a 15.910888
_cell_length_b 14.297493
_cell_length_c 21.498711
_cell_angle_alpha 90.000000
_cell_angle_beta 160.556341
_cell_angle_gamma 90.000000
_cell_volume 1627.998981
_symmetry_space_group_name_H-M "P 2/C"
_symmetry_group_IT_number 13
_symmetry_cell_setting 'monoclinic'
loop_
_space_group_symop_operation_xyz
x,y,z
-x,y,1/2-z
-x,-y,-z
x,-y,1/2+z
loop_
_atom_site_type_symbol
_atom_site_label
_atom_site_fract_x
_atom_site_fract_y
_atom_site_fract_z
Si Si1 0.985144 0.947875 0.076242
Si Si2 0.710167 0.896103 0.761694
Si Si3 0.245499 0.000665 0.459813
Si Si4 0.008559 0.720717 0.537764
Si Si5 0.592298 0.826928 0.183793
Si Si6 0.608692 0.368396 0.984735
Si Si7 0.942449 0.565793 0.402846
Si Si8 0.955375 0.584961 0.616561
O O1 0.835274 0.944068 0.035550
O O2 0.216458 0.873620 0.232980
O O3 0.779093 0.930595 0.879115
O O4 0.100568 0.052190 0.153406
O O5 0.422352 0.926120 0.546507
O O6 0.745018 0.784678 0.778344
O O7 0.000000 0.027738 0.250000
O O8 0.401985 0.096461 0.579939
O O9 0.760110 0.785713 0.357448
O O10 0.049898 0.666567 0.500258
O O11 0.963252 0.654106 0.563933
O O12 0.434854 0.743520 0.041189
O O13 0.355418 0.426776 0.817053
O O14 0.711649 0.394842 0.988060
O O15 0.795367 0.400788 0.168807
O O16 0.000000 0.500000 0.500000
O O17 0.060572 0.521528 0.422056
#
# Coordination Sequence:
#
# PCOD8119931 Si02
#       8
#     4   4   4   4   4   4   4   4
#     4   9  19  37  54  77 114 149 192 239 281 332
#     4   9  19  36  55  81 105 153 195 232 285 333
#     4  11  23  34  55  83 119 157 192 238 291 344
#     4   9  19  36  59  83 111 149 195 244 283 335
#     4   9  21  37  54  84 117 150 198 239 283 335
#     4  10  21  36  58  91 118 150 185 237 290 358
#     4   9  19  37  58  83 115 146 187 236 288 343
#     4  10  21  35  61  89 116 147 182 241 298 346
#
# _framework density 19.656033000000001
#
# number of rings (size 3 to 8) (size 9 to 14) (size 15 to 20)
#    0.000    2.500    0.000    1.500    3.500    7.500 
#    4.500    0.000   30.250    0.000    0.000    0.000 
#    0.000    0.000    0.000    0.000    0.000    0.000 
#
# Total GULP energy -396576.516875 kJ/mol
# GULP energy per Si atom -12393.016152 kJ/mol
# Density = 1.961129 g / cm^3
# Si number density = 19.656033 Si / 1000 Ang^3
#
#
#
# Elastic Constant Matrix: (Units=GPa)
#
#
# Indices 1 2 3 4 5 6 
#
# 1 71.4840 39.2526 16.0980 0.0000 4.7537 0.0000
# 2 39.2526 108.5108 37.1750 0.0000 8.5840 0.0000
# 3 16.0980 37.1750 62.4449 0.0000 5.2418 0.0000
# 4 0.0000 0.0000 0.0000 34.4414 0.0000 2.0122
# 5 4.7537 8.5840 5.2418 0.0000 22.1269 0.0000
# 6 0.0000 0.0000 0.0000 2.0122 0.0000 24.4789
#
#
#
# Elastic Compliance Matrix: (Units=1/GPa)
#
#
# Indices 1 2 3 4 5 6 
#
# 1 0.017533 -0.005943 -0.000877 0.000000 -0.001254 0.000000
# 2 -0.005943 0.013779 -0.006458 0.000000 -0.002539 0.000000
# 3 -0.000877 -0.006458 0.020261 0.000000 -0.002106 0.000000
# 4 0.000000 0.000000 0.000000 0.029175 0.000000 -0.002398
# 5 -0.001254 -0.002539 -0.002106 0.000000 0.046947 0.000000
# 6 0.000000 0.000000 0.000000 -0.002398 0.000000 0.041049
#
#
# Mechanical properties :
#
#
# Convention : Reuss Voigt Hill
#
# Bulk Modulus (GPa) = 39.97026 47.49898 43.73462
# Shear Modulus (GPa) = 24.55336 26.20370 25.37853
#
# Velocity S-wave (km/s) = 3.53817 3.65514 3.59713
# Velocity P-wave (km/s) = 6.08856 6.48313 6.28894
#
# Compressibility (1/GPa) = 0.02501860
#
# Stress axis : x y z
#
# Youngs Moduli (GPa) = 57.03444 72.57625 49.35513
#
# Poissons Ratio (x) = 0.43131 0.04327
# Poissons Ratio (y) = 0.33895 0.31871
# Poissons Ratio (z) = 0.05001 0.46867
#
# Static dielectric constant tensor:
#      x y z
#    x 3.453970 0.000000 -0.007970 
#    y 0.000000 4.017260 0.000000 
#    z -0.007970 0.000000 3.652490 
# 
# 
# High freq. dielectric constant tensor:
#      x y z
#    x 1.743360 0.000000 -0.002350 
#    y 0.000000 1.767580 0.000000 
#    z -0.002350 0.000000 1.768390 
# 
# From -- ./inp_files/80411.got.cif
#   From: 2010.06.25/outbox.cif.g09.slc.cpg/sg13_41_cif.got.tgz:80411.got - 2010.06.28 04:50:58.
