data_PCOD8119299
_publ_section_title
;
Structure prediction by ZEFSAII (Michael W. Deem and Ramdas Pophale) SiO2 
 PCOD8119299
Probable space group: P 2/C
;
_chemical_formula_sum "Si O2"
_cell_formula_units_Z 28
_cell_length_a 8.564597
_cell_length_b 6.306594
_cell_length_c 29.087358
_cell_angle_alpha 90.000000
_cell_angle_beta 59.051726
_cell_angle_gamma 90.000000
_cell_volume 1347.432504
_symmetry_space_group_name_H-M "P 2/C"
_symmetry_group_IT_number 13
_symmetry_cell_setting 'monoclinic'
loop_
_space_group_symop_operation_xyz
x,y,z
-x,y,1/2-z
-x,-y,-z
x,-y,1/2+z
loop_
_atom_site_type_symbol
_atom_site_label
_atom_site_fract_x
_atom_site_fract_y
_atom_site_fract_z
Si Si1 0.500000 0.971368 0.750000
Si Si2 0.685224 0.288320 0.787123
Si Si3 0.169809 0.324521 0.296268
Si Si4 0.813397 0.463045 0.001278
Si Si5 0.317696 0.882489 0.043780
Si Si6 0.440149 0.453272 0.599911
Si Si7 0.000000 0.982741 0.750000
Si Si8 0.842968 0.288358 0.405187
O O1 0.544594 0.126688 0.785142
O O2 0.662088 0.813871 0.710956
O O3 0.767536 0.460437 0.738732
O O4 0.581132 0.408762 0.842980
O O5 0.837271 0.141313 0.787322
O O6 0.039075 0.379828 0.359088
O O7 0.043654 0.171518 0.285186
O O8 0.782391 0.230381 0.984181
O O9 0.796845 0.626852 0.962446
O O10 0.652676 0.503718 0.061659
O O11 0.000000 0.500000 0.000000
O O12 0.369998 0.727659 0.076840
O O13 0.163834 0.035542 0.088387
O O14 0.500000 0.000000 0.000000
O O15 0.316992 0.656477 0.606736
#
# Coordination Sequence:
#
# PCOD8119299 Si02
#       8
#     2   4   4   4   4   4   2   4
#     4  10  26  44  60  92 134 172 220 258 330 414
#     4  11  23  41  65  90 133 167 207 280 320 377
#     4  11  23  41  64  93 125 170 215 261 332 385
#     4  11  25  40  59  97 130 164 216 263 328 395
#     4  11  20  43  67  90 127 170 217 274 320 380
#     4  11  22  40  66  94 124 167 219 264 326 387
#     4  10  20  38  60  98 118 152 222 256 312 396
#     4  11  22  41  67  91 124 168 215 268 318 391
#
# _framework density 20.780259999999998
#
# number of rings (size 3 to 8) (size 9 to 14) (size 15 to 20)
#    0.000    1.143    2.857    4.286    0.000    8.571 
#    2.571    0.000    0.000    0.000    0.000    0.000 
#    0.000    0.000    0.000    0.000    0.000    0.000 
#
# Total GULP energy -347124.087813 kJ/mol
# GULP energy per Si atom -12397.288850 kJ/mol
# Density = 2.073296 g / cm^3
# Si number density = 20.780260 Si / 1000 Ang^3
#
#
#
# Elastic Constant Matrix: (Units=GPa)
#
#
# Indices 1 2 3 4 5 6 
#
# 1 128.1868 33.0673 22.4208 0.0000 -15.8105 0.0000
# 2 33.0673 103.5358 16.2289 0.0000 -7.7856 0.0000
# 3 22.4208 16.2289 91.3234 0.0000 -22.5425 0.0000
# 4 0.0000 0.0000 0.0000 27.5764 0.0000 -18.2387
# 5 -15.8105 -7.7856 -22.5425 0.0000 28.3805 0.0000
# 6 0.0000 0.0000 0.0000 -18.2387 0.0000 -34.6407
#
#
#
# Elastic Compliance Matrix: (Units=1/GPa)
#
#
# Indices 1 2 3 4 5 6 
#
# 1 0.009045 -0.002476 -0.000876 0.000000 0.003664 0.000000
# 2 -0.002476 0.010675 -0.001128 0.000000 0.000653 0.000000
# 3 -0.000876 -0.001128 0.013893 0.000000 0.010237 0.000000
# 4 0.000000 0.000000 0.000000 0.026897 0.000000 -0.014161
# 5 0.003664 0.000653 0.010237 0.000000 0.045587 0.000000
# 6 0.000000 0.000000 0.000000 -0.014161 0.000000 -0.021412
#
#
# Mechanical properties :
#
#
# Convention : Reuss Voigt Hill
#
# Bulk Modulus (GPa) = 40.56387 51.83110 46.19748
# Shear Modulus (GPa) = 49.08564 21.01851 35.05208
#
# Velocity S-wave (km/s) = 4.86545 3.18380 4.11152
# Velocity P-wave (km/s) = 7.15026 6.20581 6.69471
#
# Compressibility (1/GPa) = 0.02465248
#
# Stress axis : x y z
#
# Youngs Moduli (GPa) = 110.55898 93.67515 71.98039
#
# Poissons Ratio (x) = 0.23193 0.06308
# Poissons Ratio (y) = 0.27374 0.08119
# Poissons Ratio (z) = 0.09688 0.10566
#
# Static dielectric constant tensor:
#      x y z
#    x 3.917670 0.000000 -0.113240 
#    y 0.000000 4.170800 0.000000 
#    z -0.113240 0.000000 3.834510 
# 
# 
# High freq. dielectric constant tensor:
#      x y z
#    x 1.809620 0.000000 -0.007830 
#    y 0.000000 1.827730 0.000000 
#    z -0.007830 0.000000 1.814350 
# 
# From -- ./inp_files/90809.got.cif
#   From: 2010.06.25/outbox.cif.g09.slc.cpg/sg13_46_cif.got.tgz:90809.got - 2010.06.28 04:50:58.
