data_PCOD8119333
_publ_section_title
;
Structure prediction by ZEFSAII (Michael W. Deem and Ramdas Pophale) SiO2 
 PCOD8119333
Probable space group: P 2/C
;
_chemical_formula_sum "Si O2"
_cell_formula_units_Z 28
_cell_length_a 8.350353
_cell_length_b 32.173900
_cell_length_c 5.013772
_cell_angle_alpha 90.000000
_cell_angle_beta 69.127128
_cell_angle_gamma 90.000000
_cell_volume 1258.616821
_symmetry_space_group_name_H-M "P 2/C"
_symmetry_group_IT_number 13
_symmetry_cell_setting 'monoclinic'
loop_
_space_group_symop_operation_xyz
x,y,z
-x,y,1/2-z
-x,-y,-z
x,-y,1/2+z
loop_
_atom_site_type_symbol
_atom_site_label
_atom_site_fract_x
_atom_site_fract_y
_atom_site_fract_z
Si Si1 0.885944 0.675598 0.065198
Si Si2 0.200924 0.759741 0.610053
Si Si3 0.801155 0.526607 0.356869
Si Si4 0.612901 0.108009 0.938234
Si Si5 0.613587 0.610380 0.437498
Si Si6 0.795378 0.807406 0.386175
Si Si7 0.797271 0.975491 0.354005
O O1 0.764473 0.641204 0.263251
O O2 0.000000 0.692550 0.250000
O O3 0.769342 0.712083 0.002083
O O4 0.000000 0.657378 0.750000
O O5 0.281495 0.790290 0.343733
O O6 0.000000 0.766444 0.750000
O O7 0.275406 0.774540 0.849739
O O8 0.753490 0.490772 0.595159
O O9 0.694763 0.567488 0.489656
O O10 0.000000 0.538835 0.250000
O O11 0.500000 0.120128 0.750000
O O12 0.722718 0.146975 0.977918
O O13 0.737129 0.069914 0.797740
O O14 0.500000 0.092711 0.250000
O O15 0.500000 0.601376 0.250000
O O16 0.500000 0.628668 0.750000
O O17 0.000000 0.809852 0.250000
O O18 0.000000 0.973929 0.250000
O O19 0.727960 0.990973 0.680169
#
# Coordination Sequence:
#
# PCOD8119333 Si02
#       7
#     4   4   4   4   4   4   4
#     4  11  22  41  68  93 122 163 214 263 310 370
#     4   9  18  35  63  91 110 147 205 258 299 348
#     4  10  22  41  65  91 121 163 215 264 311 367
#     4  12  25  39  58  89 126 161 197 240 301 365
#     4  12  26  41  61  95 135 170 207 255 319 382
#     4  10  20  38  62  86 116 152 199 251 299 353
#     4  10  22  41  64  88 116 155 203 249 295 350
#
# _framework density 22.246645000000001
#
# number of rings (size 3 to 8) (size 9 to 14) (size 15 to 20)
#    0.000    1.429    0.000    6.429    0.000    5.143 
#    0.000    8.571    0.000    0.000    0.000    0.000 
#    0.000    0.000    0.000    0.000    0.000    0.000 
#
# Total GULP energy -347130.695830 kJ/mol
# GULP energy per Si atom -12397.524851 kJ/mol
# Density = 2.219601 g / cm^3
# Si number density = 22.246645 Si / 1000 Ang^3
#
#
#
# Elastic Constant Matrix: (Units=GPa)
#
#
# Indices 1 2 3 4 5 6 
#
# 1 56.7402 35.9841 28.2261 0.0000 16.3184 0.0000
# 2 35.9841 124.0592 31.3739 0.0000 -6.7569 0.0000
# 3 28.2261 31.3739 126.8585 0.0000 13.8111 0.0000
# 4 0.0000 0.0000 0.0000 25.2796 0.0000 7.4644
# 5 16.3184 -6.7569 13.8111 0.0000 27.7166 0.0000
# 6 0.0000 0.0000 0.0000 7.4644 0.0000 12.1563
#
#
#
# Elastic Compliance Matrix: (Units=1/GPa)
#
#
# Indices 1 2 3 4 5 6 
#
# 1 0.029948 -0.009101 -0.002381 0.000000 -0.018665 0.000000
# 2 -0.009101 0.011666 -0.001854 0.000000 0.009126 0.000000
# 3 -0.002381 -0.001854 0.009270 0.000000 -0.003670 0.000000
# 4 0.000000 0.000000 0.000000 0.048318 0.000000 -0.029669
# 5 -0.018665 0.009126 -0.003670 0.000000 0.051122 0.000000
# 6 0.000000 0.000000 0.000000 -0.029669 0.000000 0.100479
#
#
# Mechanical properties :
#
#
# Convention : Reuss Voigt Hill
#
# Bulk Modulus (GPa) = 41.29860 55.42513 48.36186
# Shear Modulus (GPa) = 17.51023 27.16876 22.33950
#
# Velocity S-wave (km/s) = 2.80857 3.49843 3.17231
# Velocity P-wave (km/s) = 5.39645 6.42547 5.93331
#
# Compressibility (1/GPa) = 0.02421390
#
# Stress axis : x y z
#
# Youngs Moduli (GPa) = 33.39085 85.71603 107.86911
#
# Poissons Ratio (x) = 0.78012 0.25679
# Poissons Ratio (y) = 0.30390 0.19997
# Poissons Ratio (z) = 0.07949 0.15890
#
# Static dielectric constant tensor:
#      x y z
#    x 3.988670 0.000000 0.161120 
#    y 0.000000 3.907970 0.000000 
#    z 0.161120 0.000000 4.389490 
# 
# 
# High freq. dielectric constant tensor:
#      x y z
#    x 1.861310 0.000000 0.013670 
#    y 0.000000 1.876110 0.000000 
#    z 0.013670 0.000000 1.893860 
# 
# From -- ./inp_files/2686.got.cif
#   From: 2010.06.25/outbox.cif.g09.slc.cpg/sg13_2_cif.got.tgz:2686.got - 2010.06.28 04:50:58.
