data_PCOD8119179
_publ_section_title
;
Structure prediction by ZEFSAII (Michael W. Deem and Ramdas Pophale) SiO2 
 PCOD8119179
Probable space group: P 2/C
;
_chemical_formula_sum "Si O2"
_cell_formula_units_Z 24
_cell_length_a 8.826772
_cell_length_b 8.626106
_cell_length_c 15.950431
_cell_angle_alpha 90.000000
_cell_angle_beta 82.919251
_cell_angle_gamma 90.000000
_cell_volume 1205.214205
_symmetry_space_group_name_H-M "P 2/C"
_symmetry_group_IT_number 13
_symmetry_cell_setting 'monoclinic'
loop_
_space_group_symop_operation_xyz
x,y,z
-x,y,1/2-z
-x,-y,-z
x,-y,1/2+z
loop_
_atom_site_type_symbol
_atom_site_label
_atom_site_fract_x
_atom_site_fract_y
_atom_site_fract_z
Si Si1 0.412713 0.315237 0.590567
Si Si2 0.199383 0.440428 0.337456
Si Si3 0.277158 0.598085 0.498694
Si Si4 0.123148 0.135404 0.593033
Si Si5 0.000000 0.343107 0.750000
Si Si6 0.500000 0.469262 0.750000
Si Si7 0.014062 0.801577 0.578909
O O1 0.331578 0.457741 0.551264
O O2 0.581389 0.291944 0.539436
O O3 0.307278 0.162187 0.584436
O O4 0.426356 0.353153 0.687580
O O5 0.184761 0.531790 0.425848
O O6 0.138024 0.546229 0.266674
O O7 0.377823 0.415733 0.302702
O O8 0.109592 0.277603 0.350462
O O9 0.162853 0.695567 0.562962
O O10 0.045617 0.241835 0.667559
O O11 0.063619 0.177422 0.505430
O O12 0.073444 0.960156 0.616329
#
# Coordination Sequence:
#
# PCOD8119179 Si02
#       7
#     4   4   4   4   2   2   4
#     4  10  20  38  62  89 122 159 210 254 310 367
#     4  11  21  37  64  92 121 162 215 258 314 366
#     4  10  20  37  63  90 118 160 213 256 297 376
#     4  11  23  40  60  91 130 165 202 254 326 376
#     4  12  22  38  64  88 124 160 214 268 312 366
#     4  10  22  36  62  94 124 162 210 268 312 354
#     4  11  23  39  63  92 125 163 209 257 310 389
#
# _framework density 19.913471999999999
#
# number of rings (size 3 to 8) (size 9 to 14) (size 15 to 20)
#    0.000    1.333    5.000    1.500    0.000    1.333 
#    0.000    0.000    0.000    2.000    0.000    0.000 
#    0.000    0.000    0.000    0.000    0.000    0.000 
#
# Total GULP energy -297572.743488 kJ/mol
# GULP energy per Si atom -12398.864312 kJ/mol
# Density = 1.986815 g / cm^3
# Si number density = 19.913472 Si / 1000 Ang^3
#
#
#
# Elastic Constant Matrix: (Units=GPa)
#
#
# Indices 1 2 3 4 5 6 
#
# 1 106.2741 56.7213 27.6921 0.0000 -7.3473 0.0000
# 2 56.7213 113.6145 37.4523 0.0000 -8.6889 0.0000
# 3 27.6921 37.4523 80.0741 0.0000 3.8930 0.0000
# 4 0.0000 0.0000 0.0000 17.6155 0.0000 5.7305
# 5 -7.3473 -8.6889 3.8930 0.0000 38.7944 0.0000
# 6 0.0000 0.0000 0.0000 5.7305 0.0000 34.6841
#
#
#
# Elastic Compliance Matrix: (Units=1/GPa)
#
#
# Indices 1 2 3 4 5 6 
#
# 1 0.013097 -0.005816 -0.001876 0.000000 0.001366 0.000000
# 2 -0.005816 0.013308 -0.004326 0.000000 0.002313 0.000000
# 3 -0.001876 -0.004326 0.015299 0.000000 -0.002859 0.000000
# 4 0.000000 0.000000 0.000000 0.059993 0.000000 -0.009912
# 5 0.001366 0.002313 -0.002859 0.000000 0.026841 0.000000
# 6 0.000000 0.000000 0.000000 -0.009912 0.000000 0.030469
#
#
# Mechanical properties :
#
#
# Convention : Reuss Voigt Hill
#
# Bulk Modulus (GPa) = 56.59245 60.41047 58.50146
# Shear Modulus (GPa) = 26.46473 30.09193 28.27833
#
# Velocity S-wave (km/s) = 3.64948 3.89155 3.77246
# Velocity P-wave (km/s) = 6.79994 7.11298 6.95822
#
# Compressibility (1/GPa) = 0.01767020
#
# Stress axis : x y z
#
# Youngs Moduli (GPa) = 76.35447 75.14282 65.36262
#
# Poissons Ratio (x) = 0.43701 0.12259
# Poissons Ratio (y) = 0.44406 0.28273
# Poissons Ratio (z) = 0.14321 0.32504
#
# Static dielectric constant tensor:
#      x y z
#    x 4.349440 0.000000 0.263090 
#    y 0.000000 3.451470 0.000000 
#    z 0.263090 0.000000 3.829870 
# 
# 
# High freq. dielectric constant tensor:
#      x y z
#    x 1.795640 0.000000 0.002310 
#    y 0.000000 1.741560 0.000000 
#    z 0.002310 0.000000 1.785820 
# 
# From -- ./inp_files/46060.got.cif
#   From: 2010.06.25/outbox.cif.g09.slc.cpg/sg13_24_cif.got.tgz:46060.got - 2010.06.28 04:50:58.
