data_PCOD8119798
_publ_section_title
;
Structure prediction by ZEFSAII (Michael W. Deem and Ramdas Pophale) SiO2 
 PCOD8119798
Probable space group: P 2/C
;
_chemical_formula_sum "Si O2"
_cell_formula_units_Z 20
_cell_length_a 18.054144
_cell_length_b 5.553048
_cell_length_c 8.230128
_cell_angle_alpha 90.000000
_cell_angle_beta 60.680609
_cell_angle_gamma 90.000000
_cell_volume 719.421461
_symmetry_space_group_name_H-M "P 2/C"
_symmetry_group_IT_number 13
_symmetry_cell_setting 'monoclinic'
loop_
_space_group_symop_operation_xyz
x,y,z
-x,y,1/2-z
-x,-y,-z
x,-y,1/2+z
loop_
_atom_site_type_symbol
_atom_site_label
_atom_site_fract_x
_atom_site_fract_y
_atom_site_fract_z
Si Si1 0.270600 0.365867 0.688214
Si Si2 0.000000 0.633026 0.750000
Si Si3 0.247274 0.971507 0.925277
Si Si4 0.603029 0.740391 0.927230
Si Si5 0.114788 0.694427 0.903138
Si Si6 0.500000 0.913181 0.750000
O O1 0.257632 0.119796 0.597823
O O2 0.366380 0.472173 0.548264
O O3 0.192871 0.544223 0.740448
O O4 0.267530 0.257492 0.878027
O O5 0.942802 0.790531 0.686327
O O6 0.061560 0.466739 0.580609
O O7 0.310502 0.814837 0.749998
O O8 0.151352 0.921077 0.963615
O O9 0.528713 0.744720 0.870035
O O10 0.576355 0.909172 0.107997
#
# Coordination Sequence:
#
# PCOD8119798 Si02
#       6
#     4   2   4   4   4   2
#     4  11  25  45  71 105 146 202 248 301 354 452
#     4  10  20  42  70 108 138 192 246 332 370 424
#     4  11  24  44  69 103 140 204 248 290 364 448
#     4  10  24  47  78 108 149 182 244 302 371 445
#     4  10  22  42  71  98 149 186 253 312 374 430
#     4  10  22  50  82 118 140 186 234 308 386 442
#
# _framework density 27.800114000000001
#
# number of rings (size 3 to 8) (size 9 to 14) (size 15 to 20)
#    0.000    1.600    2.000    1.200    2.800    4.800 
#    0.000   27.000    0.000    1.200    0.000    0.000 
#    0.000    0.000    0.000    0.000    0.000    0.000 
#
# Total GULP energy -247816.388019 kJ/mol
# GULP energy per Si atom -12390.819401 kJ/mol
# Density = 2.773684 g / cm^3
# Si number density = 27.800114 Si / 1000 Ang^3
#
#
#
# Elastic Constant Matrix: (Units=GPa)
#
#
# Indices 1 2 3 4 5 6 
#
# 1 164.9687 54.5178 26.5479 0.0000 12.6507 0.0000
# 2 54.5178 67.2788 -4.7441 0.0000 16.4997 0.0000
# 3 26.5479 -4.7441 89.3381 0.0000 1.5134 0.0000
# 4 0.0000 0.0000 0.0000 -23.4044 0.0000 -52.5707
# 5 12.6507 16.4997 1.5134 0.0000 40.1634 0.0000
# 6 0.0000 0.0000 0.0000 -52.5707 0.0000 -31.8686
#
#
#
# Elastic Compliance Matrix: (Units=1/GPa)
#
#
# Indices 1 2 3 4 5 6 
#
# 1 0.009063 -0.007664 -0.003107 0.000000 0.000411 0.000000
# 2 -0.007664 0.023098 0.003626 0.000000 -0.007212 0.000000
# 3 -0.003107 0.003626 0.012326 0.000000 -0.000975 0.000000
# 4 0.000000 0.000000 0.000000 0.015794 0.000000 -0.026053
# 5 0.000411 -0.007212 -0.000975 0.000000 0.027768 0.000000
# 6 0.000000 0.000000 0.000000 -0.026053 0.000000 0.011599
#
#
# Mechanical properties :
#
#
# Convention : Reuss Voigt Hill
#
# Bulk Modulus (GPa) = 33.11557 52.69210 42.90383
# Shear Modulus (GPa) = 40.32160 13.32899 26.82529
#
# Velocity S-wave (km/s) = 3.81256 2.19203 3.10971
# Velocity P-wave (km/s) = 5.59631 5.04001 5.32543
#
# Compressibility (1/GPa) = 0.03019728
#
# Stress axis : x y z
#
# Youngs Moduli (GPa) = 110.33926 43.29370 81.13046
#
# Poissons Ratio (x) = 0.33179 0.25208
# Poissons Ratio (y) = 0.84562 -0.29419
# Poissons Ratio (z) = 0.34283 -0.15699
#
# Static dielectric constant tensor:
#      x y z
#    x 5.670700 0.000000 0.049370 
#    y 0.000000 4.995930 0.000000 
#    z 0.049370 0.000000 5.255690 
# 
# 
# High freq. dielectric constant tensor:
#      x y z
#    x 2.143880 0.000000 0.000150 
#    y 0.000000 2.092490 0.000000 
#    z 0.000150 0.000000 2.135180 
# 
# From -- ./inp_files/22202.got.cif
#   From: 2010.06.25/outbox.cif.g09.slc.cpg/sg13_12_cif.got.tgz:22202.got - 2010.06.28 04:50:58.
