data_PCOD8119118
_publ_section_title
;
Structure prediction by ZEFSAII (Michael W. Deem and Ramdas Pophale) SiO2 
 PCOD8119118
Probable space group: P 2/C
;
_chemical_formula_sum "Si O2"
_cell_formula_units_Z 28
_cell_length_a 12.448443
_cell_length_b 7.443222
_cell_length_c 14.674352
_cell_angle_alpha 90.000000
_cell_angle_beta 66.234312
_cell_angle_gamma 90.000000
_cell_volume 1244.375656
_symmetry_space_group_name_H-M "P 2/C"
_symmetry_group_IT_number 13
_symmetry_cell_setting 'monoclinic'
loop_
_space_group_symop_operation_xyz
x,y,z
-x,y,1/2-z
-x,-y,-z
x,-y,1/2+z
loop_
_atom_site_type_symbol
_atom_site_label
_atom_site_fract_x
_atom_site_fract_y
_atom_site_fract_z
Si Si1 0.255827 0.610823 0.515762
Si Si2 0.422852 0.644306 0.859845
Si Si3 0.914557 0.169667 0.546505
Si Si4 0.585578 0.135359 0.419363
Si Si5 0.045126 0.202667 0.330583
Si Si6 0.048341 0.594066 0.139916
Si Si7 0.276616 0.917789 0.799413
O O1 0.351796 0.526729 0.417143
O O2 0.149980 0.680942 0.491002
O O3 0.311501 0.775729 0.554471
O O4 0.189863 0.449758 0.595614
O O5 0.500000 0.573424 0.750000
O O6 0.506915 0.698873 0.913595
O O7 0.344478 0.816557 0.857366
O O8 0.995198 0.075801 0.434195
O O9 0.011585 0.264035 0.576166
O O10 0.803508 0.077047 0.633936
O O11 0.635749 0.027672 0.313210
O O12 0.500000 0.000000 0.500000
O O13 0.185188 0.214799 0.281631
O O14 0.000000 0.122008 0.250000
O O15 0.015549 0.407092 0.354754
O O16 0.000000 0.679343 0.250000
#
# Coordination Sequence:
#
# PCOD8119118 Si02
#       7
#     4   4   4   4   4   4   4
#     4  11  22  40  64  86 119 161 204 263 313 365
#     4  10  23  40  61  85 114 160 213 259 311 368
#     4  11  22  36  61  94 123 158 200 249 316 389
#     4  11  24  41  60  88 121 162 213 260 312 369
#     4  10  20  37  60  86 120 161 201 246 308 379
#     4  10  21  37  59  91 125 159 204 250 306 384
#     4  11  22  39  60  86 126 163 197 259 319 368
#
# _framework density 22.501242000000001
#
# number of rings (size 3 to 8) (size 9 to 14) (size 15 to 20)
#    0.000    1.429    0.000    7.714    0.000    4.000 
#    0.000    1.429    0.000    0.000    0.000    0.000 
#    0.000    0.000    0.000    0.000    0.000    0.000 
#
# Total GULP energy -346885.554718 kJ/mol
# GULP energy per Si atom -12388.769811 kJ/mol
# Density = 2.245003 g / cm^3
# Si number density = 22.501242 Si / 1000 Ang^3
#
#
#
# Elastic Constant Matrix: (Units=GPa)
#
#
# Indices 1 2 3 4 5 6 
#
# 1 98.4354 16.5076 40.1090 0.0000 0.0709 0.0000
# 2 16.5076 43.3128 40.9601 0.0000 8.4712 0.0000
# 3 40.1090 40.9601 158.9457 0.0000 0.3747 0.0000
# 4 0.0000 0.0000 0.0000 18.8608 0.0000 46.0084
# 5 0.0709 8.4712 0.3747 0.0000 36.6186 0.0000
# 6 0.0000 0.0000 0.0000 46.0084 0.0000 -128.2218
#
#
#
# Elastic Compliance Matrix: (Units=1/GPa)
#
#
# Indices 1 2 3 4 5 6 
#
# 1 0.011484 -0.002300 -0.002306 0.000000 0.000533 0.000000
# 2 -0.002300 0.032884 -0.007876 0.000000 -0.007522 0.000000
# 3 -0.002306 -0.007876 0.008899 0.000000 0.001735 0.000000
# 4 0.000000 0.000000 0.000000 0.028273 0.000000 0.010145
# 5 0.000533 -0.007522 0.001735 0.000000 0.029030 0.000000
# 6 0.000000 0.000000 0.000000 0.010145 0.000000 -0.004159
#
#
# Mechanical properties :
#
#
# Convention : Reuss Voigt Hill
#
# Bulk Modulus (GPa) = 35.33323 55.09413 45.21368
# Shear Modulus (GPa) = 35.50885 -1.00732 17.25076
#
# Velocity S-wave (km/s) = 3.97682 -0.66981 2.77186
# Velocity P-wave (km/s) = 6.06825 4.89284 5.51197
#
# Compressibility (1/GPa) = 0.02830197
#
# Stress axis : x y z
#
# Youngs Moduli (GPa) = 87.07698 30.41006 112.37187
#
# Poissons Ratio (x) = 0.06994 0.25918
# Poissons Ratio (y) = 0.20028 0.88504
# Poissons Ratio (z) = 0.20084 0.23951
#
# Static dielectric constant tensor:
#      x y z
#    x 4.406950 0.000000 -0.219650 
#    y 0.000000 3.796410 0.000000 
#    z -0.219650 0.000000 4.612660 
# 
# 
# High freq. dielectric constant tensor:
#      x y z
#    x 1.900360 0.000000 -0.008960 
#    y 0.000000 1.866320 0.000000 
#    z -0.008960 0.000000 1.915270 
# 
# From -- ./inp_files/50266.got.cif
#   From: 2010.06.25/outbox.cif.g09.slc.cpg/sg13_26_cif.got.tgz:50266.got - 2010.06.28 04:50:58.
