data_PCOD8119464
_publ_section_title
;
Structure prediction by ZEFSAII (Michael W. Deem and Ramdas Pophale) SiO2 
 PCOD8119464
Probable space group: P 2/C
;
_chemical_formula_sum "Si O2"
_cell_formula_units_Z 26
_cell_length_a 17.727502
_cell_length_b 10.152264
_cell_length_c 12.165774
_cell_angle_alpha 90.000000
_cell_angle_beta 38.002316
_cell_angle_gamma 90.000000
_cell_volume 1348.076808
_symmetry_space_group_name_H-M "P 2/C"
_symmetry_group_IT_number 13
_symmetry_cell_setting 'monoclinic'
loop_
_space_group_symop_operation_xyz
x,y,z
-x,y,1/2-z
-x,-y,-z
x,-y,1/2+z
loop_
_atom_site_type_symbol
_atom_site_label
_atom_site_fract_x
_atom_site_fract_y
_atom_site_fract_z
Si Si1 0.137256 0.629855 0.097229
Si Si2 0.494028 0.698589 0.878732
Si Si3 0.232213 0.371009 0.722086
Si Si4 0.290867 0.344187 0.221959
Si Si5 0.500000 0.050308 0.250000
Si Si6 0.361911 0.199410 0.929854
Si Si7 0.863715 0.322763 0.441119
O O1 0.190602 0.680044 0.151081
O O2 0.153682 0.473078 0.074446
O O3 0.000000 0.676394 0.250000
O O4 0.198241 0.703309 0.923557
O O5 0.500000 0.630085 0.750000
O O6 0.586209 0.622142 0.852280
O O7 0.520783 0.855510 0.832810
O O8 0.366225 0.685666 0.087313
O O9 0.236520 0.529771 0.721383
O O10 0.142473 0.314447 0.919080
O O11 0.317187 0.230606 0.104268
O O12 0.621277 0.958858 0.098262
O O13 0.500000 0.263349 0.750000
O O14 0.252346 0.242972 0.974252
O O15 0.000000 0.270502 0.250000
#
# Coordination Sequence:
#
# PCOD8119464 Si02
#       7
#     4   4   4   4   2   4   4
#     4  10  21  35  55  86 121 162 193 228 296 369
#     4  10  20  39  57  87 113 153 192 240 294 353
#     4  11  21  36  58  89 125 151 186 244 301 356
#     4  11  21  34  61  88 119 154 187 246 296 357
#     4   8  22  40  60  78 120 152 206 240 294 346
#     4  10  21  39  58  89 115 155 202 246 291 342
#     4  10  22  36  57  85 121 160 195 240 295 361
#
# _framework density 19.286735
#
# number of rings (size 3 to 8) (size 9 to 14) (size 15 to 20)
#    0.923    0.923    3.077    1.385    2.154    4.308 
#    0.000    0.000    0.000    4.615    0.000    0.000 
#    0.000    0.000    0.000    0.000    0.000    0.000 
#
# Total GULP energy -322099.296530 kJ/mol
# GULP energy per Si atom -12388.434482 kJ/mol
# Density = 1.924284 g / cm^3
# Si number density = 19.286735 Si / 1000 Ang^3
#
#
#
# Elastic Constant Matrix: (Units=GPa)
#
#
# Indices 1 2 3 4 5 6 
#
# 1 74.5221 -4.3004 47.9413 0.0000 1.2097 0.0000
# 2 -4.3004 11.9850 23.6737 0.0000 4.3253 0.0000
# 3 47.9413 23.6737 163.6847 0.0000 2.3343 0.0000
# 4 0.0000 0.0000 0.0000 -0.2637 0.0000 0.1941
# 5 1.2097 4.3253 2.3343 0.0000 42.9386 0.0000
# 6 0.0000 0.0000 0.0000 0.1941 0.0000 9.9795
#
#
#
# Elastic Compliance Matrix: (Units=1/GPa)
#
#
# Indices 1 2 3 4 5 6 
#
# 1 0.022256 0.030660 -0.010908 0.000000 -0.003122 0.000000
# 2 0.030660 0.164330 -0.032524 0.000000 -0.015649 0.000000
# 3 -0.010908 -0.032524 0.013968 0.000000 0.002824 0.000000
# 4 0.000000 0.000000 0.000000 -3.738632 0.000000 0.072699
# 5 -0.003122 -0.015649 0.002824 0.000000 0.024800 0.000000
# 6 0.000000 0.000000 0.000000 0.072699 0.000000 0.098792
#
#
# Mechanical properties :
#
#
# Convention : Reuss Voigt Hill
#
# Bulk Modulus (GPa) = 5.71398 42.75790 24.23594
# Shear Modulus (GPa) = -1.50123 22.72270 10.61074
#
# Velocity S-wave (km/s) = -0.88321 3.43615 2.34809
# Velocity P-wave (km/s) = 1.38888 6.16121 4.46596
#
# Compressibility (1/GPa) = 0.17500923
#
# Stress axis : x y z
#
# Youngs Moduli (GPa) = 44.93099 6.08533 71.59282
#
# Poissons Ratio (x) = -0.18658 0.78097
# Poissons Ratio (y) = -1.37758 2.32846
# Poissons Ratio (z) = 0.49013 0.19792
#
# Static dielectric constant tensor:
#      x y z
#    x 3.465230 0.000000 0.045980 
#    y 0.000000 3.040740 0.000000 
#    z 0.045980 0.000000 3.850190 
# 
# 
# High freq. dielectric constant tensor:
#      x y z
#    x 1.752400 0.000000 0.006210 
#    y 0.000000 1.695560 0.000000 
#    z 0.006210 0.000000 1.768020 
# 
# From -- ./inp_files/38928.got.cif
#   From: 2010.06.25/outbox.cif.g09.slc.cpg/sg13_20_cif.got.tgz:38928.got - 2010.06.28 04:50:58.
