data_PCOD8119044
_publ_section_title
;
Structure prediction by ZEFSAII (Michael W. Deem and Ramdas Pophale) SiO2 
 PCOD8119044
Probable space group: P 2/C
;
_chemical_formula_sum "Si O2"
_cell_formula_units_Z 24
_cell_length_a 13.593599
_cell_length_b 9.944241
_cell_length_c 17.709582
_cell_angle_alpha 90.000000
_cell_angle_beta 30.265789
_cell_angle_gamma 90.000000
_cell_volume 1206.577680
_symmetry_space_group_name_H-M "P 2/C"
_symmetry_group_IT_number 13
_symmetry_cell_setting 'monoclinic'
loop_
_space_group_symop_operation_xyz
x,y,z
-x,y,1/2-z
-x,-y,-z
x,-y,1/2+z
loop_
_atom_site_type_symbol
_atom_site_label
_atom_site_fract_x
_atom_site_fract_y
_atom_site_fract_z
Si Si1 0.000000 0.456124 0.250000
Si Si2 0.787702 0.784791 0.954105
Si Si3 0.030728 0.118790 0.420735
Si Si4 0.500000 0.333057 0.750000
Si Si5 0.606628 0.139447 0.417245
Si Si6 0.149636 0.616754 0.392387
Si Si7 0.664203 0.388824 0.892685
O O1 0.086137 0.355247 0.128549
O O2 0.171071 0.557110 0.160493
O O3 0.749181 0.830050 0.893905
O O4 0.902580 0.896160 0.928289
O O5 0.577266 0.761473 0.131147
O O6 0.257969 0.130672 0.246931
O O7 0.958289 0.248988 0.512219
O O8 0.000000 0.000000 0.500000
O O9 0.673257 0.422348 0.668919
O O10 0.440284 0.251076 0.512311
O O11 0.500000 0.000000 0.500000
O O12 0.231785 0.635473 0.255057
O O13 0.000000 0.500000 0.500000
O O14 0.500000 0.500000 0.000000
#
# Coordination Sequence:
#
# PCOD8119044 Si02
#       7
#     2   4   4   2   4   4   4
#     4  12  22  42  70 102 128 182 232 284 336 408
#     4  11  21  42  70  92 128 178 222 270 342 411
#     4  11  24  43  68  95 133 175 223 275 338 410
#     4  10  20  36  64  94 122 168 218 258 328 396
#     4  12  24  43  67  99 134 181 225 280 343 410
#     4  11  22  38  65  97 132 170 217 281 333 391
#     4  12  22  41  68  97 133 174 232 279 333 407
#
# _framework density 19.890971
#
# number of rings (size 3 to 8) (size 9 to 14) (size 15 to 20)
#    0.000    0.667    5.000    4.000    2.333    0.000 
#    6.000    0.000    0.000    0.000    0.000    0.000 
#    0.000    0.000    0.000    0.000    0.000    0.000 
#
# Total GULP energy -297477.120186 kJ/mol
# GULP energy per Si atom -12394.880008 kJ/mol
# Density = 1.984570 g / cm^3
# Si number density = 19.890971 Si / 1000 Ang^3
#
#
#
# Elastic Constant Matrix: (Units=GPa)
#
#
# Indices 1 2 3 4 5 6 
#
# 1 120.2873 65.5842 48.8903 0.0000 -16.8893 0.0000
# 2 65.5842 139.3535 65.2700 0.0000 -18.0335 0.0000
# 3 48.8903 65.2700 179.5163 0.0000 -0.3189 0.0000
# 4 0.0000 0.0000 0.0000 41.2761 0.0000 2.5124
# 5 -16.8893 -18.0335 -0.3189 0.0000 38.0607 0.0000
# 6 0.0000 0.0000 0.0000 2.5124 0.0000 36.7008
#
#
#
# Elastic Compliance Matrix: (Units=1/GPa)
#
#
# Indices 1 2 3 4 5 6 
#
# 1 0.011806 -0.004395 -0.001612 0.000000 0.003143 0.000000
# 2 -0.004395 0.010965 -0.002784 0.000000 0.003222 0.000000
# 3 -0.001612 -0.002784 0.007018 0.000000 -0.001976 0.000000
# 4 0.000000 0.000000 0.000000 0.024328 0.000000 -0.001665
# 5 0.003143 0.003222 -0.001976 0.000000 0.029179 0.000000
# 6 0.000000 0.000000 0.000000 -0.001665 0.000000 0.027361
#
#
# Mechanical properties :
#
#
# Convention : Reuss Voigt Hill
#
# Bulk Modulus (GPa) = 81.91277 88.73845 85.32561
# Shear Modulus (GPa) = 37.79038 40.50169 39.14604
#
# Velocity S-wave (km/s) = 4.36349 4.51731 4.44106
# Velocity P-wave (km/s) = 8.16437 8.48041 8.32389
#
# Compressibility (1/GPa) = 0.01220811
#
# Stress axis : x y z
#
# Youngs Moduli (GPa) = 84.70325 91.19722 142.48380
#
# Poissons Ratio (x) = 0.40077 0.22967
# Poissons Ratio (y) = 0.37223 0.39672
# Poissons Ratio (z) = 0.13653 0.25392
#
# Static dielectric constant tensor:
#      x y z
#    x 39.344380 0.000000 -10.765270 
#    y 0.000000 3.526540 0.000000 
#    z -10.765270 0.000000 7.351090 
# 
# 
# High freq. dielectric constant tensor:
#      x y z
#    x 1.770210 0.000000 -0.001840 
#    y 0.000000 1.754910 0.000000 
#    z -0.001840 0.000000 1.817300 
# 
# From -- ./inp_files/46261.got.cif
#   From: 2010.06.25/outbox.cif.g09.slc.cpg/sg13_24_cif.got.tgz:46261.got - 2010.06.28 04:50:58.
