data_PCOD8119882
_publ_section_title
;
Structure prediction by ZEFSAII (Michael W. Deem and Ramdas Pophale) SiO2 
 PCOD8119882
Probable space group: P 2/C
;
_chemical_formula_sum "Si O2"
_cell_formula_units_Z 26
_cell_length_a 22.002142
_cell_length_b 6.116871
_cell_length_c 20.439272
_cell_angle_alpha 90.000000
_cell_angle_beta 26.231337
_cell_angle_gamma 90.000000
_cell_volume 1215.845987
_symmetry_space_group_name_H-M "P 2/C"
_symmetry_group_IT_number 13
_symmetry_cell_setting 'monoclinic'
loop_
_space_group_symop_operation_xyz
x,y,z
-x,y,1/2-z
-x,-y,-z
x,-y,1/2+z
loop_
_atom_site_type_symbol
_atom_site_label
_atom_site_fract_x
_atom_site_fract_y
_atom_site_fract_z
Si Si1 0.500000 0.832035 0.250000
Si Si2 0.079716 0.300841 0.390662
Si Si3 0.763854 0.659136 0.314874
Si Si4 0.599341 0.149459 0.862055
Si Si5 0.683020 0.879810 0.655863
Si Si6 0.961423 0.088043 0.939701
Si Si7 0.489955 0.505879 0.373942
O O1 0.448375 0.682877 0.359607
O O2 0.373400 0.989483 0.352429
O O3 0.212037 0.404089 0.227135
O O4 0.115243 0.147522 0.417631
O O5 0.000000 0.500000 0.500000
O O6 0.998832 0.168067 0.411917
O O7 0.727133 0.791867 0.284960
O O8 0.639273 0.656742 0.487620
O O9 0.902175 0.771322 0.209656
O O10 0.528602 0.373608 0.904529
O O11 0.651213 0.018048 0.750466
O O12 0.500000 0.000000 0.000000
O O13 0.849768 0.867659 0.490122
O O14 0.616874 0.638775 0.724557
#
# Coordination Sequence:
#
# PCOD8119882 Si02
#       7
#     2   4   4   4   4   4   4
#     4  10  26  44  64  86 112 170 228 272 304 366
#     4   9  18  33  52  89 135 165 191 233 308 387
#     4  11  22  35  61  98 132 163 201 256 324 384
#     4  11  22  34  60 103 132 163 203 254 318 390
#     4  11  22  42  65  89 125 166 216 264 318 376
#     4  10  21  34  60  90 129 166 200 252 314 384
#     4  11  24  41  66  89 126 167 217 265 316 376
#
# _framework density 21.384288999999999
#
# number of rings (size 3 to 8) (size 9 to 14) (size 15 to 20)
#    0.000    1.538    1.538    4.615    4.308    3.692 
#    0.000    0.000    0.000   13.846    0.000    0.000 
#    0.000    0.000    0.000    0.000    0.000    0.000 
#
# Total GULP energy -322297.941286 kJ/mol
# GULP energy per Si atom -12396.074665 kJ/mol
# Density = 2.133562 g / cm^3
# Si number density = 21.384289 Si / 1000 Ang^3
#
#
#
# Elastic Constant Matrix: (Units=GPa)
#
#
# Indices 1 2 3 4 5 6 
#
# 1 112.8405 41.6892 40.0401 0.0000 -31.8555 0.0000
# 2 41.6892 116.4964 31.9227 0.0000 -18.1010 0.0000
# 3 40.0401 31.9227 77.0706 0.0000 -30.4980 0.0000
# 4 0.0000 0.0000 0.0000 39.3963 0.0000 -0.8383
# 5 -31.8555 -18.1010 -30.4980 0.0000 35.3715 0.0000
# 6 0.0000 0.0000 0.0000 -0.8383 0.0000 39.2024
#
#
#
# Elastic Compliance Matrix: (Units=1/GPa)
#
#
# Indices 1 2 3 4 5 6 
#
# 1 0.013060 -0.002734 -0.002356 0.000000 0.008332 0.000000
# 2 -0.002734 0.010377 -0.002658 0.000000 0.000557 0.000000
# 3 -0.002356 -0.002658 0.021132 0.000000 0.014739 0.000000
# 4 0.000000 0.000000 0.000000 0.025395 0.000000 0.000543
# 5 0.008332 0.000557 0.014739 0.000000 0.048768 0.000000
# 6 0.000000 0.000000 0.000000 0.000543 0.000000 0.025520
#
#
# Mechanical properties :
#
#
# Convention : Reuss Voigt Hill
#
# Bulk Modulus (GPa) = 34.39316 59.30126 46.84721
# Shear Modulus (GPa) = 29.50930 35.64438 32.57684
#
# Velocity S-wave (km/s) = 3.71880 4.08714 3.90731
# Velocity P-wave (km/s) = 5.87857 7.07562 6.50469
#
# Compressibility (1/GPa) = 0.02907555
#
# Stress axis : x y z
#
# Youngs Moduli (GPa) = 76.56966 96.36726 47.32106
#
# Poissons Ratio (x) = 0.26342 0.11148
# Poissons Ratio (y) = 0.20930 0.12576
# Poissons Ratio (z) = 0.18038 0.25610
#
# Static dielectric constant tensor:
#      x y z
#    x 3.850150 0.000000 -0.310990 
#    y 0.000000 4.316340 0.000000 
#    z -0.310990 0.000000 3.726580 
# 
# 
# High freq. dielectric constant tensor:
#      x y z
#    x 1.812550 0.000000 -0.022340 
#    y 0.000000 1.858980 0.000000 
#    z -0.022340 0.000000 1.822380 
# 
# From -- ./inp_files/81350.got.cif
#   From: 2010.06.25/outbox.cif.g09.slc.cpg/sg13_41_cif.got.tgz:81350.got - 2010.06.28 04:50:58.
