data_PCOD8119822
_publ_section_title
;
Structure prediction by ZEFSAII (Michael W. Deem and Ramdas Pophale) SiO2 
 PCOD8119822
Probable space group: P 2/C
;
_chemical_formula_sum "Si O2"
_cell_formula_units_Z 26
_cell_length_a 11.896600
_cell_length_b 8.556962
_cell_length_c 14.037167
_cell_angle_alpha 90.000000
_cell_angle_beta 114.727746
_cell_angle_gamma 90.000000
_cell_volume 1297.938086
_symmetry_space_group_name_H-M "P 2/C"
_symmetry_group_IT_number 13
_symmetry_cell_setting 'monoclinic'
loop_
_space_group_symop_operation_xyz
x,y,z
-x,y,1/2-z
-x,-y,-z
x,-y,1/2+z
loop_
_atom_site_type_symbol
_atom_site_label
_atom_site_fract_x
_atom_site_fract_y
_atom_site_fract_z
Si Si1 0.000000 0.393701 0.250000
Si Si2 0.098287 0.431243 0.607999
Si Si3 0.500000 0.160500 0.750000
Si Si4 0.326091 0.080480 0.267938
Si Si5 0.650556 0.422636 0.898971
Si Si6 0.774008 0.222349 0.080893
Si Si7 0.873958 0.917252 0.429137
Si Si8 0.500000 0.665690 0.750000
O O1 0.924034 0.502335 0.295068
O O2 0.906402 0.281357 0.162355
O O3 0.233479 0.484470 0.621200
O O4 0.091296 0.243885 0.611285
O O5 0.000000 0.500000 0.500000
O O6 0.603541 0.260842 0.837981
O O7 0.570030 0.054320 0.696380
O O8 0.294073 0.117036 0.365588
O O9 0.382469 0.235582 0.240899
O O10 0.203454 0.030776 0.167481
O O11 0.544811 0.555546 0.854601
O O12 0.692356 0.376016 0.021268
O O13 0.794671 0.114430 0.995989
O O14 0.000000 0.000000 0.500000
#
# Coordination Sequence:
#
# PCOD8119822 Si02
#       8
#     2   4   2   4   4   4   4   2
#     4  12  22  38  70 102 130 168 220 270 326 398
#     4  11  22  41  67  94 129 170 213 268 325 387
#     4  10  20  44  64  86 134 174 220 268 320 380
#     4  11  23  41  65  98 128 175 218 268 329 391
#     4  10  21  43  65  92 128 179 214 275 322 378
#     4  11  23  40  67  96 131 171 218 273 328 389
#     4  11  24  43  65  94 137 168 208 273 336 388
#     4  10  24  40  68  90 136 174 220 270 320 394
#
# _framework density 20.031770999999999
#
# number of rings (size 3 to 8) (size 9 to 14) (size 15 to 20)
#    0.000    1.231    6.154    1.846    2.154    2.462 
#    0.000    0.000    0.000    0.000    0.000    0.000 
#    0.000    0.000    0.000    0.000    0.000    0.000 
#
# Total GULP energy -322381.562969 kJ/mol
# GULP energy per Si atom -12399.290883 kJ/mol
# Density = 1.998618 g / cm^3
# Si number density = 20.031771 Si / 1000 Ang^3
#
#
#
# Elastic Constant Matrix: (Units=GPa)
#
#
# Indices 1 2 3 4 5 6 
#
# 1 102.5842 43.7813 45.4234 0.0000 -1.2906 0.0000
# 2 43.7813 101.9762 38.3773 0.0000 5.7670 0.0000
# 3 45.4234 38.3773 106.6737 0.0000 5.8512 0.0000
# 4 0.0000 0.0000 0.0000 31.5930 0.0000 18.7026
# 5 -1.2906 5.7670 5.8512 0.0000 44.4546 0.0000
# 6 0.0000 0.0000 0.0000 18.7026 0.0000 33.1257
#
#
#
# Elastic Compliance Matrix: (Units=1/GPa)
#
#
# Indices 1 2 3 4 5 6 
#
# 1 0.013486 -0.004260 -0.004293 0.000000 0.001509 0.000000
# 2 -0.004260 0.012726 -0.002687 0.000000 -0.001421 0.000000
# 3 -0.004293 -0.002687 0.012245 0.000000 -0.001388 0.000000
# 4 0.000000 0.000000 0.000000 0.047543 0.000000 -0.026842
# 5 0.001509 -0.001421 -0.001388 0.000000 0.022906 0.000000
# 6 0.000000 0.000000 0.000000 -0.026842 0.000000 0.045343
#
#
# Mechanical properties :
#
#
# Convention : Reuss Voigt Hill
#
# Bulk Modulus (GPa) = 62.58234 62.93312 62.75773
# Shear Modulus (GPa) = 27.46442 34.07814 30.77128
#
# Velocity S-wave (km/s) = 3.70678 4.12904 3.92359
# Velocity P-wave (km/s) = 7.04483 7.36321 7.20578
#
# Compressibility (1/GPa) = 0.01597895
#
# Stress axis : x y z
#
# Youngs Moduli (GPa) = 74.15182 78.57626 81.66579
#
# Poissons Ratio (x) = 0.33471 0.35057
# Poissons Ratio (y) = 0.31586 0.21941
# Poissons Ratio (z) = 0.31832 0.21111
#
# Static dielectric constant tensor:
#      x y z
#    x 3.735410 0.000000 0.109050 
#    y 0.000000 3.786060 0.000000 
#    z 0.109050 0.000000 3.798000 
# 
# 
# High freq. dielectric constant tensor:
#      x y z
#    x 1.784190 0.000000 0.022460 
#    y 0.000000 1.788010 0.000000 
#    z 0.022460 0.000000 1.783240 
# 
# From -- ./inp_files/50204.got.cif
#   From: 2010.06.25/outbox.cif.g09.slc.cpg/sg13_26_cif.got.tgz:50204.got - 2010.06.28 04:50:58.
