data_PCOD8119716
_publ_section_title
;
Structure prediction by ZEFSAII (Michael W. Deem and Ramdas Pophale) SiO2 
 PCOD8119716
Probable space group: P 2/C
;
_chemical_formula_sum "Si O2"
_cell_formula_units_Z 32
_cell_length_a 25.756935
_cell_length_b 10.258161
_cell_length_c 19.420574
_cell_angle_alpha 90.000000
_cell_angle_beta 163.534660
_cell_angle_gamma 90.000000
_cell_volume 1454.385885
_symmetry_space_group_name_H-M "P 2/C"
_symmetry_group_IT_number 13
_symmetry_cell_setting 'monoclinic'
loop_
_space_group_symop_operation_xyz
x,y,z
-x,y,1/2-z
-x,-y,-z
x,-y,1/2+z
loop_
_atom_site_type_symbol
_atom_site_label
_atom_site_fract_x
_atom_site_fract_y
_atom_site_fract_z
Si Si1 0.760643 0.993117 0.778001
Si Si2 0.698297 0.945206 0.482106
Si Si3 0.622861 0.106147 0.738448
Si Si4 0.845904 0.346536 0.999872
Si Si5 0.994948 0.772480 0.558040
Si Si6 0.954881 0.259457 0.527299
Si Si7 0.193626 0.357166 0.029982
Si Si8 0.321204 0.249371 0.058634
O O1 0.592245 0.926412 0.521921
O O2 0.701101 0.007592 0.781390
O O3 0.936115 0.897747 0.000129
O O4 0.818793 0.132595 0.819476
O O5 0.500000 0.888355 0.250000
O O6 0.739552 0.916719 0.455139
O O7 0.846533 0.870389 0.716099
O O8 0.700549 0.100320 0.491754
O O9 0.665458 0.255086 0.771115
O O10 0.942210 0.336922 0.047176
O O11 0.770990 0.488848 0.923043
O O12 0.000000 0.301648 0.250000
O O13 0.055262 0.694700 0.565550
O O14 0.793029 0.307961 0.373406
O O15 0.142090 0.316357 0.797638
O O16 0.000000 0.321608 0.750000
O O17 0.336081 0.282476 0.159838
O O18 0.500000 0.310037 0.250000
#
# Coordination Sequence:
#
# PCOD8119716 Si02
#       8
#     4   4   4   4   4   4   4   4
#     4  10  21  35  57  89 125 158 196 252 317 363
#     4  11  21  34  58  91 125 154 200 244 310 376
#     4  10  21  36  58  88 122 160 201 254 308 373
#     4  10  20  41  64  84 119 162 214 254 299 361
#     4  11  22  35  62  91 127 166 195 253 313 372
#     4  11  21  38  60  89 128 160 204 251 316 364
#     4   9  21  41  65  87 116 163 214 259 297 360
#     4  10  22  38  65  95 120 158 204 257 308 367
#
# _framework density 22.002414000000002
#
# number of rings (size 3 to 8) (size 9 to 14) (size 15 to 20)
#    0.000    1.750    2.500    1.875    3.500    0.500 
#    2.250    1.250    5.500    0.000    0.000    0.000 
#    0.000    0.000    0.000    0.000    0.000    0.000 
#
# Total GULP energy -396559.647489 kJ/mol
# GULP energy per Si atom -12392.488984 kJ/mol
# Density = 2.195234 g / cm^3
# Si number density = 22.002414 Si / 1000 Ang^3
#
#
#
# Elastic Constant Matrix: (Units=GPa)
#
#
# Indices 1 2 3 4 5 6 
#
# 1 161.4241 13.7947 44.4436 0.0000 -11.7345 0.0000
# 2 13.7947 35.4857 18.8934 0.0000 -3.0321 0.0000
# 3 44.4436 18.8934 70.9732 0.0000 0.0463 0.0000
# 4 0.0000 0.0000 0.0000 18.0692 0.0000 -1.5539
# 5 -11.7345 -3.0321 0.0463 0.0000 30.9416 0.0000
# 6 0.0000 0.0000 0.0000 -1.5539 0.0000 22.9846
#
#
#
# Elastic Compliance Matrix: (Units=1/GPa)
#
#
# Indices 1 2 3 4 5 6 
#
# 1 0.007746 -0.000207 -0.004797 0.000000 0.002925 0.000000
# 2 -0.000207 0.033166 -0.008701 0.000000 0.003185 0.000000
# 3 -0.004797 -0.008701 0.019412 0.000000 -0.002701 0.000000
# 4 0.000000 0.000000 0.000000 0.055666 0.000000 0.003763
# 5 0.002925 0.003185 -0.002701 0.000000 0.033744 0.000000
# 6 0.000000 0.000000 0.000000 0.003763 0.000000 0.043762
#
#
# Mechanical properties :
#
#
# Convention : Reuss Voigt Hill
#
# Bulk Modulus (GPa) = 30.38376 46.90515 38.64446
# Shear Modulus (GPa) = 21.56304 27.11584 24.33944
#
# Velocity S-wave (km/s) = 3.13394 3.51437 3.32959
# Velocity P-wave (km/s) = 5.18987 6.15079 5.69064
#
# Compressibility (1/GPa) = 0.03291232
#
# Stress axis : x y z
#
# Youngs Moduli (GPa) = 129.09959 30.15160 51.51445
#
# Poissons Ratio (x) = 0.00624 0.24713
# Poissons Ratio (y) = 0.02673 0.44824
# Poissons Ratio (z) = 0.61933 0.26236
#
# Static dielectric constant tensor:
#      x y z
#    x 4.314430 0.000000 0.088370 
#    y 0.000000 3.516260 0.000000 
#    z 0.088370 0.000000 3.887600 
# 
# 
# High freq. dielectric constant tensor:
#      x y z
#    x 1.888460 0.000000 0.002070 
#    y 0.000000 1.829660 0.000000 
#    z 0.002070 0.000000 1.845080 
# 
# From -- ./inp_files/71491.got.cif
#   From: 2010.06.25/outbox.cif.g09.slc.cpg/sg13_36_cif.got.tgz:71491.got - 2010.06.28 04:50:58.
