data_PCOD8119721
_publ_section_title
;
Structure prediction by ZEFSAII (Michael W. Deem and Ramdas Pophale) SiO2 
 PCOD8119721
Probable space group: P 2/C
;
_chemical_formula_sum "Si O2"
_cell_formula_units_Z 30
_cell_length_a 15.659732
_cell_length_b 8.718529
_cell_length_c 11.587101
_cell_angle_alpha 90.000000
_cell_angle_beta 57.595822
_cell_angle_gamma 90.000000
_cell_volume 1335.652215
_symmetry_space_group_name_H-M "P 2/C"
_symmetry_group_IT_number 13
_symmetry_cell_setting 'monoclinic'
loop_
_space_group_symop_operation_xyz
x,y,z
-x,y,1/2-z
-x,-y,-z
x,-y,1/2+z
loop_
_atom_site_type_symbol
_atom_site_label
_atom_site_fract_x
_atom_site_fract_y
_atom_site_fract_z
Si Si1 0.968090 0.838164 0.148299
Si Si2 0.290249 0.674056 0.623219
Si Si3 0.593402 0.610412 0.751028
Si Si4 0.350426 0.721927 0.322597
Si Si5 0.310246 0.851436 0.949163
Si Si6 0.158097 0.105569 0.374007
Si Si7 0.500000 0.968681 0.250000
Si Si8 0.782841 0.333481 0.789082
O O1 0.904512 0.680019 0.207669
O O2 0.000000 0.902365 0.250000
O O3 0.890180 0.956648 0.147665
O O4 0.066362 0.801067 0.000522
O O5 0.394501 0.660607 0.623326
O O6 0.317707 0.744155 0.479535
O O7 0.209919 0.788903 0.739235
O O8 0.246556 0.501739 0.644592
O O9 0.500000 0.687058 0.750000
O O10 0.584347 0.430639 0.741673
O O11 0.688913 0.686169 0.617320
O O12 0.425963 0.858844 0.227436
O O13 0.251696 0.700557 0.316264
O O14 0.236190 0.951228 0.918861
O O15 0.421157 0.930087 0.882777
O O16 0.265741 0.809898 0.105240
#
# Coordination Sequence:
#
# PCOD8119721 Si02
#       8
#     4   4   4   4   4   4   2   4
#     4  11  23  43  73 101 131 177 221 270 349 411
#     4  10  24  42  68  95 137 176 220 286 328 391
#     4  10  20  41  64  90 129 180 225 264 329 388
#     4  11  24  42  61  99 137 176 223 274 332 390
#     4  11  22  43  64  97 131 176 221 272 332 397
#     4  10  24  44  67  99 134 173 220 280 341 398
#     4  12  26  38  64  98 134 176 224 272 328 398
#     4  11  24  42  71  97 133 176 223 279 335 402
#
# _framework density 22.460937000000001
#
# number of rings (size 3 to 8) (size 9 to 14) (size 15 to 20)
#    0.000    1.333    4.000    0.800    1.867    4.800 
#    0.000    0.667    0.000    0.000    0.000    0.000 
#    0.000    0.000    0.000    0.000    0.000    0.000 
#
# Total GULP energy -371652.584287 kJ/mol
# GULP energy per Si atom -12388.419476 kJ/mol
# Density = 2.240982 g / cm^3
# Si number density = 22.460937 Si / 1000 Ang^3
#
#
#
# Elastic Constant Matrix: (Units=GPa)
#
#
# Indices 1 2 3 4 5 6 
#
# 1 128.0875 29.8934 57.8628 0.0000 -0.5482 0.0000
# 2 29.8934 65.7854 19.7263 0.0000 -3.1129 0.0000
# 3 57.8628 19.7263 117.6807 0.0000 10.6776 0.0000
# 4 0.0000 0.0000 0.0000 23.2032 0.0000 4.0054
# 5 -0.5482 -3.1129 10.6776 0.0000 35.5544 0.0000
# 6 0.0000 0.0000 0.0000 4.0054 0.0000 24.8676
#
#
#
# Elastic Compliance Matrix: (Units=1/GPa)
#
#
# Indices 1 2 3 4 5 6 
#
# 1 0.010800 -0.003386 -0.004863 0.000000 0.001331 0.000000
# 2 -0.003386 0.017247 -0.001396 0.000000 0.001877 0.000000
# 3 -0.004863 -0.001396 0.011453 0.000000 -0.003637 0.000000
# 4 0.000000 0.000000 0.000000 0.044330 0.000000 -0.007140
# 5 0.001331 0.001877 -0.003637 0.000000 0.029403 0.000000
# 6 0.000000 0.000000 0.000000 -0.007140 0.000000 0.041363
#
#
# Mechanical properties :
#
#
# Convention : Reuss Voigt Hill
#
# Bulk Modulus (GPa) = 49.48534 58.50207 53.99370
# Shear Modulus (GPa) = 27.68166 30.32978 29.00572
#
# Velocity S-wave (km/s) = 3.51441 3.67868 3.59748
# Velocity P-wave (km/s) = 6.20868 6.64426 6.43016
#
# Compressibility (1/GPa) = 0.02020801
#
# Stress axis : x y z
#
# Youngs Moduli (GPa) = 92.59060 57.98020 87.31376
#
# Poissons Ratio (x) = 0.19634 0.42465
# Poissons Ratio (y) = 0.31355 0.12192
# Poissons Ratio (z) = 0.45031 0.08096
#
# Static dielectric constant tensor:
#      x y z
#    x 4.296240 0.000000 0.000360 
#    y 0.000000 4.041780 0.000000 
#    z 0.000360 0.000000 3.949400 
# 
# 
# High freq. dielectric constant tensor:
#      x y z
#    x 1.892760 0.000000 0.001730 
#    y 0.000000 1.886330 0.000000 
#    z 0.001730 0.000000 1.873770 
# 
# From -- ./inp_files/36424.got.cif
#   From: 2010.06.25/outbox.cif.g09.slc.cpg/sg13_19_cif.got.tgz:36424.got - 2010.06.28 04:50:58.
