data_PCOD8119328
_publ_section_title
;
Structure prediction by ZEFSAII (Michael W. Deem and Ramdas Pophale) SiO2 
 PCOD8119328
Probable space group: P 2/C
;
_chemical_formula_sum "Si O2"
_cell_formula_units_Z 26
_cell_length_a 8.650053
_cell_length_b 12.195747
_cell_length_c 13.691020
_cell_angle_alpha 90.000000
_cell_angle_beta 69.685158
_cell_angle_gamma 90.000000
_cell_volume 1354.480509
_symmetry_space_group_name_H-M "P 2/C"
_symmetry_group_IT_number 13
_symmetry_cell_setting 'monoclinic'
loop_
_space_group_symop_operation_xyz
x,y,z
-x,y,1/2-z
-x,-y,-z
x,-y,1/2+z
loop_
_atom_site_type_symbol
_atom_site_label
_atom_site_fract_x
_atom_site_fract_y
_atom_site_fract_z
Si Si1 0.648520 0.814264 0.090336
Si Si2 0.160330 0.392164 0.376596
Si Si3 0.000000 0.748543 0.750000
Si Si4 0.899938 0.640872 0.091058
Si Si5 0.500000 0.281036 0.250000
Si Si6 0.312312 0.108738 0.712977
Si Si7 0.000000 0.781718 0.250000
Si Si8 0.670375 0.869488 0.864234
O O1 0.751729 0.700110 0.062644
O O2 0.724113 0.890066 0.161428
O O3 0.454231 0.800953 0.158103
O O4 0.651483 0.872617 0.984834
O O5 0.037255 0.332837 0.329858
O O6 0.162940 0.522237 0.362604
O O7 0.347703 0.353738 0.321475
O O8 0.077274 0.364322 0.498799
O O9 0.853745 0.831712 0.802099
O O10 0.930694 0.707600 0.180742
O O11 0.454985 0.211101 0.164058
O O12 0.151155 0.140070 0.685569
O O13 0.369472 0.988830 0.668942
#
# Coordination Sequence:
#
# PCOD8119328 Si02
#       8
#     4   4   2   4   2   4   2   4
#     4  10  21  39  60  83 116 157 190 240 288 346
#     4  10  21  39  60  88 115 153 195 238 290 345
#     4  10  20  38  62  84 120 154 194 232 292 342
#     4  10  21  40  61  84 119 152 194 240 291 339
#     4  10  24  36  62  88 118 148 202 234 290 342
#     4  10  22  38  58  87 117 152 199 232 296 341
#     4  10  22  38  58  88 116 150 196 242 286 346
#     4  11  21  40  59  86 119 155 189 245 283 348
#
# _framework density 19.195550999999998
#
# number of rings (size 3 to 8) (size 9 to 14) (size 15 to 20)
#    0.000    1.846    1.538    2.308    2.154    2.462 
#    2.769    3.077    0.000    0.000    0.000    0.000 
#    0.000    0.000    0.000    0.000    0.000    0.000 
#
# Total GULP energy -322221.002223 kJ/mol
# GULP energy per Si atom -12393.115470 kJ/mol
# Density = 1.915186 g / cm^3
# Si number density = 19.195551 Si / 1000 Ang^3
#
#
#
# Elastic Constant Matrix: (Units=GPa)
#
#
# Indices 1 2 3 4 5 6 
#
# 1 113.3415 42.5918 27.1714 0.0000 -15.9758 0.0000
# 2 42.5918 88.5994 33.1054 0.0000 -10.3894 0.0000
# 3 27.1714 33.1054 83.5094 0.0000 2.5293 0.0000
# 4 0.0000 0.0000 0.0000 23.8053 0.0000 3.1249
# 5 -15.9758 -10.3894 2.5293 0.0000 33.3287 0.0000
# 6 0.0000 0.0000 0.0000 3.1249 0.0000 24.1090
#
#
#
# Elastic Compliance Matrix: (Units=1/GPa)
#
#
# Indices 1 2 3 4 5 6 
#
# 1 0.011558 -0.004209 -0.002225 0.000000 0.004397 0.000000
# 2 -0.004209 0.015505 -0.004873 0.000000 0.003185 0.000000
# 3 -0.002225 -0.004873 0.014743 0.000000 -0.003705 0.000000
# 4 0.000000 0.000000 0.000000 0.042735 0.000000 -0.005539
# 5 0.004397 0.003185 -0.003705 0.000000 0.033386 0.000000
# 6 0.000000 0.000000 0.000000 -0.005539 0.000000 0.042196
#
#
# Mechanical properties :
#
#
# Convention : Reuss Voigt Hill
#
# Bulk Modulus (GPa) = 52.11043 54.57637 53.34340
# Shear Modulus (GPa) = 26.43628 28.42071 27.42849
#
# Velocity S-wave (km/s) = 3.71510 3.85202 3.78418
# Velocity P-wave (km/s) = 6.75342 6.94820 6.85151
#
# Compressibility (1/GPa) = 0.01919002
#
# Stress axis : x y z
#
# Youngs Moduli (GPa) = 86.52178 64.49670 67.82947
#
# Poissons Ratio (x) = 0.27147 0.15093
# Poissons Ratio (y) = 0.36418 0.33056
# Poissons Ratio (z) = 0.19252 0.31432
#
# Static dielectric constant tensor:
#      x y z
#    x 4.134160 0.000000 -0.075150 
#    y 0.000000 3.485980 0.000000 
#    z -0.075150 0.000000 3.611290 
# 
# 
# High freq. dielectric constant tensor:
#      x y z
#    x 1.758730 0.000000 -0.002180 
#    y 0.000000 1.741490 0.000000 
#    z -0.002180 0.000000 1.750990 
# 
# From -- ./inp_files/46572.got.cif
#   From: 2010.06.25/outbox.cif.g09.slc.cpg/sg13_24_cif.got.tgz:46572.got - 2010.06.28 04:50:58.
