data_PCOD8119367
_publ_section_title
;
Structure prediction by ZEFSAII (Michael W. Deem and Ramdas Pophale) SiO2 
 PCOD8119367
Probable space group: P 2/C
;
_chemical_formula_sum "Si O2"
_cell_formula_units_Z 32
_cell_length_a 23.393237
_cell_length_b 14.575884
_cell_length_c 9.359744
_cell_angle_alpha 90.000000
_cell_angle_beta 150.031181
_cell_angle_gamma 90.000000
_cell_volume 1594.224852
_symmetry_space_group_name_H-M "P 2/C"
_symmetry_group_IT_number 13
_symmetry_cell_setting 'monoclinic'
loop_
_space_group_symop_operation_xyz
x,y,z
-x,y,1/2-z
-x,-y,-z
x,-y,1/2+z
loop_
_atom_site_type_symbol
_atom_site_label
_atom_site_fract_x
_atom_site_fract_y
_atom_site_fract_z
Si Si1 0.626035 0.055357 0.036996
Si Si2 0.819198 0.653795 0.743054
Si Si3 0.379797 0.210219 0.708374
Si Si4 0.082162 0.535886 0.060006
Si Si5 0.157364 0.709306 0.392818
Si Si6 0.639036 0.195369 0.287101
Si Si7 0.260755 0.872460 0.215208
Si Si8 0.955639 0.234363 0.307754
O O1 0.500000 0.010040 0.750000
O O2 0.639371 0.146438 0.970613
O O3 0.637531 0.090849 0.224868
O O4 0.722501 0.979776 0.210510
O O5 0.691038 0.694732 0.454095
O O6 0.821290 0.543110 0.758841
O O7 0.890424 0.685931 0.757009
O O8 0.874012 0.688192 0.011125
O O9 0.340296 0.148170 0.753826
O O10 0.511934 0.237709 0.015727
O O11 0.145152 0.625235 0.255752
O O12 0.000000 0.558679 0.750000
O O13 0.000000 0.500000 0.000000
O O14 0.287397 0.741908 0.660651
O O15 0.068523 0.789067 0.146763
O O16 0.698195 0.194403 0.569636
O O17 0.127112 0.853468 0.890990
O O18 0.000000 0.270299 0.250000
#
# Coordination Sequence:
#
# PCOD8119367 Si02
#       8
#     4   4   4   4   4   4   4   4
#     4  10  20  38  63  89 119 161 212 254 295 359
#     4  11  23  41  65  90 124 154 203 253 304 359
#     4  10  22  39  64  91 121 164 201 250 308 362
#     4  12  23  37  63  93 118 152 207 252 296 363
#     4  12  23  40  63  91 123 160 201 249 304 367
#     4  11  22  38  64  91 122 162 204 246 307 364
#     4  11  22  36  61  91 126 156 207 261 298 345
#     4  11  22  38  60  88 123 163 200 248 301 361
#
# _framework density 20.07245
#
# number of rings (size 3 to 8) (size 9 to 14) (size 15 to 20)
#    0.000    1.000    5.000    2.625    0.000    2.000 
#    0.000    1.250    2.750    0.000    0.000    0.000 
#    0.000    0.000    0.000    0.000    0.000    0.000 
#
# Total GULP energy -396583.867919 kJ/mol
# GULP energy per Si atom -12393.245872 kJ/mol
# Density = 2.002676 g / cm^3
# Si number density = 20.072450 Si / 1000 Ang^3
#
#
#
# Elastic Constant Matrix: (Units=GPa)
#
#
# Indices 1 2 3 4 5 6 
#
# 1 105.7927 21.6071 52.5087 0.0000 2.7159 0.0000
# 2 21.6071 86.2575 51.9112 0.0000 17.5250 0.0000
# 3 52.5087 51.9112 117.3811 0.0000 10.4172 0.0000
# 4 0.0000 0.0000 0.0000 26.0247 0.0000 4.0634
# 5 2.7159 17.5250 10.4172 0.0000 39.4569 0.0000
# 6 0.0000 0.0000 0.0000 4.0634 0.0000 23.7318
#
#
#
# Elastic Compliance Matrix: (Units=1/GPa)
#
#
# Indices 1 2 3 4 5 6 
#
# 1 0.012167 0.000199 -0.005579 0.000000 0.000547 0.000000
# 2 0.000199 0.016961 -0.007086 0.000000 -0.005676 0.000000
# 3 -0.005579 -0.007086 0.014167 0.000000 -0.000209 0.000000
# 4 0.000000 0.000000 0.000000 0.039481 0.000000 -0.006760
# 5 0.000547 -0.005676 -0.000209 0.000000 0.027883 0.000000
# 6 0.000000 0.000000 0.000000 -0.006760 0.000000 0.043295
#
#
# Mechanical properties :
#
#
# Convention : Reuss Voigt Hill
#
# Bulk Modulus (GPa) = 54.45932 62.38727 58.42330
# Shear Modulus (GPa) = 27.02588 30.06964 28.54776
#
# Velocity S-wave (km/s) = 3.67334 3.87467 3.77535
# Velocity P-wave (km/s) = 6.72172 7.15304 6.94073
#
# Compressibility (1/GPa) = 0.01836233
#
# Stress axis : x y z
#
# Youngs Moduli (GPa) = 82.18984 58.95797 70.58476
#
# Poissons Ratio (x) = -0.01171 0.39380
# Poissons Ratio (y) = -0.01633 0.50017
# Poissons Ratio (z) = 0.45855 0.41778
#
# Static dielectric constant tensor:
#      x y z
#    x 3.466180 0.000000 -0.008060 
#    y 0.000000 3.211030 0.000000 
#    z -0.008060 0.000000 3.810220 
# 
# 
# High freq. dielectric constant tensor:
#      x y z
#    x 1.799440 0.000000 -0.017780 
#    y 0.000000 1.754840 0.000000 
#    z -0.017780 0.000000 1.788870 
# 
# From -- ./inp_files/16761.got.cif
#   From: 2010.06.25/outbox.cif.g09.slc.cpg/sg13_9_cif.got.tgz:16761.got - 2010.06.28 04:50:58.
