data_PCOD8119183
_publ_section_title
;
Structure prediction by ZEFSAII (Michael W. Deem and Ramdas Pophale) SiO2 
 PCOD8119183
Probable space group: P 2/C
;
_chemical_formula_sum "Si O2"
_cell_formula_units_Z 28
_cell_length_a 27.144788
_cell_length_b 10.212008
_cell_length_c 27.764395
_cell_angle_alpha 90.000000
_cell_angle_beta 10.443859
_cell_angle_gamma 90.000000
_cell_volume 1395.135991
_symmetry_space_group_name_H-M "P 2/C"
_symmetry_group_IT_number 13
_symmetry_cell_setting 'monoclinic'
loop_
_space_group_symop_operation_xyz
x,y,z
-x,y,1/2-z
-x,-y,-z
x,-y,1/2+z
loop_
_atom_site_type_symbol
_atom_site_label
_atom_site_fract_x
_atom_site_fract_y
_atom_site_fract_z
Si Si1 0.440459 0.992690 0.752623
Si Si2 0.500000 0.426651 0.750000
Si Si3 0.865365 0.359212 0.124148
Si Si4 0.000000 0.608780 0.250000
Si Si5 0.263549 0.336744 0.663495
Si Si6 0.813236 0.634344 0.781532
Si Si7 0.374752 0.270619 0.775695
Si Si8 0.907481 0.178443 0.761701
O O1 0.500000 0.037770 0.750000
O O2 0.689717 0.901486 0.500476
O O3 0.428666 0.116455 0.728449
O O4 0.168711 0.911614 0.004175
O O5 0.463092 0.336488 0.739796
O O6 0.745227 0.517921 0.500790
O O7 0.578494 0.358900 0.372618
O O8 0.814191 0.302852 0.226831
O O9 0.000000 0.500000 0.000000
O O10 0.087730 0.281932 0.878165
O O11 0.015056 0.692963 0.283539
O O12 0.148925 0.477081 0.755709
O O13 0.224454 0.224640 0.661519
O O14 0.056923 0.700377 0.576161
O O15 0.533767 0.672426 0.076722
#
# Coordination Sequence:
#
# PCOD8119183 Si02
#       8
#     4   2   4   2   4   4   4   4
#     4  12  24  45  62  84 119 173 222 243 292 360
#     4  12  24  38  58  92 126 154 188 252 322 362
#     4  10  20  37  63  93 129 162 198 247 314 386
#     4  12  24  38  60  92 124 154 188 252 322 364
#     4  11  21  38  64  97 127 158 200 257 316 374
#     4  11  22  39  63  95 124 158 200 252 318 367
#     4  12  24  40  62  88 124 163 207 255 292 369
#     4  12  24  41  64  89 123 162 210 255 299 366
#
# _framework density 20.069727
#
# number of rings (size 3 to 8) (size 9 to 14) (size 15 to 20)
#    0.000    0.571    2.143    9.429    0.000    0.000 
#    0.000    0.000    0.000   17.143    0.000    0.000 
#    0.000    0.000    0.000    0.000    0.000    0.000 
#
# Total GULP energy -347227.174197 kJ/mol
# GULP energy per Si atom -12400.970507 kJ/mol
# Density = 2.002405 g / cm^3
# Si number density = 20.069727 Si / 1000 Ang^3
#
#
#
# Elastic Constant Matrix: (Units=GPa)
#
#
# Indices 1 2 3 4 5 6 
#
# 1 108.7012 29.9434 25.8950 0.0000 2.2041 0.0000
# 2 29.9434 79.6676 36.5713 0.0000 -0.9679 0.0000
# 3 25.8950 36.5713 151.1395 0.0000 2.6231 0.0000
# 4 0.0000 0.0000 0.0000 13.6390 0.0000 -11.4432
# 5 2.2041 -0.9679 2.6231 0.0000 47.3255 0.0000
# 6 0.0000 0.0000 0.0000 -11.4432 0.0000 45.6552
#
#
#
# Elastic Compliance Matrix: (Units=1/GPa)
#
#
# Indices 1 2 3 4 5 6 
#
# 1 0.010391 -0.003486 -0.000928 0.000000 -0.000504 0.000000
# 2 -0.003486 0.015301 -0.003116 0.000000 0.000648 0.000000
# 3 -0.000928 -0.003116 0.007537 0.000000 -0.000438 0.000000
# 4 0.000000 0.000000 0.000000 0.092843 0.000000 0.023270
# 5 -0.000504 0.000648 -0.000438 0.000000 0.021191 0.000000
# 6 0.000000 0.000000 0.000000 0.023270 0.000000 0.027736
#
#
# Mechanical properties :
#
#
# Convention : Reuss Voigt Hill
#
# Bulk Modulus (GPa) = 55.04003 58.25863 56.64933
# Shear Modulus (GPa) = 25.49523 37.79718 31.64621
#
# Velocity S-wave (km/s) = 3.56804 4.34440 3.97522
# Velocity P-wave (km/s) = 6.66772 7.36588 7.02548
#
# Compressibility (1/GPa) = 0.01816859
#
# Stress axis : x y z
#
# Youngs Moduli (GPa) = 96.23712 65.35677 132.67693
#
# Poissons Ratio (x) = 0.22780 0.12315
# Poissons Ratio (y) = 0.33544 0.41347
# Poissons Ratio (z) = 0.08932 0.20368
#
# Static dielectric constant tensor:
#      x y z
#    x 4.131450 0.000000 0.276980 
#    y 0.000000 3.508400 0.000000 
#    z 0.276980 0.000000 3.920290 
# 
# 
# High freq. dielectric constant tensor:
#      x y z
#    x 1.798140 0.000000 0.003780 
#    y 0.000000 1.763230 0.000000 
#    z 0.003780 0.000000 1.808340 
# 
# From -- ./inp_files/98058.got.cif
#   From: 2010.06.25/outbox.cif.g09.slc.cpg/sg13_50_cif.got.tgz:98058.got - 2010.06.28 04:50:58.
