data_PCOD8119443
_publ_section_title
;
Structure prediction by ZEFSAII (Michael W. Deem and Ramdas Pophale) SiO2 
 PCOD8119443
Probable space group: P 2/C
;
_chemical_formula_sum "Si O2"
_cell_formula_units_Z 30
_cell_length_a 12.766437
_cell_length_b 13.608951
_cell_length_c 16.844416
_cell_angle_alpha 90.000000
_cell_angle_beta 148.740980
_cell_angle_gamma 90.000000
_cell_volume 1518.590040
_symmetry_space_group_name_H-M "P 2/C"
_symmetry_group_IT_number 13
_symmetry_cell_setting 'monoclinic'
loop_
_space_group_symop_operation_xyz
x,y,z
-x,y,1/2-z
-x,-y,-z
x,-y,1/2+z
loop_
_atom_site_type_symbol
_atom_site_label
_atom_site_fract_x
_atom_site_fract_y
_atom_site_fract_z
Si Si1 0.370812 0.722068 0.743418
Si Si2 0.445346 0.396978 0.002359
Si Si3 0.439200 0.220111 0.892264
Si Si4 0.004231 0.782643 0.409622
Si Si5 0.454376 0.910260 0.898847
Si Si6 0.965237 0.005238 0.820322
Si Si7 0.633776 0.078614 0.912463
Si Si8 0.000000 0.666167 0.250000
O O1 0.500000 0.702663 0.750000
O O2 0.417519 0.629333 0.831567
O O3 0.432991 0.824702 0.821702
O O4 0.138126 0.735198 0.566506
O O5 0.500000 0.500000 0.000000
O O6 0.518452 0.318294 0.984415
O O7 0.203053 0.396199 0.862159
O O8 0.223705 0.242144 0.713401
O O9 0.589754 0.186213 0.920458
O O10 0.415619 0.133207 0.943135
O O11 0.063929 0.733520 0.364925
O O12 0.018478 0.900006 0.408565
O O13 0.244956 0.953549 0.795386
O O14 0.587743 0.995527 0.948044
O O15 0.000000 0.028258 0.750000
O O16 0.130809 0.924766 0.955883
O O17 0.500000 0.056821 0.750000
#
# Coordination Sequence:
#
# PCOD8119443 Si02
#       8
#     4   4   4   4   4   4   4   2
#     4  11  22  39  65  96 127 158 211 269 313 371
#     4  10  23  45  70  92 118 159 207 269 331 387
#     4  10  22  40  59  83 125 165 210 259 320 375
#     4  11  20  34  62  92 122 165 209 261 309 357
#     4  11  22  39  55  87 132 174 216 263 301 374
#     4  12  22  34  59  89 128 183 225 249 305 380
#     4  12  24  35  53  85 127 170 212 258 312 371
#     4  10  20  38  68  92 116 160 204 252 316 392
#
# _framework density 19.755167
#
# number of rings (size 3 to 8) (size 9 to 14) (size 15 to 20)
#    0.000    1.067    4.667    3.200    3.733    1.067 
#    0.000    6.000    0.000    0.000    0.000    0.000 
#    0.000    0.000    0.000    0.000    0.000    0.000 
#
# Total GULP energy -371842.711536 kJ/mol
# GULP energy per Si atom -12394.757051 kJ/mol
# Density = 1.971020 g / cm^3
# Si number density = 19.755167 Si / 1000 Ang^3
#
#
#
# Elastic Constant Matrix: (Units=GPa)
#
#
# Indices 1 2 3 4 5 6 
#
# 1 51.6512 45.3036 21.1381 0.0000 8.5407 0.0000
# 2 45.3036 107.5026 37.8217 0.0000 -1.9623 0.0000
# 3 21.1381 37.8217 135.5749 0.0000 -1.3203 0.0000
# 4 0.0000 0.0000 0.0000 19.7161 0.0000 -0.6501
# 5 8.5407 -1.9623 -1.3203 0.0000 25.3667 0.0000
# 6 0.0000 0.0000 0.0000 -0.6501 0.0000 30.9293
#
#
#
# Elastic Compliance Matrix: (Units=1/GPa)
#
#
# Indices 1 2 3 4 5 6 
#
# 1 0.034658 -0.014298 -0.001540 0.000000 -0.012855 0.000000
# 2 -0.014298 0.016224 -0.002239 0.000000 0.005953 0.000000
# 3 -0.001540 -0.002239 0.008248 0.000000 0.000775 0.000000
# 4 0.000000 0.000000 0.000000 0.050755 0.000000 0.001067
# 5 -0.012855 0.005953 0.000775 0.000000 0.044251 0.000000
# 6 0.000000 0.000000 0.000000 0.001067 0.000000 0.032354
#
#
# Mechanical properties :
#
#
# Convention : Reuss Voigt Hill
#
# Bulk Modulus (GPa) = 43.52411 55.91725 49.72068
# Shear Modulus (GPa) = 21.71060 27.90010 24.80535
#
# Velocity S-wave (km/s) = 3.31869 3.76213 3.54734
# Velocity P-wave (km/s) = 6.06337 6.87299 6.48084
#
# Compressibility (1/GPa) = 0.02297577
#
# Stress axis : x y z
#
# Youngs Moduli (GPa) = 28.85378 61.63741 121.23851
#
# Poissons Ratio (x) = 0.88130 0.18671
# Poissons Ratio (y) = 0.41256 0.27143
# Poissons Ratio (z) = 0.04443 0.13799
#
# Static dielectric constant tensor:
#      x y z
#    x 3.724490 0.000000 -0.003460 
#    y 0.000000 3.359310 0.000000 
#    z -0.003460 0.000000 3.996190 
# 
# 
# High freq. dielectric constant tensor:
#      x y z
#    x 1.764460 0.000000 0.000330 
#    y 0.000000 1.732350 0.000000 
#    z 0.000330 0.000000 1.791900 
# 
# From -- ./inp_files/68586.got.cif
#   From: 2010.06.25/outbox.cif.g09.slc.cpg/sg13_35_cif.got.tgz:68586.got - 2010.06.28 04:50:58.
