data_PCOD8119909
_publ_section_title
;
Structure prediction by ZEFSAII (Michael W. Deem and Ramdas Pophale) SiO2 
 PCOD8119909
Probable space group: P 2/C
;
_chemical_formula_sum "Si O2"
_cell_formula_units_Z 32
_cell_length_a 14.829447
_cell_length_b 13.647686
_cell_length_c 9.569108
_cell_angle_alpha 90.000000
_cell_angle_beta 117.251123
_cell_angle_gamma 90.000000
_cell_volume 1721.714690
_symmetry_space_group_name_H-M "P 2/C"
_symmetry_group_IT_number 13
_symmetry_cell_setting 'monoclinic'
loop_
_space_group_symop_operation_xyz
x,y,z
-x,y,1/2-z
-x,-y,-z
x,-y,1/2+z
loop_
_atom_site_type_symbol
_atom_site_label
_atom_site_fract_x
_atom_site_fract_y
_atom_site_fract_z
Si Si1 0.583545 0.787357 0.206367
Si Si2 0.893805 0.728860 0.506123
Si Si3 0.766317 0.087655 0.917259
Si Si4 0.443242 0.763579 0.854131
Si Si5 0.703377 0.585872 0.684135
Si Si6 0.745509 0.104511 0.232184
Si Si7 0.292779 0.602835 0.136423
Si Si8 0.116967 0.285071 0.173279
O O1 0.500000 0.830738 0.250000
O O2 0.673285 0.864807 0.269049
O O3 0.619202 0.682984 0.291911
O O4 0.538362 0.778861 0.021731
O O5 0.863164 0.842158 0.457584
O O6 0.812543 0.652404 0.384448
O O7 0.895026 0.710019 0.670504
O O8 0.005925 0.708852 0.521792
O O9 0.781525 0.983571 0.856187
O O10 0.746179 0.076736 0.068712
O O11 0.500000 0.753896 0.750000
O O12 0.384602 0.664279 0.850514
O O13 0.366331 0.855736 0.807025
O O14 0.713308 0.565267 0.526497
O O15 0.676612 0.485596 0.741465
O O16 0.810775 0.625169 0.822259
O O17 0.829215 0.184672 0.330160
#
# Coordination Sequence:
#
# PCOD8119909 Si02
#       8
#     4   4   4   4   4   4   4   4
#     4  11  20  40  55  73 109 149 177 218 268 321
#     4   8  16  35  57  80 104 148 177 211 271 322
#     4  10  21  35  57  81 110 141 181 220 265 319
#     4  11  24  38  55  79 107 143 184 222 266 316
#     4  10  21  37  54  83 109 141 180 223 266 316
#     4  10  21  37  54  83 109 141 180 223 266 316
#     4  10  21  35  57  81 110 141 181 220 265 319
#     4   8  16  35  59  75 110 143 178 217 263 323
#
# _framework density 18.586122
#
# number of rings (size 3 to 8) (size 9 to 14) (size 15 to 20)
#    0.000    2.250    2.500    1.500    3.500    3.000 
#    0.000    0.000    0.000    1.500    0.000    0.000 
#    0.000    0.000    0.000    0.000    0.000    0.000 
#
# Total GULP energy -396676.970986 kJ/mol
# GULP energy per Si atom -12396.155343 kJ/mol
# Density = 1.854382 g / cm^3
# Si number density = 18.586122 Si / 1000 Ang^3
#
#
#
# Elastic Constant Matrix: (Units=GPa)
#
#
# Indices 1 2 3 4 5 6 
#
# 1 61.2227 -11.4184 14.6926 0.0000 3.4712 0.0000
# 2 -11.4184 46.1873 -1.0715 0.0000 -15.0524 0.0000
# 3 14.6926 -1.0715 55.5223 0.0000 -4.6605 0.0000
# 4 0.0000 0.0000 0.0000 31.4045 0.0000 -8.4625
# 5 3.4712 -15.0524 -4.6605 0.0000 25.3724 0.0000
# 6 0.0000 0.0000 0.0000 -8.4625 0.0000 8.8945
#
#
#
# Elastic Compliance Matrix: (Units=1/GPa)
#
#
# Indices 1 2 3 4 5 6 
#
# 1 0.018317 0.004102 -0.004849 0.000000 -0.000963 0.000000
# 2 0.004102 0.027954 0.000811 0.000000 0.016172 0.000000
# 3 -0.004849 0.000811 0.019710 0.000000 0.004765 0.000000
# 4 0.000000 0.000000 0.000000 0.042821 0.000000 0.040741
# 5 -0.000963 0.016172 0.004765 0.000000 0.050014 0.000000
# 6 0.000000 0.000000 0.000000 0.040741 0.000000 0.151191
#
#
# Mechanical properties :
#
#
# Convention : Reuss Voigt Hill
#
# Bulk Modulus (GPa) = 15.12628 18.59308 16.85968
# Shear Modulus (GPa) = 15.06413 23.84960 19.45686
#
# Velocity S-wave (km/s) = 2.85002 3.58606 3.23901
# Velocity P-wave (km/s) = 4.35733 5.21266 4.80407
#
# Compressibility (1/GPa) = 0.06611012
#
# Stress axis : x y z
#
# Youngs Moduli (GPa) = 54.59371 35.77266 50.73679
#
# Poissons Ratio (x) = -0.14674 0.24602
# Poissons Ratio (y) = -0.22394 -0.04117
# Poissons Ratio (z) = 0.26472 -0.02903
#
# Static dielectric constant tensor:
#      x y z
#    x 3.587020 0.000000 0.137700 
#    y 0.000000 3.334580 0.000000 
#    z 0.137700 0.000000 2.905890 
# 
# 
# High freq. dielectric constant tensor:
#      x y z
#    x 1.720640 0.000000 0.015380 
#    y 0.000000 1.717510 0.000000 
#    z 0.015380 0.000000 1.711140 
# 
# From -- ./inp_files/19651.got.cif
#   From: 2010.06.25/outbox.cif.g09.slc.cpg/sg13_10_cif.got.tgz:19651.got - 2010.06.28 04:50:58.
