data_PCOD8119826
_publ_section_title
;
Structure prediction by ZEFSAII (Michael W. Deem and Ramdas Pophale) SiO2 
 PCOD8119826
Probable space group: P 2/C
;
_chemical_formula_sum "Si O2"
_cell_formula_units_Z 20
_cell_length_a 8.633615
_cell_length_b 10.580481
_cell_length_c 17.488906
_cell_angle_alpha 90.000000
_cell_angle_beta 34.868756
_cell_angle_gamma 90.000000
_cell_volume 913.330214
_symmetry_space_group_name_H-M "P 2/C"
_symmetry_group_IT_number 13
_symmetry_cell_setting 'monoclinic'
loop_
_space_group_symop_operation_xyz
x,y,z
-x,y,1/2-z
-x,-y,-z
x,-y,1/2+z
loop_
_atom_site_type_symbol
_atom_site_label
_atom_site_fract_x
_atom_site_fract_y
_atom_site_fract_z
Si Si1 0.560533 0.889226 0.375595
Si Si2 0.000000 0.698540 0.250000
Si Si3 0.296705 0.843393 0.640574
Si Si4 0.041527 0.571920 0.381544
Si Si5 0.500000 0.241212 0.750000
Si Si6 0.492973 0.632577 0.669615
O O1 0.365575 0.882178 0.526529
O O2 0.417999 0.849920 0.354029
O O3 0.780839 0.784260 0.299666
O O4 0.688736 0.028909 0.314885
O O5 0.893604 0.613724 0.362812
O O6 0.478799 0.737156 0.608296
O O7 0.000000 0.787208 0.750000
O O8 0.234070 0.675407 0.342687
O O9 0.225419 0.453720 0.281781
O O10 0.774717 0.549569 0.544382
O O11 0.500000 0.699847 0.750000
#
# Coordination Sequence:
#
# PCOD8119826 Si02
#       6
#     4   2   4   4   2   4
#     4  10  22  45  68 100 135 173 219 280 340 407
#     4  10  20  44  68  90 134 172 226 262 354 390
#     4  11  25  43  70 102 133 175 227 283 330 409
#     4  11  25  45  66 100 131 186 223 285 329 410
#     4  10  24  42  74  92 140 178 224 266 360 396
#     4  12  27  44  67  98 143 176 231 282 341 397
#
# _framework density 21.897886
#
# number of rings (size 3 to 8) (size 9 to 14) (size 15 to 20)
#    0.000    1.200    4.000    0.600    5.600    2.400 
#    0.000    2.000    0.000    0.000    0.000    0.000 
#    0.000    0.000    0.000    0.000    0.000    0.000 
#
# Total GULP energy -247767.329395 kJ/mol
# GULP energy per Si atom -12388.366470 kJ/mol
# Density = 2.184805 g / cm^3
# Si number density = 21.897886 Si / 1000 Ang^3
#
#
#
# Elastic Constant Matrix: (Units=GPa)
#
#
# Indices 1 2 3 4 5 6 
#
# 1 119.4910 53.1606 36.6636 0.0000 17.2770 0.0000
# 2 53.1606 85.8617 23.5422 0.0000 4.4583 0.0000
# 3 36.6636 23.5422 108.4888 0.0000 -3.1463 0.0000
# 4 0.0000 0.0000 0.0000 19.0184 0.0000 2.2569
# 5 17.2770 4.4583 -3.1463 0.0000 31.2822 0.0000
# 6 0.0000 0.0000 0.0000 2.2569 0.0000 20.7458
#
#
#
# Elastic Compliance Matrix: (Units=1/GPa)
#
#
# Indices 1 2 3 4 5 6 
#
# 1 0.013505 -0.007129 -0.003213 0.000000 -0.006766 0.000000
# 2 -0.007129 0.016278 -0.001079 0.000000 0.001509 0.000000
# 3 -0.003213 -0.001079 0.010625 0.000000 0.002997 0.000000
# 4 0.000000 0.000000 0.000000 0.053268 0.000000 -0.005795
# 5 -0.006766 0.001509 0.002997 0.000000 0.035790 0.000000
# 6 0.000000 0.000000 0.000000 -0.005795 0.000000 0.048833
#
#
# Mechanical properties :
#
#
# Convention : Reuss Voigt Hill
#
# Bulk Modulus (GPa) = 56.93349 60.06381 58.49865
# Shear Modulus (GPa) = 24.15503 27.57429 25.86466
#
# Velocity S-wave (km/s) = 3.32486 3.55240 3.44051
# Velocity P-wave (km/s) = 6.38714 6.65693 6.52343
#
# Compressibility (1/GPa) = 0.01756436
#
# Stress axis : x y z
#
# Youngs Moduli (GPa) = 74.04921 61.43235 94.12180
#
# Poissons Ratio (x) = 0.43795 0.30242
# Poissons Ratio (y) = 0.52789 0.10159
# Poissons Ratio (z) = 0.23792 0.06631
#
# Static dielectric constant tensor:
#      x y z
#    x 4.343140 0.000000 0.441130 
#    y 0.000000 3.905190 0.000000 
#    z 0.441130 0.000000 4.014740 
# 
# 
# High freq. dielectric constant tensor:
#      x y z
#    x 1.877150 0.000000 0.013590 
#    y 0.000000 1.849860 0.000000 
#    z 0.013590 0.000000 1.861630 
# 
# From -- ./inp_files/64421.got.cif
#   From: 2010.06.25/outbox.cif.g09.slc.cpg/sg13_33_cif.got.tgz:64421.got - 2010.06.28 04:50:58.
