data_PCOD8119304
_publ_section_title
;
Structure prediction by ZEFSAII (Michael W. Deem and Ramdas Pophale) SiO2 
 PCOD8119304
Probable space group: P 2/C
;
_chemical_formula_sum "Si O2"
_cell_formula_units_Z 20
_cell_length_a 8.974010
_cell_length_b 7.967785
_cell_length_c 19.225341
_cell_angle_alpha 90.000000
_cell_angle_beta 134.818328
_cell_angle_gamma 90.000000
_cell_volume 975.115147
_symmetry_space_group_name_H-M "P 2/C"
_symmetry_group_IT_number 13
_symmetry_cell_setting 'monoclinic'
loop_
_space_group_symop_operation_xyz
x,y,z
-x,y,1/2-z
-x,-y,-z
x,-y,1/2+z
loop_
_atom_site_type_symbol
_atom_site_label
_atom_site_fract_x
_atom_site_fract_y
_atom_site_fract_z
Si Si1 0.296842 0.115970 0.635539
Si Si2 0.839562 0.127563 0.525994
Si Si3 0.535753 0.674343 0.575925
Si Si4 0.769163 0.998255 0.149400
Si Si5 0.509763 0.319736 0.595570
O O1 0.500000 0.078167 0.750000
O O2 0.341513 0.274278 0.599759
O O3 0.090132 0.160987 0.613258
O O4 0.233896 0.951937 0.570941
O O5 0.716929 0.303689 0.496439
O O6 0.759578 0.005101 0.562126
O O7 0.607438 0.506860 0.641731
O O8 0.600018 0.659760 0.515844
O O9 0.640733 0.845259 0.638922
O O10 0.686005 0.824437 0.154419
O O11 0.000000 0.027118 0.250000
#
# Coordination Sequence:
#
# PCOD8119304 Si02
#       5
#     4   4   4   4   4
#     4  11  21  37  61  86 121 164 194 242 300 364
#     4  10  21  37  59  90 120 157 202 240 302 355
#     4  10  20  38  62  86 114 156 200 254 297 352
#     4  11  20  37  63  89 119 158 199 256 297 348
#     4  10  20  38  61  84 118 153 202 249 300 354
#
# _framework density 20.510399
#
# number of rings (size 3 to 8) (size 9 to 14) (size 15 to 20)
#    0.000    1.600    4.000    2.400    0.000    1.600 
#    0.000    3.000    0.000    0.000    0.000    0.000 
#    0.000    0.000    0.000    0.000    0.000    0.000 
#
# Total GULP energy -247856.878208 kJ/mol
# GULP energy per Si atom -12392.843910 kJ/mol
# Density = 2.046372 g / cm^3
# Si number density = 20.510399 Si / 1000 Ang^3
#
#
#
# Elastic Constant Matrix: (Units=GPa)
#
#
# Indices 1 2 3 4 5 6 
#
# 1 112.9484 51.3112 22.6410 0.0000 22.3940 0.0000
# 2 51.3112 142.8101 44.2896 0.0000 17.4100 0.0000
# 3 22.6410 44.2896 82.4486 0.0000 19.6643 0.0000
# 4 0.0000 0.0000 0.0000 -3.1696 0.0000 21.7645
# 5 22.3940 17.4100 19.6643 0.0000 33.1968 0.0000
# 6 0.0000 0.0000 0.0000 21.7645 0.0000 -22.2499
#
#
#
# Elastic Compliance Matrix: (Units=1/GPa)
#
#
# Indices 1 2 3 4 5 6 
#
# 1 0.011611 -0.003469 0.000127 0.000000 -0.006089 0.000000
# 2 -0.003469 0.009556 -0.004127 0.000000 -0.000227 0.000000
# 3 0.000127 -0.004127 0.016088 0.000000 -0.007451 0.000000
# 4 0.000000 0.000000 0.000000 0.055187 0.000000 0.053983
# 5 -0.006089 -0.000227 -0.007451 0.000000 0.038764 0.000000
# 6 0.000000 0.000000 0.000000 0.053983 0.000000 0.007862
#
#
# Mechanical properties :
#
#
# Convention : Reuss Voigt Hill
#
# Bulk Modulus (GPa) = 44.80652 63.85453 54.33053
# Shear Modulus (GPa) = 30.97048 16.21981 23.59514
#
# Velocity S-wave (km/s) = 3.89007 2.81518 3.39543
# Velocity P-wave (km/s) = 6.48615 6.46277 6.47447
#
# Compressibility (1/GPa) = 0.02231818
#
# Stress axis : x y z
#
# Youngs Moduli (GPa) = 86.12336 104.64430 62.15930
#
# Poissons Ratio (x) = 0.36301 -0.00790
# Poissons Ratio (y) = 0.29877 0.25650
# Poissons Ratio (z) = -0.01095 0.43182
#
# Static dielectric constant tensor:
#      x y z
#    x 4.099670 0.000000 0.058910 
#    y 0.000000 3.793490 0.000000 
#    z 0.058910 0.000000 3.563160 
# 
# 
# High freq. dielectric constant tensor:
#      x y z
#    x 1.811390 0.000000 0.005920 
#    y 0.000000 1.791710 0.000000 
#    z 0.005920 0.000000 1.773980 
# 
# From -- ./inp_files/45532.got.cif
#   From: 2010.06.25/outbox.cif.g09.slc.cpg/sg13_23_cif.got.tgz:45532.got - 2010.06.28 04:50:58.
