data_PCOD8119362
_publ_section_title
;
Structure prediction by ZEFSAII (Michael W. Deem and Ramdas Pophale) SiO2 
 PCOD8119362
Probable space group: P 2/C
;
_chemical_formula_sum "Si O2"
_cell_formula_units_Z 20
_cell_length_a 16.451697
_cell_length_b 11.450221
_cell_length_c 13.758750
_cell_angle_alpha 90.000000
_cell_angle_beta 156.035066
_cell_angle_gamma 90.000000
_cell_volume 1052.735751
_symmetry_space_group_name_H-M "P 2/C"
_symmetry_group_IT_number 13
_symmetry_cell_setting 'monoclinic'
loop_
_space_group_symop_operation_xyz
x,y,z
-x,y,1/2-z
-x,-y,-z
x,-y,1/2+z
loop_
_atom_site_type_symbol
_atom_site_label
_atom_site_fract_x
_atom_site_fract_y
_atom_site_fract_z
Si Si1 0.155673 0.669782 0.195979
Si Si2 0.424958 0.642942 0.763646
Si Si3 0.978694 0.088975 0.564141
Si Si4 0.075037 0.514007 0.938141
Si Si5 0.296218 0.107980 0.071581
O O1 0.393384 0.692178 0.470833
O O2 0.016846 0.781175 0.065566
O O3 0.098896 0.561981 0.203069
O O4 0.114775 0.633493 0.039802
O O5 0.500000 0.572062 0.750000
O O6 0.279985 0.560497 0.666378
O O7 0.302398 0.751125 0.581820
O O8 0.761448 0.071976 0.379890
O O9 0.134228 0.062405 0.818922
O O10 0.000000 0.000000 0.500000
O O11 0.000000 0.549366 0.750000
O O12 0.500000 0.054183 0.250000
#
# Coordination Sequence:
#
# PCOD8119362 Si02
#       5
#     4   4   4   4   4
#     4  11  22  36  58  89 110 158 193 233 294 342
#     4  11  18  34  63  82 111 146 203 239 271 347
#     4  11  22  38  60  87 116 149 200 247 291 346
#     4  11  21  36  57  84 124 149 188 238 290 355
#     4  10  20  38  63  83 108 153 200 243 281 342
#
# _framework density 18.99812
#
# number of rings (size 3 to 8) (size 9 to 14) (size 15 to 20)
#    0.000    1.200    8.000    0.600    0.000    0.800 
#    3.600    0.000    0.000    1.200    0.000    0.000 
#    0.000    0.000    0.000    0.000    0.000    0.000 
#
# Total GULP energy -247859.075644 kJ/mol
# GULP energy per Si atom -12392.953782 kJ/mol
# Density = 1.895488 g / cm^3
# Si number density = 18.998120 Si / 1000 Ang^3
#
#
#
# Elastic Constant Matrix: (Units=GPa)
#
#
# Indices 1 2 3 4 5 6 
#
# 1 151.9498 43.8782 57.1966 0.0000 -1.8746 0.0000
# 2 43.8782 50.9415 32.1228 0.0000 -10.8331 0.0000
# 3 57.1966 32.1228 85.7249 0.0000 -5.5378 0.0000
# 4 0.0000 0.0000 0.0000 20.7322 0.0000 -7.9952
# 5 -1.8746 -10.8331 -5.5378 0.0000 40.2428 0.0000
# 6 0.0000 0.0000 0.0000 -7.9952 0.0000 32.2443
#
#
#
# Elastic Compliance Matrix: (Units=1/GPa)
#
#
# Indices 1 2 3 4 5 6 
#
# 1 0.010041 -0.006203 -0.004493 0.000000 -0.001820 0.000000
# 2 -0.006203 0.030872 -0.006974 0.000000 0.007062 0.000000
# 3 -0.004493 -0.006974 0.017295 0.000000 0.000293 0.000000
# 4 0.000000 0.000000 0.000000 0.053334 0.000000 0.013225
# 5 -0.001820 0.007062 0.000293 0.000000 0.026706 0.000000
# 6 0.000000 0.000000 0.000000 0.013225 0.000000 0.034292
#
#
# Mechanical properties :
#
#
# Convention : Reuss Voigt Hill
#
# Bulk Modulus (GPa) = 43.72566 61.66792 52.69679
# Shear Modulus (GPa) = 23.20159 29.00510 26.10335
#
# Velocity S-wave (km/s) = 3.49844 3.91158 3.71077
# Velocity P-wave (km/s) = 6.27571 7.27538 6.79396
#
# Compressibility (1/GPa) = 0.02286987
#
# Stress axis : x y z
#
# Youngs Moduli (GPa) = 99.59184 32.39141 57.82030
#
# Poissons Ratio (x) = 0.20092 0.25977
# Poissons Ratio (y) = 0.61775 0.40322
# Poissons Ratio (z) = 0.44744 0.22589
#
# Static dielectric constant tensor:
#      x y z
#    x 4.045510 0.000000 0.203020 
#    y 0.000000 3.053680 0.000000 
#    z 0.203020 0.000000 3.451320 
# 
# 
# High freq. dielectric constant tensor:
#      x y z
#    x 1.759900 0.000000 0.008390 
#    y 0.000000 1.687520 0.000000 
#    z 0.008390 0.000000 1.736360 
# 
# From -- ./inp_files/33020.got.cif
#   From: 2010.06.25/outbox.cif.g09.slc.cpg/sg13_17_cif.got.tgz:33020.got - 2010.06.28 04:50:58.
