data_PCOD8119120
_publ_section_title
;
Structure prediction by ZEFSAII (Michael W. Deem and Ramdas Pophale) SiO2 
 PCOD8119120
Probable space group: P 2/C
;
_chemical_formula_sum "Si O2"
_cell_formula_units_Z 28
_cell_length_a 14.948820
_cell_length_b 5.859994
_cell_length_c 17.938074
_cell_angle_alpha 90.000000
_cell_angle_beta 59.267756
_cell_angle_gamma 90.000000
_cell_volume 1350.698843
_symmetry_space_group_name_H-M "P 2/C"
_symmetry_group_IT_number 13
_symmetry_cell_setting 'monoclinic'
loop_
_space_group_symop_operation_xyz
x,y,z
-x,y,1/2-z
-x,-y,-z
x,-y,1/2+z
loop_
_atom_site_type_symbol
_atom_site_label
_atom_site_fract_x
_atom_site_fract_y
_atom_site_fract_z
Si Si1 0.923330 0.378823 0.474942
Si Si2 0.227764 0.920404 0.636556
Si Si3 0.884382 0.306033 0.192837
Si Si4 0.219772 0.975870 0.383419
Si Si5 0.760459 0.250990 0.989632
Si Si6 0.621412 0.520998 0.937299
Si Si7 0.729183 0.304094 0.764041
O O1 0.870733 0.160665 0.535104
O O2 0.838277 0.550396 0.478914
O O3 0.000000 0.500000 0.500000
O O4 0.992343 0.306059 0.374194
O O5 0.137355 0.766573 0.712143
O O6 0.328594 0.769332 0.569111
O O7 0.183301 0.050721 0.582806
O O8 0.261265 0.098293 0.683729
O O9 0.836918 0.560193 0.204514
O O10 0.832271 0.138999 0.155048
O O11 0.298409 0.802164 0.306034
O O12 0.282600 0.130312 0.416454
O O13 0.667972 0.345125 0.977907
O O14 0.643974 0.466421 0.839637
O O15 0.500000 0.500000 0.000000
#
# Coordination Sequence:
#
# PCOD8119120 Si02
#       7
#     4   4   4   4   4   4   4
#     4  12  22  36  61  92 128 172 216 250 310 380
#     4   9  21  40  61  85 122 162 205 265 321 374
#     4  10  20  37  60  87 125 173 211 251 314 379
#     4  11  20  36  61  87 126 167 212 260 312 369
#     4  11  23  37  59  93 125 160 217 263 310 380
#     4  10  22  44  68  88 118 163 211 266 328 390
#     4   9  19  37  62  90 117 161 206 258 319 386
#
# _framework density 20.730008000000002
#
# number of rings (size 3 to 8) (size 9 to 14) (size 15 to 20)
#    0.000    1.714    2.857    1.286    0.000    2.286 
#    0.000   17.143    0.000   35.143    0.000    0.000 
#    0.000    0.000    0.000    0.000    0.000    0.000 
#
# Total GULP energy -346876.610783 kJ/mol
# GULP energy per Si atom -12388.450385 kJ/mol
# Density = 2.068283 g / cm^3
# Si number density = 20.730008 Si / 1000 Ang^3
#
#
#
# Elastic Constant Matrix: (Units=GPa)
#
#
# Indices 1 2 3 4 5 6 
#
# 1 75.4858 24.4627 49.4656 0.0000 5.8546 0.0000
# 2 24.4627 95.0291 40.2666 0.0000 7.9307 0.0000
# 3 49.4656 40.2666 114.6601 0.0000 2.8212 0.0000
# 4 0.0000 0.0000 0.0000 49.0113 0.0000 14.4358
# 5 5.8546 7.9307 2.8212 0.0000 29.7929 0.0000
# 6 0.0000 0.0000 0.0000 14.4358 0.0000 20.3336
#
#
#
# Elastic Compliance Matrix: (Units=1/GPa)
#
#
# Indices 1 2 3 4 5 6 
#
# 1 0.018880 -0.001431 -0.007578 0.000000 -0.002612 0.000000
# 2 -0.001431 0.012724 -0.003783 0.000000 -0.002748 0.000000
# 3 -0.007578 -0.003783 0.013289 0.000000 0.001238 0.000000
# 4 0.000000 0.000000 0.000000 0.025798 0.000000 -0.018315
# 5 -0.002612 -0.002748 0.001238 0.000000 0.034692 0.000000
# 6 0.000000 0.000000 0.000000 -0.018315 0.000000 0.062183
#
#
# Mechanical properties :
#
#
# Convention : Reuss Voigt Hill
#
# Bulk Modulus (GPa) = 51.79371 57.06278 54.42825
# Shear Modulus (GPa) = 25.05175 31.22624 28.13899
#
# Velocity S-wave (km/s) = 3.48009 3.88536 3.68829
# Velocity P-wave (km/s) = 6.41772 6.90756 6.66714
#
# Compressibility (1/GPa) = 0.01930736
#
# Stress axis : x y z
#
# Youngs Moduli (GPa) = 52.96684 78.59208 75.25064
#
# Poissons Ratio (x) = 0.11247 0.57026
# Poissons Ratio (y) = 0.07580 0.28471
# Poissons Ratio (z) = 0.40139 0.29735
#
# Static dielectric constant tensor:
#      x y z
#    x 3.350320 0.000000 0.363990 
#    y 0.000000 4.481590 0.000000 
#    z 0.363990 0.000000 4.649590 
# 
# 
# High freq. dielectric constant tensor:
#      x y z
#    x 1.750030 0.000000 0.028740 
#    y 0.000000 1.839300 0.000000 
#    z 0.028740 0.000000 1.831840 
# 
# From -- ./inp_files/67462.got.cif
#   From: 2010.06.25/outbox.cif.g09.slc.cpg/sg13_34_cif.got.tgz:67462.got - 2010.06.28 04:50:58.
