data_PCOD8119129
_publ_section_title
;
Structure prediction by ZEFSAII (Michael W. Deem and Ramdas Pophale) SiO2 
 PCOD8119129
Probable space group: P 2/C
;
_chemical_formula_sum "Si O2"
_cell_formula_units_Z 24
_cell_length_a 14.288338
_cell_length_b 11.683415
_cell_length_c 13.648640
_cell_angle_alpha 90.000000
_cell_angle_beta 31.135556
_cell_angle_gamma 90.000000
_cell_volume 1178.109627
_symmetry_space_group_name_H-M "P 2/C"
_symmetry_group_IT_number 13
_symmetry_cell_setting 'monoclinic'
loop_
_space_group_symop_operation_xyz
x,y,z
-x,y,1/2-z
-x,-y,-z
x,-y,1/2+z
loop_
_atom_site_type_symbol
_atom_site_label
_atom_site_fract_x
_atom_site_fract_y
_atom_site_fract_z
Si Si1 0.894760 0.497894 0.250352
Si Si2 0.648876 0.846861 0.397850
Si Si3 0.539110 0.600299 0.539390
Si Si4 0.605242 0.002108 0.749646
Si Si5 0.960891 0.100298 0.960608
Si Si6 0.851126 0.653140 0.602149
O O1 0.703230 0.551951 0.459621
O O2 0.867425 0.396475 0.197252
O O3 0.000000 0.448384 0.250000
O O4 0.006886 0.599839 0.099908
O O5 0.612095 0.712678 0.418231
O O6 0.506879 0.900162 0.599912
O O7 0.632584 0.896474 0.302739
O O8 0.850314 0.869885 0.262575
O O9 0.500000 0.500000 0.500000
O O10 0.350314 0.630119 0.762572
O O11 0.500000 0.051618 0.750000
O O12 0.796771 0.948049 0.540378
O O13 0.887914 0.212679 0.081761
O O14 0.000000 0.000000 0.000000
#
# Coordination Sequence:
#
# PCOD8119129 Si02
#       6
#     4   4   4   4   4   4
#     4  10  22  38  60  86 113 150 194 235 280 335
#     4  10  20  39  60  80 119 152 186 236 285 334
#     4  10  20  37  61  83 116 155 186 228 292 337
#     4  10  22  38  60  86 113 150 194 235 280 335
#     4  10  20  37  61  83 116 155 186 228 292 337
#     4  10  20  39  60  80 119 152 186 236 285 334
#
# _framework density 20.371618000000002
#
# number of rings (size 3 to 8) (size 9 to 14) (size 15 to 20)
#    0.000    2.000    3.333    0.000    0.000    2.667 
#    0.000    6.667    0.000    0.000    0.000    0.000 
#    0.000    0.000    0.000    0.000    0.000    0.000 
#
# Total GULP energy -297347.875043 kJ/mol
# GULP energy per Si atom -12389.494793 kJ/mol
# Density = 2.032525 g / cm^3
# Si number density = 20.371618 Si / 1000 Ang^3
#
#
#
# Elastic Constant Matrix: (Units=GPa)
#
#
# Indices 1 2 3 4 5 6 
#
# 1 91.0173 -1.2435 26.3781 0.0000 -19.8083 0.0000
# 2 -1.2435 77.9851 9.8234 0.0000 -11.4926 0.0000
# 3 26.3781 9.8234 92.1015 0.0000 -38.0566 0.0000
# 4 0.0000 0.0000 0.0000 27.4446 0.0000 -13.4224
# 5 -19.8083 -11.4926 -38.0566 0.0000 36.0607 0.0000
# 6 0.0000 0.0000 0.0000 -13.4224 0.0000 9.9631
#
#
#
# Elastic Compliance Matrix: (Units=1/GPa)
#
#
# Indices 1 2 3 4 5 6 
#
# 1 0.012684 0.001250 -0.001281 0.000000 0.006014 0.000000
# 2 0.001250 0.013597 0.000472 0.000000 0.005518 0.000000
# 3 -0.001281 0.000472 0.019409 0.000000 0.019930 0.000000
# 4 0.000000 0.000000 0.000000 0.106818 0.000000 0.143907
# 5 0.006014 0.005518 0.019930 0.000000 0.053826 0.000000
# 6 0.000000 0.000000 0.000000 0.143907 0.000000 0.294244
#
#
# Mechanical properties :
#
#
# Convention : Reuss Voigt Hill
#
# Bulk Modulus (GPa) = 21.47260 36.77999 29.12630
# Shear Modulus (GPa) = 9.70456 29.77006 19.73731
#
# Velocity S-wave (km/s) = 2.18497 3.82691 3.11603
# Velocity P-wave (km/s) = 4.11446 6.13357 5.22252
#
# Compressibility (1/GPa) = 0.04657097
#
# Stress axis : x y z
#
# Youngs Moduli (GPa) = 78.83905 73.54772 51.52129
#
# Poissons Ratio (x) = -0.09192 0.06601
# Poissons Ratio (y) = -0.09854 -0.02431
# Poissons Ratio (z) = 0.10101 -0.03470
#
# Static dielectric constant tensor:
#      x y z
#    x 3.634610 0.000000 -0.837170 
#    y 0.000000 3.694550 0.000000 
#    z -0.837170 0.000000 4.405540 
# 
# 
# High freq. dielectric constant tensor:
#      x y z
#    x 1.767890 0.000000 -0.043960 
#    y 0.000000 1.800830 0.000000 
#    z -0.043960 0.000000 1.809800 
# 
# From -- ./inp_files/53608.got.cif
#   From: 2010.06.25/outbox.cif.g09.slc.cpg/sg13_27_cif.got.tgz:53608.got - 2010.06.28 04:50:58.
