data_PCOD8119599
_publ_section_title
;
Structure prediction by ZEFSAII (Michael W. Deem and Ramdas Pophale) SiO2 
 PCOD8119599
Probable space group: P 2/C
;
_chemical_formula_sum "Si O2"
_cell_formula_units_Z 24
_cell_length_a 8.057674
_cell_length_b 16.354701
_cell_length_c 17.986245
_cell_angle_alpha 90.000000
_cell_angle_beta 31.498285
_cell_angle_gamma 90.000000
_cell_volume 1238.387883
_symmetry_space_group_name_H-M "P 2/C"
_symmetry_group_IT_number 13
_symmetry_cell_setting 'monoclinic'
loop_
_space_group_symop_operation_xyz
x,y,z
-x,y,1/2-z
-x,-y,-z
x,-y,1/2+z
loop_
_atom_site_type_symbol
_atom_site_label
_atom_site_fract_x
_atom_site_fract_y
_atom_site_fract_z
Si Si1 0.213563 0.240251 0.964216
Si Si2 0.854993 0.919421 0.090055
Si Si3 0.162339 0.674229 0.019587
Si Si4 0.935752 0.811261 0.192844
Si Si5 0.120168 0.346064 0.287978
Si Si6 0.140370 0.488337 0.867132
O O1 0.095118 0.147983 0.993610
O O2 0.593852 0.232860 0.817482
O O3 0.096315 0.298493 0.942821
O O4 0.073905 0.275090 0.094718
O O5 0.500000 0.938897 0.250000
O O6 0.007584 0.885631 0.108489
O O7 0.000000 0.000000 0.000000
O O8 0.504516 0.669899 0.849862
O O9 0.184032 0.739118 0.078585
O O10 0.040731 0.588773 0.100788
O O11 0.000000 0.846333 0.250000
O O12 0.062424 0.434789 0.345095
O O13 0.000000 0.346868 0.250000
O O14 0.500000 0.470478 0.750000
O O15 0.000000 0.500000 0.000000
#
# Coordination Sequence:
#
# PCOD8119599 Si02
#       6
#     4   4   4   4   4   4
#     4  10  20  40  61  82 115 155 194 232 287 360
#     4   9  20  38  61  88 115 153 195 229 280 357
#     4  11  22  38  61  81 111 158 200 238 292 357
#     4  10  21  38  61  90 119 148 192 247 294 335
#     4  12  25  38  55  86 118 148 198 254 295 338
#     4  12  22  40  59  81 112 156 204 243 294 357
#
# _framework density 19.380034999999999
#
# number of rings (size 3 to 8) (size 9 to 14) (size 15 to 20)
#    0.000    1.333    3.333    4.000    0.000    4.000 
#    0.000    4.167    0.000    0.000    0.000    0.000 
#    0.000    0.000    0.000    0.000    0.000    0.000 
#
# Total GULP energy -297418.455150 kJ/mol
# GULP energy per Si atom -12392.435631 kJ/mol
# Density = 1.933592 g / cm^3
# Si number density = 19.380035 Si / 1000 Ang^3
#
#
#
# Elastic Constant Matrix: (Units=GPa)
#
#
# Indices 1 2 3 4 5 6 
#
# 1 88.9671 47.3389 41.4746 0.0000 21.1287 0.0000
# 2 47.3389 163.4159 74.8507 0.0000 20.8347 0.0000
# 3 41.4746 74.8507 116.1546 0.0000 11.7550 0.0000
# 4 0.0000 0.0000 0.0000 47.2295 0.0000 7.9689
# 5 21.1287 20.8347 11.7550 0.0000 36.6703 0.0000
# 6 0.0000 0.0000 0.0000 7.9689 0.0000 18.7081
#
#
#
# Elastic Compliance Matrix: (Units=1/GPa)
#
#
# Indices 1 2 3 4 5 6 
#
# 1 0.015570 -0.002018 -0.003584 0.000000 -0.006676 0.000000
# 2 -0.002018 0.009334 -0.005039 0.000000 -0.002525 0.000000
# 3 -0.003584 -0.005039 0.013061 0.000000 0.000741 0.000000
# 4 0.000000 0.000000 0.000000 0.022813 0.000000 -0.009717
# 5 -0.006676 -0.002525 0.000741 0.000000 0.032314 0.000000
# 6 0.000000 0.000000 0.000000 -0.009717 0.000000 0.057592
#
#
# Mechanical properties :
#
#
# Convention : Reuss Voigt Hill
#
# Bulk Modulus (GPa) = 59.93669 77.31844 68.62756
# Shear Modulus (GPa) = 28.16520 34.17981 31.17250
#
# Velocity S-wave (km/s) = 3.81637 4.20415 4.01494
# Velocity P-wave (km/s) = 7.10026 7.97177 7.54860
#
# Compressibility (1/GPa) = 0.01668427
#
# Stress axis : x y z
#
# Youngs Moduli (GPa) = 64.22715 107.13824 76.56534
#
# Poissons Ratio (x) = 0.21618 0.27437
# Poissons Ratio (y) = 0.12960 0.38579
# Poissons Ratio (z) = 0.23016 0.53983
#
# Static dielectric constant tensor:
#      x y z
#    x 3.395140 0.000000 0.065710 
#    y 0.000000 3.490190 0.000000 
#    z 0.065710 0.000000 3.696070 
# 
# 
# High freq. dielectric constant tensor:
#      x y z
#    x 1.740400 0.000000 0.002820 
#    y 0.000000 1.753170 0.000000 
#    z 0.002820 0.000000 1.767490 
# 
# From -- ./inp_files/12426.got.cif
#   From: 2010.06.25/outbox.cif.g09.slc.cpg/sg13_7_cif.got.tgz:12426.got - 2010.06.28 04:50:58.
