data_PCOD8119577
_publ_section_title
;
Structure prediction by ZEFSAII (Michael W. Deem and Ramdas Pophale) SiO2 
 PCOD8119577
Probable space group: P 2/C
;
_chemical_formula_sum "Si O2"
_cell_formula_units_Z 28
_cell_length_a 30.292630
_cell_length_b 7.664698
_cell_length_c 9.719659
_cell_angle_alpha 90.000000
_cell_angle_beta 144.438225
_cell_angle_gamma 90.000000
_cell_volume 1312.480328
_symmetry_space_group_name_H-M "P 2/C"
_symmetry_group_IT_number 13
_symmetry_cell_setting 'monoclinic'
loop_
_space_group_symop_operation_xyz
x,y,z
-x,y,1/2-z
-x,-y,-z
x,-y,1/2+z
loop_
_atom_site_type_symbol
_atom_site_label
_atom_site_fract_x
_atom_site_fract_y
_atom_site_fract_z
Si Si1 0.205474 0.631174 0.976240
Si Si2 0.954455 0.774680 0.994369
Si Si3 0.446854 0.462697 0.491845
Si Si4 0.642790 0.812452 0.158628
Si Si5 0.357140 0.136953 0.154034
Si Si6 0.055260 0.834377 0.014960
Si Si7 0.208628 0.676302 0.297125
O O1 0.122756 0.664793 0.700785
O O2 0.240169 0.466108 0.983987
O O3 0.265971 0.786605 0.105938
O O4 0.197868 0.590805 0.119134
O O5 0.926998 0.970659 0.887382
O O6 0.000000 0.748428 0.250000
O O7 0.014168 0.717699 0.027529
O O8 0.500000 0.500000 0.500000
O O9 0.399553 0.634151 0.412081
O O10 0.392221 0.303684 0.317641
O O11 0.500000 0.401300 0.750000
O O12 0.618960 0.959537 0.208374
O O13 0.617417 0.873592 0.941220
O O14 0.266395 0.161963 0.934378
O O15 0.130224 0.741459 0.157759
O O16 0.000000 0.857850 0.750000
#
# Coordination Sequence:
#
# PCOD8119577 Si02
#       7
#     4   4   4   4   4   4   4
#     4  11  24  42  63  94 131 175 228 280 339 402
#     4  10  22  38  61  89 124 172 224 279 340 399
#     4  12  26  48  74 108 147 181 225 280 344 414
#     4  11  26  47  74 106 141 184 235 280 345 413
#     4  11  26  47  73 106 141 187 231 282 344 412
#     4  10  20  40  59  86 127 168 219 281 338 394
#     4  11  24  41  65  92 131 176 226 283 338 401
#
# _framework density 21.333653000000002
#
# number of rings (size 3 to 8) (size 9 to 14) (size 15 to 20)
#    0.000    1.143    4.286    0.857    4.000    3.429 
#    0.000    0.000    0.000    0.000    0.000    0.000 
#    0.000    0.000    0.000    0.000    0.000    0.000 
#
# Total GULP energy -347199.644481 kJ/mol
# GULP energy per Si atom -12399.987303 kJ/mol
# Density = 2.128510 g / cm^3
# Si number density = 21.333653 Si / 1000 Ang^3
#
#
#
# Elastic Constant Matrix: (Units=GPa)
#
#
# Indices 1 2 3 4 5 6 
#
# 1 129.7299 30.8459 39.2224 0.0000 -12.9267 0.0000
# 2 30.8459 83.1531 29.2979 0.0000 -7.1442 0.0000
# 3 39.2224 29.2979 93.4413 0.0000 -10.5124 0.0000
# 4 0.0000 0.0000 0.0000 27.0628 0.0000 -6.1543
# 5 -12.9267 -7.1442 -10.5124 0.0000 35.4917 0.0000
# 6 0.0000 0.0000 0.0000 -6.1543 0.0000 31.9797
#
#
#
# Elastic Compliance Matrix: (Units=1/GPa)
#
#
# Indices 1 2 3 4 5 6 
#
# 1 0.009351 -0.002237 -0.002991 0.000000 0.002070 0.000000
# 2 -0.002237 0.014134 -0.003377 0.000000 0.001030 0.000000
# 3 -0.002991 -0.003377 0.013259 0.000000 0.002158 0.000000
# 4 0.000000 0.000000 0.000000 0.038642 0.000000 0.007436
# 5 0.002070 0.001030 0.002158 0.000000 0.029776 0.000000
# 6 0.000000 0.000000 0.000000 0.007436 0.000000 0.032701
#
#
# Mechanical properties :
#
#
# Convention : Reuss Voigt Hill
#
# Bulk Modulus (GPa) = 51.19153 56.11742 53.65447
# Shear Modulus (GPa) = 30.94379 32.70405 31.82392
#
# Velocity S-wave (km/s) = 3.81263 3.91958 3.86647
# Velocity P-wave (km/s) = 6.59009 6.84440 6.71845
#
# Compressibility (1/GPa) = 0.01953448
#
# Stress axis : x y z
#
# Youngs Moduli (GPa) = 106.94420 70.75079 75.42141
#
# Poissons Ratio (x) = 0.15828 0.22556
# Poissons Ratio (y) = 0.23925 0.25468
# Poissons Ratio (z) = 0.31984 0.23891
#
# Static dielectric constant tensor:
#      x y z
#    x 4.064330 0.000000 -0.076470 
#    y 0.000000 3.856110 0.000000 
#    z -0.076470 0.000000 3.851760 
# 
# 
# High freq. dielectric constant tensor:
#      x y z
#    x 1.856000 0.000000 -0.000700 
#    y 0.000000 1.825420 0.000000 
#    z -0.000700 0.000000 1.843210 
# 
# From -- ./inp_files/24597.got.cif
#   From: 2010.06.25/outbox.cif.g09.slc.cpg/sg13_13_cif.got.tgz:24597.got - 2010.06.28 04:50:58.
