data_PCOD8119025
_publ_section_title
;
Structure prediction by ZEFSAII (Michael W. Deem and Ramdas Pophale) SiO2 
 PCOD8119025
Probable space group: P 2/C
;
_chemical_formula_sum "Si O2"
_cell_formula_units_Z 28
_cell_length_a 15.267628
_cell_length_b 5.279745
_cell_length_c 18.751808
_cell_angle_alpha 90.000000
_cell_angle_beta 61.739739
_cell_angle_gamma 90.000000
_cell_volume 1331.398026
_symmetry_space_group_name_H-M "P 2/C"
_symmetry_group_IT_number 13
_symmetry_cell_setting 'monoclinic'
loop_
_space_group_symop_operation_xyz
x,y,z
-x,y,1/2-z
-x,-y,-z
x,-y,1/2+z
loop_
_atom_site_type_symbol
_atom_site_label
_atom_site_fract_x
_atom_site_fract_y
_atom_site_fract_z
Si Si1 0.836485 0.344183 0.379467
Si Si2 0.464059 0.096387 0.845106
Si Si3 0.451610 0.400587 0.190748
Si Si4 0.914992 0.147030 0.899490
Si Si5 0.764897 0.124519 0.542454
Si Si6 0.773664 0.340731 0.248670
Si Si7 0.862827 0.824578 0.150648
O O1 0.900038 0.602765 0.357456
O O2 0.766935 0.329316 0.477094
O O3 0.767177 0.325470 0.336789
O O4 0.911408 0.101914 0.349656
O O5 0.500000 0.118948 0.750000
O O6 0.515618 0.855160 0.863528
O O7 0.503797 0.353727 0.867470
O O8 0.346777 0.056478 0.894251
O O9 0.500000 0.381013 0.250000
O O10 0.333261 0.410757 0.242460
O O11 0.019155 0.143107 0.900296
O O12 0.826307 0.124928 0.992706
O O13 0.820412 0.239011 0.589238
O O14 0.845303 0.575539 0.204574
O O15 0.811497 0.076335 0.201851
#
# Coordination Sequence:
#
# PCOD8119025 Si02
#       7
#     4   4   4   4   4   4   4
#     4  10  25  43  63  89 143 170 205 262 336 380
#     4  10  20  36  63  91 119 158 209 263 319 368
#     4  10  20  37  59  90 122 154 207 267 314 364
#     4  10  24  42  66  91 134 171 218 256 325 384
#     4  10  25  42  68  94 135 168 214 271 324 377
#     4  12  25  42  65  99 131 167 219 271 315 382
#     4  12  24  39  71  96 125 174 226 264 308 377
#
# _framework density 21.030525999999998
#
# number of rings (size 3 to 8) (size 9 to 14) (size 15 to 20)
#    0.857    0.571    0.000    6.429    4.000    4.000 
#    0.000    1.429    0.000    0.000    0.000    0.000 
#    0.000    0.000    0.000    0.000    0.000    0.000 
#
# Total GULP energy -347017.838125 kJ/mol
# GULP energy per Si atom -12393.494219 kJ/mol
# Density = 2.098266 g / cm^3
# Si number density = 21.030526 Si / 1000 Ang^3
#
#
#
# Elastic Constant Matrix: (Units=GPa)
#
#
# Indices 1 2 3 4 5 6 
#
# 1 97.7047 27.2332 56.3069 0.0000 -15.5533 0.0000
# 2 27.2332 170.9662 29.5392 0.0000 -1.0191 0.0000
# 3 56.3069 29.5392 87.9993 0.0000 5.6509 0.0000
# 4 0.0000 0.0000 0.0000 12.7103 0.0000 -3.2747
# 5 -15.5533 -1.0191 5.6509 0.0000 33.7160 0.0000
# 6 0.0000 0.0000 0.0000 -3.2747 0.0000 28.6992
#
#
#
# Elastic Compliance Matrix: (Units=1/GPa)
#
#
# Indices 1 2 3 4 5 6 
#
# 1 0.019848 -0.000822 -0.013152 0.000000 0.011335 0.000000
# 2 -0.000822 0.006253 -0.001578 0.000000 0.000074 0.000000
# 3 -0.013152 -0.001578 0.020927 0.000000 -0.009622 0.000000
# 4 0.000000 0.000000 0.000000 0.081059 0.000000 0.009249
# 5 0.011335 0.000074 -0.009622 0.000000 0.036503 0.000000
# 6 0.000000 0.000000 0.000000 0.009249 0.000000 0.035900
#
#
# Mechanical properties :
#
#
# Convention : Reuss Voigt Hill
#
# Bulk Modulus (GPa) = 62.79664 64.75875 63.77769
# Shear Modulus (GPa) = 21.10588 31.26450 26.18519
#
# Velocity S-wave (km/s) = 3.17137 3.85986 3.53243
# Velocity P-wave (km/s) = 6.58291 7.12210 6.85781
#
# Compressibility (1/GPa) = 0.01592442
#
# Stress axis : x y z
#
# Youngs Moduli (GPa) = 50.38372 159.92101 47.78615
#
# Poissons Ratio (x) = 0.13140 0.62847
# Poissons Ratio (y) = 0.04140 0.07541
# Poissons Ratio (z) = 0.66263 0.25237
#
# Static dielectric constant tensor:
#      x y z
#    x 3.619470 0.000000 -0.059460 
#    y 0.000000 5.462620 0.000000 
#    z -0.059460 0.000000 3.481030 
# 
# 
# High freq. dielectric constant tensor:
#      x y z
#    x 1.820890 0.000000 -0.010140 
#    y 0.000000 1.845840 0.000000 
#    z -0.010140 0.000000 1.794070 
# 
# From -- ./inp_files/67484.got.cif
#   From: 2010.06.25/outbox.cif.g09.slc.cpg/sg13_34_cif.got.tgz:67484.got - 2010.06.28 04:50:58.
