data_PCOD8119278
_publ_section_title
;
Structure prediction by ZEFSAII (Michael W. Deem and Ramdas Pophale) SiO2 
 PCOD8119278
Probable space group: P 2/C
;
_chemical_formula_sum "Si O2"
_cell_formula_units_Z 28
_cell_length_a 18.848076
_cell_length_b 13.171385
_cell_length_c 9.761758
_cell_angle_alpha 90.000000
_cell_angle_beta 144.553527
_cell_angle_gamma 90.000000
_cell_volume 1405.436313
_symmetry_space_group_name_H-M "P 2/C"
_symmetry_group_IT_number 13
_symmetry_cell_setting 'monoclinic'
loop_
_space_group_symop_operation_xyz
x,y,z
-x,y,1/2-z
-x,-y,-z
x,-y,1/2+z
loop_
_atom_site_type_symbol
_atom_site_label
_atom_site_fract_x
_atom_site_fract_y
_atom_site_fract_z
Si Si1 0.089318 0.388336 0.008689
Si Si2 0.776892 0.801006 0.200031
Si Si3 0.000727 0.902476 0.410283
Si Si4 0.618056 0.879726 0.729509
Si Si5 0.660991 0.108715 0.772809
Si Si6 0.919387 0.615279 0.501406
Si Si7 0.250292 0.791017 0.822875
O O1 0.215732 0.325454 0.229899
O O2 0.010398 0.390819 0.019443
O O3 0.129435 0.503310 0.033066
O O4 0.000000 0.341561 0.750000
O O5 0.759325 0.871046 0.306881
O O6 0.801774 0.685653 0.286761
O O7 0.886440 0.834498 0.273285
O O8 0.657358 0.806807 0.916056
O O9 0.121043 0.843133 0.637841
O O10 0.000000 0.931223 0.250000
O O11 0.000000 0.000000 0.500000
O O12 0.472597 0.878959 0.501830
O O13 0.665200 0.839262 0.659347
O O14 0.674488 0.992581 0.846246
O O15 0.678940 0.190949 0.922530
O O16 0.000000 0.663671 0.750000
#
# Coordination Sequence:
#
# PCOD8119278 Si02
#       7
#     4   4   4   4   4   4   4
#     4  10  20  38  60  86 119 157 196 240 300 374
#     4  12  23  38  61  87 123 154 195 252 300 360
#     4  12  25  37  57  90 128 162 189 241 315 371
#     4  11  23  43  60  83 115 167 210 243 287 356
#     4  11  25  40  61  84 118 162 211 245 287 355
#     4  10  21  37  59  88 121 155 195 240 302 371
#     4  12  22  38  62  87 120 153 202 253 299 357
#
# _framework density 19.922639
#
# number of rings (size 3 to 8) (size 9 to 14) (size 15 to 20)
#    0.000    0.857    2.857    5.571    2.000    2.286 
#    0.000    0.000    0.000    5.143    0.000    0.000 
#    0.000    0.000    0.000    0.000    0.000    0.000 
#
# Total GULP energy -347195.878976 kJ/mol
# GULP energy per Si atom -12399.852821 kJ/mol
# Density = 1.987729 g / cm^3
# Si number density = 19.922639 Si / 1000 Ang^3
#
#
#
# Elastic Constant Matrix: (Units=GPa)
#
#
# Indices 1 2 3 4 5 6 
#
# 1 85.6731 24.8230 20.3321 0.0000 -13.6581 0.0000
# 2 24.8230 102.0054 45.0463 0.0000 0.2874 0.0000
# 3 20.3321 45.0463 84.0528 0.0000 -20.3564 0.0000
# 4 0.0000 0.0000 0.0000 17.3003 0.0000 -28.6306
# 5 -13.6581 0.2874 -20.3564 0.0000 36.9198 0.0000
# 6 0.0000 0.0000 0.0000 -28.6306 0.0000 -12.1670
#
#
#
# Elastic Compliance Matrix: (Units=1/GPa)
#
#
# Indices 1 2 3 4 5 6 
#
# 1 0.013428 -0.003084 -0.000446 0.000000 0.004746 0.000000
# 2 -0.003084 0.014232 -0.008292 0.000000 -0.005824 0.000000
# 3 -0.000446 -0.008292 0.018956 0.000000 0.010351 0.000000
# 4 0.000000 0.000000 0.000000 0.011810 0.000000 -0.027791
# 5 0.004746 -0.005824 0.010351 0.000000 0.034594 0.000000
# 6 0.000000 0.000000 0.000000 -0.027791 0.000000 -0.016793
#
#
# Mechanical properties :
#
#
# Convention : Reuss Voigt Hill
#
# Bulk Modulus (GPa) = 43.53044 50.23713 46.88379
# Shear Modulus (GPa) = 46.49926 20.51261 33.50594
#
# Velocity S-wave (km/s) = 4.83638 3.21224 4.10543
# Velocity P-wave (km/s) = 7.28592 6.24731 6.78651
#
# Compressibility (1/GPa) = 0.02297243
#
# Stress axis : x y z
#
# Youngs Moduli (GPa) = 74.46949 70.26410 52.75421
#
# Poissons Ratio (x) = 0.21671 0.02353
# Poissons Ratio (y) = 0.22968 0.43742
# Poissons Ratio (z) = 0.03321 0.58261
#
# Static dielectric constant tensor:
#      x y z
#    x 3.661930 0.000000 -0.063760 
#    y 0.000000 4.105300 0.000000 
#    z -0.063760 0.000000 3.643120 
# 
# 
# High freq. dielectric constant tensor:
#      x y z
#    x 1.781580 0.000000 -0.021100 
#    y 0.000000 1.767360 0.000000 
#    z -0.021100 0.000000 1.779440 
# 
# From -- ./inp_files/21978.got.cif
#   From: 2010.06.25/outbox.cif.g09.slc.cpg/sg13_11_cif.got.tgz:21978.got - 2010.06.28 04:50:58.
