data_PCOD8119886
_publ_section_title
;
Structure prediction by ZEFSAII (Michael W. Deem and Ramdas Pophale) SiO2 
 PCOD8119886
Probable space group: P 2/C
;
_chemical_formula_sum "Si O2"
_cell_formula_units_Z 32
_cell_length_a 9.088611
_cell_length_b 20.495261
_cell_length_c 13.200229
_cell_angle_alpha 90.000000
_cell_angle_beta 133.513003
_cell_angle_gamma 90.000000
_cell_volume 1783.204245
_symmetry_space_group_name_H-M "P 2/C"
_symmetry_group_IT_number 13
_symmetry_cell_setting 'monoclinic'
loop_
_space_group_symop_operation_xyz
x,y,z
-x,y,1/2-z
-x,-y,-z
x,-y,1/2+z
loop_
_atom_site_type_symbol
_atom_site_label
_atom_site_fract_x
_atom_site_fract_y
_atom_site_fract_z
Si Si1 0.059782 0.317859 0.162650
Si Si2 0.263900 0.560644 0.662749
Si Si3 0.056087 0.797814 0.160974
Si Si4 0.061599 0.439356 0.662749
Si Si5 0.730938 0.944397 0.839622
Si Si6 0.734482 0.682141 0.337350
Si Si7 0.051694 0.055603 0.660378
Si Si8 0.265862 0.797814 0.660974
O O1 0.212406 0.374200 0.199948
O O2 0.178563 0.249604 0.205914
O O3 0.000000 0.328012 0.250000
O O4 0.854255 0.319522 0.000000
O O5 0.500000 0.558845 0.750000
O O6 0.206398 0.500000 0.706398
O O7 0.143325 0.557607 0.500000
O O8 0.233266 0.750396 0.205914
O O9 0.139367 0.871466 0.185164
O O10 0.000000 0.782914 0.250000
O O11 0.851609 0.785711 1.000000
O O12 0.187489 0.374200 0.699948
O O13 0.000000 0.441155 0.750000
O O14 0.500000 0.955626 0.750000
O O15 0.769040 0.871466 0.814836
O O16 0.786329 0.000000 0.786329
O O17 0.849374 0.955243 0.000000
O O18 0.500000 0.671988 0.250000
O O19 0.000000 0.044374 0.750000
O O20 0.500000 0.782914 0.750000
#
# Coordination Sequence:
#
# PCOD8119886 Si02
#       8
#     4   4   4   4   4   4   4   4
#     4  10  21  35  51  74 102 130 163 202 243 289
#     4  10  21  36  54  77 103 131 165 203 242 287
#     4   9  18  33  51  71  96 127 163 201 242 289
#     4  10  21  36  54  77 103 131 165 203 242 287
#     4   9  18  32  49  70  97 127 160 200 243 288
#     4  10  21  35  51  74 102 130 163 202 243 289
#     4   9  18  32  49  70  97 127 160 200 243 288
#     4   9  18  33  51  71  96 127 163 201 242 289
#
# _framework density 17.945224
#
# number of rings (size 3 to 8) (size 9 to 14) (size 15 to 20)
#    0.000    2.500    0.000    1.500    0.000    4.000 
#    0.000    0.000    0.000    0.000    0.000    0.000 
#    0.000    0.000    0.000    0.000    0.000    0.000 
#
# Total GULP energy -396814.804417 kJ/mol
# GULP energy per Si atom -12400.462638 kJ/mol
# Density = 1.790438 g / cm^3
# Si number density = 17.945224 Si / 1000 Ang^3
#
#
#
# Elastic Constant Matrix: (Units=GPa)
#
#
# Indices 1 2 3 4 5 6 
#
# 1 136.1571 88.9177 67.1108 0.0000 0.3713 0.0000
# 2 88.9177 145.9736 54.7759 0.0000 -2.3637 0.0000
# 3 67.1108 54.7759 61.5284 0.0000 -5.5379 0.0000
# 4 0.0000 0.0000 0.0000 14.1570 0.0000 -1.3089
# 5 0.3713 -2.3637 -5.5379 0.0000 36.7958 0.0000
# 6 0.0000 0.0000 0.0000 -1.3089 0.0000 33.0638
#
#
#
# Elastic Compliance Matrix: (Units=1/GPa)
#
#
# Indices 1 2 3 4 5 6 
#
# 1 0.018753 -0.005551 -0.015776 0.000000 -0.002920 0.000000
# 2 -0.005551 0.011949 -0.004571 0.000000 0.000136 0.000000
# 3 -0.015776 -0.004571 0.038033 0.000000 0.005590 0.000000
# 4 0.000000 0.000000 0.000000 0.070896 0.000000 0.002807
# 5 -0.002920 0.000136 0.005590 0.000000 0.028056 0.000000
# 6 0.000000 0.000000 0.000000 0.002807 0.000000 0.030356
#
#
# Mechanical properties :
#
#
# Convention : Reuss Voigt Hill
#
# Bulk Modulus (GPa) = 59.03490 85.02975 72.03232
# Shear Modulus (GPa) = 19.57060 25.66031 22.61546
#
# Velocity S-wave (km/s) = 3.30597 3.78554 3.55385
# Velocity P-wave (km/s) = 6.89502 8.16044 7.55427
#
# Compressibility (1/GPa) = 0.01693913
#
# Stress axis : x y z
#
# Youngs Moduli (GPa) = 53.32459 83.68742 26.29320
#
# Poissons Ratio (x) = 0.46452 0.41480
# Poissons Ratio (y) = 0.29598 0.12020
# Poissons Ratio (z) = 0.84124 0.38257
#
# Static dielectric constant tensor:
#      x y z
#    x 3.188580 0.000000 0.007660 
#    y 0.000000 3.737100 0.000000 
#    z 0.007660 0.000000 3.299270 
# 
# 
# High freq. dielectric constant tensor:
#      x y z
#    x 1.684160 0.000000 0.000580 
#    y 0.000000 1.717160 0.000000 
#    z 0.000580 0.000000 1.692480 
# 
# From -- ./inp_files/30819.got.cif
#   From: 2010.06.25/outbox.cif.g09.slc.cpg/sg13_16_cif.got.tgz:30819.got - 2010.06.28 04:50:58.
