data_PCOD8119168
_publ_section_title
;
Structure prediction by ZEFSAII (Michael W. Deem and Ramdas Pophale) SiO2 
 PCOD8119168
Probable space group: P 2/C
;
_chemical_formula_sum "Si O2"
_cell_formula_units_Z 26
_cell_length_a 12.365511
_cell_length_b 8.497911
_cell_length_c 15.143332
_cell_angle_alpha 90.000000
_cell_angle_beta 132.373997
_cell_angle_gamma 90.000000
_cell_volume 1175.573589
_symmetry_space_group_name_H-M "P 2/C"
_symmetry_group_IT_number 13
_symmetry_cell_setting 'monoclinic'
loop_
_space_group_symop_operation_xyz
x,y,z
-x,y,1/2-z
-x,-y,-z
x,-y,1/2+z
loop_
_atom_site_type_symbol
_atom_site_label
_atom_site_fract_x
_atom_site_fract_y
_atom_site_fract_z
Si Si1 0.332849 0.314229 0.648513
Si Si2 0.765388 0.397019 0.087431
Si Si3 0.418402 0.676523 0.502201
Si Si4 0.737167 0.808379 0.723801
Si Si5 0.220158 0.172476 0.756727
Si Si6 0.000000 0.356574 0.750000
Si Si7 0.336376 0.680894 0.644223
O O1 0.500000 0.253393 0.750000
O O2 0.263596 0.284966 0.513033
O O3 0.231701 0.216755 0.660166
O O4 0.323853 0.498574 0.664437
O O5 0.605733 0.483864 0.020067
O O6 0.829832 0.296131 0.205298
O O7 0.882500 0.534661 0.134616
O O8 0.574527 0.749689 0.609519
O O9 0.362157 0.758090 0.383108
O O10 0.307624 0.715412 0.525010
O O11 0.770000 0.772398 0.845362
O O12 0.775699 0.986917 0.726436
O O13 0.072945 0.246511 0.715662
O O14 0.500000 0.741443 0.750000
#
# Coordination Sequence:
#
# PCOD8119168 Si02
#       7
#     4   4   4   4   4   2   4
#     4  10  20  37  62  93 119 151 196 253 307 351
#     4  10  21  38  64  85 116 159 210 248 280 358
#     4   9  18  35  57  86 119 154 194 249 304 352
#     4  11  20  33  58  90 117 152 194 254 312 349
#     4  11  23  36  56  84 127 158 190 245 304 368
#     4  10  24  44  58  80 116 172 214 240 286 348
#     4   8  16  30  52  80 111 143 186 230 284 350
#
# _framework density 22.116862000000001
#
# number of rings (size 3 to 8) (size 9 to 14) (size 15 to 20)
#    0.000    2.154    0.000    4.615    0.000    4.308 
#    0.000    1.538    0.000   10.154    0.000    0.000 
#    0.000    0.000    0.000    0.000    0.000    0.000 
#
# Total GULP energy -322118.282828 kJ/mol
# GULP energy per Si atom -12389.164724 kJ/mol
# Density = 2.206652 g / cm^3
# Si number density = 22.116862 Si / 1000 Ang^3
#
#
#
# Elastic Constant Matrix: (Units=GPa)
#
#
# Indices 1 2 3 4 5 6 
#
# 1 89.9185 40.3430 12.4366 0.0000 -15.0994 0.0000
# 2 40.3430 105.7784 10.9585 0.0000 -13.9353 0.0000
# 3 12.4366 10.9585 51.3815 0.0000 -22.6344 0.0000
# 4 0.0000 0.0000 0.0000 15.0431 0.0000 -9.2115
# 5 -15.0994 -13.9353 -22.6344 0.0000 39.9225 0.0000
# 6 0.0000 0.0000 0.0000 -9.2115 0.0000 18.7096
#
#
#
# Elastic Compliance Matrix: (Units=1/GPa)
#
#
# Indices 1 2 3 4 5 6 
#
# 1 0.013925 -0.004809 -0.001019 0.000000 0.003011 0.000000
# 2 -0.004809 0.011594 -0.000436 0.000000 0.001981 0.000000
# 3 -0.001019 -0.000436 0.026078 0.000000 0.014248 0.000000
# 4 0.000000 0.000000 0.000000 0.095167 0.000000 0.046855
# 5 0.003011 0.001981 0.014248 0.000000 0.034957 0.000000
# 6 0.000000 0.000000 0.000000 0.046855 0.000000 0.076517
#
#
# Mechanical properties :
#
#
# Convention : Reuss Voigt Hill
#
# Bulk Modulus (GPa) = 25.59504 41.61719 33.60611
# Shear Modulus (GPa) = 17.61879 26.95772 22.28826
#
# Velocity S-wave (km/s) = 2.82551 3.49503 3.17795
# Velocity P-wave (km/s) = 4.71619 5.92830 5.35664
#
# Compressibility (1/GPa) = 0.03907007
#
# Stress axis : x y z
#
# Youngs Moduli (GPa) = 71.81254 86.25218 38.34622
#
# Poissons Ratio (x) = 0.41477 0.03906
# Poissons Ratio (y) = 0.34533 0.01673
# Poissons Ratio (z) = 0.07315 0.03762
#
# Static dielectric constant tensor:
#      x y z
#    x 4.202780 0.000000 -0.478640 
#    y 0.000000 3.687960 0.000000 
#    z -0.478640 0.000000 4.091250 
# 
# 
# High freq. dielectric constant tensor:
#      x y z
#    x 1.869070 0.000000 -0.028140 
#    y 0.000000 1.846000 0.000000 
#    z -0.028140 0.000000 1.863050 
# 
# From -- ./inp_files/50166.got.cif
#   From: 2010.06.25/outbox.cif.g09.slc.cpg/sg13_26_cif.got.tgz:50166.got - 2010.06.28 04:50:58.
