data_PCOD8119739
_publ_section_title
;
Structure prediction by ZEFSAII (Michael W. Deem and Ramdas Pophale) SiO2 
 PCOD8119739
Probable space group: P 2/C
;
_chemical_formula_sum "Si O2"
_cell_formula_units_Z 26
_cell_length_a 15.235570
_cell_length_b 9.302742
_cell_length_c 10.511517
_cell_angle_alpha 90.000000
_cell_angle_beta 120.700670
_cell_angle_gamma 90.000000
_cell_volume 1281.019993
_symmetry_space_group_name_H-M "P 2/C"
_symmetry_group_IT_number 13
_symmetry_cell_setting 'monoclinic'
loop_
_space_group_symop_operation_xyz
x,y,z
-x,y,1/2-z
-x,-y,-z
x,-y,1/2+z
loop_
_atom_site_type_symbol
_atom_site_label
_atom_site_fract_x
_atom_site_fract_y
_atom_site_fract_z
Si Si1 0.602995 0.436376 0.022376
Si Si2 0.947218 0.315518 0.342182
Si Si3 0.606368 0.943063 0.126767
Si Si4 0.276368 0.717756 0.444415
Si Si5 0.500000 0.234961 0.750000
Si Si6 0.264653 0.777234 0.725998
Si Si7 0.067686 0.653745 0.179297
O O1 0.673763 0.560581 0.018312
O O2 0.660518 0.350155 0.175511
O O3 0.500000 0.500000 0.000000
O O4 0.574885 0.328766 0.890135
O O5 0.842205 0.227944 0.277846
O O6 0.920928 0.483073 0.321798
O O7 0.000000 0.266358 0.250000
O O8 0.021598 0.280691 0.515643
O O9 0.644980 0.835689 0.046805
O O10 0.583962 0.859565 0.239803
O O11 0.686793 0.068342 0.211170
O O12 0.500000 0.000000 0.000000
O O13 0.242034 0.755539 0.560967
O O14 0.179129 0.721097 0.279551
O O15 0.000000 0.697446 0.250000
#
# Coordination Sequence:
#
# PCOD8119739 Si02
#       7
#     4   4   4   4   2   4   4
#     4  12  24  42  68 104 136 172 231 293 330 402
#     4  10  22  40  70 104 138 172 227 292 345 405
#     4  12  26  47  67  96 140 187 224 278 342 422
#     4  12  25  43  73 101 134 185 228 282 347 407
#     4  12  24  44  68  96 140 178 230 280 344 404
#     4  12  25  44  69 100 136 183 229 275 351 416
#     4  10  20  41  68 103 137 173 225 293 348 401
#
# _framework density 20.296326000000001
#
# number of rings (size 3 to 8) (size 9 to 14) (size 15 to 20)
#    0.000    0.615    6.154    1.846    0.000    2.462 
#    0.000    1.538    0.000    0.000    0.000    0.000 
#    0.000    0.000    0.000    0.000    0.000    0.000 
#
# Total GULP energy -322535.767527 kJ/mol
# GULP energy per Si atom -12405.221828 kJ/mol
# Density = 2.025013 g / cm^3
# Si number density = 20.296326 Si / 1000 Ang^3
#
#
#
# Elastic Constant Matrix: (Units=GPa)
#
#
# Indices 1 2 3 4 5 6 
#
# 1 154.5106 58.5618 73.6130 0.0000 -0.1170 0.0000
# 2 58.5618 105.4709 47.6667 0.0000 3.1399 0.0000
# 3 73.6130 47.6667 152.7897 0.0000 3.1446 0.0000
# 4 0.0000 0.0000 0.0000 22.5294 0.0000 3.0507
# 5 -0.1170 3.1399 3.1446 0.0000 42.9913 0.0000
# 6 0.0000 0.0000 0.0000 3.0507 0.0000 31.9476
#
#
#
# Elastic Compliance Matrix: (Units=1/GPa)
#
#
# Indices 1 2 3 4 5 6 
#
# 1 0.009531 -0.003758 -0.003431 0.000000 0.000551 0.000000
# 2 -0.003758 0.012532 -0.002083 0.000000 -0.000773 0.000000
# 3 -0.003431 -0.002083 0.008858 0.000000 -0.000505 0.000000
# 4 0.000000 0.000000 0.000000 0.044968 0.000000 -0.004294
# 5 0.000551 -0.000773 -0.000505 0.000000 0.023355 0.000000
# 6 0.000000 0.000000 0.000000 -0.004294 0.000000 0.031711
#
#
# Mechanical properties :
#
#
# Convention : Reuss Voigt Hill
#
# Bulk Modulus (GPa) = 80.79264 85.82824 83.31044
# Shear Modulus (GPa) = 32.54623 35.02232 33.78427
#
# Velocity S-wave (km/s) = 4.00878 4.15848 4.08432
# Velocity P-wave (km/s) = 7.83071 8.08929 7.96105
#
# Compressibility (1/GPa) = 0.01237736
#
# Stress axis : x y z
#
# Youngs Moduli (GPa) = 104.91532 79.79282 112.88740
#
# Poissons Ratio (x) = 0.29986 0.38733
# Poissons Ratio (y) = 0.39427 0.23518
# Poissons Ratio (z) = 0.35998 0.16623
#
# Static dielectric constant tensor:
#      x y z
#    x 3.750860 0.000000 0.005050 
#    y 0.000000 3.489560 0.000000 
#    z 0.005050 0.000000 3.838480 
# 
# 
# High freq. dielectric constant tensor:
#      x y z
#    x 1.804230 0.000000 0.001520 
#    y 0.000000 1.784810 0.000000 
#    z 0.001520 0.000000 1.807520 
# 
# From -- ./inp_files/36288.got.cif
#   From: 2010.06.25/outbox.cif.g09.slc.cpg/sg13_19_cif.got.tgz:36288.got - 2010.06.28 04:50:58.
