data_PCOD8119573
_publ_section_title
;
Structure prediction by ZEFSAII (Michael W. Deem and Ramdas Pophale) SiO2 
 PCOD8119573
Probable space group: P 2/C
;
_chemical_formula_sum "Si O2"
_cell_formula_units_Z 26
_cell_length_a 21.236707
_cell_length_b 12.744110
_cell_length_c 14.198742
_cell_angle_alpha 90.000000
_cell_angle_beta 160.042743
_cell_angle_gamma 90.000000
_cell_volume 1311.617068
_symmetry_space_group_name_H-M "P 2/C"
_symmetry_group_IT_number 13
_symmetry_cell_setting 'monoclinic'
loop_
_space_group_symop_operation_xyz
x,y,z
-x,y,1/2-z
-x,-y,-z
x,-y,1/2+z
loop_
_atom_site_type_symbol
_atom_site_label
_atom_site_fract_x
_atom_site_fract_y
_atom_site_fract_z
Si Si1 0.500000 0.555148 0.250000
Si Si2 0.584016 0.765974 0.582230
Si Si3 0.490123 0.366709 0.361754
Si Si4 0.184919 0.894270 0.449335
Si Si5 0.341181 0.890887 0.099745
Si Si6 0.187877 0.710922 0.771397
Si Si7 0.207744 0.720150 0.338248
O O1 0.540034 0.485218 0.400163
O O2 0.680183 0.627571 0.490041
O O3 0.507690 0.657950 0.523888
O O4 0.423012 0.822276 0.299348
O O5 0.747445 0.730785 0.744100
O O6 0.652290 0.843181 0.760487
O O7 0.632323 0.282010 0.515825
O O8 0.281395 0.350079 0.028848
O O9 0.163773 0.835479 0.318813
O O10 0.000000 0.891079 0.250000
O O11 0.234871 0.012870 0.495501
O O12 0.500000 0.927721 0.250000
O O13 0.193666 0.819436 0.837402
O O14 0.977275 0.671623 0.468577
#
# Coordination Sequence:
#
# PCOD8119573 Si02
#       7
#     2   4   4   4   4   4   4
#     4  10  20  40  62  88 114 156 188 244 298 354
#     4  10  20  40  57  85 116 153 193 245 283 342
#     4   9  22  37  61  89 112 149 201 237 293 340
#     4  11  21  35  58  85 114 150 205 231 280 346
#     4  10  23  37  54  85 117 160 188 235 292 340
#     4  11  20  39  61  81 124 151 192 238 300 336
#     4   9  20  38  57  87 117 153 183 248 286 342
#
# _framework density 19.822859000000001
#
# number of rings (size 3 to 8) (size 9 to 14) (size 15 to 20)
#    0.000    2.154    3.846    0.462    4.308    4.923 
#    0.000    0.000    0.000    3.692    0.000    0.000 
#    0.000    0.000    0.000    0.000    0.000    0.000 
#
# Total GULP energy -322226.626821 kJ/mol
# GULP energy per Si atom -12393.331801 kJ/mol
# Density = 1.977774 g / cm^3
# Si number density = 19.822859 Si / 1000 Ang^3
#
#
#
# Elastic Constant Matrix: (Units=GPa)
#
#
# Indices 1 2 3 4 5 6 
#
# 1 80.4762 39.5320 35.4424 0.0000 -11.0462 0.0000
# 2 39.5320 84.4359 24.8349 0.0000 2.6309 0.0000
# 3 35.4424 24.8349 109.9242 0.0000 12.8424 0.0000
# 4 0.0000 0.0000 0.0000 19.8603 0.0000 -5.6071
# 5 -11.0462 2.6309 12.8424 0.0000 25.4575 0.0000
# 6 0.0000 0.0000 0.0000 -5.6071 0.0000 27.3116
#
#
#
# Elastic Compliance Matrix: (Units=1/GPa)
#
#
# Indices 1 2 3 4 5 6 
#
# 1 0.021299 -0.008472 -0.006520 0.000000 0.013406 0.000000
# 2 -0.008472 0.016057 -0.000290 0.000000 -0.005189 0.000000
# 3 -0.006520 -0.000290 0.012318 0.000000 -0.009013 0.000000
# 4 0.000000 0.000000 0.000000 0.053450 0.000000 0.010973
# 5 0.013406 -0.005189 -0.009013 0.000000 0.050181 0.000000
# 6 0.000000 0.000000 0.000000 0.010973 0.000000 0.038867
#
#
# Mechanical properties :
#
#
# Convention : Reuss Voigt Hill
#
# Bulk Modulus (GPa) = 52.32678 52.71719 52.52199
# Shear Modulus (GPa) = 21.82400 26.19434 24.00917
#
# Velocity S-wave (km/s) = 3.32166 3.63908 3.48399
# Velocity P-wave (km/s) = 6.41605 6.65651 6.53738
#
# Compressibility (1/GPa) = 0.01911067
#
# Stress axis : x y z
#
# Youngs Moduli (GPa) = 46.94994 62.27880 81.18400
#
# Poissons Ratio (x) = 0.52764 0.52929
# Poissons Ratio (y) = 0.39777 0.02352
# Poissons Ratio (z) = 0.30610 0.01804
#
# Static dielectric constant tensor:
#      x y z
#    x 3.657990 0.000000 -0.092990 
#    y 0.000000 3.551260 0.000000 
#    z -0.092990 0.000000 3.551520 
# 
# 
# High freq. dielectric constant tensor:
#      x y z
#    x 1.767200 0.000000 -0.007500 
#    y 0.000000 1.762710 0.000000 
#    z -0.007500 0.000000 1.769990 
# 
# From -- ./inp_files/58941.got.cif
#   From: 2010.06.25/outbox.cif.g09.slc.cpg/sg13_30_cif.got.tgz:58941.got - 2010.06.28 04:50:58.
