data_PCOD8119197
_publ_section_title
;
Structure prediction by ZEFSAII (Michael W. Deem and Ramdas Pophale) SiO2 
 PCOD8119197
Probable space group: P 2/C
;
_chemical_formula_sum "Si O2"
_cell_formula_units_Z 32
_cell_length_a 8.585849
_cell_length_b 12.046475
_cell_length_c 27.238201
_cell_angle_alpha 90.000000
_cell_angle_beta 149.689563
_cell_angle_gamma 90.000000
_cell_volume 1421.811275
_symmetry_space_group_name_H-M "P 2/C"
_symmetry_group_IT_number 13
_symmetry_cell_setting 'monoclinic'
loop_
_space_group_symop_operation_xyz
x,y,z
-x,y,1/2-z
-x,-y,-z
x,-y,1/2+z
loop_
_atom_site_type_symbol
_atom_site_label
_atom_site_fract_x
_atom_site_fract_y
_atom_site_fract_z
Si Si1 0.321996 0.086291 0.312502
Si Si2 0.993637 0.648810 0.397824
Si Si3 0.764906 0.120328 0.036683
Si Si4 0.688221 0.558975 0.928780
Si Si5 0.398547 0.622522 0.296066
Si Si6 0.361490 0.250922 0.164120
Si Si7 0.664228 0.158410 0.669684
Si Si8 0.300461 0.126096 0.992279
O O1 0.385855 0.155811 0.280479
O O2 0.607307 0.116425 0.425714
O O3 0.000000 0.119892 0.250000
O O4 0.321518 0.957088 0.296292
O O5 0.685206 0.602010 0.338423
O O6 0.932012 0.619323 0.323198
O O7 0.288390 0.591584 0.506405
O O8 0.038722 0.781111 0.413726
O O9 0.613172 0.157547 0.047048
O O10 0.037047 0.197585 0.091228
O O11 0.490858 0.130195 0.923612
O O12 0.855282 0.990335 0.066868
O O13 0.404143 0.474347 0.839670
O O14 0.664082 0.668219 0.888901
O O15 0.000000 0.500000 0.000000
O O16 0.492168 0.742615 0.343156
O O17 0.500000 0.312843 0.250000
O O18 0.000000 0.206057 0.750000
#
# Coordination Sequence:
#
# PCOD8119197 Si02
#       8
#     4   4   4   4   4   4   4   4
#     4  10  22  40  62  92 134 169 204 256 321 385
#     4  10  20  37  64  90 118 171 208 267 317 376
#     4  10  22  37  61  95 134 172 202 262 318 387
#     4  10  22  41  62  88 125 165 215 272 317 366
#     4  10  22  37  63  92 120 163 224 259 315 381
#     4  12  25  39  64  94 128 168 213 257 316 390
#     4  10  21  39  64  92 130 164 207 266 320 375
#     4  10  20  38  62  91 132 165 212 252 325 380
#
# _framework density 22.506502999999999
#
# number of rings (size 3 to 8) (size 9 to 14) (size 15 to 20)
#    0.000    1.750    1.250    3.000    5.250    4.000 
#    0.000    0.625    0.000    4.500    0.000    0.000 
#    0.000    0.000    0.000    0.000    0.000    0.000 
#
# Total GULP energy -396481.825171 kJ/mol
# GULP energy per Si atom -12390.057037 kJ/mol
# Density = 2.245528 g / cm^3
# Si number density = 22.506503 Si / 1000 Ang^3
#
#
#
# Elastic Constant Matrix: (Units=GPa)
#
#
# Indices 1 2 3 4 5 6 
#
# 1 46.0715 26.1337 17.3524 0.0000 -11.9506 0.0000
# 2 26.1337 115.6043 52.4127 0.0000 -17.9048 0.0000
# 3 17.3524 52.4127 102.1717 0.0000 -27.5753 0.0000
# 4 0.0000 0.0000 0.0000 26.3143 0.0000 -8.4095
# 5 -11.9506 -17.9048 -27.5753 0.0000 41.0902 0.0000
# 6 0.0000 0.0000 0.0000 -8.4095 0.0000 16.7869
#
#
#
# Elastic Compliance Matrix: (Units=1/GPa)
#
#
# Indices 1 2 3 4 5 6 
#
# 1 0.025973 -0.004830 -0.000565 0.000000 0.005070 0.000000
# 2 -0.004830 0.012224 -0.005363 0.000000 0.000322 0.000000
# 3 -0.000565 -0.005363 0.014605 0.000000 0.007300 0.000000
# 4 0.000000 0.000000 0.000000 0.045246 0.000000 0.022666
# 5 0.005070 0.000322 0.007300 0.000000 0.030851 0.000000
# 6 0.000000 0.000000 0.000000 0.022666 0.000000 0.070925
#
#
# Mechanical properties :
#
#
# Convention : Reuss Voigt Hill
#
# Bulk Modulus (GPa) = 31.96421 50.62724 41.29573
# Shear Modulus (GPa) = 21.57329 28.03486 24.80407
#
# Velocity S-wave (km/s) = 3.09938 3.53318 3.32337
# Velocity P-wave (km/s) = 5.20012 6.26002 5.75452
#
# Compressibility (1/GPa) = 0.03128499
#
# Stress axis : x y z
#
# Youngs Moduli (GPa) = 38.50119 81.80890 68.47048
#
# Poissons Ratio (x) = 0.39515 0.03869
# Poissons Ratio (y) = 0.18597 0.36722
# Poissons Ratio (z) = 0.02175 0.43876
#
# Static dielectric constant tensor:
#      x y z
#    x 3.976970 0.000000 -0.593240 
#    y 0.000000 9.783690 0.000000 
#    z -0.593240 0.000000 4.599980 
# 
# 
# High freq. dielectric constant tensor:
#      x y z
#    x 1.861070 0.000000 -0.026990 
#    y 0.000000 1.884200 0.000000 
#    z -0.026990 0.000000 1.893170 
# 
# From -- ./inp_files/96154.got.cif
#   From: 2010.06.25/outbox.cif.g09.slc.cpg/sg13_49_cif.got.tgz:96154.got - 2010.06.28 04:50:58.
