data_PCOD8119866
_publ_section_title
;
Structure prediction by ZEFSAII (Michael W. Deem and Ramdas Pophale) SiO2 
 PCOD8119866
Probable space group: P 2/C
;
_chemical_formula_sum "Si O2"
_cell_formula_units_Z 30
_cell_length_a 12.920058
_cell_length_b 5.164568
_cell_length_c 24.463555
_cell_angle_alpha 90.000000
_cell_angle_beta 68.155512
_cell_angle_gamma 90.000000
_cell_volume 1515.159254
_symmetry_space_group_name_H-M "P 2/C"
_symmetry_group_IT_number 13
_symmetry_cell_setting 'monoclinic'
loop_
_space_group_symop_operation_xyz
x,y,z
-x,y,1/2-z
-x,-y,-z
x,-y,1/2+z
loop_
_atom_site_type_symbol
_atom_site_label
_atom_site_fract_x
_atom_site_fract_y
_atom_site_fract_z
Si Si1 0.576547 0.443476 0.555648
Si Si2 0.510516 0.829413 0.847904
Si Si3 0.666989 0.206786 0.644554
Si Si4 0.632348 0.852009 0.399254
Si Si5 0.500000 0.495637 0.750000
Si Si6 0.913989 0.245365 0.575346
Si Si7 0.271393 0.625385 0.573203
Si Si8 0.051205 0.751230 0.556686
O O1 0.499805 0.682890 0.591375
O O2 0.650289 0.374360 0.593489
O O3 0.489165 0.225971 0.551944
O O4 0.659474 0.505361 0.490133
O O5 0.553893 0.659583 0.789022
O O6 0.386980 0.926177 0.855315
O O7 0.600805 0.058981 0.842678
O O8 0.603141 0.325316 0.708960
O O9 0.798447 0.191584 0.629771
O O10 0.714813 0.598598 0.382789
O O11 0.687144 0.088872 0.420528
O O12 0.895484 0.218802 0.513914
O O13 0.955313 0.535021 0.578884
O O14 0.000043 0.031336 0.581636
O O15 0.143502 0.663949 0.582050
#
# Coordination Sequence:
#
# PCOD8119866 Si02
#       8
#     4   4   4   4   2   4   4   4
#     4  10  21  34  54  84 122 162 201 230 291 362
#     4  10  22  38  57  88 122 152 193 245 301 377
#     4  10  21  36  61  87 122 157 192 254 306 362
#     4  11  23  35  54  83 124 162 200 231 295 352
#     4  10  22  40  60  90 124 142 202 246 320 368
#     4  10  21  38  57  82 121 160 202 247 288 343
#     4  12  22  35  55  83 124 169 199 242 275 353
#     4  10  22  36  55  85 118 165 210 233 282 346
#
# _framework density 19.799897000000001
#
# number of rings (size 3 to 8) (size 9 to 14) (size 15 to 20)
#    0.000    1.600    2.667    2.000    7.467    1.067 
#    0.000    0.000    0.000    0.000    0.000    0.933 
#    8.000    0.000    0.000    0.000    0.000    0.000 
#
# Total GULP energy -371767.298558 kJ/mol
# GULP energy per Si atom -12392.243285 kJ/mol
# Density = 1.975483 g / cm^3
# Si number density = 19.799897 Si / 1000 Ang^3
#
#
#
# Elastic Constant Matrix: (Units=GPa)
#
#
# Indices 1 2 3 4 5 6 
#
# 1 110.4565 36.6475 35.3503 0.0000 -8.2931 0.0000
# 2 36.6475 115.6436 30.3590 0.0000 -1.8364 0.0000
# 3 35.3503 30.3590 65.5550 0.0000 -11.4508 0.0000
# 4 0.0000 0.0000 0.0000 18.8890 0.0000 9.2541
# 5 -8.2931 -1.8364 -11.4508 0.0000 17.5901 0.0000
# 6 0.0000 0.0000 0.0000 9.2541 0.0000 35.2625
#
#
#
# Elastic Compliance Matrix: (Units=1/GPa)
#
#
# Indices 1 2 3 4 5 6 
#
# 1 0.011516 -0.002370 -0.004747 0.000000 0.002092 0.000000
# 2 -0.002370 0.010407 -0.004002 0.000000 -0.002636 0.000000
# 3 -0.004747 -0.004002 0.021667 0.000000 0.011449 0.000000
# 4 0.000000 0.000000 0.000000 0.060752 0.000000 -0.015943
# 5 0.002092 -0.002636 0.011449 0.000000 0.065014 0.000000
# 6 0.000000 0.000000 0.000000 -0.015943 0.000000 0.032543
#
#
# Mechanical properties :
#
#
# Convention : Reuss Voigt Hill
#
# Bulk Modulus (GPa) = 46.83320 55.15209 50.99264
# Shear Modulus (GPa) = 21.62113 26.96819 24.29466
#
# Velocity S-wave (km/s) = 3.30810 3.69458 3.50667
# Velocity P-wave (km/s) = 6.18837 6.79081 6.49658
#
# Compressibility (1/GPa) = 0.02135238
#
# Stress axis : x y z
#
# Youngs Moduli (GPa) = 86.83621 96.08838 46.15209
#
# Poissons Ratio (x) = 0.22773 0.21908
# Poissons Ratio (y) = 0.20580 0.18470
# Poissons Ratio (z) = 0.41221 0.38455
#
# Static dielectric constant tensor:
#      x y z
#    x 3.571730 0.000000 0.149400 
#    y 0.000000 3.914410 0.000000 
#    z 0.149400 0.000000 3.295010 
# 
# 
# High freq. dielectric constant tensor:
#      x y z
#    x 1.764900 0.000000 0.016130 
#    y 0.000000 1.795090 0.000000 
#    z 0.016130 0.000000 1.718860 
# 
# From -- ./inp_files/85813.got.cif
#   From: 2010.06.25/outbox.cif.g09.slc.cpg/sg13_43_cif.got.tgz:85813.got - 2010.06.28 04:50:58.
