data_PCOD8119188
_publ_section_title
;
Structure prediction by ZEFSAII (Michael W. Deem and Ramdas Pophale) SiO2 
 PCOD8119188
Probable space group: P 2/C
;
_chemical_formula_sum "Si O2"
_cell_formula_units_Z 26
_cell_length_a 20.958467
_cell_length_b 7.341134
_cell_length_c 14.366899
_cell_angle_alpha 90.000000
_cell_angle_beta 30.744418
_cell_angle_gamma 90.000000
_cell_volume 1130.015752
_symmetry_space_group_name_H-M "P 2/C"
_symmetry_group_IT_number 13
_symmetry_cell_setting 'monoclinic'
loop_
_space_group_symop_operation_xyz
x,y,z
-x,y,1/2-z
-x,-y,-z
x,-y,1/2+z
loop_
_atom_site_type_symbol
_atom_site_label
_atom_site_fract_x
_atom_site_fract_y
_atom_site_fract_z
Si Si1 0.683573 0.005087 0.868051
Si Si2 0.682793 0.116955 0.174050
Si Si3 0.833938 0.339397 0.738872
Si Si4 0.894119 0.267135 0.137203
Si Si5 0.869956 0.185299 0.379601
Si Si6 0.855425 0.580769 0.421425
Si Si7 0.500000 0.056358 0.250000
O O1 0.621297 0.970887 0.844461
O O2 0.808829 0.888715 0.702238
O O3 0.723299 0.216161 0.833689
O O4 0.594816 0.938490 0.065261
O O5 0.575091 0.173181 0.234252
O O6 0.768923 0.289605 0.094209
O O7 0.762870 0.962599 0.021159
O O8 0.848786 0.529279 0.663061
O O9 0.801535 0.378959 0.886322
O O10 0.965042 0.230386 0.572967
O O11 0.889316 0.259973 0.253209
O O12 0.837406 0.371042 0.477582
O O13 0.000000 0.097004 0.250000
O O14 0.000000 0.637630 0.250000
#
# Coordination Sequence:
#
# PCOD8119188 Si02
#       7
#     4   4   4   4   4   4   2
#     4  12  24  42  66  89 124 169 212 263 312 366
#     4  12  24  42  66  89 124 169 212 263 312 366
#     4  10  20  37  63  96 131 162 202 260 321 380
#     4  10  20  37  63  96 131 162 202 260 321 380
#     4  10  20  37  63  96 131 162 202 260 321 380
#     4  10  20  37  63  96 131 162 202 260 321 380
#     4  12  26  48  62  90 128 170 230 254 298 378
#
# _framework density 23.00853
#
# number of rings (size 3 to 8) (size 9 to 14) (size 15 to 20)
#    0.000    1.231    3.077    3.231    0.000    3.692 
#    0.000    3.077    0.000    3.692    0.000    0.000 
#    0.000    0.000    0.000    0.000    0.000    0.000 
#
# Total GULP energy -322213.832862 kJ/mol
# GULP energy per Si atom -12392.839725 kJ/mol
# Density = 2.295616 g / cm^3
# Si number density = 23.008530 Si / 1000 Ang^3
#
#
#
# Elastic Constant Matrix: (Units=GPa)
#
#
# Indices 1 2 3 4 5 6 
#
# 1 82.2749 14.0098 8.7286 0.0000 -10.9976 0.0000
# 2 14.0098 71.6992 13.4678 0.0000 -16.0092 0.0000
# 3 8.7286 13.4678 81.9349 0.0000 -3.0204 0.0000
# 4 0.0000 0.0000 0.0000 1.0805 0.0000 -5.0595
# 5 -10.9976 -16.0092 -3.0204 0.0000 31.0854 0.0000
# 6 0.0000 0.0000 0.0000 -5.0595 0.0000 5.9624
#
#
#
# Elastic Compliance Matrix: (Units=1/GPa)
#
#
# Indices 1 2 3 4 5 6 
#
# 1 0.013018 -0.001525 -0.000999 0.000000 0.003723 0.000000
# 2 -0.001525 0.016382 -0.002247 0.000000 0.007679 0.000000
# 3 -0.000999 -0.002247 0.012670 0.000000 -0.000280 0.000000
# 4 0.000000 0.000000 0.000000 -0.311252 0.000000 -0.264118
# 5 0.003723 0.007679 -0.000280 0.000000 0.037414 0.000000
# 6 0.000000 0.000000 0.000000 -0.264118 0.000000 -0.056404
#
#
# Mechanical properties :
#
#
# Convention : Reuss Voigt Hill
#
# Bulk Modulus (GPa) = 30.74259 34.25792 32.50026
# Shear Modulus (GPa) = -18.67147 20.93919 1.13386
#
# Velocity S-wave (km/s) = -2.85178 3.02000 0.70276
# Velocity P-wave (km/s) = 1.59589 5.20404 3.84896
#
# Compressibility (1/GPa) = 0.03252817
#
# Stress axis : x y z
#
# Youngs Moduli (GPa) = 76.81876 61.04352 78.92480
#
# Poissons Ratio (x) = 0.09307 0.07884
# Poissons Ratio (y) = 0.11712 0.17736
# Poissons Ratio (z) = 0.07674 0.13718
#
# Static dielectric constant tensor:
#      x y z
#    x 4.348080 0.000000 0.157010 
#    y 0.000000 4.074220 0.000000 
#    z 0.157010 0.000000 4.116360 
# 
# 
# High freq. dielectric constant tensor:
#      x y z
#    x 1.921130 0.000000 0.014900 
#    y 0.000000 1.889370 0.000000 
#    z 0.014900 0.000000 1.893920 
# 
# From -- ./inp_files/57217.got.cif
#   From: 2010.06.25/outbox.cif.g09.slc.cpg/sg13_29_cif.got.tgz:57217.got - 2010.06.28 04:50:58.
