data_PCOD8119166
_publ_section_title
;
Structure prediction by ZEFSAII (Michael W. Deem and Ramdas Pophale) SiO2 
 PCOD8119166
Probable space group: P 2/C
;
_chemical_formula_sum "Si O2"
_cell_formula_units_Z 30
_cell_length_a 15.462970
_cell_length_b 15.830556
_cell_length_c 18.549613
_cell_angle_alpha 90.000000
_cell_angle_beta 161.173627
_cell_angle_gamma 90.000000
_cell_volume 1465.294043
_symmetry_space_group_name_H-M "P 2/C"
_symmetry_group_IT_number 13
_symmetry_cell_setting 'monoclinic'
loop_
_space_group_symop_operation_xyz
x,y,z
-x,y,1/2-z
-x,-y,-z
x,-y,1/2+z
loop_
_atom_site_type_symbol
_atom_site_label
_atom_site_fract_x
_atom_site_fract_y
_atom_site_fract_z
Si Si1 0.000000 0.789701 0.750000
Si Si2 0.623894 0.549300 0.164569
Si Si3 0.639543 0.219820 0.286901
Si Si4 0.203751 0.614757 0.642791
Si Si5 0.757684 0.163737 0.747358
Si Si6 0.302086 0.303079 0.375378
Si Si7 0.461050 0.080933 0.635944
Si Si8 0.270132 0.905894 0.422318
O O1 0.951915 0.734186 0.783307
O O2 0.750657 0.845584 0.533096
O O3 0.652209 0.476992 0.247526
O O4 0.908700 0.597371 0.377292
O O5 0.500000 0.500000 0.000000
O O6 0.416576 0.623728 0.018808
O O7 0.500000 0.189036 0.250000
O O8 0.612681 0.321476 0.259136
O O9 0.955588 0.207547 0.527237
O O10 0.493860 0.165847 0.110896
O O11 0.196822 0.657575 0.717253
O O12 0.530177 0.231491 0.546681
O O13 0.715057 0.117134 0.791188
O O14 0.770340 0.091419 0.695710
O O15 0.500000 0.057151 0.750000
O O16 0.360315 0.997754 0.517185
O O17 0.000000 0.878411 0.250000
#
# Coordination Sequence:
#
# PCOD8119166 Si02
#       8
#     2   4   4   4   4   4   4   4
#     4  10  24  40  64  94 128 162 210 272 322 378
#     4   9  19  37  63  91 126 170 209 264 322 387
#     4  12  24  39  65  96 129 171 223 270 326 390
#     4  10  20  37  62  91 128 169 213 261 324 383
#     4  11  24  41  67  94 128 177 218 268 332 393
#     4  10  20  39  65  92 124 169 213 255 323 387
#     4  11  26  43  65  95 130 169 221 273 330 396
#     4  12  24  44  63  91 132 173 218 275 330 392
#
# _framework density 20.473706
#
# number of rings (size 3 to 8) (size 9 to 14) (size 15 to 20)
#    0.000    1.333    4.667    0.800    1.867    0.533 
#    0.000    4.000    0.000    0.000    0.000    0.000 
#    0.000    0.000    0.000    0.000    0.000    0.000 
#
# Total GULP energy -371684.318615 kJ/mol
# GULP energy per Si atom -12389.477287 kJ/mol
# Density = 2.042711 g / cm^3
# Si number density = 20.473706 Si / 1000 Ang^3
#
#
#
# Elastic Constant Matrix: (Units=GPa)
#
#
# Indices 1 2 3 4 5 6 
#
# 1 107.2572 37.0248 32.3843 0.0000 8.7525 0.0000
# 2 37.0248 117.4074 32.1619 0.0000 4.5450 0.0000
# 3 32.3843 32.1619 81.8664 0.0000 7.9785 0.0000
# 4 0.0000 0.0000 0.0000 36.1171 0.0000 2.3358
# 5 8.7525 4.5450 7.9785 0.0000 28.4018 0.0000
# 6 0.0000 0.0000 0.0000 2.3358 0.0000 34.5858
#
#
#
# Elastic Compliance Matrix: (Units=1/GPa)
#
#
# Indices 1 2 3 4 5 6 
#
# 1 0.011389 -0.002612 -0.003267 0.000000 -0.002174 0.000000
# 2 -0.002612 0.010150 -0.002955 0.000000 0.000011 0.000000
# 3 -0.003267 -0.002955 0.014933 0.000000 -0.002715 0.000000
# 4 0.000000 0.000000 0.000000 0.027809 0.000000 -0.001878
# 5 -0.002174 0.000011 -0.002715 0.000000 0.036640 0.000000
# 6 0.000000 0.000000 0.000000 -0.001878 0.000000 0.029040
#
#
# Mechanical properties :
#
#
# Convention : Reuss Voigt Hill
#
# Bulk Modulus (GPa) = 53.18351 56.63032 54.90691
# Shear Modulus (GPa) = 32.48881 33.48492 32.98687
#
# Velocity S-wave (km/s) = 3.98786 4.04853 4.01831
# Velocity P-wave (km/s) = 6.87291 7.04089 6.95741
#
# Compressibility (1/GPa) = 0.01880282
#
# Stress axis : x y z
#
# Youngs Moduli (GPa) = 87.80398 98.51898 66.96575
#
# Poissons Ratio (x) = 0.25738 0.21878
# Poissons Ratio (y) = 0.22938 0.19790
# Poissons Ratio (z) = 0.28686 0.29115
#
# Static dielectric constant tensor:
#      x y z
#    x 3.783590 0.000000 -0.063590 
#    y 0.000000 4.140100 0.000000 
#    z -0.063590 0.000000 3.796220 
# 
# 
# High freq. dielectric constant tensor:
#      x y z
#    x 1.780720 0.000000 -0.006040 
#    y 0.000000 1.823890 0.000000 
#    z -0.006040 0.000000 1.802450 
# 
# From -- ./inp_files/68794.got.cif
#   From: 2010.06.25/outbox.cif.g09.slc.cpg/sg13_35_cif.got.tgz:68794.got - 2010.06.28 04:50:58.
