data_PCOD8119357
_publ_section_title
;
Structure prediction by ZEFSAII (Michael W. Deem and Ramdas Pophale) SiO2 
 PCOD8119357
Probable space group: P 2/C
;
_chemical_formula_sum "Si O2"
_cell_formula_units_Z 18
_cell_length_a 7.846507
_cell_length_b 11.280939
_cell_length_c 16.066858
_cell_angle_alpha 90.000000
_cell_angle_beta 144.748085
_cell_angle_gamma 90.000000
_cell_volume 820.839395
_symmetry_space_group_name_H-M "P 2/C"
_symmetry_group_IT_number 13
_symmetry_cell_setting 'monoclinic'
loop_
_space_group_symop_operation_xyz
x,y,z
-x,y,1/2-z
-x,-y,-z
x,-y,1/2+z
loop_
_atom_site_type_symbol
_atom_site_label
_atom_site_fract_x
_atom_site_fract_y
_atom_site_fract_z
Si Si1 0.370952 0.886728 0.289785
Si Si2 0.801901 0.917521 0.977894
Si Si3 0.313902 0.409120 0.330491
Si Si4 0.500000 0.276257 0.250000
Si Si5 0.344625 0.668364 0.385000
O O1 0.500000 0.865186 0.250000
O O2 0.483765 0.777978 0.390610
O O3 0.502176 0.009575 0.380932
O O4 0.008649 0.889353 0.140919
O O5 0.723132 0.800746 0.894254
O O6 0.000000 0.000000 0.000000
O O7 0.303662 0.358779 0.232802
O O8 0.434522 0.544142 0.376887
O O9 0.535469 0.327730 0.472791
O O10 0.000000 0.404232 0.250000
O O11 0.000000 0.683191 0.250000
#
# Coordination Sequence:
#
# PCOD8119357 Si02
#       5
#     4   4   4   2   4
#     4  10  21  37  68  86 128 168 207 264 322 372
#     4  10  20  38  62  94 126 167 212 267 308 384
#     4  10  25  42  68  96 133 168 215 270 316 389
#     4  12  22  42  70  94 134 170 212 262 336 372
#     4  10  22  46  60  96 134 162 215 273 317 380
#
# _framework density 21.928771999999999
#
# number of rings (size 3 to 8) (size 9 to 14) (size 15 to 20)
#    0.000    1.778    3.333    1.333    7.778    0.000 
#    0.000   10.000    0.000    0.000    0.000    0.000 
#    0.000    0.000    0.000    0.000    0.000    0.000 
#
# Total GULP energy -223146.387271 kJ/mol
# GULP energy per Si atom -12397.021515 kJ/mol
# Density = 2.187886 g / cm^3
# Si number density = 21.928772 Si / 1000 Ang^3
#
#
#
# Elastic Constant Matrix: (Units=GPa)
#
#
# Indices 1 2 3 4 5 6 
#
# 1 77.7419 55.3720 28.6088 0.0000 -11.8045 0.0000
# 2 55.3720 121.3946 47.4772 0.0000 -28.7123 0.0000
# 3 28.6088 47.4772 133.6560 0.0000 -4.5714 0.0000
# 4 0.0000 0.0000 0.0000 41.3429 0.0000 7.1967
# 5 -11.8045 -28.7123 -4.5714 0.0000 23.0560 0.0000
# 6 0.0000 0.0000 0.0000 7.1967 0.0000 121.9959
#
#
#
# Elastic Compliance Matrix: (Units=1/GPa)
#
#
# Indices 1 2 3 4 5 6 
#
# 1 0.019225 -0.008594 -0.001099 0.000000 -0.001077 0.000000
# 2 -0.008594 0.017638 -0.003851 0.000000 0.016801 0.000000
# 3 -0.001099 -0.003851 0.008963 0.000000 -0.003581 0.000000
# 4 0.000000 0.000000 0.000000 0.024439 0.000000 -0.001442
# 5 -0.001077 0.016801 -0.003581 0.000000 0.063033 0.000000
# 6 0.000000 0.000000 0.000000 -0.001442 0.000000 0.008282
#
#
# Mechanical properties :
#
#
# Convention : Reuss Voigt Hill
#
# Bulk Modulus (GPa) = 53.37119 66.18985 59.78052
# Shear Modulus (GPa) = 28.58549 50.70125 39.64337
#
# Velocity S-wave (km/s) = 3.61440 4.81363 4.25646
# Velocity P-wave (km/s) = 6.46605 7.81948 7.17475
#
# Compressibility (1/GPa) = 0.01873670
#
# Stress axis : x y z
#
# Youngs Moduli (GPa) = 52.01499 56.69730 111.57464
#
# Poissons Ratio (x) = 0.48727 0.12264
# Poissons Ratio (y) = 0.44703 0.42967
# Poissons Ratio (z) = 0.05717 0.21834
#
# Static dielectric constant tensor:
#      x y z
#    x 3.600150 0.000000 -0.036530 
#    y 0.000000 4.411540 0.000000 
#    z -0.036530 0.000000 4.325610 
# 
# 
# High freq. dielectric constant tensor:
#      x y z
#    x 1.827520 0.000000 -0.000340 
#    y 0.000000 1.873680 0.000000 
#    z -0.000340 0.000000 1.876660 
# 
# From -- ./inp_files/32053.got.cif
#   From: 2010.06.25/outbox.cif.g09.slc.cpg/sg13_17_cif.got.tgz:32053.got - 2010.06.28 04:50:58.
