data_PCOD8119475
_publ_section_title
;
Structure prediction by ZEFSAII (Michael W. Deem and Ramdas Pophale) SiO2 
 PCOD8119475
Probable space group: P 2/C
;
_chemical_formula_sum "Si O2"
_cell_formula_units_Z 20
_cell_length_a 19.177650
_cell_length_b 8.490055
_cell_length_c 8.798745
_cell_angle_alpha 90.000000
_cell_angle_beta 43.803580
_cell_angle_gamma 90.000000
_cell_volume 991.632744
_symmetry_space_group_name_H-M "P 2/C"
_symmetry_group_IT_number 13
_symmetry_cell_setting 'monoclinic'
loop_
_space_group_symop_operation_xyz
x,y,z
-x,y,1/2-z
-x,-y,-z
x,-y,1/2+z
loop_
_atom_site_type_symbol
_atom_site_label
_atom_site_fract_x
_atom_site_fract_y
_atom_site_fract_z
Si Si1 0.207925 0.181887 0.662412
Si Si2 0.385765 0.699115 0.408088
Si Si3 0.217259 0.119257 0.315342
Si Si4 0.112194 0.602860 0.097303
Si Si5 0.303604 0.587095 0.225741
O O1 0.251564 0.104517 0.438206
O O2 0.122654 0.311135 0.747049
O O3 0.295526 0.273589 0.614870
O O4 0.165449 0.041877 0.836639
O O5 0.500000 0.753171 0.250000
O O6 0.315225 0.847689 0.558651
O O7 0.369687 0.647044 0.260856
O O8 0.361079 0.559247 0.563332
O O9 0.137312 0.264323 0.428549
O O10 0.000000 0.536948 0.250000
O O11 0.191771 0.460508 0.960988
#
# Coordination Sequence:
#
# PCOD8119475 Si02
#       5
#     4   4   4   4   4
#     4  10  20  39  60  83 123 156 190 245 292 335
#     4  11  21  38  61  87 116 157 197 239 296 351
#     4   9  21  39  56  84 120 152 197 240 288 342
#     4   9  21  37  59  88 117 155 199 234 296 347
#     4  11  20  39  59  88 123 150 195 249 286 349
#
# _framework density 20.168756999999999
#
# number of rings (size 3 to 8) (size 9 to 14) (size 15 to 20)
#    1.200    0.800    2.000    1.800    0.000    1.600 
#    0.000    6.000    0.000    0.000    0.000    0.000 
#    0.000    0.000    0.000    0.000    0.000    0.000 
#
# Total GULP energy -247827.850580 kJ/mol
# GULP energy per Si atom -12391.392529 kJ/mol
# Density = 2.012285 g / cm^3
# Si number density = 20.168757 Si / 1000 Ang^3
#
#
#
# Elastic Constant Matrix: (Units=GPa)
#
#
# Indices 1 2 3 4 5 6 
#
# 1 107.0011 6.4478 34.8683 0.0000 12.0906 0.0000
# 2 6.4478 39.1247 -0.3016 0.0000 14.9617 0.0000
# 3 34.8683 -0.3016 55.1664 0.0000 0.6677 0.0000
# 4 0.0000 0.0000 0.0000 24.9526 0.0000 10.7605
# 5 12.0906 14.9617 0.6677 0.0000 39.8958 0.0000
# 6 0.0000 0.0000 0.0000 10.7605 0.0000 23.4133
#
#
#
# Elastic Compliance Matrix: (Units=1/GPa)
#
#
# Indices 1 2 3 4 5 6 
#
# 1 0.012286 -0.000829 -0.007730 0.000000 -0.003283 0.000000
# 2 -0.000829 0.029899 0.000820 0.000000 -0.010975 0.000000
# 3 -0.007730 0.000820 0.022997 0.000000 0.001650 0.000000
# 4 0.000000 0.000000 0.000000 0.049982 0.000000 -0.022971
# 5 -0.003283 -0.010975 0.001650 0.000000 0.030149 0.000000
# 6 0.000000 0.000000 0.000000 -0.022971 0.000000 0.053268
#
#
# Mechanical properties :
#
#
# Convention : Reuss Voigt Hill
#
# Bulk Modulus (GPa) = 20.11878 31.48017 25.79948
# Shear Modulus (GPa) = 21.68010 28.33752 25.00881
#
# Velocity S-wave (km/s) = 3.28218 3.75243 3.52515
# Velocity P-wave (km/s) = 4.93563 5.86656 5.42112
#
# Compressibility (1/GPa) = 0.04970479
#
# Stress axis : x y z
#
# Youngs Moduli (GPa) = 81.39631 33.44564 43.48340
#
# Poissons Ratio (x) = 0.02772 0.33613
# Poissons Ratio (y) = 0.06746 -0.03566
# Poissons Ratio (z) = 0.62919 -0.02743
#
# Static dielectric constant tensor:
#      x y z
#    x 3.500620 0.000000 0.257550 
#    y 0.000000 3.550660 0.000000 
#    z 0.257550 0.000000 3.448020 
# 
# 
# High freq. dielectric constant tensor:
#      x y z
#    x 1.779620 0.000000 0.026490 
#    y 0.000000 1.782290 0.000000 
#    z 0.026490 0.000000 1.761490 
# 
# From -- ./inp_files/17983.got.cif
#   From: 2010.06.25/outbox.cif.g09.slc.cpg/sg13_9_cif.got.tgz:17983.got - 2010.06.28 04:50:58.
