data_PCOD8119847
_publ_section_title
;
Structure prediction by ZEFSAII (Michael W. Deem and Ramdas Pophale) SiO2 
 PCOD8119847
Probable space group: P 2/C
;
_chemical_formula_sum "Si O2"
_cell_formula_units_Z 28
_cell_length_a 13.085043
_cell_length_b 9.601608
_cell_length_c 14.511348
_cell_angle_alpha 90.000000
_cell_angle_beta 60.872187
_cell_angle_gamma 90.000000
_cell_volume 1592.603661
_symmetry_space_group_name_H-M "P 2/C"
_symmetry_group_IT_number 13
_symmetry_cell_setting 'monoclinic'
loop_
_space_group_symop_operation_xyz
x,y,z
-x,y,1/2-z
-x,-y,-z
x,-y,1/2+z
loop_
_atom_site_type_symbol
_atom_site_label
_atom_site_fract_x
_atom_site_fract_y
_atom_site_fract_z
Si Si1 0.362014 0.157407 0.808520
Si Si2 0.975719 0.117720 0.083120
Si Si3 0.224528 0.186179 0.054982
Si Si4 0.969221 0.637566 0.460557
Si Si5 0.200410 0.302008 0.758610
Si Si6 0.230487 0.004350 0.717979
Si Si7 0.130191 0.524832 0.655945
O O1 0.500000 0.161143 0.750000
O O2 0.311616 0.295828 0.779254
O O3 0.318428 0.021573 0.768004
O O4 0.314641 0.159791 0.933023
O O5 0.095102 0.145546 0.083419
O O6 0.886132 0.072649 0.199760
O O7 0.919338 0.252352 0.056345
O O8 0.000000 0.000000 0.000000
O O9 0.212580 0.347520 0.090721
O O10 0.278140 0.090610 0.113632
O O11 0.879728 0.591413 0.420041
O O12 0.000000 0.500000 0.500000
O O13 0.083624 0.711508 0.370148
O O14 0.201987 0.161786 0.693999
O O15 0.202884 0.446424 0.703350
O O16 0.000000 0.569248 0.750000
#
# Coordination Sequence:
#
# PCOD8119847 Si02
#       7
#     4   4   4   4   4   4   4
#     4  10  22  43  62  79 112 156 199 247 298 336
#     4  12  19  33  56  88 123 149 189 228 288 351
#     4  12  22  38  58  89 117 153 190 236 295 350
#     4  11  19  32  54  84 124 157 182 219 290 356
#     4   9  20  38  51  84 114 153 189 235 287 337
#     4  10  23  36  59  88 115 150 192 242 287 349
#     4  10  21  33  56  87 123 152 183 229 290 362
#
# _framework density 17.581271999999998
#
# number of rings (size 3 to 8) (size 9 to 14) (size 15 to 20)
#    0.857    0.571    5.714    1.286    4.000    1.714 
#    0.000    0.714    0.000    0.857    0.000    0.000 
#    0.000    0.000    0.000    0.000    0.000    0.000 
#
# Total GULP energy -346894.613643 kJ/mol
# GULP energy per Si atom -12389.093344 kJ/mol
# Density = 1.754126 g / cm^3
# Si number density = 17.581272 Si / 1000 Ang^3
#
#
#
# Elastic Constant Matrix: (Units=GPa)
#
#
# Indices 1 2 3 4 5 6 
#
# 1 76.9182 39.3957 55.7483 0.0000 -4.1995 0.0000
# 2 39.3957 107.3981 48.2926 0.0000 6.7684 0.0000
# 3 55.7483 48.2926 110.8289 0.0000 7.9462 0.0000
# 4 0.0000 0.0000 0.0000 29.9079 0.0000 18.4228
# 5 -4.1995 6.7684 7.9462 0.0000 22.3058 0.0000
# 6 0.0000 0.0000 0.0000 18.4228 0.0000 24.3249
#
#
#
# Elastic Compliance Matrix: (Units=1/GPa)
#
#
# Indices 1 2 3 4 5 6 
#
# 1 0.023435 -0.004463 -0.010526 0.000000 0.009516 0.000000
# 2 -0.004463 0.012498 -0.002944 0.000000 -0.003584 0.000000
# 3 -0.010526 -0.002944 0.016089 0.000000 -0.006820 0.000000
# 4 0.000000 0.000000 0.000000 0.062676 0.000000 -0.047468
# 5 0.009516 -0.003584 -0.006820 0.000000 0.050140 0.000000
# 6 0.000000 0.000000 0.000000 -0.047468 0.000000 0.077061
#
#
# Mechanical properties :
#
#
# Convention : Reuss Voigt Hill
#
# Bulk Modulus (GPa) = 61.89333 64.66868 63.28101
# Shear Modulus (GPa) = 17.65853 25.42163 21.54008
#
# Velocity S-wave (km/s) = 3.17266 3.80669 3.50404
# Velocity P-wave (km/s) = 6.97865 7.49558 7.24173
#
# Compressibility (1/GPa) = 0.01615683
#
# Stress axis : x y z
#
# Youngs Moduli (GPa) = 42.67129 80.01319 62.15377
#
# Poissons Ratio (x) = 0.35711 0.65420
# Poissons Ratio (y) = 0.19045 0.18297
# Poissons Ratio (z) = 0.44914 0.23555
#
# Static dielectric constant tensor:
#      x y z
#    x 2.937880 0.000000 0.252080 
#    y 0.000000 2.770230 0.000000 
#    z 0.252080 0.000000 3.284900 
# 
# 
# High freq. dielectric constant tensor:
#      x y z
#    x 1.643240 0.000000 0.030340 
#    y 0.000000 1.684140 0.000000 
#    z 0.030340 0.000000 1.680130 
# 
# From -- ./inp_files/52740.got.cif
#   From: 2010.06.25/outbox.cif.g09.slc.cpg/sg13_27_cif.got.tgz:52740.got - 2010.06.28 04:50:58.
