data_PCOD8119649
_publ_section_title
;
Structure prediction by ZEFSAII (Michael W. Deem and Ramdas Pophale) SiO2 
 PCOD8119649
Probable space group: P 2/C
;
_chemical_formula_sum "Si O2"
_cell_formula_units_Z 26
_cell_length_a 15.969876
_cell_length_b 8.486585
_cell_length_c 9.742039
_cell_angle_alpha 90.000000
_cell_angle_beta 91.554196
_cell_angle_gamma 90.000000
_cell_volume 1319.849993
_symmetry_space_group_name_H-M "P 2/C"
_symmetry_group_IT_number 13
_symmetry_cell_setting 'monoclinic'
loop_
_space_group_symop_operation_xyz
x,y,z
-x,y,1/2-z
-x,-y,-z
x,-y,1/2+z
loop_
_atom_site_type_symbol
_atom_site_label
_atom_site_fract_x
_atom_site_fract_y
_atom_site_fract_z
Si Si1 0.913814 0.177797 0.471924
Si Si2 0.614172 0.325160 0.255195
Si Si3 0.895178 0.172693 0.004748
Si Si4 0.500000 0.383711 0.750000
Si Si5 0.189602 0.667726 0.760584
Si Si6 0.905822 0.636918 0.239294
Si Si7 0.499251 0.185327 0.472741
O O1 0.859955 0.297945 0.380975
O O2 0.904416 0.220927 0.631020
O O3 0.010831 0.188736 0.431823
O O4 0.879359 0.002258 0.447242
O O5 0.581681 0.504961 0.252023
O O6 0.713037 0.329542 0.265900
O O7 0.580937 0.234906 0.388972
O O8 0.583176 0.233733 0.117452
O O9 0.876978 0.296189 0.883899
O O10 0.830607 0.203998 0.124449
O O11 0.499079 0.274690 0.616766
O O12 0.158935 0.497040 0.810893
O O13 0.000000 0.566246 0.250000
O O14 0.500000 0.000000 0.500000
#
# Coordination Sequence:
#
# PCOD8119649 Si02
#       7
#     4   4   4   2   4   4   4
#     4  10  21  38  58  80 112 156 200 240 284 330
#     4  10  23  39  58  89 120 148 181 225 287 345
#     4  10  21  38  58  80 112 156 200 240 284 330
#     4  10  20  40  66  84 112 152 186 222 276 346
#     4  12  23  36  57  86 119 150 187 235 285 337
#     4  10  21  36  56  82 112 153 202 242 278 326
#     4  10  21  42  67  88 110 144 188 230 275 336
#
# _framework density 19.699207000000001
#
# number of rings (size 3 to 8) (size 9 to 14) (size 15 to 20)
#    0.000    1.846    0.000    6.000    0.000   11.077 
#    0.000    3.077    0.000    0.000    0.000    0.000 
#    0.000    0.000    0.000    0.000    0.000    0.000 
#
# Total GULP energy -322491.723446 kJ/mol
# GULP energy per Si atom -12403.527825 kJ/mol
# Density = 1.965437 g / cm^3
# Si number density = 19.699207 Si / 1000 Ang^3
#
#
#
# Elastic Constant Matrix: (Units=GPa)
#
#
# Indices 1 2 3 4 5 6 
#
# 1 104.1664 35.2905 30.0608 0.0000 -10.8853 0.0000
# 2 35.2905 127.9044 41.6364 0.0000 -3.6686 0.0000
# 3 30.0608 41.6364 116.7636 0.0000 -7.1196 0.0000
# 4 0.0000 0.0000 0.0000 31.4372 0.0000 -3.6160
# 5 -10.8853 -3.6686 -7.1196 0.0000 14.5906 0.0000
# 6 0.0000 0.0000 0.0000 -3.6160 0.0000 7.9171
#
#
#
# Elastic Compliance Matrix: (Units=1/GPa)
#
#
# Indices 1 2 3 4 5 6 
#
# 1 0.011682 -0.002466 -0.001685 0.000000 0.007273 0.000000
# 2 -0.002466 0.009373 -0.002758 0.000000 -0.000829 0.000000
# 3 -0.001685 -0.002758 0.010165 0.000000 0.003010 0.000000
# 4 0.000000 0.000000 0.000000 0.033573 0.000000 0.015334
# 5 0.007273 -0.000829 0.003010 0.000000 0.075224 0.000000
# 6 0.000000 0.000000 0.000000 0.015334 0.000000 0.133312
#
#
# Mechanical properties :
#
#
# Convention : Reuss Voigt Hill
#
# Bulk Modulus (GPa) = 57.46382 62.53444 59.99913
# Shear Modulus (GPa) = 17.06798 26.91210 21.99004
#
# Velocity S-wave (km/s) = 2.94671 3.70016 3.34472
# Velocity P-wave (km/s) = 6.38838 7.07591 6.74092
#
# Compressibility (1/GPa) = 0.01740225
#
# Stress axis : x y z
#
# Youngs Moduli (GPa) = 85.60393 106.69219 98.37733
#
# Poissons Ratio (x) = 0.26312 0.16573
# Poissons Ratio (y) = 0.21111 0.27131
# Poissons Ratio (z) = 0.14421 0.29424
#
# Static dielectric constant tensor:
#      x y z
#    x 3.341490 0.000000 -0.033700 
#    y 0.000000 3.610760 0.000000 
#    z -0.033700 0.000000 3.608750 
# 
# 
# High freq. dielectric constant tensor:
#      x y z
#    x 1.742090 0.000000 -0.005090 
#    y 0.000000 1.778420 0.000000 
#    z -0.005090 0.000000 1.782240 
# 
# From -- ./inp_files/21161.got.cif
#   From: 2010.06.25/outbox.cif.g09.slc.cpg/sg13_11_cif.got.tgz:21161.got - 2010.06.28 04:50:58.
