data_PCOD8119736
_publ_section_title
;
Structure prediction by ZEFSAII (Michael W. Deem and Ramdas Pophale) SiO2 
 PCOD8119736
Probable space group: P 2/C
;
_chemical_formula_sum "Si O2"
_cell_formula_units_Z 20
_cell_length_a 8.269017
_cell_length_b 7.521699
_cell_length_c 18.186137
_cell_angle_alpha 90.000000
_cell_angle_beta 47.632618
_cell_angle_gamma 90.000000
_cell_volume 835.718779
_symmetry_space_group_name_H-M "P 2/C"
_symmetry_group_IT_number 13
_symmetry_cell_setting 'monoclinic'
loop_
_space_group_symop_operation_xyz
x,y,z
-x,y,1/2-z
-x,-y,-z
x,-y,1/2+z
loop_
_atom_site_type_symbol
_atom_site_label
_atom_site_fract_x
_atom_site_fract_y
_atom_site_fract_z
Si Si1 0.318881 0.474170 0.149217
Si Si2 0.497099 0.123201 0.335819
Si Si3 0.786538 0.417509 0.474278
Si Si4 0.702206 0.770082 0.236999
Si Si5 0.960355 0.770696 0.488333
O O1 0.383356 0.280408 0.158090
O O2 0.155423 0.437482 0.130410
O O3 0.205671 0.602725 0.244487
O O4 0.523873 0.595944 0.060639
O O5 0.500000 0.176105 0.250000
O O6 0.242490 0.093617 0.438267
O O7 0.374020 0.938105 0.190154
O O8 0.903954 0.248225 0.476332
O O9 0.855100 0.583926 0.501362
O O10 0.500000 0.697921 0.250000
O O11 0.890627 0.838734 0.124361
#
# Coordination Sequence:
#
# PCOD8119736 Si02
#       5
#     4   4   4   4   4
#     4  10  20  41  67  94 130 174 212 271 336 375
#     4  10  24  41  66  94 129 172 221 271 322 393
#     4   9  20  38  69  94 128 173 218 269 328 392
#     4  11  22  40  68  95 133 172 218 272 322 391
#     4  10  21  42  66  98 127 174 222 266 326 395
#
# _framework density 23.931495000000002
#
# number of rings (size 3 to 8) (size 9 to 14) (size 15 to 20)
#    0.000    2.000    2.000    0.600    5.600    4.000 
#    0.000    9.000    8.800    0.000    0.000    0.000 
#    0.000    0.000    0.000    0.000    0.000    0.000 
#
# Total GULP energy -247885.581872 kJ/mol
# GULP energy per Si atom -12394.279094 kJ/mol
# Density = 2.387703 g / cm^3
# Si number density = 23.931495 Si / 1000 Ang^3
#
#
#
# Elastic Constant Matrix: (Units=GPa)
#
#
# Indices 1 2 3 4 5 6 
#
# 1 97.9650 46.9054 58.8484 0.0000 11.3600 0.0000
# 2 46.9054 110.0816 46.0669 0.0000 7.9975 0.0000
# 3 58.8484 46.0669 132.0745 0.0000 -1.6466 0.0000
# 4 0.0000 0.0000 0.0000 36.1776 0.0000 2.5598
# 5 11.3600 7.9975 -1.6466 0.0000 50.5868 0.0000
# 6 0.0000 0.0000 0.0000 2.5598 0.0000 -1.3417
#
#
#
# Elastic Compliance Matrix: (Units=1/GPa)
#
#
# Indices 1 2 3 4 5 6 
#
# 1 0.016011 -0.004208 -0.005705 0.000000 -0.003116 0.000000
# 2 -0.004208 0.011910 -0.002292 0.000000 -0.001012 0.000000
# 3 -0.005705 -0.002292 0.010938 0.000000 0.001999 0.000000
# 4 0.000000 0.000000 0.000000 0.024354 0.000000 0.046462
# 5 -0.003116 -0.001012 0.001999 0.000000 0.020693 0.000000
# 6 0.000000 0.000000 0.000000 0.046462 0.000000 -0.656657
#
#
# Mechanical properties :
#
#
# Convention : Reuss Voigt Hill
#
# Bulk Modulus (GPa) = 69.21095 71.52917 70.37006
# Shear Modulus (GPa) = -9.19920 29.63788 10.21934
#
# Velocity S-wave (km/s) = -1.96273 3.52298 2.06870
# Velocity P-wave (km/s) = 4.88332 6.81927 5.93082
#
# Compressibility (1/GPa) = 0.01444858
#
# Stress axis : x y z
#
# Youngs Moduli (GPa) = 62.45661 83.96365 91.42694
#
# Poissons Ratio (x) = 0.35336 0.52159
# Poissons Ratio (y) = 0.26285 0.20951
# Poissons Ratio (z) = 0.35632 0.19241
#
# Static dielectric constant tensor:
#      x y z
#    x 4.432560 0.000000 -0.102660 
#    y 0.000000 4.007020 0.000000 
#    z -0.102660 0.000000 4.493630 
# 
# 
# High freq. dielectric constant tensor:
#      x y z
#    x 1.939730 0.000000 -0.009170 
#    y 0.000000 1.938280 0.000000 
#    z -0.009170 0.000000 1.955350 
# 
# From -- ./inp_files/63217.got.cif
#   From: 2010.06.25/outbox.cif.g09.slc.cpg/sg13_32_cif.got.tgz:63217.got - 2010.06.28 04:50:58.
