data_PCOD8119920
_publ_section_title
;
Structure prediction by ZEFSAII (Michael W. Deem and Ramdas Pophale) SiO2 
 PCOD8119920
Probable space group: P 2/C
;
_chemical_formula_sum "Si O2"
_cell_formula_units_Z 22
_cell_length_a 7.806095
_cell_length_b 5.500212
_cell_length_c 24.103272
_cell_angle_alpha 90.000000
_cell_angle_beta 60.608877
_cell_angle_gamma 90.000000
_cell_volume 901.678931
_symmetry_space_group_name_H-M "P 2/C"
_symmetry_group_IT_number 13
_symmetry_cell_setting 'monoclinic'
loop_
_space_group_symop_operation_xyz
x,y,z
-x,y,1/2-z
-x,-y,-z
x,-y,1/2+z
loop_
_atom_site_type_symbol
_atom_site_label
_atom_site_fract_x
_atom_site_fract_y
_atom_site_fract_z
Si Si1 0.799011 0.386872 0.933119
Si Si2 0.662546 0.336048 0.175703
Si Si3 0.476040 0.347858 0.426801
Si Si4 0.148034 0.121879 0.115231
Si Si5 0.730794 0.168846 0.704839
Si Si6 0.000000 0.009685 0.750000
O O1 0.606839 0.413968 0.923074
O O2 0.926131 0.640436 0.908615
O O3 0.923356 0.147433 0.894161
O O4 0.730526 0.346638 0.007497
O O5 0.500000 0.338811 0.250000
O O6 0.561819 0.333222 0.132253
O O7 0.785088 0.588659 0.161458
O O8 0.797060 0.089645 0.163390
O O9 0.611860 0.119108 0.424238
O O10 0.091661 0.163361 0.188537
O O11 0.500000 0.147522 0.750000
O O12 0.835086 0.182753 0.748139
#
# Coordination Sequence:
#
# PCOD8119920 Si02
#       6
#     4   4   4   4   4   2
#     4   9  21  34  61  96 123 169 224 256 312 386
#     4  10  21  35  60  89 127 157 206 265 318 373
#     4   9  20  36  65  90 129 168 216 266 313 377
#     4  10  21  35  58  95 123 165 217 258 318 378
#     4  10  24  40  58  94 122 169 209 252 324 380
#     4  12  26  42  70  90 142 170 204 278 318 390
#
# _framework density 24.398931000000001
#
# number of rings (size 3 to 8) (size 9 to 14) (size 15 to 20)
#    1.091    1.091    0.000    2.727    7.636    2.909 
#    0.000    0.000    0.000    6.545    0.000    0.000 
#    0.000    0.000    0.000    0.000    0.000    0.000 
#
# Total GULP energy -272551.807112 kJ/mol
# GULP energy per Si atom -12388.718505 kJ/mol
# Density = 2.434340 g / cm^3
# Si number density = 24.398931 Si / 1000 Ang^3
#
#
#
# Elastic Constant Matrix: (Units=GPa)
#
#
# Indices 1 2 3 4 5 6 
#
# 1 86.9637 49.7147 1.0931 0.0000 27.6453 0.0000
# 2 49.7147 222.4734 52.9112 0.0000 -10.7628 0.0000
# 3 1.0931 52.9112 117.7933 0.0000 11.4274 0.0000
# 4 0.0000 0.0000 0.0000 30.5599 0.0000 -5.4963
# 5 27.6453 -10.7628 11.4274 0.0000 37.1966 0.0000
# 6 0.0000 0.0000 0.0000 -5.4963 0.0000 8.9993
#
#
#
# Elastic Compliance Matrix: (Units=1/GPa)
#
#
# Indices 1 2 3 4 5 6 
#
# 1 0.021597 -0.006912 0.004799 0.000000 -0.019526 0.000000
# 2 -0.006912 0.007429 -0.004102 0.000000 0.008547 0.000000
# 3 0.004799 -0.004102 0.011079 0.000000 -0.008157 0.000000
# 4 0.000000 0.000000 0.000000 0.036761 0.000000 0.022451
# 5 -0.019526 0.008547 -0.008157 0.000000 0.046375 0.000000
# 6 0.000000 0.000000 0.000000 0.022451 0.000000 0.124831
#
#
# Mechanical properties :
#
#
# Convention : Reuss Voigt Hill
#
# Bulk Modulus (GPa) = 36.13483 70.51870 53.32676
# Shear Modulus (GPa) = 18.53725 36.91859 27.72792
#
# Velocity S-wave (km/s) = 2.75936 3.89411 3.37477
# Velocity P-wave (km/s) = 4.99942 7.01312 6.09008
#
# Compressibility (1/GPa) = 0.02767413
#
# Stress axis : x y z
#
# Youngs Moduli (GPa) = 46.30184 134.61578 90.26318
#
# Poissons Ratio (x) = 0.93048 -0.43314
# Poissons Ratio (y) = 0.32004 0.37024
# Poissons Ratio (z) = -0.22219 0.55217
#
# Static dielectric constant tensor:
#      x y z
#    x 4.399990 0.000000 -0.248830 
#    y 0.000000 5.305290 0.000000 
#    z -0.248830 0.000000 4.185450 
# 
# 
# High freq. dielectric constant tensor:
#      x y z
#    x 1.975080 0.000000 -0.032930 
#    y 0.000000 1.979400 0.000000 
#    z -0.032930 0.000000 1.959510 
# 
# From -- ./inp_files/84279.got.cif
#   From: 2010.06.25/outbox.cif.g09.slc.cpg/sg13_43_cif.got.tgz:84279.got - 2010.06.28 04:50:58.
