data_PCOD8119996
_publ_section_title
;
Structure prediction by ZEFSAII (Michael W. Deem and Ramdas Pophale) SiO2 
 PCOD8119996
Probable space group: P 2/C
;
_chemical_formula_sum "Si O2"
_cell_formula_units_Z 30
_cell_length_a 21.650422
_cell_length_b 6.569946
_cell_length_c 19.250503
_cell_angle_alpha 90.000000
_cell_angle_beta 30.679446
_cell_angle_gamma 90.000000
_cell_volume 1397.140252
_symmetry_space_group_name_H-M "P 2/C"
_symmetry_group_IT_number 13
_symmetry_cell_setting 'monoclinic'
loop_
_space_group_symop_operation_xyz
x,y,z
-x,y,1/2-z
-x,-y,-z
x,-y,1/2+z
loop_
_atom_site_type_symbol
_atom_site_label
_atom_site_fract_x
_atom_site_fract_y
_atom_site_fract_z
Si Si1 0.664857 0.542269 0.266451
Si Si2 0.793399 0.070540 0.677844
Si Si3 0.450958 0.386243 0.885537
Si Si4 0.293869 0.732413 0.984861
Si Si5 0.123293 0.333148 0.779510
Si Si6 0.274540 0.690145 0.668805
Si Si7 0.500000 0.040302 0.750000
Si Si8 0.144868 0.258397 0.489418
O O1 0.689480 0.784216 0.246690
O O2 0.546253 0.480716 0.337484
O O3 0.642317 0.460997 0.365724
O O4 0.783128 0.426379 0.123630
O O5 0.880207 0.203605 0.644805
O O6 0.738528 0.903507 0.781543
O O7 0.854506 0.959096 0.552144
O O8 0.380727 0.531632 0.898003
O O9 0.534062 0.202741 0.776800
O O10 0.346982 0.272589 0.028812
O O11 0.382741 0.920188 0.887247
O O12 0.225164 0.745804 0.125699
O O13 0.197439 0.744948 0.016209
O O14 0.149089 0.570048 0.773604
O O15 0.993605 0.325743 0.868763
#
# Coordination Sequence:
#
# PCOD8119996 Si02
#       8
#     4   4   4   4   4   4   2   4
#     4  10  21  36  58  87 116 151 193 241 299 356
#     4  10  21  38  61  92 122 153 200 250 300 354
#     4  11  22  39  59  84 120 154 195 246 296 356
#     4  11  24  41  60  86 120 160 203 246 299 360
#     4  10  22  40  61  86 120 160 201 248 299 355
#     4   9  21  38  59  87 116 152 194 241 298 357
#     4  12  22  36  60  82 110 150 194 242 296 350
#     4  11  22  38  60  87 120 159 203 249 299 354
#
# _framework density 21.472429999999999
#
# number of rings (size 3 to 8) (size 9 to 14) (size 15 to 20)
#    0.000    1.600    0.000    4.800    0.000    7.467 
#    0.000    0.000    0.000    4.800    0.000    0.000 
#    0.000    0.000    0.000    0.000    0.000    0.000 
#
# Total GULP energy -371690.159879 kJ/mol
# GULP energy per Si atom -12389.671996 kJ/mol
# Density = 2.142356 g / cm^3
# Si number density = 21.472430 Si / 1000 Ang^3
#
#
#
# Elastic Constant Matrix: (Units=GPa)
#
#
# Indices 1 2 3 4 5 6 
#
# 1 129.0673 28.2102 30.5127 0.0000 -12.5210 0.0000
# 2 28.2102 100.8065 31.8767 0.0000 -2.1732 0.0000
# 3 30.5127 31.8767 63.1379 0.0000 -8.7111 0.0000
# 4 0.0000 0.0000 0.0000 27.4224 0.0000 8.1888
# 5 -12.5210 -2.1732 -8.7111 0.0000 37.8824 0.0000
# 6 0.0000 0.0000 0.0000 8.1888 0.0000 25.9941
#
#
#
# Elastic Compliance Matrix: (Units=1/GPa)
#
#
# Indices 1 2 3 4 5 6 
#
# 1 0.009063 -0.001426 -0.003364 0.000000 0.002140 0.000000
# 2 -0.001426 0.012048 -0.005539 0.000000 -0.001054 0.000000
# 3 -0.003364 -0.005539 0.020721 0.000000 0.003335 0.000000
# 4 0.000000 0.000000 0.000000 0.040253 0.000000 -0.012681
# 5 0.002140 -0.001054 0.003335 0.000000 0.027811 0.000000
# 6 0.000000 0.000000 0.000000 -0.012681 0.000000 0.042465
#
#
# Mechanical properties :
#
#
# Convention : Reuss Voigt Hill
#
# Bulk Modulus (GPa) = 47.23112 52.69008 49.96060
# Shear Modulus (GPa) = 27.76591 31.75393 29.75992
#
# Velocity S-wave (km/s) = 3.59987 3.84972 3.72689
# Velocity P-wave (km/s) = 6.27078 6.65974 6.46818
#
# Compressibility (1/GPa) = 0.02117248
#
# Stress axis : x y z
#
# Youngs Moduli (GPa) = 110.34388 83.00246 48.26063
#
# Poissons Ratio (x) = 0.11837 0.16237
# Poissons Ratio (y) = 0.15736 0.26731
# Poissons Ratio (z) = 0.37125 0.45974
#
# Static dielectric constant tensor:
#      x y z
#    x 4.025680 0.000000 0.224090 
#    y 0.000000 3.911600 0.000000 
#    z 0.224090 0.000000 3.781840 
# 
# 
# High freq. dielectric constant tensor:
#      x y z
#    x 1.851120 0.000000 0.012830 
#    y 0.000000 1.842900 0.000000 
#    z 0.012830 0.000000 1.837410 
# 
# From -- ./inp_files/81984.got.cif
#   From: 2010.06.25/outbox.cif.g09.slc.cpg/sg13_41_cif.got.tgz:81984.got - 2010.06.28 04:50:58.
