data_PCOD8119154
_publ_section_title
;
Structure prediction by ZEFSAII (Michael W. Deem and Ramdas Pophale) SiO2 
 PCOD8119154
Probable space group: P 2/C
;
_chemical_formula_sum "Si O2"
_cell_formula_units_Z 28
_cell_length_a 9.758005
_cell_length_b 8.725805
_cell_length_c 28.610853
_cell_angle_alpha 90.000000
_cell_angle_beta 144.412618
_cell_angle_gamma 90.000000
_cell_volume 1417.680804
_symmetry_space_group_name_H-M "P 2/C"
_symmetry_group_IT_number 13
_symmetry_cell_setting 'monoclinic'
loop_
_space_group_symop_operation_xyz
x,y,z
-x,y,1/2-z
-x,-y,-z
x,-y,1/2+z
loop_
_atom_site_type_symbol
_atom_site_label
_atom_site_fract_x
_atom_site_fract_y
_atom_site_fract_z
Si Si1 0.485331 0.256352 0.057125
Si Si2 0.977362 0.913800 0.085220
Si Si3 0.853223 0.531847 0.523598
Si Si4 0.226149 0.700982 0.089039
Si Si5 0.221603 0.874508 0.780990
Si Si6 0.635258 0.140524 0.742466
Si Si7 0.067593 0.767027 0.881193
O O1 0.595931 0.224567 0.138567
O O2 0.672703 0.230714 0.068475
O O3 0.292240 0.131075 0.991190
O O4 0.372311 0.425565 0.028076
O O5 0.103012 0.862328 0.070984
O O6 0.103962 0.823711 0.164316
O O7 0.985109 0.094597 0.097306
O O8 0.772648 0.669054 0.466069
O O9 0.951092 0.607745 0.597423
O O10 0.079156 0.438730 0.569300
O O11 0.494777 0.709830 0.183832
O O12 0.000000 0.933253 0.750000
O O13 0.128387 0.766392 0.713560
O O14 0.354982 0.021693 0.797507
O O15 0.500000 0.067502 0.750000
#
# Coordination Sequence:
#
# PCOD8119154 Si02
#       7
#     4   4   4   4   4   4   4
#     4  10  20  38  58  86 119 150 192 243 289 351
#     4   9  19  36  60  85 112 146 196 243 290 337
#     4  10  21  38  56  87 115 157 194 231 294 357
#     4   9  20  39  56  81 123 146 191 241 288 348
#     4   9  20  38  59  86 120 148 193 244 296 342
#     4   9  18  38  58  85 114 149 195 241 290 341
#     4  10  20  37  62  85 112 154 199 238 291 348
#
# _framework density 19.750568999999999
#
# number of rings (size 3 to 8) (size 9 to 14) (size 15 to 20)
#    0.000    2.571    0.000    0.857    2.000    0.571 
#   30.857    0.000    0.000    0.000    0.000    0.000 
#    0.000    0.000    0.000    0.000    0.000    0.000 
#
# Total GULP energy -346935.885598 kJ/mol
# GULP energy per Si atom -12390.567343 kJ/mol
# Density = 1.970562 g / cm^3
# Si number density = 19.750569 Si / 1000 Ang^3
#
#
#
# Elastic Constant Matrix: (Units=GPa)
#
#
# Indices 1 2 3 4 5 6 
#
# 1 55.9521 32.9828 30.1464 0.0000 -8.9347 0.0000
# 2 32.9828 82.4797 56.1490 0.0000 -10.1256 0.0000
# 3 30.1464 56.1490 123.6749 0.0000 6.7164 0.0000
# 4 0.0000 0.0000 0.0000 33.2261 0.0000 -4.4622
# 5 -8.9347 -10.1256 6.7164 0.0000 26.6848 0.0000
# 6 0.0000 0.0000 0.0000 -4.4622 0.0000 27.5261
#
#
#
# Elastic Compliance Matrix: (Units=1/GPa)
#
#
# Indices 1 2 3 4 5 6 
#
# 1 0.024712 -0.006868 -0.003258 0.000000 0.006488 0.000000
# 2 -0.006868 0.021753 -0.008643 0.000000 0.008130 0.000000
# 3 -0.003258 -0.008643 0.013222 0.000000 -0.007699 0.000000
# 4 0.000000 0.000000 0.000000 0.030767 0.000000 0.004987
# 5 0.006488 0.008130 -0.007699 0.000000 0.044670 0.000000
# 6 0.000000 0.000000 0.000000 0.004987 0.000000 0.037138
#
#
# Mechanical properties :
#
#
# Convention : Reuss Voigt Hill
#
# Bulk Modulus (GPa) = 45.14907 55.62924 50.38916
# Shear Modulus (GPa) = 23.02214 27.00930 25.01572
#
# Velocity S-wave (km/s) = 3.41786 3.70201 3.56277
# Velocity P-wave (km/s) = 6.20362 6.81911 6.51863
#
# Compressibility (1/GPa) = 0.02214885
#
# Stress axis : x y z
#
# Youngs Moduli (GPa) = 40.46554 45.97152 75.63094
#
# Poissons Ratio (x) = 0.31572 0.24642
# Poissons Ratio (y) = 0.27790 0.65370
# Poissons Ratio (z) = 0.13184 0.39735
#
# Static dielectric constant tensor:
#      x y z
#    x 3.673820 0.000000 -0.033050 
#    y 0.000000 3.362310 0.000000 
#    z -0.033050 0.000000 3.912770 
# 
# 
# High freq. dielectric constant tensor:
#      x y z
#    x 1.768190 0.000000 -0.000660 
#    y 0.000000 1.741650 0.000000 
#    z -0.000660 0.000000 1.786360 
# 
# From -- ./inp_files/91489.got.cif
#   From: 2010.06.25/outbox.cif.g09.slc.cpg/sg13_46_cif.got.tgz:91489.got - 2010.06.28 04:50:58.
