data_PCOD8119608
_publ_section_title
;
Structure prediction by ZEFSAII (Michael W. Deem and Ramdas Pophale) SiO2 
 PCOD8119608
Probable space group: P 2/C
;
_chemical_formula_sum "Si O2"
_cell_formula_units_Z 18
_cell_length_a 11.374688
_cell_length_b 10.514810
_cell_length_c 12.383604
_cell_angle_alpha 90.000000
_cell_angle_beta 37.621428
_cell_angle_gamma 90.000000
_cell_volume 904.132288
_symmetry_space_group_name_H-M "P 2/C"
_symmetry_group_IT_number 13
_symmetry_cell_setting 'monoclinic'
loop_
_space_group_symop_operation_xyz
x,y,z
-x,y,1/2-z
-x,-y,-z
x,-y,1/2+z
loop_
_atom_site_type_symbol
_atom_site_label
_atom_site_fract_x
_atom_site_fract_y
_atom_site_fract_z
Si Si1 0.000000 0.193242 0.750000
Si Si2 0.904914 0.619190 0.705523
Si Si3 0.182702 0.651268 0.311648
Si Si4 0.379232 0.942149 0.939242
Si Si5 0.557051 0.200702 0.511269
O O1 0.077901 0.279583 0.789509
O O2 0.160504 0.101632 0.582603
O O3 0.802152 0.497541 0.727052
O O4 0.000000 0.581301 0.750000
O O5 0.067094 0.673276 0.506703
O O6 0.746519 0.726536 0.836751
O O7 0.398142 0.702971 0.174912
O O8 0.500000 0.894801 0.750000
O O9 0.384695 0.095288 0.942839
O O10 0.468511 0.873428 0.976151
#
# Coordination Sequence:
#
# PCOD8119608 Si02
#       5
#     2   4   4   4   4
#     4  10  20  40  62  82 120 156 192 234 284 348
#     4  11  23  38  62  89 116 152 193 238 292 343
#     4  10  22  41  60  86 119 152 191 239 291 344
#     4  10  22  38  60  86 117 156 192 234 288 339
#     4  10  23  39  58  89 118 150 195 238 285 343
#
# _framework density 19.908591000000001
#
# number of rings (size 3 to 8) (size 9 to 14) (size 15 to 20)
#    0.000    1.778    1.111    2.000    4.667    0.000 
#    0.000    6.667    0.000    0.000    0.000    0.000 
#    0.000    0.000    0.000    0.000    0.000    0.000 
#
# Total GULP energy -223260.759259 kJ/mol
# GULP energy per Si atom -12403.375514 kJ/mol
# Density = 1.986328 g / cm^3
# Si number density = 19.908591 Si / 1000 Ang^3
#
#
#
# Elastic Constant Matrix: (Units=GPa)
#
#
# Indices 1 2 3 4 5 6 
#
# 1 18.6938 -0.3135 13.8264 0.0000 2.2745 0.0000
# 2 -0.3135 84.4872 43.1196 0.0000 -9.8595 0.0000
# 3 13.8264 43.1196 154.1143 0.0000 2.1355 0.0000
# 4 0.0000 0.0000 0.0000 34.2864 0.0000 -25.1018
# 5 2.2745 -9.8595 2.1355 0.0000 29.4232 0.0000
# 6 0.0000 0.0000 0.0000 -25.1018 0.0000 1.6718
#
#
#
# Elastic Compliance Matrix: (Units=1/GPa)
#
#
# Indices 1 2 3 4 5 6 
#
# 1 0.058366 0.002923 -0.006011 0.000000 -0.003096 0.000000
# 2 0.002923 0.014702 -0.004445 0.000000 0.005023 0.000000
# 3 -0.006011 -0.004445 0.008294 0.000000 -0.001627 0.000000
# 4 0.000000 0.000000 0.000000 -0.002919 0.000000 -0.043824
# 5 -0.003096 0.005023 -0.001627 0.000000 0.036027 0.000000
# 6 0.000000 0.000000 0.000000 -0.043824 0.000000 -0.059860
#
#
# Mechanical properties :
#
#
# Convention : Reuss Voigt Hill
#
# Bulk Modulus (GPa) = 15.08408 41.17335 28.12871
# Shear Modulus (GPa) = 54.48058 26.45380 40.46719
#
# Velocity S-wave (km/s) = 5.23687 3.64917 4.51338
# Velocity P-wave (km/s) = 6.64526 6.20334 6.42810
#
# Compressibility (1/GPa) = 0.06629508
#
# Stress axis : x y z
#
# Youngs Moduli (GPa) = 17.13340 68.01847 120.56501
#
# Poissons Ratio (x) = -0.19883 0.72475
# Poissons Ratio (y) = -0.05009 0.53595
# Poissons Ratio (z) = 0.10299 0.30236
#
# Static dielectric constant tensor:
#      x y z
#    x 3.644640 0.000000 0.203400 
#    y 0.000000 3.762210 0.000000 
#    z 0.203400 0.000000 4.394260 
# 
# 
# High freq. dielectric constant tensor:
#      x y z
#    x 1.772110 0.000000 0.001080 
#    y 0.000000 1.786290 0.000000 
#    z 0.001080 0.000000 1.790690 
# 
# From -- ./inp_files/25712.got.cif
#   From: 2010.06.25/outbox.cif.g09.slc.cpg/sg13_13_cif.got.tgz:25712.got - 2010.06.28 04:50:58.
