data_PCOD8119867
_publ_section_title
;
Structure prediction by ZEFSAII (Michael W. Deem and Ramdas Pophale) SiO2 
 PCOD8119867
Probable space group: P 2/C
;
_chemical_formula_sum "Si O2"
_cell_formula_units_Z 32
_cell_length_a 14.101610
_cell_length_b 8.893677
_cell_length_c 25.194382
_cell_angle_alpha 90.000000
_cell_angle_beta 150.096548
_cell_angle_gamma 90.000000
_cell_volume 1575.265436
_symmetry_space_group_name_H-M "P 2/C"
_symmetry_group_IT_number 13
_symmetry_cell_setting 'monoclinic'
loop_
_space_group_symop_operation_xyz
x,y,z
-x,y,1/2-z
-x,-y,-z
x,-y,1/2+z
loop_
_atom_site_type_symbol
_atom_site_label
_atom_site_fract_x
_atom_site_fract_y
_atom_site_fract_z
Si Si1 0.983189 0.205045 0.303876
Si Si2 0.344195 0.062813 0.291776
Si Si3 0.357832 0.463688 0.118414
Si Si4 0.773122 0.008242 0.001843
Si Si5 0.694635 0.208431 0.864843
Si Si6 0.987927 0.482294 0.115370
Si Si7 0.266623 0.681079 0.681448
Si Si8 0.890049 0.791977 0.351685
O O1 0.773350 0.151542 0.220112
O O2 0.009853 0.382764 0.330260
O O3 0.000000 0.181836 0.250000
O O4 0.149422 0.107712 0.411911
O O5 0.298250 0.143922 0.212717
O O6 0.565448 0.058138 0.414215
O O7 0.275654 0.891178 0.254806
O O8 0.371268 0.629659 0.147400
O O9 0.570543 0.411813 0.207121
O O10 0.279753 0.345009 0.124852
O O11 0.224315 0.461744 0.002114
O O12 0.782287 0.110257 0.954125
O O13 0.904473 0.864951 0.056189
O O14 0.500000 0.128264 0.750000
O O15 0.853531 0.228356 0.896667
O O16 0.062247 0.376223 0.103082
O O17 0.116166 0.632107 0.181991
#
# Coordination Sequence:
#
# PCOD8119867 Si02
#       8
#     4   4   4   4   4   4   4   4
#     4  10  24  45  69  90 115 161 218 277 325 364
#     4  10  23  41  60  93 129 163 202 258 315 381
#     4  11  20  33  56  87 122 171 203 242 293 363
#     4  11  23  41  62  92 134 169 204 255 314 377
#     4  12  20  35  57  94 132 171 207 238 300 375
#     4  11  21  38  60  82 119 156 214 258 308 363
#     4  10  21  34  54  85 125 162 203 239 289 373
#     4  11  23  36  60  92 128 169 203 249 306 383
#
# _framework density 20.314036000000002
#
# number of rings (size 3 to 8) (size 9 to 14) (size 15 to 20)
#    0.000    1.250    5.000    1.500    0.000    3.500 
#    0.000    2.500    0.000   10.500    0.000    0.000 
#    0.000    0.000    0.000    0.000    0.000    0.000 
#
# Total GULP energy -396817.303619 kJ/mol
# GULP energy per Si atom -12400.540738 kJ/mol
# Density = 2.026780 g / cm^3
# Si number density = 20.314036 Si / 1000 Ang^3
#
#
#
# Elastic Constant Matrix: (Units=GPa)
#
#
# Indices 1 2 3 4 5 6 
#
# 1 70.7724 26.4529 25.9269 0.0000 -8.2823 0.0000
# 2 26.4529 110.4122 22.5808 0.0000 -7.0715 0.0000
# 3 25.9269 22.5808 82.7626 0.0000 10.1848 0.0000
# 4 0.0000 0.0000 0.0000 23.8653 0.0000 3.1925
# 5 -8.2823 -7.0715 10.1848 0.0000 33.3916 0.0000
# 6 0.0000 0.0000 0.0000 3.1925 0.0000 17.1602
#
#
#
# Elastic Compliance Matrix: (Units=1/GPa)
#
#
# Indices 1 2 3 4 5 6 
#
# 1 0.017835 -0.002795 -0.005503 0.000000 0.005510 0.000000
# 2 -0.002795 0.010316 -0.002205 0.000000 0.002164 0.000000
# 3 -0.005503 -0.002205 0.015204 0.000000 -0.006469 0.000000
# 4 0.000000 0.000000 0.000000 0.042971 0.000000 -0.007994
# 5 0.005510 0.002164 -0.006469 0.000000 0.033746 0.000000
# 6 0.000000 0.000000 0.000000 -0.007994 0.000000 0.059762
#
#
# Mechanical properties :
#
#
# Convention : Reuss Voigt Hill
#
# Bulk Modulus (GPa) = 44.74297 45.98538 45.36417
# Shear Modulus (GPa) = 24.00492 27.48253 25.74373
#
# Velocity S-wave (km/s) = 3.44130 3.68215 3.56376
# Velocity P-wave (km/s) = 6.15334 6.38467 6.27007
#
# Compressibility (1/GPa) = 0.02234988
#
# Stress axis : x y z
#
# Youngs Moduli (GPa) = 56.06905 96.93497 65.77006
#
# Poissons Ratio (x) = 0.27090 0.36192
# Poissons Ratio (y) = 0.15670 0.14506
# Poissons Ratio (z) = 0.30854 0.21379
#
# Static dielectric constant tensor:
#      x y z
#    x 3.337950 0.000000 0.320270 
#    y 0.000000 3.876020 0.000000 
#    z 0.320270 0.000000 3.739820 
# 
# 
# High freq. dielectric constant tensor:
#      x y z
#    x 1.747240 0.000000 0.035300 
#    y 0.000000 1.812450 0.000000 
#    z 0.035300 0.000000 1.792140 
# 
# From -- ./inp_files/59518.got.cif
#   From: 2010.06.25/outbox.cif.g09.slc.cpg/sg13_30_cif.got.tgz:59518.got - 2010.06.28 04:50:58.
