data_PCOD8119125
_publ_section_title
;
Structure prediction by ZEFSAII (Michael W. Deem and Ramdas Pophale) SiO2 
 PCOD8119125
Probable space group: P 2/C
;
_chemical_formula_sum "Si O2"
_cell_formula_units_Z 24
_cell_length_a 12.151554
_cell_length_b 12.064439
_cell_length_c 11.229000
_cell_angle_alpha 90.000000
_cell_angle_beta 132.665146
_cell_angle_gamma 90.000000
_cell_volume 1210.488157
_symmetry_space_group_name_H-M "P 2/C"
_symmetry_group_IT_number 13
_symmetry_cell_setting 'monoclinic'
loop_
_space_group_symop_operation_xyz
x,y,z
-x,y,1/2-z
-x,-y,-z
x,-y,1/2+z
loop_
_atom_site_type_symbol
_atom_site_label
_atom_site_fract_x
_atom_site_fract_y
_atom_site_fract_z
Si Si1 0.425586 0.369383 0.570820
Si Si2 0.910445 0.994298 0.559382
Si Si3 0.672481 0.389410 0.558147
Si Si4 0.936785 0.617992 0.426845
Si Si5 0.156717 0.758992 0.932287
Si Si6 0.140456 0.231653 0.942482
O O1 0.500000 0.337688 0.750000
O O2 0.540593 0.351163 0.547902
O O3 0.368593 0.496035 0.536415
O O4 0.291931 0.281329 0.446504
O O5 0.812680 0.881245 0.489138
O O6 0.000000 0.991533 0.750000
O O7 0.811050 0.106344 0.486966
O O8 0.000000 0.000000 0.500000
O O9 0.830882 0.403706 0.737706
O O10 0.707067 0.291632 0.489036
O O11 0.838854 0.667069 0.461295
O O12 0.000000 0.500000 0.500000
O O13 0.075838 0.701096 0.507628
O O14 0.000000 0.755638 0.750000
O O15 0.000000 0.225579 0.750000
#
# Coordination Sequence:
#
# PCOD8119125 Si02
#       6
#     4   4   4   4   4   4
#     4  11  22  39  59  85 123 161 195 241 308 369
#     4  10  20  37  60  90 121 158 201 258 312 354
#     4  10  22  38  56  83 120 164 193 238 307 368
#     4  11  19  32  59  89 119 150 198 250 296 356
#     4  11  22  37  59  91 117 154 205 254 296 358
#     4   9  19  35  57  84 116 153 196 244 298 357
#
# _framework density 19.826711
#
# number of rings (size 3 to 8) (size 9 to 14) (size 15 to 20)
#    0.000    1.667    3.333    2.000    0.000    1.333 
#    0.000    0.833    0.000    1.000    0.000    0.000 
#    0.000    0.000    0.000    0.000    0.000    0.000 
#
# Total GULP energy -297401.561509 kJ/mol
# GULP energy per Si atom -12391.731730 kJ/mol
# Density = 1.978158 g / cm^3
# Si number density = 19.826711 Si / 1000 Ang^3
#
#
#
# Elastic Constant Matrix: (Units=GPa)
#
#
# Indices 1 2 3 4 5 6 
#
# 1 131.4042 72.6193 20.4640 0.0000 10.4770 0.0000
# 2 72.6193 163.0396 12.8763 0.0000 16.3420 0.0000
# 3 20.4640 12.8763 45.7815 0.0000 2.4859 0.0000
# 4 0.0000 0.0000 0.0000 18.2153 0.0000 0.5640
# 5 10.4770 16.3420 2.4859 0.0000 28.8463 0.0000
# 6 0.0000 0.0000 0.0000 0.5640 0.0000 29.5506
#
#
#
# Elastic Compliance Matrix: (Units=1/GPa)
#
#
# Indices 1 2 3 4 5 6 
#
# 1 0.010647 -0.004358 -0.003474 0.000000 -0.001099 0.000000
# 2 -0.004358 0.008411 -0.000246 0.000000 -0.003161 0.000000
# 3 -0.003474 -0.000246 0.023499 0.000000 -0.000624 0.000000
# 4 0.000000 0.000000 0.000000 0.054931 0.000000 -0.001048
# 5 -0.001099 -0.003161 -0.000624 0.000000 0.036910 0.000000
# 6 0.000000 0.000000 0.000000 -0.001048 0.000000 0.033860
#
#
# Mechanical properties :
#
#
# Convention : Reuss Voigt Hill
#
# Bulk Modulus (GPa) = 37.87707 61.34939 49.61323
# Shear Modulus (GPa) = 25.87810 30.94018 28.40914
#
# Velocity S-wave (km/s) = 3.61669 3.95464 3.78944
# Velocity P-wave (km/s) = 6.04865 7.20154 6.65013
#
# Compressibility (1/GPa) = 0.02640119
#
# Stress axis : x y z
#
# Youngs Moduli (GPa) = 93.92333 118.89588 42.55551
#
# Poissons Ratio (x) = 0.51812 0.14783
# Poissons Ratio (y) = 0.40930 0.01047
# Poissons Ratio (z) = 0.32627 0.02925
#
# Static dielectric constant tensor:
#      x y z
#    x 3.682360 0.000000 -0.123590 
#    y 0.000000 4.123500 0.000000 
#    z -0.123590 0.000000 3.389510 
# 
# 
# High freq. dielectric constant tensor:
#      x y z
#    x 1.776160 0.000000 -0.017380 
#    y 0.000000 1.786660 0.000000 
#    z -0.017380 0.000000 1.740940 
# 
# From -- ./inp_files/33087.got.cif
#   From: 2010.06.25/outbox.cif.g09.slc.cpg/sg13_17_cif.got.tgz:33087.got - 2010.06.28 04:50:58.
