data_PCOD8119452
_publ_section_title
;
Structure prediction by ZEFSAII (Michael W. Deem and Ramdas Pophale) SiO2 
 PCOD8119452
Probable space group: P 2/C
;
_chemical_formula_sum "Si O2"
_cell_formula_units_Z 30
_cell_length_a 11.811550
_cell_length_b 14.562016
_cell_length_c 8.547631
_cell_angle_alpha 90.000000
_cell_angle_beta 108.101228
_cell_angle_gamma 90.000000
_cell_volume 1397.431179
_symmetry_space_group_name_H-M "P 2/C"
_symmetry_group_IT_number 13
_symmetry_cell_setting 'monoclinic'
loop_
_space_group_symop_operation_xyz
x,y,z
-x,y,1/2-z
-x,-y,-z
x,-y,1/2+z
loop_
_atom_site_type_symbol
_atom_site_label
_atom_site_fract_x
_atom_site_fract_y
_atom_site_fract_z
Si Si1 0.867294 0.575454 0.649465
Si Si2 0.823939 0.387866 0.471153
Si Si3 0.284795 0.092519 0.093721
Si Si4 0.925419 0.283554 0.924239
Si Si5 0.391461 0.932250 0.972776
Si Si6 0.700501 0.740922 0.116602
Si Si7 0.976379 0.098605 0.420992
Si Si8 0.500000 0.787391 0.250000
O O1 0.813026 0.487942 0.541495
O O2 0.798139 0.601422 0.776714
O O3 0.861222 0.665623 0.539861
O O4 0.000000 0.546745 0.750000
O O5 0.706942 0.332754 0.479725
O O6 0.951848 0.337827 0.561608
O O7 0.362746 0.100043 0.284721
O O8 0.157009 0.125581 0.094661
O O9 0.325598 0.159641 0.970921
O O10 0.287112 0.990026 0.017829
O O11 0.832597 0.277020 0.743244
O O12 0.942506 0.177079 0.971422
O O13 0.422407 0.846835 0.095712
O O14 0.500000 0.000000 0.000000
O O15 0.594552 0.723984 0.196023
O O16 0.000000 0.094774 0.250000
O O17 0.000000 0.000000 0.500000
#
# Coordination Sequence:
#
# PCOD8119452 Si02
#       8
#     4   4   4   4   4   4   4   2
#     4  10  20  38  71 102 135 177 217 273 336 408
#     4  11  21  41  68 104 135 171 220 275 344 409
#     4  12  25  42  66  90 130 176 221 287 335 388
#     4  11  24  42  64  99 142 175 224 272 333 407
#     4  12  23  45  68  91 118 175 247 291 323 383
#     4  12  26  41  65  96 134 174 223 284 338 401
#     4  12  28  40  58  94 140 188 212 259 336 412
#     4  12  28  44  68  92 126 178 234 292 336 388
#
# _framework density 21.467960999999999
#
# number of rings (size 3 to 8) (size 9 to 14) (size 15 to 20)
#    0.000    0.533    4.000    5.600    7.467    0.000 
#    0.000    0.000    0.000    3.200    0.000    0.000 
#    0.000    0.000    0.000    0.000    0.000    0.000 
#
# Total GULP energy -371863.960635 kJ/mol
# GULP energy per Si atom -12395.465354 kJ/mol
# Density = 2.141910 g / cm^3
# Si number density = 21.467961 Si / 1000 Ang^3
#
#
#
# Elastic Constant Matrix: (Units=GPa)
#
#
# Indices 1 2 3 4 5 6 
#
# 1 99.5153 46.1874 49.1845 0.0000 -39.3365 0.0000
# 2 46.1874 120.2776 32.8925 0.0000 -13.4284 0.0000
# 3 49.1845 32.8925 112.6665 0.0000 -22.3205 0.0000
# 4 0.0000 0.0000 0.0000 33.7821 0.0000 -15.0911
# 5 -39.3365 -13.4284 -22.3205 0.0000 37.8837 0.0000
# 6 0.0000 0.0000 0.0000 -15.0911 0.0000 22.9955
#
#
#
# Elastic Compliance Matrix: (Units=1/GPa)
#
#
# Indices 1 2 3 4 5 6 
#
# 1 0.021825 -0.005137 -0.004414 0.000000 0.018240 0.000000
# 2 -0.005137 0.010363 -0.001259 0.000000 -0.002403 0.000000
# 3 -0.004414 -0.001259 0.011518 0.000000 0.001757 0.000000
# 4 0.000000 0.000000 0.000000 0.041879 0.000000 0.027484
# 5 0.018240 -0.002403 0.001757 0.000000 0.045519 0.000000
# 6 0.000000 0.000000 0.000000 0.027484 0.000000 0.061523
#
#
# Mechanical properties :
#
#
# Convention : Reuss Voigt Hill
#
# Bulk Modulus (GPa) = 45.27886 65.44314 55.36100
# Shear Modulus (GPa) = 22.56224 32.54526 27.55375
#
# Velocity S-wave (km/s) = 3.24539 3.89780 3.58646
# Velocity P-wave (km/s) = 5.93132 7.12793 6.55698
#
# Compressibility (1/GPa) = 0.02208536
#
# Stress axis : x y z
#
# Youngs Moduli (GPa) = 45.81998 96.49893 86.81860
#
# Poissons Ratio (x) = 0.49574 0.38323
# Poissons Ratio (y) = 0.23539 0.10928
# Poissons Ratio (z) = 0.20226 0.12146
#
# Static dielectric constant tensor:
#      x y z
#    x 3.974890 0.000000 -0.318380 
#    y 0.000000 3.687730 0.000000 
#    z -0.318380 0.000000 3.914180 
# 
# 
# High freq. dielectric constant tensor:
#      x y z
#    x 1.827350 0.000000 -0.032310 
#    y 0.000000 1.836710 0.000000 
#    z -0.032310 0.000000 1.855890 
# 
# From -- ./inp_files/16802.got.cif
#   From: 2010.06.25/outbox.cif.g09.slc.cpg/sg13_9_cif.got.tgz:16802.got - 2010.06.28 04:50:58.
