data_PCOD8119677
_publ_section_title
;
Structure prediction by ZEFSAII (Michael W. Deem and Ramdas Pophale) SiO2 
 PCOD8119677
Probable space group: P 2/C
;
_chemical_formula_sum "Si O2"
_cell_formula_units_Z 28
_cell_length_a 23.133167
_cell_length_b 9.137992
_cell_length_c 25.703905
_cell_angle_alpha 90.000000
_cell_angle_beta 15.346936
_cell_angle_gamma 90.000000
_cell_volume 1438.064593
_symmetry_space_group_name_H-M "P 2/C"
_symmetry_group_IT_number 13
_symmetry_cell_setting 'monoclinic'
loop_
_space_group_symop_operation_xyz
x,y,z
-x,y,1/2-z
-x,-y,-z
x,-y,1/2+z
loop_
_atom_site_type_symbol
_atom_site_label
_atom_site_fract_x
_atom_site_fract_y
_atom_site_fract_z
Si Si1 0.526222 0.478000 0.328449
Si Si2 0.130934 0.023534 0.959413
Si Si3 0.586484 0.381716 0.964962
Si Si4 0.933420 0.701485 0.447843
Si Si5 0.334776 0.081829 0.181340
Si Si6 0.168661 0.467531 0.559511
Si Si7 0.331313 0.267226 0.853692
O O1 0.390304 0.457222 0.498841
O O2 0.396804 0.422332 0.389268
O O3 0.558179 0.652311 0.292036
O O4 0.754273 0.390818 0.135273
O O5 0.095399 0.871921 0.019113
O O6 0.313174 0.002403 0.755701
O O7 0.907917 0.090825 0.130936
O O8 0.202559 0.130687 0.943184
O O9 0.827463 0.336788 0.737384
O O10 0.500000 0.500000 0.000000
O O11 0.422550 0.245735 0.112155
O O12 0.912990 0.669480 0.403904
O O13 0.500000 0.000000 0.000000
O O14 0.182317 0.609172 0.510381
O O15 0.000000 0.510374 0.750000
O O16 0.500000 0.205514 0.750000
#
# Coordination Sequence:
#
# PCOD8119677 Si02
#       7
#     4   4   4   4   4   4   4
#     4  10  22  42  62  92 130 160 209 267 307 372
#     4  11  24  43  65  89 134 168 204 263 314 385
#     4  12  26  39  65  98 121 167 220 260 309 379
#     4  11  22  41  63  94 125 167 210 254 322 368
#     4  11  25  44  61  91 132 170 209 254 320 370
#     4  10  20  40  68  92 127 164 209 264 317 368
#     4   9  22  41  64  95 124 167 206 257 321 370
#
# _framework density 19.470613
#
# number of rings (size 3 to 8) (size 9 to 14) (size 15 to 20)
#    0.000    1.429    4.286    1.286    6.000    1.714 
#    2.571    0.714    0.000    0.000    0.000    0.000 
#    0.000    0.000    0.000    0.000    0.000    0.000 
#
# Total GULP energy -347155.328228 kJ/mol
# GULP energy per Si atom -12398.404580 kJ/mol
# Density = 1.942630 g / cm^3
# Si number density = 19.470613 Si / 1000 Ang^3
#
#
#
# Elastic Constant Matrix: (Units=GPa)
#
#
# Indices 1 2 3 4 5 6 
#
# 1 114.2652 68.1279 41.0397 0.0000 4.2066 0.0000
# 2 68.1279 108.0333 48.5109 0.0000 -7.2240 0.0000
# 3 41.0397 48.5109 106.0195 0.0000 0.4920 0.0000
# 4 0.0000 0.0000 0.0000 28.2001 0.0000 -5.7368
# 5 4.2066 -7.2240 0.4920 0.0000 38.9826 0.0000
# 6 0.0000 0.0000 0.0000 -5.7368 0.0000 36.1304
#
#
#
# Elastic Compliance Matrix: (Units=1/GPa)
#
#
# Indices 1 2 3 4 5 6 
#
# 1 0.014661 -0.008704 -0.001678 0.000000 -0.003174 0.000000
# 2 -0.008704 0.017014 -0.004435 0.000000 0.004148 0.000000
# 3 -0.001678 -0.004435 0.012115 0.000000 -0.000794 0.000000
# 4 0.000000 0.000000 0.000000 0.036644 0.000000 0.005818
# 5 -0.003174 0.004148 -0.000794 0.000000 0.026774 0.000000
# 6 0.000000 0.000000 0.000000 0.005818 0.000000 0.028601
#
#
# Mechanical properties :
#
#
# Convention : Reuss Voigt Hill
#
# Bulk Modulus (GPa) = 70.64209 71.51945 71.08077
# Shear Modulus (GPa) = 29.38385 32.03858 30.71122
#
# Velocity S-wave (km/s) = 3.88898 4.06086 3.97585
# Velocity P-wave (km/s) = 7.51836 7.66806 7.59358
#
# Compressibility (1/GPa) = 0.01415587
#
# Stress axis : x y z
#
# Youngs Moduli (GPa) = 68.21000 58.77394 82.54476
#
# Poissons Ratio (x) = 0.51158 0.13848
# Poissons Ratio (y) = 0.59371 0.36609
# Poissons Ratio (z) = 0.11443 0.26067
#
# Static dielectric constant tensor:
#      x y z
#    x 3.698030 0.000000 0.010130 
#    y 0.000000 3.481300 0.000000 
#    z 0.010130 0.000000 3.820020 
# 
# 
# High freq. dielectric constant tensor:
#      x y z
#    x 1.767320 0.000000 0.001860 
#    y 0.000000 1.747920 0.000000 
#    z 0.001860 0.000000 1.767710 
# 
# From -- ./inp_files/88457.got.cif
#   From: 2010.06.25/outbox.cif.g09.slc.cpg/sg13_45_cif.got.tgz:88457.got - 2010.06.28 04:50:58.
