data_PCOD8119560
_publ_section_title
;
Structure prediction by ZEFSAII (Michael W. Deem and Ramdas Pophale) SiO2 
 PCOD8119560
Probable space group: P 2/C
;
_chemical_formula_sum "Si O2"
_cell_formula_units_Z 30
_cell_length_a 23.336119
_cell_length_b 13.384410
_cell_length_c 8.669821
_cell_angle_alpha 90.000000
_cell_angle_beta 30.616807
_cell_angle_gamma 90.000000
_cell_volume 1379.133959
_symmetry_space_group_name_H-M "P 2/C"
_symmetry_group_IT_number 13
_symmetry_cell_setting 'monoclinic'
loop_
_space_group_symop_operation_xyz
x,y,z
-x,y,1/2-z
-x,-y,-z
x,-y,1/2+z
loop_
_atom_site_type_symbol
_atom_site_label
_atom_site_fract_x
_atom_site_fract_y
_atom_site_fract_z
Si Si1 0.723302 0.690071 0.233051
Si Si2 0.592118 0.586350 0.799748
Si Si3 0.821097 0.493826 0.361590
Si Si4 0.111983 0.367690 0.558929
Si Si5 0.706831 0.785159 0.951966
Si Si6 0.889504 0.940235 0.603836
Si Si7 0.885500 0.858937 0.956397
Si Si8 0.500000 0.257889 0.750000
O O1 0.626773 0.635818 0.555787
O O2 0.817951 0.609471 0.966116
O O3 0.669012 0.737987 0.204006
O O4 0.785881 0.778270 0.182708
O O5 0.696025 0.537469 0.646875
O O6 0.500000 0.500000 0.000000
O O7 0.545312 0.675169 0.008561
O O8 0.864359 0.468102 0.093094
O O9 0.902795 0.581491 0.239129
O O10 0.216060 0.293721 0.318073
O O11 0.000000 0.313942 0.750000
O O12 0.777825 0.884642 0.805839
O O13 0.598588 0.809880 0.096621
O O14 0.908858 0.914822 0.738873
O O15 0.859371 0.056407 0.645440
O O16 0.000000 0.908451 0.250000
O O17 0.000000 0.804995 0.750000
#
# Coordination Sequence:
#
# PCOD8119560 Si02
#       8
#     4   4   4   4   4   4   4   2
#     4  10  23  41  59  88 128 161 205 263 312 377
#     4  12  23  40  61  83 119 163 213 262 311 366
#     4  11  21  39  54  85 117 161 209 249 308 369
#     4  11  21  37  54  82 120 159 202 252 312 371
#     4  10  23  41  60  89 123 164 212 260 318 366
#     4  10  20  39  67  98 132 166 204 258 315 386
#     4  10  21  39  66  99 129 168 206 255 319 379
#     4  12  24  38  62  86 114 154 216 262 300 372
#
# _framework density 21.752783000000001
#
# number of rings (size 3 to 8) (size 9 to 14) (size 15 to 20)
#    0.000    1.333    2.667    4.800    0.000    4.267 
#    7.200    0.000    0.000    8.800    0.000    0.000 
#    0.000    0.000    0.000    0.000    0.000    0.000 
#
# Total GULP energy -371831.960068 kJ/mol
# GULP energy per Si atom -12394.398669 kJ/mol
# Density = 2.170327 g / cm^3
# Si number density = 21.752783 Si / 1000 Ang^3
#
#
#
# Elastic Constant Matrix: (Units=GPa)
#
#
# Indices 1 2 3 4 5 6 
#
# 1 111.3288 36.7032 24.3761 0.0000 -32.3411 0.0000
# 2 36.7032 68.3660 25.7760 0.0000 -6.8199 0.0000
# 3 24.3761 25.7760 72.1106 0.0000 -9.0877 0.0000
# 4 0.0000 0.0000 0.0000 21.6329 0.0000 0.0728
# 5 -32.3411 -6.8199 -9.0877 0.0000 36.4356 0.0000
# 6 0.0000 0.0000 0.0000 0.0728 0.0000 31.1499
#
#
#
# Elastic Compliance Matrix: (Units=1/GPa)
#
#
# Indices 1 2 3 4 5 6 
#
# 1 0.014672 -0.006246 -0.001273 0.000000 0.011536 0.000000
# 2 -0.006246 0.019668 -0.005321 0.000000 -0.003190 0.000000
# 3 -0.001273 -0.005321 0.016449 0.000000 0.001977 0.000000
# 4 0.000000 0.000000 0.000000 0.046226 0.000000 -0.000108
# 5 0.011536 -0.003190 0.001977 0.000000 0.037582 0.000000
# 6 0.000000 0.000000 0.000000 -0.000108 0.000000 0.032103
#
#
# Mechanical properties :
#
#
# Convention : Reuss Voigt Hill
#
# Bulk Modulus (GPa) = 39.82652 47.27956 43.55304
# Shear Modulus (GPa) = 24.90663 28.84034 26.87348
#
# Velocity S-wave (km/s) = 3.38743 3.64514 3.51865
# Velocity P-wave (km/s) = 5.80070 6.28475 6.04757
#
# Compressibility (1/GPa) = 0.02510890
#
# Stress axis : x y z
#
# Youngs Moduli (GPa) = 68.15895 50.84313 60.79365
#
# Poissons Ratio (x) = 0.31756 0.07740
# Poissons Ratio (y) = 0.42571 0.32349
# Poissons Ratio (z) = 0.08677 0.27054
#
# Static dielectric constant tensor:
#      x y z
#    x 4.347300 0.000000 0.016370 
#    y 0.000000 3.768190 0.000000 
#    z 0.016370 0.000000 3.838760 
# 
# 
# High freq. dielectric constant tensor:
#      x y z
#    x 1.871720 0.000000 0.002350 
#    y 0.000000 1.839180 0.000000 
#    z 0.002350 0.000000 1.840830 
# 
# From -- ./inp_files/24225.got.cif
#   From: 2010.06.25/outbox.cif.g09.slc.cpg/sg13_13_cif.got.tgz:24225.got - 2010.06.28 04:50:58.
