data_PCOD8119026
_publ_section_title
;
Structure prediction by ZEFSAII (Michael W. Deem and Ramdas Pophale) SiO2 
 PCOD8119026
Probable space group: P 2/C
;
_chemical_formula_sum "Si O2"
_cell_formula_units_Z 22
_cell_length_a 12.453502
_cell_length_b 11.856499
_cell_length_c 14.469999
_cell_angle_alpha 90.000000
_cell_angle_beta 150.854194
_cell_angle_gamma 90.000000
_cell_volume 1040.580170
_symmetry_space_group_name_H-M "P 2/C"
_symmetry_group_IT_number 13
_symmetry_cell_setting 'monoclinic'
loop_
_space_group_symop_operation_xyz
x,y,z
-x,y,1/2-z
-x,-y,-z
x,-y,1/2+z
loop_
_atom_site_type_symbol
_atom_site_label
_atom_site_fract_x
_atom_site_fract_y
_atom_site_fract_z
Si Si1 0.718225 0.600526 0.362829
Si Si2 0.559829 0.651010 0.044678
Si Si3 0.324190 0.097336 0.855581
Si Si4 0.255647 0.859727 0.095296
Si Si5 0.128595 0.527061 0.757470
Si Si6 0.000000 0.997966 0.750000
O O1 0.500000 0.555365 0.250000
O O2 0.663995 0.600575 0.215577
O O3 0.781482 0.726617 0.443958
O O4 0.925577 0.516068 0.532510
O O5 0.556239 0.784463 0.035201
O O6 0.735967 0.587204 0.109489
O O7 0.305300 0.615138 0.847064
O O8 0.214938 0.098494 0.670853
O O9 0.156308 0.083120 0.813060
O O10 0.500000 0.000000 0.000000
O O11 0.500000 0.894438 0.250000
O O12 0.098445 0.920102 0.904327
O O13 0.000000 0.576498 0.750000
#
# Coordination Sequence:
#
# PCOD8119026 Si02
#       6
#     4   4   4   4   4   2
#     4  10  20  36  63  92 123 158 217 268 309 377
#     4  10  24  42  58  95 126 164 211 263 320 385
#     4  11  24  43  66  94 133 170 218 267 322 392
#     4  10  22  39  63  97 126 167 224 266 317 389
#     4  11  22  38  68  88 124 167 209 260 323 383
#     4  12  24  40  68  88 136 174 206 280 334 366
#
# _framework density 21.142054000000002
#
# number of rings (size 3 to 8) (size 9 to 14) (size 15 to 20)
#    0.000    1.455    3.636    1.091    5.091    0.000 
#    0.000    0.000    0.000    3.273    0.000    0.000 
#    0.000    0.000    0.000    0.000    0.000    0.000 
#
# Total GULP energy -272549.170949 kJ/mol
# GULP energy per Si atom -12388.598679 kJ/mol
# Density = 2.109393 g / cm^3
# Si number density = 21.142054 Si / 1000 Ang^3
#
#
#
# Elastic Constant Matrix: (Units=GPa)
#
#
# Indices 1 2 3 4 5 6 
#
# 1 115.5055 23.9639 35.4687 0.0000 15.9772 0.0000
# 2 23.9639 104.9239 43.1599 0.0000 10.7690 0.0000
# 3 35.4687 43.1599 118.3790 0.0000 20.4038 0.0000
# 4 0.0000 0.0000 0.0000 34.9574 0.0000 2.3458
# 5 15.9772 10.7690 20.4038 0.0000 38.2904 0.0000
# 6 0.0000 0.0000 0.0000 2.3458 0.0000 26.5078
#
#
#
# Elastic Compliance Matrix: (Units=1/GPa)
#
#
# Indices 1 2 3 4 5 6 
#
# 1 0.009907 -0.001125 -0.002093 0.000000 -0.002703 0.000000
# 2 -0.001125 0.011380 -0.003679 0.000000 -0.000771 0.000000
# 3 -0.002093 -0.003679 0.011107 0.000000 -0.004011 0.000000
# 4 0.000000 0.000000 0.000000 0.028777 0.000000 -0.002547
# 5 -0.002703 -0.000771 -0.004011 0.000000 0.029598 0.000000
# 6 0.000000 0.000000 0.000000 -0.002547 0.000000 0.037950
#
#
# Mechanical properties :
#
#
# Convention : Reuss Voigt Hill
#
# Bulk Modulus (GPa) = 53.75868 60.44370 57.10119
# Shear Modulus (GPa) = 33.62175 35.69885 34.66030
#
# Velocity S-wave (km/s) = 3.99216 4.11362 4.05334
# Velocity P-wave (km/s) = 6.83610 7.15639 6.99808
#
# Compressibility (1/GPa) = 0.01860165
#
# Stress axis : x y z
#
# Youngs Moduli (GPa) = 100.93534 87.87239 90.03205
#
# Poissons Ratio (x) = 0.09882 0.18840
# Poissons Ratio (y) = 0.11351 0.33125
# Poissons Ratio (z) = 0.21122 0.32331
#
# Static dielectric constant tensor:
#      x y z
#    x 6.605520 0.000000 2.202220 
#    y 0.000000 3.780160 0.000000 
#    z 2.202220 0.000000 5.794710 
# 
# 
# High freq. dielectric constant tensor:
#      x y z
#    x 1.840500 0.000000 0.006190 
#    y 0.000000 1.813670 0.000000 
#    z 0.006190 0.000000 1.834920 
# 
# From -- ./inp_files/51261.got.cif
#   From: 2010.06.25/outbox.cif.g09.slc.cpg/sg13_26_cif.got.tgz:51261.got - 2010.06.28 04:50:58.
