data_PCOD8119041
_publ_section_title
;
Structure prediction by ZEFSAII (Michael W. Deem and Ramdas Pophale) SiO2 
 PCOD8119041
Probable space group: P 2/C
;
_chemical_formula_sum "Si O2"
_cell_formula_units_Z 32
_cell_length_a 25.719388
_cell_length_b 6.461044
_cell_length_c 16.599451
_cell_angle_alpha 90.000000
_cell_angle_beta 145.321398
_cell_angle_gamma 90.000000
_cell_volume 1569.452893
_symmetry_space_group_name_H-M "P 2/C"
_symmetry_group_IT_number 13
_symmetry_cell_setting 'monoclinic'
loop_
_space_group_symop_operation_xyz
x,y,z
-x,y,1/2-z
-x,-y,-z
x,-y,1/2+z
loop_
_atom_site_type_symbol
_atom_site_label
_atom_site_fract_x
_atom_site_fract_y
_atom_site_fract_z
Si Si1 0.751657 0.463400 0.536750
Si Si2 0.089658 0.707720 0.691910
Si Si3 0.804217 0.103611 0.715371
Si Si4 0.355671 0.068019 0.385437
Si Si5 0.104969 0.569978 0.057436
Si Si6 0.733532 0.403269 0.328899
Si Si7 0.424913 0.362565 0.950364
Si Si8 0.419988 0.392056 0.587575
O O1 0.842267 0.601984 0.657738
O O2 0.771912 0.238885 0.598654
O O3 0.717788 0.429675 0.403224
O O4 0.675023 0.591749 0.486771
O O5 0.090011 0.607000 0.604276
O O6 0.988100 0.668001 0.597622
O O7 0.117012 0.947823 0.716061
O O8 0.841658 0.240874 0.835352
O O9 0.715651 0.991782 0.636473
O O10 0.300287 0.174316 0.240885
O O11 0.420591 0.229545 0.514360
O O12 0.421635 0.886340 0.434266
O O13 0.161410 0.456279 0.058439
O O14 0.675225 0.568097 0.204491
O O15 0.500000 0.500000 0.000000
O O16 0.438819 0.392079 0.064639
O O17 0.500000 0.333215 0.750000
#
# Coordination Sequence:
#
# PCOD8119041 Si02
#       8
#     4   4   4   4   4   4   4   4
#     4  11  23  39  60  90 127 169 209 269 331 384
#     4  10  20  37  64  90 122 163 215 262 320 394
#     4  11  18  40  64  91 119 165 221 264 317 391
#     4  11  21  42  67  89 126 168 218 271 317 396
#     4  10  20  36  64  92 120 165 211 264 322 387
#     4  11  23  39  61  91 129 169 210 269 330 385
#     4  11  23  43  64  89 124 164 214 269 326 387
#     4  11  23  41  62  92 123 163 217 266 325 397
#
# _framework density 20.38927
#
# number of rings (size 3 to 8) (size 9 to 14) (size 15 to 20)
#    0.000    1.250    5.000    2.625    0.000    4.000 
#    4.500    0.000    0.000    0.000    0.000    0.000 
#    0.000    0.000    0.000    0.000    0.000    0.000 
#
# Total GULP energy -396664.233413 kJ/mol
# GULP energy per Si atom -12395.757294 kJ/mol
# Density = 2.034286 g / cm^3
# Si number density = 20.389270 Si / 1000 Ang^3
#
#
#
# Elastic Constant Matrix: (Units=GPa)
#
#
# Indices 1 2 3 4 5 6 
#
# 1 87.5461 36.7757 38.0745 0.0000 1.4265 0.0000
# 2 36.7757 115.6414 29.7215 0.0000 1.9342 0.0000
# 3 38.0745 29.7215 98.5673 0.0000 2.4138 0.0000
# 4 0.0000 0.0000 0.0000 19.7679 0.0000 9.4741
# 5 1.4265 1.9342 2.4138 0.0000 36.0958 0.0000
# 6 0.0000 0.0000 0.0000 9.4741 0.0000 28.2703
#
#
#
# Elastic Compliance Matrix: (Units=1/GPa)
#
#
# Indices 1 2 3 4 5 6 
#
# 1 0.014961 -0.003546 -0.004708 0.000000 -0.000086 0.000000
# 2 -0.003546 0.010218 -0.001704 0.000000 -0.000293 0.000000
# 3 -0.004708 -0.001704 0.012491 0.000000 -0.000558 0.000000
# 4 0.000000 0.000000 0.000000 0.060267 0.000000 -0.020197
# 5 -0.000086 -0.000293 -0.000558 0.000000 0.027760 0.000000
# 6 0.000000 0.000000 0.000000 -0.020197 0.000000 0.042141
#
#
# Mechanical properties :
#
#
# Convention : Reuss Voigt Hill
#
# Bulk Modulus (GPa) = 56.32452 56.76646 56.54549
# Shear Modulus (GPa) = 25.81664 29.97235 27.89449
#
# Velocity S-wave (km/s) = 3.56221 3.83823 3.70279
# Velocity P-wave (km/s) = 6.67860 6.89525 6.78779
#
# Compressibility (1/GPa) = 0.01775426
#
# Stress axis : x y z
#
# Youngs Moduli (GPa) = 66.83981 97.86541 80.05567
#
# Poissons Ratio (x) = 0.34708 0.37688
# Poissons Ratio (y) = 0.23705 0.13641
# Poissons Ratio (z) = 0.31466 0.16676
#
# Static dielectric constant tensor:
#      x y z
#    x 3.602890 0.000000 0.197220 
#    y 0.000000 3.900570 0.000000 
#    z 0.197220 0.000000 3.724040 
# 
# 
# High freq. dielectric constant tensor:
#      x y z
#    x 1.788200 0.000000 0.013860 
#    y 0.000000 1.802050 0.000000 
#    z 0.013860 0.000000 1.792660 
# 
# From -- ./inp_files/72226.got.cif
#   From: 2010.06.25/outbox.cif.g09.slc.cpg/sg13_37_cif.got.tgz:72226.got - 2010.06.28 04:50:58.
