data_PCOD8119277
_publ_section_title
;
Structure prediction by ZEFSAII (Michael W. Deem and Ramdas Pophale) SiO2 
 PCOD8119277
Probable space group: P 2/C
;
_chemical_formula_sum "Si O2"
_cell_formula_units_Z 20
_cell_length_a 6.911612
_cell_length_b 16.026243
_cell_length_c 10.130834
_cell_angle_alpha 90.000000
_cell_angle_beta 110.934105
_cell_angle_gamma 90.000000
_cell_volume 1048.092013
_symmetry_space_group_name_H-M "P 2/C"
_symmetry_group_IT_number 13
_symmetry_cell_setting 'monoclinic'
loop_
_space_group_symop_operation_xyz
x,y,z
-x,y,1/2-z
-x,-y,-z
x,-y,1/2+z
loop_
_atom_site_type_symbol
_atom_site_label
_atom_site_fract_x
_atom_site_fract_y
_atom_site_fract_z
Si Si1 0.855841 0.986531 0.091429
Si Si2 0.891958 0.391957 0.593075
Si Si3 0.844170 0.578220 0.595833
Si Si4 0.478703 0.112261 0.397688
Si Si5 0.494036 0.305585 0.097383
O O1 0.000000 0.961255 0.250000
O O2 0.726006 0.070287 0.090713
O O3 0.688587 0.913568 0.024815
O O4 0.000000 0.000000 0.000000
O O5 0.781017 0.480977 0.595498
O O6 0.735313 0.320124 0.512086
O O7 0.000000 0.357319 0.750000
O O8 0.062480 0.405404 0.523800
O O9 0.643693 0.635432 0.551617
O O10 0.000000 0.605059 0.750000
O O11 0.500000 0.086113 0.250000
O O12 0.441859 0.210135 0.405775
O O13 0.500000 0.333430 0.250000
#
# Coordination Sequence:
#
# PCOD8119277 Si02
#       5
#     4   4   4   4   4
#     4  11  22  41  65  88 120 159 190 237 298 353
#     4  10  22  38  58  85 121 155 202 244 287 345
#     4  10  20  38  60  85 115 162 202 237 288 351
#     4  10  23  39  61  95 119 148 203 241 285 365
#     4  11  22  38  61  89 121 154 194 246 296 342
#
# _framework density 19.082294000000001
#
# number of rings (size 3 to 8) (size 9 to 14) (size 15 to 20)
#    0.000    1.600    4.000    0.600    0.000    4.000 
#    0.000    2.000    0.000    0.000    0.000    0.000 
#    0.000    0.000    0.000    0.000    0.000    0.000 
#
# Total GULP energy -248066.189460 kJ/mol
# GULP energy per Si atom -12403.309473 kJ/mol
# Density = 1.903886 g / cm^3
# Si number density = 19.082294 Si / 1000 Ang^3
#
#
#
# Elastic Constant Matrix: (Units=GPa)
#
#
# Indices 1 2 3 4 5 6 
#
# 1 99.5881 43.5225 48.5073 0.0000 -2.6396 0.0000
# 2 43.5225 75.3680 31.6426 0.0000 -5.2124 0.0000
# 3 48.5073 31.6426 149.8120 0.0000 8.6817 0.0000
# 4 0.0000 0.0000 0.0000 24.7653 0.0000 1.1686
# 5 -2.6396 -5.2124 8.6817 0.0000 35.9414 0.0000
# 6 0.0000 0.0000 0.0000 1.1686 0.0000 23.1955
#
#
#
# Elastic Compliance Matrix: (Units=1/GPa)
#
#
# Indices 1 2 3 4 5 6 
#
# 1 0.014784 -0.007074 -0.003343 0.000000 0.000867 0.000000
# 2 -0.007074 0.018247 -0.001711 0.000000 0.002540 0.000000
# 3 -0.003343 -0.001711 0.008263 0.000000 -0.002490 0.000000
# 4 0.000000 0.000000 0.000000 0.040475 0.000000 -0.002039
# 5 0.000867 0.002540 -0.002490 0.000000 0.028857 0.000000
# 6 0.000000 0.000000 0.000000 -0.002039 0.000000 0.043215
#
#
# Mechanical properties :
#
#
# Convention : Reuss Voigt Hill
#
# Bulk Modulus (GPa) = 58.68941 63.56809 61.12875
# Shear Modulus (GPa) = 27.20708 30.18682 28.69695
#
# Velocity S-wave (km/s) = 3.78004 3.98166 3.88216
# Velocity P-wave (km/s) = 7.06218 7.38397 7.22487
#
# Compressibility (1/GPa) = 0.01703885
#
# Stress axis : x y z
#
# Youngs Moduli (GPa) = 67.64017 54.80339 121.01968
#
# Poissons Ratio (x) = 0.38767 0.40458
# Poissons Ratio (y) = 0.47847 0.20705
# Poissons Ratio (z) = 0.22613 0.09376
#
# Static dielectric constant tensor:
#      x y z
#    x 3.436740 0.000000 -0.004980 
#    y 0.000000 3.346800 0.000000 
#    z -0.004980 0.000000 3.654450 
# 
# 
# High freq. dielectric constant tensor:
#      x y z
#    x 1.745770 0.000000 -0.000330 
#    y 0.000000 1.731330 0.000000 
#    z -0.000330 0.000000 1.754210 
# 
# From -- ./inp_files/9441.got.cif
#   From: 2010.06.25/outbox.cif.g09.slc.cpg/sg13_5_cif.got.tgz:9441.got - 2010.06.28 04:50:58.
