data_PCOD8119637
_publ_section_title
;
Structure prediction by ZEFSAII (Michael W. Deem and Ramdas Pophale) SiO2 
 PCOD8119637
Probable space group: P 2/C
;
_chemical_formula_sum "Si O2"
_cell_formula_units_Z 28
_cell_length_a 9.217846
_cell_length_b 14.889755
_cell_length_c 13.689047
_cell_angle_alpha 90.000000
_cell_angle_beta 48.034778
_cell_angle_gamma 90.000000
_cell_volume 1397.014410
_symmetry_space_group_name_H-M "P 2/C"
_symmetry_group_IT_number 13
_symmetry_cell_setting 'monoclinic'
loop_
_space_group_symop_operation_xyz
x,y,z
-x,y,1/2-z
-x,-y,-z
x,-y,1/2+z
loop_
_atom_site_type_symbol
_atom_site_label
_atom_site_fract_x
_atom_site_fract_y
_atom_site_fract_z
Si Si1 0.729192 0.992357 0.882632
Si Si2 0.473974 0.515499 0.124680
Si Si3 0.810546 0.443955 0.108784
Si Si4 0.938580 0.253587 0.003716
Si Si5 0.020638 0.070031 0.402355
Si Si6 0.795973 0.195391 0.874897
Si Si7 0.364952 0.284705 0.727315
O O1 0.819292 0.089638 0.856617
O O2 0.788133 0.954896 0.748890
O O3 0.826653 0.931053 0.922556
O O4 0.500000 0.000000 0.000000
O O5 0.653892 0.467942 0.096572
O O6 0.271437 0.469447 0.247886
O O7 0.458639 0.618969 0.162572
O O8 0.500000 0.500000 0.000000
O O9 0.852089 0.338542 0.098276
O O10 0.000000 0.500000 0.000000
O O11 0.961861 0.171024 0.066923
O O12 0.774608 0.225939 0.996769
O O13 0.144285 0.284060 0.865143
O O14 0.000000 0.000000 0.500000
O O15 0.624433 0.230013 0.880103
O O16 0.000000 0.239425 0.750000
O O17 0.500000 0.238619 0.750000
#
# Coordination Sequence:
#
# PCOD8119637 Si02
#       7
#     4   4   4   4   4   4   4
#     4  11  24  44  65  97 136 172 223 281 343 400
#     4  11  23  42  64  96 134 175 223 285 333 403
#     4  11  22  44  64  93 135 174 225 275 337 401
#     4  11  22  41  70  94 131 184 220 279 342 403
#     4  11  22  46  68  95 138 174 224 281 332 408
#     4  10  20  40  64  93 126 169 220 271 334 412
#     4  11  21  39  65  99 130 170 231 278 335 407
#
# _framework density 20.042742000000001
#
# number of rings (size 3 to 8) (size 9 to 14) (size 15 to 20)
#    0.000    1.143    5.714    1.714    2.000    1.143 
#    7.714    1.429    0.000    0.000    0.000    0.000 
#    0.000    0.000    0.000    0.000    0.000    0.000 
#
# Total GULP energy -347052.033343 kJ/mol
# GULP energy per Si atom -12394.715477 kJ/mol
# Density = 1.999712 g / cm^3
# Si number density = 20.042742 Si / 1000 Ang^3
#
#
#
# Elastic Constant Matrix: (Units=GPa)
#
#
# Indices 1 2 3 4 5 6 
#
# 1 134.6659 50.2823 64.6717 0.0000 12.3262 0.0000
# 2 50.2823 140.3167 41.9875 0.0000 12.3621 0.0000
# 3 64.6717 41.9875 142.5062 0.0000 6.8869 0.0000
# 4 0.0000 0.0000 0.0000 21.7623 0.0000 5.5191
# 5 12.3262 12.3621 6.8869 0.0000 40.7542 0.0000
# 6 0.0000 0.0000 0.0000 5.5191 0.0000 33.4831
#
#
#
# Elastic Compliance Matrix: (Units=1/GPa)
#
#
# Indices 1 2 3 4 5 6 
#
# 1 0.010355 -0.002386 -0.003912 0.000000 -0.001747 0.000000
# 2 -0.002386 0.008530 -0.001351 0.000000 -0.001637 0.000000
# 3 -0.003912 -0.001351 0.009189 0.000000 0.000040 0.000000
# 4 0.000000 0.000000 0.000000 0.047956 0.000000 -0.007905
# 5 -0.001747 -0.001637 0.000040 0.000000 0.025556 0.000000
# 6 0.000000 0.000000 0.000000 -0.007905 0.000000 0.031169
#
#
# Mechanical properties :
#
#
# Convention : Reuss Voigt Hill
#
# Bulk Modulus (GPa) = 78.27481 81.26352 79.76916
# Shear Modulus (GPa) = 32.82730 36.56975 34.69853
#
# Velocity S-wave (km/s) = 4.05144 4.27615 4.16531
# Velocity P-wave (km/s) = 7.81181 8.06311 7.93845
#
# Compressibility (1/GPa) = 0.01277550
#
# Stress axis : x y z
#
# Youngs Moduli (GPa) = 96.56822 117.22656 108.82901
#
# Poissons Ratio (x) = 0.27974 0.42573
# Poissons Ratio (y) = 0.23044 0.14706
# Poissons Ratio (z) = 0.37777 0.15841
#
# Static dielectric constant tensor:
#      x y z
#    x 3.820710 0.000000 0.142020 
#    y 0.000000 3.685180 0.000000 
#    z 0.142020 0.000000 3.689230 
# 
# 
# High freq. dielectric constant tensor:
#      x y z
#    x 1.789120 0.000000 0.007050 
#    y 0.000000 1.786030 0.000000 
#    z 0.007050 0.000000 1.776540 
# 
# From -- ./inp_files/47628.got.cif
#   From: 2010.06.25/outbox.cif.g09.slc.cpg/sg13_24_cif.got.tgz:47628.got - 2010.06.28 04:50:58.
