data_PCOD8119990
_publ_section_title
;
Structure prediction by ZEFSAII (Michael W. Deem and Ramdas Pophale) SiO2 
 PCOD8119990
Probable space group: P 2/C
;
_chemical_formula_sum "Si O2"
_cell_formula_units_Z 32
_cell_length_a 10.110107
_cell_length_b 9.623115
_cell_length_c 15.149392
_cell_angle_alpha 90.000000
_cell_angle_beta 99.027093
_cell_angle_gamma 90.000000
_cell_volume 1455.640004
_symmetry_space_group_name_H-M "P 2/C"
_symmetry_group_IT_number 13
_symmetry_cell_setting 'monoclinic'
loop_
_space_group_symop_operation_xyz
x,y,z
-x,y,1/2-z
-x,-y,-z
x,-y,1/2+z
loop_
_atom_site_type_symbol
_atom_site_label
_atom_site_fract_x
_atom_site_fract_y
_atom_site_fract_z
Si Si1 0.012518 0.063489 0.648414
Si Si2 0.751557 0.568552 0.650429
Si Si3 0.211675 0.140788 0.410258
Si Si4 0.968312 0.628800 0.142427
Si Si5 0.486694 0.949884 0.900169
Si Si6 0.247351 0.549000 0.155620
Si Si7 0.706342 0.853073 0.382644
Si Si8 0.468703 0.354657 0.142555
O O1 0.950798 0.211600 0.612847
O O2 0.000000 0.034911 0.750000
O O3 0.168417 0.055363 0.638782
O O4 0.923353 0.947493 0.590255
O O5 0.824301 0.716924 0.644084
O O6 0.833174 0.453413 0.602755
O O7 0.757938 0.526065 0.751929
O O8 0.596807 0.580152 0.604364
O O9 0.326572 0.060384 0.363519
O O10 0.273932 0.177750 0.511690
O O11 0.000000 0.621486 0.250000
O O12 0.095190 0.561809 0.103122
O O13 0.557736 0.800553 0.894371
O O14 0.569258 0.060592 0.849131
O O15 0.500000 0.000000 0.000000
O O16 0.306245 0.705998 0.169598
O O17 0.341853 0.452235 0.104699
O O18 0.500000 0.352159 0.250000
#
# Coordination Sequence:
#
# PCOD8119990 Si02
#       8
#     4   4   4   4   4   4   4   4
#     4  10  21  36  57  86 116 150 190 233 282 341
#     4   9  18  34  54  78 109 143 183 232 278 328
#     4  10  21  38  58  85 116 148 190 239 285 338
#     4   8  16  32  51  74 106 137 174 221 268 322
#     4   9  20  38  56  79 113 148 184 230 284 338
#     4   9  18  34  55  79 108 145 186 230 279 334
#     4  10  21  39  59  83 116 152 190 235 285 341
#     4   9  18  33  54  80 107 137 183 232 275 330
#
# _framework density 21.983459
#
# number of rings (size 3 to 8) (size 9 to 14) (size 15 to 20)
#    0.000    2.750    0.000    1.125    0.000    6.500 
#    0.000   15.000    0.000    0.000    0.000    0.000 
#    0.000    0.000    0.000    0.000    0.000    0.000 
#
# Total GULP energy -396532.848651 kJ/mol
# GULP energy per Si atom -12391.651520 kJ/mol
# Density = 2.193342 g / cm^3
# Si number density = 21.983459 Si / 1000 Ang^3
#
#
#
# Elastic Constant Matrix: (Units=GPa)
#
#
# Indices 1 2 3 4 5 6 
#
# 1 81.1964 39.9473 8.4004 0.0000 -27.0103 0.0000
# 2 39.9473 99.2696 13.1221 0.0000 -5.5523 0.0000
# 3 8.4004 13.1221 29.0991 0.0000 -3.0956 0.0000
# 4 0.0000 0.0000 0.0000 16.9989 0.0000 -4.2438
# 5 -27.0103 -5.5523 -3.0956 0.0000 22.4370 0.0000
# 6 0.0000 0.0000 0.0000 -4.2438 0.0000 52.9666
#
#
#
# Elastic Compliance Matrix: (Units=1/GPa)
#
#
# Indices 1 2 3 4 5 6 
#
# 1 0.026759 -0.009033 -0.000469 0.000000 0.029914 0.000000
# 2 -0.009033 0.013852 -0.004497 0.000000 -0.008067 0.000000
# 3 -0.000469 -0.004497 0.036892 0.000000 0.003412 0.000000
# 4 0.000000 0.000000 0.000000 0.060028 0.000000 0.004810
# 5 0.029914 -0.008067 0.003412 0.000000 0.079055 0.000000
# 6 0.000000 0.000000 0.000000 0.004810 0.000000 0.019265
#
#
# Mechanical properties :
#
#
# Convention : Reuss Voigt Hill
#
# Bulk Modulus (GPa) = 20.20025 36.94498 28.57262
# Shear Modulus (GPa) = 17.83478 28.35352 23.09415
#
# Velocity S-wave (km/s) = 2.85139 3.59523 3.24469
# Velocity P-wave (km/s) = 4.47765 5.83751 5.20220
#
# Compressibility (1/GPa) = 0.04950433
#
# Stress axis : x y z
#
# Youngs Moduli (GPa) = 37.36997 72.19238 27.10639
#
# Poissons Ratio (x) = 0.65213 0.01272
# Poissons Ratio (y) = 0.33757 0.12189
# Poissons Ratio (z) = 0.01753 0.32464
#
# Static dielectric constant tensor:
#      x y z
#    x 4.669820 0.000000 -0.473040 
#    y 0.000000 4.143400 0.000000 
#    z -0.473040 0.000000 3.469350 
# 
# 
# High freq. dielectric constant tensor:
#      x y z
#    x 1.875350 0.000000 -0.033390 
#    y 0.000000 1.866840 0.000000 
#    z -0.033390 0.000000 1.824790 
# 
# From -- ./inp_files/66056.got.cif
#   From: 2010.06.25/outbox.cif.g09.slc.cpg/sg13_34_cif.got.tgz:66056.got - 2010.06.28 04:50:58.
