data_PCOD8119447
_publ_section_title
;
Structure prediction by ZEFSAII (Michael W. Deem and Ramdas Pophale) SiO2 
 PCOD8119447
Probable space group: P 2/C
;
_chemical_formula_sum "Si O2"
_cell_formula_units_Z 20
_cell_length_a 17.655589
_cell_length_b 8.606943
_cell_length_c 11.932314
_cell_angle_alpha 90.000000
_cell_angle_beta 148.997068
_cell_angle_gamma 90.000000
_cell_volume 933.968291
_symmetry_space_group_name_H-M "P 2/C"
_symmetry_group_IT_number 13
_symmetry_cell_setting 'monoclinic'
loop_
_space_group_symop_operation_xyz
x,y,z
-x,y,1/2-z
-x,-y,-z
x,-y,1/2+z
loop_
_atom_site_type_symbol
_atom_site_label
_atom_site_fract_x
_atom_site_fract_y
_atom_site_fract_z
Si Si1 0.562768 0.330905 0.056229
Si Si2 0.286259 0.178894 0.619417
Si Si3 0.363895 0.142322 0.142932
Si Si4 0.827701 0.801062 0.763168
Si Si5 0.837501 0.832650 0.301669
O O1 0.565435 0.263403 0.183509
O O2 0.725884 0.312461 0.209581
O O3 0.500000 0.500000 0.000000
O O4 0.453870 0.238451 0.835114
O O5 0.201292 0.245117 0.403372
O O6 0.207833 0.233256 0.634449
O O7 0.279557 0.991684 0.604314
O O8 0.500000 0.063177 0.250000
O O9 0.257138 0.236027 0.921550
O O10 0.800053 0.983435 0.749147
O O11 0.997214 0.775760 0.010261
#
# Coordination Sequence:
#
# PCOD8119447 Si02
#       5
#     4   4   4   4   4
#     4  12  25  41  62  89 131 175 215 258 315 396
#     4  11  20  40  66  93 123 163 216 270 320 381
#     4  11  21  37  67  92 125 164 219 274 320 383
#     4  10  22  38  64 101 127 159 210 270 332 378
#     4  10  20  38  68  99 126 156 209 279 327 376
#
# _framework density 21.414002
#
# number of rings (size 3 to 8) (size 9 to 14) (size 15 to 20)
#    0.000    1.200    4.000    4.200    0.000    2.400 
#    0.000    1.000    4.400    0.000    0.000    0.000 
#    0.000    0.000    0.000    0.000    0.000    0.000 
#
# Total GULP energy -247905.793220 kJ/mol
# GULP energy per Si atom -12395.289661 kJ/mol
# Density = 2.136526 g / cm^3
# Si number density = 21.414002 Si / 1000 Ang^3
#
#
#
# Elastic Constant Matrix: (Units=GPa)
#
#
# Indices 1 2 3 4 5 6 
#
# 1 82.7129 30.7443 38.5795 0.0000 4.7172 0.0000
# 2 30.7443 67.6129 26.5599 0.0000 -1.0674 0.0000
# 3 38.5795 26.5599 161.5626 0.0000 -4.0895 0.0000
# 4 0.0000 0.0000 0.0000 10.3920 0.0000 10.3028
# 5 4.7172 -1.0674 -4.0895 0.0000 45.4074 0.0000
# 6 0.0000 0.0000 0.0000 10.3028 0.0000 25.0033
#
#
#
# Elastic Compliance Matrix: (Units=1/GPa)
#
#
# Indices 1 2 3 4 5 6 
#
# 1 0.015790 -0.006105 -0.002818 0.000000 -0.002038 0.000000
# 2 -0.006105 0.018172 -0.001506 0.000000 0.000926 0.000000
# 3 -0.002818 -0.001506 0.007133 0.000000 0.000900 0.000000
# 4 0.000000 0.000000 0.000000 0.162690 0.000000 -0.067038
# 5 -0.002038 0.000926 0.000900 0.000000 0.022337 0.000000
# 6 0.000000 0.000000 0.000000 -0.067038 0.000000 0.067618
#
#
# Mechanical properties :
#
#
# Convention : Reuss Voigt Hill
#
# Bulk Modulus (GPa) = 49.41648 55.96177 52.68912
# Shear Modulus (GPa) = 15.55957 30.56084 23.06021
#
# Velocity S-wave (km/s) = 2.69849 3.78185 3.28514
# Velocity P-wave (km/s) = 5.73027 6.72755 6.24883
#
# Compressibility (1/GPa) = 0.02023616
#
# Stress axis : x y z
#
# Youngs Moduli (GPa) = 63.33120 55.02876 140.19436
#
# Poissons Ratio (x) = 0.33594 0.39513
# Poissons Ratio (y) = 0.38663 0.21116
# Poissons Ratio (z) = 0.17850 0.08288
#
# Static dielectric constant tensor:
#      x y z
#    x 3.920040 0.000000 -0.162200 
#    y 0.000000 3.286850 0.000000 
#    z -0.162200 0.000000 4.190580 
# 
# 
# High freq. dielectric constant tensor:
#      x y z
#    x 1.848870 0.000000 -0.010160 
#    y 0.000000 1.781520 0.000000 
#    z -0.010160 0.000000 1.861640 
# 
# From -- ./inp_files/32417.got.cif
#   From: 2010.06.25/outbox.cif.g09.slc.cpg/sg13_17_cif.got.tgz:32417.got - 2010.06.28 04:50:58.
