data_PCOD8119103
_publ_section_title
;
Structure prediction by ZEFSAII (Michael W. Deem and Ramdas Pophale) SiO2 
 PCOD8119103
Probable space group: P 2/C
;
_chemical_formula_sum "Si O2"
_cell_formula_units_Z 26
_cell_length_a 23.382558
_cell_length_b 10.059095
_cell_length_c 17.128988
_cell_angle_alpha 90.000000
_cell_angle_beta 20.109921
_cell_angle_gamma 90.000000
_cell_volume 1385.213365
_symmetry_space_group_name_H-M "P 2/C"
_symmetry_group_IT_number 13
_symmetry_cell_setting 'monoclinic'
loop_
_space_group_symop_operation_xyz
x,y,z
-x,y,1/2-z
-x,-y,-z
x,-y,1/2+z
loop_
_atom_site_type_symbol
_atom_site_label
_atom_site_fract_x
_atom_site_fract_y
_atom_site_fract_z
Si Si1 0.500000 0.125890 0.250000
Si Si2 0.500000 0.427505 0.750000
Si Si3 0.000000 0.758619 0.250000
Si Si4 0.898811 0.140862 0.039916
Si Si5 0.231860 0.108861 0.708998
Si Si6 0.685116 0.645486 0.591093
Si Si7 0.598612 0.354440 0.925890
Si Si8 0.621922 0.354719 0.431190
O O1 0.387725 0.047162 0.457943
O O2 0.359435 0.215075 0.390734
O O3 0.657305 0.523127 0.567780
O O4 0.558237 0.339985 0.602156
O O5 0.919965 0.852849 0.419040
O O6 0.875361 0.654385 0.370702
O O7 0.777825 0.257856 0.222423
O O8 0.815674 0.999771 0.165968
O O9 0.075916 0.151272 0.855874
O O10 0.287845 0.240647 0.682928
O O11 0.575427 0.623929 0.807637
O O12 0.687932 0.497902 0.821460
O O13 0.541186 0.316796 0.911767
#
# Coordination Sequence:
#
# PCOD8119103 Si02
#       8
#     2   2   2   4   4   4   4   4
#     4   9  16  35  60  78 106 156 192 226 276 348
#     4   9  20  37  56  86 122 150 188 238 296 352
#     4  12  20  36  56  86 114 154 198 246 272 344
#     4  11  24  38  58  88 121 150 195 243 288 343
#     4  10  22  40  58  86 119 156 192 235 291 347
#     4   9  17  33  58  82 110 153 195 233 274 341
#     4   9  19  38  61  84 115 149 199 237 282 342
#     4  10  20  37  59  89 116 149 193 244 284 341
#
# _framework density 18.769670999999999
#
# number of rings (size 3 to 8) (size 9 to 14) (size 15 to 20)
#    0.000    2.154    3.077    0.923    0.000    1.846 
#    0.000    3.077    0.000    0.923    0.000    0.000 
#    0.000    0.000    0.000    0.000    0.000    0.000 
#
# Total GULP energy -322204.757869 kJ/mol
# GULP energy per Si atom -12392.490687 kJ/mol
# Density = 1.872695 g / cm^3
# Si number density = 18.769671 Si / 1000 Ang^3
#
#
#
# Elastic Constant Matrix: (Units=GPa)
#
#
# Indices 1 2 3 4 5 6 
#
# 1 119.9424 37.0800 51.0968 0.0000 10.7171 0.0000
# 2 37.0800 78.0503 46.5134 0.0000 -1.6549 0.0000
# 3 51.0968 46.5134 95.5547 0.0000 -0.9814 0.0000
# 4 0.0000 0.0000 0.0000 188.2753 0.0000 45.6882
# 5 10.7171 -1.6549 -0.9814 0.0000 38.3848 0.0000
# 6 0.0000 0.0000 0.0000 45.6882 0.0000 36.5001
#
#
#
# Elastic Compliance Matrix: (Units=1/GPa)
#
#
# Indices 1 2 3 4 5 6 
#
# 1 0.011563 -0.002621 -0.004943 0.000000 -0.003468 0.000000
# 2 -0.002621 0.018654 -0.007665 0.000000 0.001340 0.000000
# 3 -0.004943 -0.007665 0.016855 0.000000 0.001481 0.000000
# 4 0.000000 0.000000 0.000000 0.007629 0.000000 -0.009549
# 5 -0.003468 0.001340 0.001481 0.000000 0.027116 0.000000
# 6 0.000000 0.000000 0.000000 -0.009549 0.000000 0.039350
#
#
# Mechanical properties :
#
#
# Convention : Reuss Voigt Hill
#
# Bulk Modulus (GPa) = 60.19120 62.54753 61.36937
# Shear Modulus (GPa) = 31.81439 63.22251 47.51845
#
# Velocity S-wave (km/s) = 4.12149 5.81003 5.03702
# Velocity P-wave (km/s) = 7.40181 8.85464 8.16062
#
# Compressibility (1/GPa) = 0.01661372
#
# Stress axis : x y z
#
# Youngs Moduli (GPa) = 86.48018 53.60891 59.33106
#
# Poissons Ratio (x) = 0.14052 0.29328
# Poissons Ratio (y) = 0.22669 0.45475
# Poissons Ratio (z) = 0.42747 0.41089
#
# Static dielectric constant tensor:
#      x y z
#    x 3.787200 0.000000 0.200130 
#    y 0.000000 3.333360 0.000000 
#    z 0.200130 0.000000 3.562840 
# 
# 
# High freq. dielectric constant tensor:
#      x y z
#    x 1.747940 0.000000 0.002450 
#    y 0.000000 1.702610 0.000000 
#    z 0.002450 0.000000 1.720720 
# 
# From -- ./inp_files/68421.got.cif
#   From: 2010.06.25/outbox.cif.g09.slc.cpg/sg13_35_cif.got.tgz:68421.got - 2010.06.28 04:50:58.
