data_PCOD8119943
_publ_section_title
;
Structure prediction by ZEFSAII (Michael W. Deem and Ramdas Pophale) SiO2 
 PCOD8119943
Probable space group: P 2/C
;
_chemical_formula_sum "Si O2"
_cell_formula_units_Z 16
_cell_length_a 9.603338
_cell_length_b 15.421566
_cell_length_c 5.152478
_cell_angle_alpha 90.000000
_cell_angle_beta 81.094108
_cell_angle_gamma 90.000000
_cell_volume 753.874657
_symmetry_space_group_name_H-M "P 2/C"
_symmetry_group_IT_number 13
_symmetry_cell_setting 'monoclinic'
loop_
_space_group_symop_operation_xyz
x,y,z
-x,y,1/2-z
-x,-y,-z
x,-y,1/2+z
loop_
_atom_site_type_symbol
_atom_site_label
_atom_site_fract_x
_atom_site_fract_y
_atom_site_fract_z
Si Si1 0.157154 0.828815 0.227338
Si Si2 0.562500 0.096470 0.978661
Si Si3 0.334062 0.449608 0.274152
Si Si4 0.158390 0.716489 0.732291
O O1 0.268389 0.903627 0.108879
O O2 0.187318 0.790267 0.505222
O O3 0.000000 0.869426 0.250000
O O4 0.175891 0.752959 0.015464
O O5 0.500000 0.147934 0.750000
O O6 0.500000 0.145267 0.250000
O O7 0.500000 0.000000 0.000000
O O8 0.500000 0.435838 0.250000
O O9 0.285402 0.478566 0.575291
O O10 0.267668 0.361325 0.185991
O O11 0.000000 0.680107 0.750000
#
# Coordination Sequence:
#
# PCOD8119943 Si02
#       4
#     4   4   4   4
#     4  10  21  38  58  83 116 150 190 239 288 338
#     4  10  21  38  58  85 115 145 186 233 282 344
#     4  10  21  36  53  78 113 150 189 233 284 338
#     4  10  21  36  57  84 111 148 195 237 283 338
#
# _framework density 21.223687999999999
#
# number of rings (size 3 to 8) (size 9 to 14) (size 15 to 20)
#    0.000    2.000    0.000    3.000    0.000    4.000 
#    0.000    5.000    0.000    0.000    0.000    0.000 
#    0.000    0.000    0.000    0.000    0.000    0.000 
#
# Total GULP energy -198227.790804 kJ/mol
# GULP energy per Si atom -12389.236925 kJ/mol
# Density = 2.117538 g / cm^3
# Si number density = 21.223688 Si / 1000 Ang^3
#
#
#
# Elastic Constant Matrix: (Units=GPa)
#
#
# Indices 1 2 3 4 5 6 
#
# 1 125.5856 50.8225 55.6364 0.0000 -15.3259 0.0000
# 2 50.8225 56.6742 14.0125 0.0000 -10.7002 0.0000
# 3 55.6364 14.0125 153.0397 0.0000 4.6039 0.0000
# 4 0.0000 0.0000 0.0000 15.1888 0.0000 -10.4780
# 5 -15.3259 -10.7002 4.6039 0.0000 39.0030 0.0000
# 6 0.0000 0.0000 0.0000 -10.4780 0.0000 34.8798
#
#
#
# Elastic Compliance Matrix: (Units=1/GPa)
#
#
# Indices 1 2 3 4 5 6 
#
# 1 0.015165 -0.011870 -0.004524 0.000000 0.003237 0.000000
# 2 -0.011870 0.028445 0.001622 0.000000 0.002948 0.000000
# 3 -0.004524 0.001622 0.008099 0.000000 -0.002289 0.000000
# 4 0.000000 0.000000 0.000000 0.083048 0.000000 0.024948
# 5 0.003237 0.002948 -0.002289 0.000000 0.027990 0.000000
# 6 0.000000 0.000000 0.000000 0.024948 0.000000 0.036164
#
#
# Mechanical properties :
#
#
# Convention : Reuss Voigt Hill
#
# Bulk Modulus (GPa) = 45.11442 64.02693 54.57068
# Shear Modulus (GPa) = 21.20051 32.13620 26.66835
#
# Velocity S-wave (km/s) = 3.16398 3.89545 3.54861
# Velocity P-wave (km/s) = 5.88646 7.10393 6.52366
#
# Compressibility (1/GPa) = 0.02216586
#
# Stress axis : x y z
#
# Youngs Moduli (GPa) = 65.93971 35.15613 123.46950
#
# Poissons Ratio (x) = 0.41730 0.55855
# Poissons Ratio (y) = 0.78270 -0.20028
# Poissons Ratio (z) = 0.29830 -0.05703
#
# Static dielectric constant tensor:
#      x y z
#    x 3.403130 0.000000 -6.136090 
#    y 0.000000 3.274840 0.000000 
#    z -6.136090 0.000000 -42.907110 
# 
# 
# High freq. dielectric constant tensor:
#      x y z
#    x 1.842900 0.000000 0.010510 
#    y 0.000000 1.783850 0.000000 
#    z 0.010510 0.000000 1.865290 
# 
# From -- ./inp_files/1087.got.cif
#   From: 2010.06.25/outbox.cif.g09.slc.cpg/sg13_1_cif.got.tgz:1087.got - 2010.06.28 04:50:58.
