data_PCOD8119747
_publ_section_title
;
Structure prediction by ZEFSAII (Michael W. Deem and Ramdas Pophale) SiO2 
 PCOD8119747
Probable space group: P 2/C
;
_chemical_formula_sum "Si O2"
_cell_formula_units_Z 20
_cell_length_a 14.074041
_cell_length_b 11.846304
_cell_length_c 10.274029
_cell_angle_alpha 90.000000
_cell_angle_beta 33.825752
_cell_angle_gamma 90.000000
_cell_volume 953.541390
_symmetry_space_group_name_H-M "P 2/C"
_symmetry_group_IT_number 13
_symmetry_cell_setting 'monoclinic'
loop_
_space_group_symop_operation_xyz
x,y,z
-x,y,1/2-z
-x,-y,-z
x,-y,1/2+z
loop_
_atom_site_type_symbol
_atom_site_label
_atom_site_fract_x
_atom_site_fract_y
_atom_site_fract_z
Si Si1 0.613269 0.467772 0.747178
Si Si2 0.190499 0.325629 0.569019
Si Si3 0.585276 0.875545 0.783450
Si Si4 0.891622 0.968558 0.998808
Si Si5 0.721186 0.750187 0.249614
O O1 0.500000 0.472544 0.750000
O O2 0.768272 0.554017 0.543899
O O3 0.687025 0.342161 0.677880
O O4 0.500000 0.500000 0.000000
O O5 0.312804 0.235890 0.365940
O O6 0.219829 0.320261 0.690603
O O7 0.000000 0.292016 0.750000
O O8 0.500000 0.928288 0.750000
O O9 0.708995 0.967255 0.708989
O O10 0.440338 0.832882 0.046609
O O11 0.867804 0.833428 0.030104
O O12 0.000000 0.004977 0.750000
O O13 0.000000 0.000000 0.000000
#
# Coordination Sequence:
#
# PCOD8119747 Si02
#       5
#     4   4   4   4   4
#     4  12  23  45  68  97 135 177 230 282 330 410
#     4  11  22  41  69  95 133 181 219 277 354 404
#     4  10  20  41  70  96 132 181 228 274 346 420
#     4  12  26  45  68 102 144 173 227 293 345 407
#     4  11  24  42  69  99 133 182 232 272 342 416
#
# _framework density 20.974443000000001
#
# number of rings (size 3 to 8) (size 9 to 14) (size 15 to 20)
#    0.000    0.800    4.000    5.400    0.000    4.000 
#    3.600    0.000    0.000    0.000    0.000    0.000 
#    0.000    0.000    0.000    0.000    0.000    0.000 
#
# Total GULP energy -248028.156783 kJ/mol
# GULP energy per Si atom -12401.407839 kJ/mol
# Density = 2.092670 g / cm^3
# Si number density = 20.974443 Si / 1000 Ang^3
#
#
#
# Elastic Constant Matrix: (Units=GPa)
#
#
# Indices 1 2 3 4 5 6 
#
# 1 122.6363 37.4388 44.8925 0.0000 -7.1520 0.0000
# 2 37.4388 99.4738 13.2849 0.0000 -1.2166 0.0000
# 3 44.8925 13.2849 62.8500 0.0000 -6.6920 0.0000
# 4 0.0000 0.0000 0.0000 11.3799 0.0000 -18.7621
# 5 -7.1520 -1.2166 -6.6920 0.0000 34.5838 0.0000
# 6 0.0000 0.0000 0.0000 -18.7621 0.0000 42.7264
#
#
#
# Elastic Compliance Matrix: (Units=1/GPa)
#
#
# Indices 1 2 3 4 5 6 
#
# 1 0.012148 -0.003514 -0.007842 0.000000 0.000871 0.000000
# 2 -0.003514 0.011362 0.000075 0.000000 -0.000313 0.000000
# 3 -0.007842 0.000075 0.021772 0.000000 0.002594 0.000000
# 4 0.000000 0.000000 0.000000 0.318367 0.000000 0.139802
# 5 0.000871 -0.000313 0.002594 0.000000 0.029586 0.000000
# 6 0.000000 0.000000 0.000000 0.139802 0.000000 0.084795
#
#
# Mechanical properties :
#
#
# Convention : Reuss Voigt Hill
#
# Bulk Modulus (GPa) = 44.01212 52.91029 48.46121
# Shear Modulus (GPa) = 9.83932 30.36093 20.10012
#
# Velocity S-wave (km/s) = 2.16824 3.80876 3.09902
# Velocity P-wave (km/s) = 5.22471 6.68005 5.99669
#
# Compressibility (1/GPa) = 0.02272101
#
# Stress axis : x y z
#
# Youngs Moduli (GPa) = 82.31500 88.01497 45.92979
#
# Poissons Ratio (x) = 0.30932 0.36017
# Poissons Ratio (y) = 0.28928 -0.00346
# Poissons Ratio (z) = 0.64550 -0.00663
#
# Static dielectric constant tensor:
#      x y z
#    x 11.240170 0.000000 1.017320 
#    y 0.000000 4.291800 0.000000 
#    z 1.017320 0.000000 3.832000 
# 
# 
# High freq. dielectric constant tensor:
#      x y z
#    x 1.822690 0.000000 -0.007000 
#    y 0.000000 1.833510 0.000000 
#    z -0.007000 0.000000 1.821160 
# 
# From -- ./inp_files/36817.got.cif
#   From: 2010.06.25/outbox.cif.g09.slc.cpg/sg13_19_cif.got.tgz:36817.got - 2010.06.28 04:50:58.
