data_PCOD8119808
_publ_section_title
;
Structure prediction by ZEFSAII (Michael W. Deem and Ramdas Pophale) SiO2 
 PCOD8119808
Probable space group: P 2/C
;
_chemical_formula_sum "Si O2"
_cell_formula_units_Z 24
_cell_length_a 13.906300
_cell_length_b 13.383486
_cell_length_c 8.896801
_cell_angle_alpha 90.000000
_cell_angle_beta 43.439211
_cell_angle_gamma 90.000000
_cell_volume 1138.520498
_symmetry_space_group_name_H-M "P 2/C"
_symmetry_group_IT_number 13
_symmetry_cell_setting 'monoclinic'
loop_
_space_group_symop_operation_xyz
x,y,z
-x,y,1/2-z
-x,-y,-z
x,-y,1/2+z
loop_
_atom_site_type_symbol
_atom_site_label
_atom_site_fract_x
_atom_site_fract_y
_atom_site_fract_z
Si Si1 0.650162 0.739871 0.041956
Si Si2 0.871988 0.870253 0.658911
Si Si3 0.696931 0.429447 0.264264
Si Si4 0.500000 0.655984 0.750000
Si Si5 0.000000 0.983152 0.250000
Si Si6 0.010840 0.675034 0.069711
Si Si7 0.285784 0.343987 0.719805
O O1 0.500000 0.783655 0.250000
O O2 0.734219 0.714308 0.100379
O O3 0.716967 0.828862 0.866499
O O4 0.629982 0.638224 0.970820
O O5 0.890324 0.917683 0.471993
O O6 0.964908 0.770189 0.565839
O O7 0.908460 0.950127 0.743566
O O8 0.625418 0.404602 0.186976
O O9 0.654537 0.544224 0.333022
O O10 0.865281 0.407790 0.075972
O O11 0.595970 0.715218 0.516506
O O12 0.863104 0.632990 0.186235
O O13 0.000000 0.716499 0.250000
#
# Coordination Sequence:
#
# PCOD8119808 Si02
#       7
#     4   4   4   2   2   4   4
#     4  11  24  41  61  94 133 168 214 266 318 375
#     4  10  22  41  68  96 122 158 200 267 322 393
#     4  11  24  39  60  87 128 176 227 264 304 358
#     4  12  22  36  58  84 116 172 228 260 310 356
#     4  10  20  42  72  96 118 154 206 254 334 406
#     4  11  22  40  60  92 126 161 215 271 313 362
#     4  12  24  38  61  86 128 179 225 261 310 361
#
# _framework density 21.079989999999999
#
# number of rings (size 3 to 8) (size 9 to 14) (size 15 to 20)
#    0.000    1.000    4.167    3.000    2.333    2.000 
#    0.000    0.833    0.000    0.000    0.000    0.000 
#    0.000    0.000    0.000    0.000    0.000    0.000 
#
# Total GULP energy -297325.523560 kJ/mol
# GULP energy per Si atom -12388.563482 kJ/mol
# Density = 2.103201 g / cm^3
# Si number density = 21.079990 Si / 1000 Ang^3
#
#
#
# Elastic Constant Matrix: (Units=GPa)
#
#
# Indices 1 2 3 4 5 6 
#
# 1 110.2163 14.7343 38.2640 0.0000 4.9832 0.0000
# 2 14.7343 74.4369 45.1226 0.0000 7.2397 0.0000
# 3 38.2640 45.1226 151.4176 0.0000 3.0532 0.0000
# 4 0.0000 0.0000 0.0000 21.7609 0.0000 3.8062
# 5 4.9832 7.2397 3.0532 0.0000 37.6370 0.0000
# 6 0.0000 0.0000 0.0000 3.8062 0.0000 14.0784
#
#
#
# Elastic Compliance Matrix: (Units=1/GPa)
#
#
# Indices 1 2 3 4 5 6 
#
# 1 0.010004 -0.000438 -0.002376 0.000000 -0.001048 0.000000
# 2 -0.000438 0.016707 -0.004812 0.000000 -0.002765 0.000000
# 3 -0.002376 -0.004812 0.008628 0.000000 0.000540 0.000000
# 4 0.000000 0.000000 0.000000 0.048235 0.000000 -0.013041
# 5 -0.001048 -0.002765 0.000540 0.000000 0.027196 0.000000
# 6 0.000000 0.000000 0.000000 -0.013041 0.000000 0.074557
#
#
# Mechanical properties :
#
#
# Convention : Reuss Voigt Hill
#
# Bulk Modulus (GPa) = 49.78630 59.14584 54.46607
# Shear Modulus (GPa) = 24.12250 30.55857 27.34054
#
# Velocity S-wave (km/s) = 3.38647 3.81156 3.60528
# Velocity P-wave (km/s) = 6.24179 6.89125 6.57454
#
# Compressibility (1/GPa) = 0.02008585
#
# Stress axis : x y z
#
# Youngs Moduli (GPa) = 99.96002 59.85527 115.90198
#
# Poissons Ratio (x) = 0.02620 0.27544
# Poissons Ratio (y) = 0.04376 0.55776
# Poissons Ratio (z) = 0.23755 0.28804
#
# Static dielectric constant tensor:
#      x y z
#    x 3.853210 0.000000 0.165610 
#    y 0.000000 3.461490 0.000000 
#    z 0.165610 0.000000 4.255850 
# 
# 
# High freq. dielectric constant tensor:
#      x y z
#    x 1.828270 0.000000 0.009710 
#    y 0.000000 1.783070 0.000000 
#    z 0.009710 0.000000 1.854350 
# 
# From -- ./inp_files/19527.got.cif
#   From: 2010.06.25/outbox.cif.g09.slc.cpg/sg13_10_cif.got.tgz:19527.got - 2010.06.28 04:50:58.
