data_PCOD8119596
_publ_section_title
;
Structure prediction by ZEFSAII (Michael W. Deem and Ramdas Pophale) SiO2 
 PCOD8119596
Probable space group: P 2/C
;
_chemical_formula_sum "Si O2"
_cell_formula_units_Z 30
_cell_length_a 23.101498
_cell_length_b 14.100631
_cell_length_c 8.821502
_cell_angle_alpha 90.000000
_cell_angle_beta 29.402942
_cell_angle_gamma 90.000000
_cell_volume 1410.773046
_symmetry_space_group_name_H-M "P 2/C"
_symmetry_group_IT_number 13
_symmetry_cell_setting 'monoclinic'
loop_
_space_group_symop_operation_xyz
x,y,z
-x,y,1/2-z
-x,-y,-z
x,-y,1/2+z
loop_
_atom_site_type_symbol
_atom_site_label
_atom_site_fract_x
_atom_site_fract_y
_atom_site_fract_z
Si Si1 0.395579 0.916679 0.596115
Si Si2 0.435636 0.876424 0.033844
Si Si3 0.543697 0.407670 0.319788
Si Si4 0.000000 0.285051 0.750000
Si Si5 0.653431 0.703278 0.118921
Si Si6 0.818108 0.395327 0.735688
Si Si7 0.145231 0.590907 0.691958
Si Si8 0.790450 0.761108 0.536456
O O1 0.447152 0.906461 0.644277
O O2 0.272829 0.859594 0.860319
O O3 0.368985 0.028243 0.627362
O O4 0.500000 0.876643 0.250000
O O5 0.338297 0.812338 0.341226
O O6 0.500000 0.819811 0.750000
O O7 0.500000 0.404566 0.250000
O O8 0.500000 0.500000 0.500000
O O9 0.485275 0.321827 0.550304
O O10 0.682371 0.405339 0.006734
O O11 0.048752 0.351040 0.504959
O O12 0.099816 0.219042 0.599627
O O13 0.726097 0.632736 0.062235
O O14 0.699027 0.695482 0.842050
O O15 0.862616 0.480290 0.742798
O O16 0.884282 0.397594 0.420844
O O17 0.834326 0.295771 0.787669
#
# Coordination Sequence:
#
# PCOD8119596 Si02
#       8
#     4   4   4   2   4   4   4   4
#     4  10  20  40  60  98 128 167 208 251 322 390
#     4  10  21  34  62  94 135 167 202 250 313 393
#     4  12  23  34  54  88 137 173 199 249 311 391
#     4  10  26  48  68  88 120 170 222 278 318 366
#     4  11  21  37  57  89 132 171 204 255 311 383
#     4  12  24  40  62  94 124 171 217 263 318 383
#     4  11  24  42  62  89 123 167 222 265 315 366
#     4  11  25  41  66  89 124 169 216 267 317 371
#
# _framework density 21.264938000000001
#
# number of rings (size 3 to 8) (size 9 to 14) (size 15 to 20)
#    0.000    1.067    4.000    2.800    3.733    2.667 
#    0.000    0.000    0.000    3.200    0.000    0.000 
#    0.000    0.000    0.000    0.000    0.000    0.000 
#
# Total GULP energy -371855.542282 kJ/mol
# GULP energy per Si atom -12395.184743 kJ/mol
# Density = 2.121654 g / cm^3
# Si number density = 21.264938 Si / 1000 Ang^3
#
#
#
# Elastic Constant Matrix: (Units=GPa)
#
#
# Indices 1 2 3 4 5 6 
#
# 1 91.5730 30.6092 32.9029 0.0000 14.5118 0.0000
# 2 30.6092 101.3829 29.8008 0.0000 0.1687 0.0000
# 3 32.9029 29.8008 89.1895 0.0000 19.9391 0.0000
# 4 0.0000 0.0000 0.0000 25.3589 0.0000 -0.8170
# 5 14.5118 0.1687 19.9391 0.0000 40.3502 0.0000
# 6 0.0000 0.0000 0.0000 -0.8170 0.0000 30.9076
#
#
#
# Elastic Compliance Matrix: (Units=1/GPa)
#
#
# Indices 1 2 3 4 5 6 
#
# 1 0.013668 -0.003167 -0.003247 0.000000 -0.003298 0.000000
# 2 -0.003167 0.011814 -0.003398 0.000000 0.002769 0.000000
# 3 -0.003247 -0.003398 0.014930 0.000000 -0.006196 0.000000
# 4 0.000000 0.000000 0.000000 0.039468 0.000000 0.001043
# 5 -0.003298 0.002769 -0.006196 0.000000 0.029019 0.000000
# 6 0.000000 0.000000 0.000000 0.001043 0.000000 0.032382
#
#
# Mechanical properties :
#
#
# Convention : Reuss Voigt Hill
#
# Bulk Modulus (GPa) = 48.10239 52.08570 50.09405
# Shear Modulus (GPa) = 29.79125 31.91215 30.85170
#
# Velocity S-wave (km/s) = 3.74700 3.87808 3.81310
# Velocity P-wave (km/s) = 6.43347 6.67829 6.55703
#
# Compressibility (1/GPa) = 0.02078899
#
# Stress axis : x y z
#
# Youngs Moduli (GPa) = 73.16346 84.64587 66.97715
#
# Poissons Ratio (x) = 0.26805 0.21747
# Poissons Ratio (y) = 0.23169 0.22760
# Poissons Ratio (z) = 0.23755 0.28764
#
# Static dielectric constant tensor:
#      x y z
#    x 4.041190 0.000000 0.072640 
#    y 0.000000 3.824320 0.000000 
#    z 0.072640 0.000000 4.076540 
# 
# 
# High freq. dielectric constant tensor:
#      x y z
#    x 1.840420 0.000000 0.018720 
#    y 0.000000 1.816160 0.000000 
#    z 0.018720 0.000000 1.832590 
# 
# From -- ./inp_files/24227.got.cif
#   From: 2010.06.25/outbox.cif.g09.slc.cpg/sg13_13_cif.got.tgz:24227.got - 2010.06.28 04:50:58.
