data_PCOD8119251
_publ_section_title
;
Structure prediction by ZEFSAII (Michael W. Deem and Ramdas Pophale) SiO2 
 PCOD8119251
Probable space group: P 2/C
;
_chemical_formula_sum "Si O2"
_cell_formula_units_Z 18
_cell_length_a 5.222460
_cell_length_b 21.398251
_cell_length_c 9.219330
_cell_angle_alpha 90.000000
_cell_angle_beta 54.052085
_cell_angle_gamma 90.000000
_cell_volume 834.059374
_symmetry_space_group_name_H-M "P 2/C"
_symmetry_group_IT_number 13
_symmetry_cell_setting 'monoclinic'
loop_
_space_group_symop_operation_xyz
x,y,z
-x,y,1/2-z
-x,-y,-z
x,-y,1/2+z
loop_
_atom_site_type_symbol
_atom_site_label
_atom_site_fract_x
_atom_site_fract_y
_atom_site_fract_z
Si Si1 0.000000 0.981713 0.250000
Si Si2 0.523992 0.915776 0.586321
Si Si3 0.629575 0.673280 0.369278
Si Si4 0.366033 0.784441 0.631998
Si Si5 0.628752 0.558243 0.869701
O O1 0.878959 0.937064 0.421450
O O2 0.302785 0.023431 0.181604
O O3 0.500000 0.884241 0.750000
O O4 0.402096 0.854455 0.542151
O O5 0.500000 0.668797 0.250000
O O6 0.560236 0.741028 0.458862
O O7 0.462700 0.622508 0.524315
O O8 0.000000 0.660232 0.250000
O O9 0.500000 0.775787 0.750000
O O10 0.000000 0.765665 0.750000
O O11 0.500000 0.557055 0.750000
O O12 0.000000 0.552380 0.750000
O O13 0.500000 0.500000 0.000000
#
# Coordination Sequence:
#
# PCOD8119251 Si02
#       5
#     2   4   4   4   4
#     4  10  20  38  58  90 116 162 210 266 330 400
#     4  10  21  37  60  85 123 160 214 264 334 394
#     4  12  25  43  66  98 131 171 221 270 321 388
#     4  11  23  43  64  90 126 170 214 267 329 389
#     4  12  24  43  69 100 137 178 218 269 322 381
#
# _framework density 21.581195000000001
#
# number of rings (size 3 to 8) (size 9 to 14) (size 15 to 20)
#    0.000    0.889    1.111    6.667    1.556    0.000 
#    0.000    1.111    0.000    0.000    0.000    0.000 
#    0.000    0.000    0.000    0.000    0.000    0.000 
#
# Total GULP energy -222993.281261 kJ/mol
# GULP energy per Si atom -12388.515626 kJ/mol
# Density = 2.153208 g / cm^3
# Si number density = 21.581195 Si / 1000 Ang^3
#
#
#
# Elastic Constant Matrix: (Units=GPa)
#
#
# Indices 1 2 3 4 5 6 
#
# 1 161.4971 31.6919 75.0677 0.0000 -1.5532 0.0000
# 2 31.6919 129.9770 73.9083 0.0000 -0.5361 0.0000
# 3 75.0677 73.9083 162.0638 0.0000 -6.9087 0.0000
# 4 0.0000 0.0000 0.0000 64.5029 0.0000 -10.9848
# 5 -1.5532 -0.5361 -6.9087 0.0000 54.9749 0.0000
# 6 0.0000 0.0000 0.0000 -10.9848 0.0000 27.8664
#
#
#
# Elastic Compliance Matrix: (Units=1/GPa)
#
#
# Indices 1 2 3 4 5 6 
#
# 1 0.007899 0.000215 -0.003767 0.000000 -0.000248 0.000000
# 2 0.000215 0.010407 -0.004867 0.000000 -0.000504 0.000000
# 3 -0.003767 -0.004867 0.010183 0.000000 0.001126 0.000000
# 4 0.000000 0.000000 0.000000 0.016619 0.000000 0.006551
# 5 -0.000248 -0.000504 0.001126 0.000000 0.018320 0.000000
# 6 0.000000 0.000000 0.000000 0.006551 0.000000 0.038468
#
#
# Mechanical properties :
#
#
# Convention : Reuss Voigt Hill
#
# Bulk Modulus (GPa) = 85.83735 90.54154 88.18945
# Shear Modulus (GPa) = 40.77753 47.66015 44.21884
#
# Velocity S-wave (km/s) = 4.35155 4.70447 4.53145
# Velocity P-wave (km/s) = 8.06898 8.45898 8.26628
#
# Compressibility (1/GPa) = 0.01164994
#
# Stress axis : x y z
#
# Youngs Moduli (GPa) = 126.60478 96.09227 98.20201
#
# Poissons Ratio (x) = -0.02069 0.36997
# Poissons Ratio (y) = -0.02726 0.47796
# Poissons Ratio (z) = 0.47697 0.46769
#
# Static dielectric constant tensor:
#      x y z
#    x 3.803830 0.000000 0.019270 
#    y 0.000000 4.224850 0.000000 
#    z 0.019270 0.000000 4.293200 
# 
# 
# High freq. dielectric constant tensor:
#      x y z
#    x 1.842040 0.000000 -0.009150 
#    y 0.000000 1.874780 0.000000 
#    z -0.009150 0.000000 1.861310 
# 
# From -- ./inp_files/9870.got.cif
#   From: 2010.06.25/outbox.cif.g09.slc.cpg/sg13_5_cif.got.tgz:9870.got - 2010.06.28 04:50:58.
