data_PCOD8119690
_publ_section_title
;
Structure prediction by ZEFSAII (Michael W. Deem and Ramdas Pophale) SiO2 
 PCOD8119690
Probable space group: P 2/C
;
_chemical_formula_sum "Si O2"
_cell_formula_units_Z 28
_cell_length_a 17.485243
_cell_length_b 8.192144
_cell_length_c 16.562931
_cell_angle_alpha 90.000000
_cell_angle_beta 33.689547
_cell_angle_gamma 90.000000
_cell_volume 1316.008953
_symmetry_space_group_name_H-M "P 2/C"
_symmetry_group_IT_number 13
_symmetry_cell_setting 'monoclinic'
loop_
_space_group_symop_operation_xyz
x,y,z
-x,y,1/2-z
-x,-y,-z
x,-y,1/2+z
loop_
_atom_site_type_symbol
_atom_site_label
_atom_site_fract_x
_atom_site_fract_y
_atom_site_fract_z
Si Si1 0.767620 0.071912 0.486734
Si Si2 0.932794 0.859773 0.449377
Si Si3 0.760465 0.399799 0.401858
Si Si4 0.554531 0.331220 0.052136
Si Si5 0.000000 0.626178 0.250000
Si Si6 0.236318 0.083963 0.682731
Si Si7 0.500000 0.897817 0.750000
Si Si8 0.725083 0.764047 0.770524
O O1 0.759399 0.263399 0.473152
O O2 0.884371 0.032474 0.451581
O O3 0.792511 0.966722 0.384259
O O4 0.627874 0.016332 0.653174
O O5 0.831693 0.782137 0.604184
O O6 0.927439 0.730947 0.382179
O O7 0.084855 0.883392 0.354465
O O8 0.611826 0.492640 0.530294
O O9 0.797015 0.323641 0.282953
O O10 0.881298 0.523354 0.313153
O O11 0.523335 0.214592 0.153456
O O12 0.409721 0.344583 0.132094
O O13 0.671544 0.246877 0.893370
O O14 0.316927 0.945776 0.662595
#
# Coordination Sequence:
#
# PCOD8119690 Si02
#       8
#     4   4   4   4   2   4   2   4
#     4  10  21  39  67  95 129 171 231 277 323 400
#     4  12  21  44  70  97 129 182 233 277 326 408
#     4  11  26  42  65 100 141 178 217 287 351 397
#     4  11  21  44  67  94 139 179 221 275 348 402
#     4  12  24  44  70  94 138 188 218 276 356 396
#     4  10  21  40  66  94 129 177 226 268 331 401
#     4  10  20  40  70  98 120 178 240 270 318 412
#     4  11  25  40  69 100 136 175 230 280 332 401
#
# _framework density 21.276451000000002
#
# number of rings (size 3 to 8) (size 9 to 14) (size 15 to 20)
#    0.000    1.143    4.286    2.143    4.000    1.143 
#    0.000    0.000    0.000    0.000    0.000    0.000 
#    0.000    0.000    0.000    0.000    0.000    0.000 
#
# Total GULP energy -347175.313798 kJ/mol
# GULP energy per Si atom -12399.118350 kJ/mol
# Density = 2.122802 g / cm^3
# Si number density = 21.276451 Si / 1000 Ang^3
#
#
#
# Elastic Constant Matrix: (Units=GPa)
#
#
# Indices 1 2 3 4 5 6 
#
# 1 87.3305 41.7581 39.7980 0.0000 -8.0734 0.0000
# 2 41.7581 111.8466 40.7797 0.0000 0.8928 0.0000
# 3 39.7980 40.7797 114.2599 0.0000 -6.4861 0.0000
# 4 0.0000 0.0000 0.0000 40.7122 0.0000 -7.3755
# 5 -8.0734 0.8928 -6.4861 0.0000 33.2835 0.0000
# 6 0.0000 0.0000 0.0000 -7.3755 0.0000 31.7323
#
#
#
# Elastic Compliance Matrix: (Units=1/GPa)
#
#
# Indices 1 2 3 4 5 6 
#
# 1 0.015555 -0.004510 -0.003627 0.000000 0.003187 0.000000
# 2 -0.004510 0.011619 -0.002685 0.000000 -0.001929 0.000000
# 3 -0.003627 -0.002685 0.011050 0.000000 0.001346 0.000000
# 4 0.000000 0.000000 0.000000 0.025642 0.000000 0.005960
# 5 0.003187 -0.001929 0.001346 0.000000 0.031132 0.000000
# 6 0.000000 0.000000 0.000000 0.005960 0.000000 0.032899
#
#
# Mechanical properties :
#
#
# Convention : Reuss Voigt Hill
#
# Bulk Modulus (GPa) = 60.31977 62.01207 61.16592
# Shear Modulus (GPa) = 32.24340 33.88569 33.06455
#
# Velocity S-wave (km/s) = 3.89710 3.99512 3.94641
# Velocity P-wave (km/s) = 6.97581 7.10566 7.04103
#
# Compressibility (1/GPa) = 0.01657831
#
# Stress axis : x y z
#
# Youngs Moduli (GPa) = 64.28741 86.06362 90.49579
#
# Poissons Ratio (x) = 0.38818 0.32826
# Poissons Ratio (y) = 0.28996 0.24302
# Poissons Ratio (z) = 0.23319 0.23112
#
# Static dielectric constant tensor:
#      x y z
#    x 3.955710 0.000000 -0.078790 
#    y 0.000000 3.893580 0.000000 
#    z -0.078790 0.000000 4.126830 
# 
# 
# High freq. dielectric constant tensor:
#      x y z
#    x 1.836460 0.000000 -0.008010 
#    y 0.000000 1.829030 0.000000 
#    z -0.008010 0.000000 1.835110 
# 
# From -- ./inp_files/53345.got.cif
#   From: 2010.06.25/outbox.cif.g09.slc.cpg/sg13_27_cif.got.tgz:53345.got - 2010.06.28 04:50:58.
