data_PCOD8119969
_publ_section_title
;
Structure prediction by ZEFSAII (Michael W. Deem and Ramdas Pophale) SiO2 
 PCOD8119969
Probable space group: P 2/C
;
_chemical_formula_sum "Si O2"
_cell_formula_units_Z 24
_cell_length_a 8.278244
_cell_length_b 17.642187
_cell_length_c 7.912737
_cell_angle_alpha 90.000000
_cell_angle_beta 94.644282
_cell_angle_gamma 90.000000
_cell_volume 1151.831803
_symmetry_space_group_name_H-M "P 2/C"
_symmetry_group_IT_number 13
_symmetry_cell_setting 'monoclinic'
loop_
_space_group_symop_operation_xyz
x,y,z
-x,y,1/2-z
-x,-y,-z
x,-y,1/2+z
loop_
_atom_site_type_symbol
_atom_site_label
_atom_site_fract_x
_atom_site_fract_y
_atom_site_fract_z
Si Si1 0.315808 0.409840 0.198016
Si Si2 0.313345 0.037935 0.737073
Si Si3 0.821988 0.251700 0.291560
Si Si4 0.112251 0.851892 0.422793
Si Si5 0.876088 0.536058 0.115082
Si Si6 0.179759 0.101294 0.390217
O O1 0.500000 0.432698 0.250000
O O2 0.293894 0.322782 0.251497
O O3 0.210322 0.467687 0.295741
O O4 0.259763 0.414653 0.995208
O O5 0.500000 0.014942 0.750000
O O6 0.263449 0.095160 0.884593
O O7 0.286846 0.078620 0.558039
O O8 0.202991 0.962993 0.748662
O O9 0.822095 0.226334 0.490405
O O10 0.756638 0.181951 0.172746
O O11 0.000000 0.277635 0.250000
O O12 0.000000 0.836129 0.250000
O O13 0.008854 0.891331 0.567827
O O14 0.000000 0.583373 0.250000
O O15 0.000000 0.500000 0.000000
#
# Coordination Sequence:
#
# PCOD8119969 Si02
#       6
#     4   4   4   4   4   4
#     4  11  22  37  61  92 123 149 185 240 293 337
#     4  11  21  34  54  79 109 144 187 241 294 343
#     4  10  21  38  58  81 110 150 192 232 282 345
#     4   9  20  37  56  78 106 146 195 238 276 335
#     4   9  19  38  63  87 115 154 193 225 269 343
#     4  10  21  36  55  77 107 147 191 234 280 341
#
# _framework density 20.836378
#
# number of rings (size 3 to 8) (size 9 to 14) (size 15 to 20)
#    0.000    2.000    0.000    4.000    0.000    7.333 
#    0.000    5.000    0.000    2.000    0.000    0.000 
#    0.000    0.000    0.000    0.000    0.000    0.000 
#
# Total GULP energy -297394.874766 kJ/mol
# GULP energy per Si atom -12391.453115 kJ/mol
# Density = 2.078895 g / cm^3
# Si number density = 20.836378 Si / 1000 Ang^3
#
#
#
# Elastic Constant Matrix: (Units=GPa)
#
#
# Indices 1 2 3 4 5 6 
#
# 1 102.4558 33.7551 43.3637 0.0000 10.3367 0.0000
# 2 33.7551 105.4386 47.3929 0.0000 2.4159 0.0000
# 3 43.3637 47.3929 102.6840 0.0000 5.7334 0.0000
# 4 0.0000 0.0000 0.0000 29.2013 0.0000 2.1480
# 5 10.3367 2.4159 5.7334 0.0000 31.5532 0.0000
# 6 0.0000 0.0000 0.0000 2.1480 0.0000 24.3813
#
#
#
# Elastic Compliance Matrix: (Units=1/GPa)
#
#
# Indices 1 2 3 4 5 6 
#
# 1 0.012522 -0.002068 -0.004156 0.000000 -0.003189 0.000000
# 2 -0.002068 0.012308 -0.004842 0.000000 0.000615 0.000000
# 3 -0.004156 -0.004842 0.013771 0.000000 -0.000770 0.000000
# 4 0.000000 0.000000 0.000000 0.034468 0.000000 -0.003037
# 5 -0.003189 0.000615 -0.000770 0.000000 0.032830 0.000000
# 6 0.000000 0.000000 0.000000 -0.003037 0.000000 0.041283
#
#
# Mechanical properties :
#
#
# Convention : Reuss Voigt Hill
#
# Bulk Modulus (GPa) = 60.71277 62.17798 61.44538
# Shear Modulus (GPa) = 28.60341 29.43161 29.01751
#
# Velocity S-wave (km/s) = 3.70910 3.76242 3.73585
# Velocity P-wave (km/s) = 6.89524 6.98428 6.93991
#
# Compressibility (1/GPa) = 0.01647100
#
# Stress axis : x y z
#
# Youngs Moduli (GPa) = 79.85843 81.24475 72.61461
#
# Poissons Ratio (x) = 0.16800 0.30176
# Poissons Ratio (y) = 0.16514 0.35160
# Poissons Ratio (z) = 0.33187 0.39338
#
# Static dielectric constant tensor:
#      x y z
#    x 3.714200 0.000000 0.142820 
#    y 0.000000 3.554150 0.000000 
#    z 0.142820 0.000000 4.584510 
# 
# 
# High freq. dielectric constant tensor:
#      x y z
#    x 1.805520 0.000000 0.004230 
#    y 0.000000 1.794170 0.000000 
#    z 0.004230 0.000000 1.836050 
# 
# From -- ./inp_files/12837.got.cif
#   From: 2010.06.25/outbox.cif.g09.slc.cpg/sg13_7_cif.got.tgz:12837.got - 2010.06.28 04:50:58.
