data_PCOD8119494
_publ_section_title
;
Structure prediction by ZEFSAII (Michael W. Deem and Ramdas Pophale) SiO2 
 PCOD8119494
Probable space group: P 2/C
;
_chemical_formula_sum "Si O2"
_cell_formula_units_Z 28
_cell_length_a 18.029196
_cell_length_b 6.485037
_cell_length_c 16.944983
_cell_angle_alpha 90.000000
_cell_angle_beta 45.067664
_cell_angle_gamma 90.000000
_cell_volume 1402.578693
_symmetry_space_group_name_H-M "P 2/C"
_symmetry_group_IT_number 13
_symmetry_cell_setting 'monoclinic'
loop_
_space_group_symop_operation_xyz
x,y,z
-x,y,1/2-z
-x,-y,-z
x,-y,1/2+z
loop_
_atom_site_type_symbol
_atom_site_label
_atom_site_fract_x
_atom_site_fract_y
_atom_site_fract_z
Si Si1 0.834856 0.394718 0.190119
Si Si2 0.221509 0.520940 0.997769
Si Si3 0.460339 0.794909 0.070247
Si Si4 0.272796 0.270129 0.822161
Si Si5 0.021671 0.768374 0.644681
Si Si6 0.653738 0.545631 0.939228
Si Si7 0.143327 0.100445 0.472955
O O1 0.816305 0.625747 0.168657
O O2 0.929387 0.380288 0.181518
O O3 0.725339 0.346211 0.317329
O O4 0.869080 0.233686 0.097041
O O5 0.275529 0.517674 0.041058
O O6 0.125042 0.366358 0.066025
O O7 0.299423 0.444690 0.868593
O O8 0.182058 0.753340 0.014597
O O9 0.376382 0.814206 0.202554
O O10 0.407139 0.656560 0.043314
O O11 0.564641 0.703837 0.031849
O O12 0.500000 0.000000 0.000000
O O13 0.232237 0.066137 0.893212
O O14 0.000000 0.840166 0.750000
O O15 0.037962 0.977484 0.579855
#
# Coordination Sequence:
#
# PCOD8119494 Si02
#       7
#     4   4   4   4   4   4   4
#     4  10  20  39  62  84 121 161 196 240 293 354
#     4  10  22  40  58  83 124 156 194 245 302 353
#     4  10  21  38  62  88 114 151 204 247 294 357
#     4   9  21  39  59  87 118 156 197 247 295 353
#     4  11  22  38  59  92 122 156 200 243 291 356
#     4  10  21  39  61  86 116 158 196 243 302 355
#     4  10  22  38  60  89 119 158 199 244 295 353
#
# _framework density 19.963228999999998
#
# number of rings (size 3 to 8) (size 9 to 14) (size 15 to 20)
#    0.000    2.000    1.429    1.286    0.000   10.857 
#    5.143    0.000    0.000    0.000    0.000    0.000 
#    0.000    0.000    0.000    0.000    0.000    0.000 
#
# Total GULP energy -346959.088171 kJ/mol
# GULP energy per Si atom -12391.396006 kJ/mol
# Density = 1.991779 g / cm^3
# Si number density = 19.963229 Si / 1000 Ang^3
#
#
#
# Elastic Constant Matrix: (Units=GPa)
#
#
# Indices 1 2 3 4 5 6 
#
# 1 104.4759 32.1293 32.7701 0.0000 -1.4084 0.0000
# 2 32.1293 97.9952 53.4758 0.0000 -6.9668 0.0000
# 3 32.7701 53.4758 125.0062 0.0000 -1.3124 0.0000
# 4 0.0000 0.0000 0.0000 34.7311 0.0000 -1.2040
# 5 -1.4084 -6.9668 -1.3124 0.0000 28.2453 0.0000
# 6 0.0000 0.0000 0.0000 -1.2040 0.0000 19.5399
#
#
#
# Elastic Compliance Matrix: (Units=1/GPa)
#
#
# Indices 1 2 3 4 5 6 
#
# 1 0.010928 -0.002651 -0.001733 0.000000 -0.000189 0.000000
# 2 -0.002651 0.014218 -0.005354 0.000000 0.003126 0.000000
# 3 -0.001733 -0.005354 0.010735 0.000000 -0.000908 0.000000
# 4 0.000000 0.000000 0.000000 0.028854 0.000000 0.001778
# 5 -0.000189 0.003126 -0.000908 0.000000 0.036123 0.000000
# 6 0.000000 0.000000 0.000000 0.001778 0.000000 0.051287
#
#
# Mechanical properties :
#
#
# Convention : Reuss Voigt Hill
#
# Bulk Modulus (GPa) = 60.95881 62.69198 61.82540
# Shear Modulus (GPa) = 28.23437 30.44339 29.33888
#
# Velocity S-wave (km/s) = 3.76482 3.90933 3.83776
# Velocity P-wave (km/s) = 7.03565 7.20063 7.11862
#
# Compressibility (1/GPa) = 0.01640452
#
# Stress axis : x y z
#
# Youngs Moduli (GPa) = 91.51059 70.33427 93.15448
#
# Poissons Ratio (x) = 0.18644 0.16141
# Poissons Ratio (y) = 0.24257 0.49879
# Poissons Ratio (z) = 0.15856 0.37660
#
# Static dielectric constant tensor:
#      x y z
#    x 3.532920 0.000000 0.124200 
#    y 0.000000 3.710410 0.000000 
#    z 0.124200 0.000000 4.316260 
# 
# 
# High freq. dielectric constant tensor:
#      x y z
#    x 1.763320 0.000000 0.004790 
#    y 0.000000 1.778020 0.000000 
#    z 0.004790 0.000000 1.795610 
# 
# From -- ./inp_files/70252.got.cif
#   From: 2010.06.25/outbox.cif.g09.slc.cpg/sg13_36_cif.got.tgz:70252.got - 2010.06.28 04:50:58.
