data_PCOD8119439
_publ_section_title
;
Structure prediction by ZEFSAII (Michael W. Deem and Ramdas Pophale) SiO2 
 PCOD8119439
Probable space group: P 2/C
;
_chemical_formula_sum "Si O2"
_cell_formula_units_Z 22
_cell_length_a 8.826771
_cell_length_b 8.591112
_cell_length_c 27.724944
_cell_angle_alpha 90.000000
_cell_angle_beta 148.383724
_cell_angle_gamma 90.000000
_cell_volume 1102.153273
_symmetry_space_group_name_H-M "P 2/C"
_symmetry_group_IT_number 13
_symmetry_cell_setting 'monoclinic'
loop_
_space_group_symop_operation_xyz
x,y,z
-x,y,1/2-z
-x,-y,-z
x,-y,1/2+z
loop_
_atom_site_type_symbol
_atom_site_label
_atom_site_fract_x
_atom_site_fract_y
_atom_site_fract_z
Si Si1 0.711993 0.930896 0.943771
Si Si2 0.269323 0.808185 0.357440
Si Si3 0.280212 0.545309 0.013516
Si Si4 0.689286 0.640131 0.881023
Si Si5 0.898037 0.736930 0.085301
Si Si6 0.500000 0.569880 0.250000
O O1 0.580085 0.811957 0.867576
O O2 0.465904 0.055664 0.889204
O O3 0.811575 0.851565 0.019595
O O4 0.000000 0.000000 0.000000
O O5 0.435486 0.646513 0.406883
O O6 0.159204 0.836747 0.381917
O O7 0.000000 0.782403 0.250000
O O8 0.252684 0.448951 0.054443
O O9 0.289308 0.422946 0.971114
O O10 0.990714 0.652371 0.932402
O O11 0.462882 0.543992 0.786565
O O12 0.231277 0.685736 0.171800
#
# Coordination Sequence:
#
# PCOD8119439 Si02
#       6
#     4   4   4   4   4   2
#     4  11  23  42  63  86 130 177 199 246 322 390
#     4  12  24  39  61  97 128 163 206 266 317 368
#     4   9  18  37  64  86 120 161 212 251 309 364
#     4   9  18  37  62  91 117 161 210 253 302 371
#     4  10  23  40  66  91 125 165 214 257 313 373
#     4  10  20  38  68 100 118 156 226 270 300 360
#
# _framework density 19.960927999999999
#
# number of rings (size 3 to 8) (size 9 to 14) (size 15 to 20)
#    0.000    1.818    1.818    3.273    2.545    0.000 
#    3.273    9.091    0.000    0.000    0.000    0.000 
#    0.000    0.000    0.000    0.000    0.000    0.000 
#
# Total GULP energy -272598.516162 kJ/mol
# GULP energy per Si atom -12390.841644 kJ/mol
# Density = 1.991550 g / cm^3
# Si number density = 19.960928 Si / 1000 Ang^3
#
#
#
# Elastic Constant Matrix: (Units=GPa)
#
#
# Indices 1 2 3 4 5 6 
#
# 1 71.0420 24.1470 12.8135 0.0000 -3.1065 0.0000
# 2 24.1470 74.6800 24.0350 0.0000 11.7623 0.0000
# 3 12.8135 24.0350 93.2659 0.0000 10.1927 0.0000
# 4 0.0000 0.0000 0.0000 110.3469 0.0000 -24.0583
# 5 -3.1065 11.7623 10.1927 0.0000 23.0444 0.0000
# 6 0.0000 0.0000 0.0000 -24.0583 0.0000 21.9691
#
#
#
# Elastic Compliance Matrix: (Units=1/GPa)
#
#
# Indices 1 2 3 4 5 6 
#
# 1 0.016564 -0.005819 -0.001413 0.000000 0.005828 0.000000
# 2 -0.005819 0.017505 -0.002784 0.000000 -0.008488 0.000000
# 3 -0.001413 -0.002784 0.012083 0.000000 -0.004114 0.000000
# 4 0.000000 0.000000 0.000000 0.011905 0.000000 0.013037
# 5 0.005828 -0.008488 -0.004114 0.000000 0.050332 0.000000
# 6 0.000000 0.000000 0.000000 0.013037 0.000000 0.059795
#
#
# Mechanical properties :
#
#
# Convention : Reuss Voigt Hill
#
# Bulk Modulus (GPa) = 38.28493 40.10878 39.19686
# Shear Modulus (GPa) = 25.39082 42.93826 34.16454
#
# Velocity S-wave (km/s) = 3.57042 4.64304 4.14160
# Velocity P-wave (km/s) = 6.01820 6.99150 6.52303
#
# Compressibility (1/GPa) = 0.02611994
#
# Stress axis : x y z
#
# Youngs Moduli (GPa) = 60.37300 57.12731 82.75949
#
# Poissons Ratio (x) = 0.33241 0.11694
# Poissons Ratio (y) = 0.35130 0.23040
# Poissons Ratio (z) = 0.08531 0.15904
#
# Static dielectric constant tensor:
#      x y z
#    x 3.798700 0.000000 -0.123550 
#    y 0.000000 3.706450 0.000000 
#    z -0.123550 0.000000 3.650590 
# 
# 
# High freq. dielectric constant tensor:
#      x y z
#    x 1.781800 0.000000 -0.011020 
#    y 0.000000 1.777370 0.000000 
#    z -0.011020 0.000000 1.773930 
# 
# From -- ./inp_files/63030.got.cif
#   From: 2010.06.25/outbox.cif.g09.slc.cpg/sg13_32_cif.got.tgz:63030.got - 2010.06.28 04:50:58.
