data_PCOD8119897
_publ_section_title
;
Structure prediction by ZEFSAII (Michael W. Deem and Ramdas Pophale) SiO2 
 PCOD8119897
Probable space group: P 2/C
;
_chemical_formula_sum "Si O2"
_cell_formula_units_Z 32
_cell_length_a 14.593207
_cell_length_b 15.321319
_cell_length_c 9.857506
_cell_angle_alpha 90.000000
_cell_angle_beta 58.700090
_cell_angle_gamma 90.000000
_cell_volume 1883.239284
_symmetry_space_group_name_H-M "P 2/C"
_symmetry_group_IT_number 13
_symmetry_cell_setting 'monoclinic'
loop_
_space_group_symop_operation_xyz
x,y,z
-x,y,1/2-z
-x,-y,-z
x,-y,1/2+z
loop_
_atom_site_type_symbol
_atom_site_label
_atom_site_fract_x
_atom_site_fract_y
_atom_site_fract_z
Si Si1 0.117141 0.238427 0.881760
Si Si2 0.567572 0.597329 0.064042
Si Si3 0.999073 0.914661 0.910154
Si Si4 0.888982 0.253287 0.139869
Si Si5 0.790357 0.657476 0.970213
Si Si6 0.196039 0.679193 0.051887
Si Si7 0.424195 0.600091 0.936972
Si Si8 0.074252 0.502210 0.075589
O O1 0.146144 0.254121 0.701658
O O2 0.102444 0.138546 0.946475
O O3 0.211906 0.278517 0.899443
O O4 0.004731 0.289300 0.997717
O O5 0.500000 0.595889 0.250000
O O6 0.605284 0.499062 0.998469
O O7 0.672621 0.655539 0.998212
O O8 0.493831 0.640762 0.005347
O O9 0.000000 0.939726 0.750000
O O10 0.103560 0.851727 0.844335
O O11 0.000000 0.000000 0.000000
O O12 0.867728 0.304264 0.295066
O O13 0.798700 0.269839 0.095269
O O14 0.825592 0.564214 0.006165
O O15 0.120883 0.596026 0.081688
O O16 0.315746 0.653813 0.001475
O O17 0.500000 0.604350 0.750000
O O18 0.000000 0.465975 0.250000
O O19 0.000000 0.500000 0.000000
#
# Coordination Sequence:
#
# PCOD8119897 Si02
#       8
#     4   4   4   4   4   4   4   4
#     4  10  21  35  54  79 118 140 179 227 263 335
#     4  10  21  35  54  70  98 145 203 251 279 307
#     4  10  22  39  61  85 115 151 174 210 272 342
#     4  10  21  35  54  78 116 147 172 224 266 329
#     4  12  19  37  52  72 109 154 184 234 282 308
#     4  12  21  35  51  78 108 154 191 234 279 307
#     4  10  21  37  50  72 102 141 205 253 273 309
#     4  12  24  31  46  73 106 150 199 220 256 337
#
# _framework density 16.991999
#
# number of rings (size 3 to 8) (size 9 to 14) (size 15 to 20)
#    0.750    0.500    2.500    6.000    1.750    0.000 
#    0.000    0.000    0.000    0.000    0.000    0.000 
#    0.000   20.000    0.000    0.000    0.000    0.000 
#
# Total GULP energy -396483.234266 kJ/mol
# GULP energy per Si atom -12390.101071 kJ/mol
# Density = 1.695332 g / cm^3
# Si number density = 16.991999 Si / 1000 Ang^3
#
#
#
# Elastic Constant Matrix: (Units=GPa)
#
#
# Indices 1 2 3 4 5 6 
#
# 1 121.2606 38.2798 24.7808 0.0000 18.0391 0.0000
# 2 38.2798 90.4112 32.6153 0.0000 11.5489 0.0000
# 3 24.7808 32.6153 71.9279 0.0000 23.8211 0.0000
# 4 0.0000 0.0000 0.0000 25.9032 0.0000 9.0783
# 5 18.0391 11.5489 23.8211 0.0000 35.7905 0.0000
# 6 0.0000 0.0000 0.0000 9.0783 0.0000 16.9607
#
#
#
# Elastic Compliance Matrix: (Units=1/GPa)
#
#
# Indices 1 2 3 4 5 6 
#
# 1 0.010023 -0.003550 -0.000705 0.000000 -0.003437 0.000000
# 2 -0.003550 0.014485 -0.005631 0.000000 0.000863 0.000000
# 3 -0.000705 -0.005631 0.020498 0.000000 -0.011470 0.000000
# 4 0.000000 0.000000 0.000000 0.047520 0.000000 -0.025435
# 5 -0.003437 0.000863 -0.011470 0.000000 0.037028 0.000000
# 6 0.000000 0.000000 0.000000 -0.025435 0.000000 0.072574
#
#
# Mechanical properties :
#
#
# Convention : Reuss Voigt Hill
#
# Bulk Modulus (GPa) = 39.63032 52.77240 46.20136
# Shear Modulus (GPa) = 21.70982 28.25913 24.98447
#
# Velocity S-wave (km/s) = 3.57830 4.08252 3.83870
# Velocity P-wave (km/s) = 6.35971 7.30392 6.84811
#
# Compressibility (1/GPa) = 0.02523320
#
# Stress axis : x y z
#
# Youngs Moduli (GPa) = 99.77240 69.03816 48.78605
#
# Poissons Ratio (x) = 0.24511 0.03440
# Poissons Ratio (y) = 0.35422 0.27470
# Poissons Ratio (z) = 0.07034 0.38873
#
# Static dielectric constant tensor:
#      x y z
#    x 3.203970 0.000000 0.225580 
#    y 0.000000 2.900260 0.000000 
#    z 0.225580 0.000000 3.199280 
# 
# 
# High freq. dielectric constant tensor:
#      x y z
#    x 1.654960 0.000000 0.024500 
#    y 0.000000 1.615590 0.000000 
#    z 0.024500 0.000000 1.663070 
# 
# From -- ./inp_files/19626.got.cif
#   From: 2010.06.25/outbox.cif.g09.slc.cpg/sg13_10_cif.got.tgz:19626.got - 2010.06.28 04:50:58.
