data_PCOD8119860
_publ_section_title
;
Structure prediction by ZEFSAII (Michael W. Deem and Ramdas Pophale) SiO2 
 PCOD8119860
Probable space group: P 2/C
;
_chemical_formula_sum "Si O2"
_cell_formula_units_Z 28
_cell_length_a 12.893639
_cell_length_b 13.201736
_cell_length_c 9.083280
_cell_angle_alpha 90.000000
_cell_angle_beta 56.321700
_cell_angle_gamma 90.000000
_cell_volume 1286.643652
_symmetry_space_group_name_H-M "P 2/C"
_symmetry_group_IT_number 13
_symmetry_cell_setting 'monoclinic'
loop_
_space_group_symop_operation_xyz
x,y,z
-x,y,1/2-z
-x,-y,-z
x,-y,1/2+z
loop_
_atom_site_type_symbol
_atom_site_label
_atom_site_fract_x
_atom_site_fract_y
_atom_site_fract_z
Si Si1 0.198738 0.686710 0.251017
Si Si2 0.167850 0.969059 0.626063
Si Si3 0.217918 0.135374 0.365586
Si Si4 0.412550 0.458581 0.694513
Si Si5 0.018845 0.397273 0.403931
Si Si6 0.070038 0.874814 0.419188
Si Si7 0.247912 0.351501 0.393814
O O1 0.322340 0.633365 0.217657
O O2 0.186700 0.809092 0.255857
O O3 0.084391 0.677271 0.453664
O O4 0.176288 0.639609 0.107103
O O5 0.246667 0.049011 0.465500
O O6 0.070990 0.022242 0.819289
O O7 0.254062 0.903722 0.671924
O O8 0.097313 0.893037 0.570537
O O9 0.301046 0.236103 0.338188
O O10 0.070461 0.168837 0.488656
O O11 0.500000 0.409912 0.750000
O O12 0.500000 0.500000 0.500000
O O13 0.346326 0.558189 0.812764
O O14 0.158429 0.361449 0.324079
O O15 0.000000 0.414722 0.250000
O O16 0.000000 0.500000 0.500000
#
# Coordination Sequence:
#
# PCOD8119860 Si02
#       7
#     4   4   4   4   4   4   4
#     4  12  25  42  67  95 131 175 220 264 325 391
#     4  10  21  34  52  90 138 181 206 252 304 391
#     4  11  20  34  58  90 136 175 213 247 319 381
#     4  12  28  49  68  91 124 165 223 282 334 388
#     4  12  26  40  62  95 136 171 211 260 327 397
#     4  11  20  34  58  90 136 174 213 250 315 383
#     4  12  25  42  67  95 131 176 219 265 324 392
#
# _framework density 21.762049000000001
#
# number of rings (size 3 to 8) (size 9 to 14) (size 15 to 20)
#    0.000    0.571    5.714    4.714    4.000    0.000 
#    0.000    0.000    0.000    0.000    0.000   20.000 
#    0.000    0.000    0.000    0.000    0.000    0.000 
#
# Total GULP energy -346881.730773 kJ/mol
# GULP energy per Si atom -12388.633242 kJ/mol
# Density = 2.171252 g / cm^3
# Si number density = 21.762049 Si / 1000 Ang^3
#
#
#
# Elastic Constant Matrix: (Units=GPa)
#
#
# Indices 1 2 3 4 5 6 
#
# 1 88.1343 25.3069 32.9262 0.0000 20.4656 0.0000
# 2 25.3069 87.3806 17.4140 0.0000 -0.8182 0.0000
# 3 32.9262 17.4140 109.5980 0.0000 31.6346 0.0000
# 4 0.0000 0.0000 0.0000 32.5396 0.0000 6.7866
# 5 20.4656 -0.8182 31.6346 0.0000 40.6598 0.0000
# 6 0.0000 0.0000 0.0000 6.7866 0.0000 22.6604
#
#
#
# Elastic Compliance Matrix: (Units=1/GPa)
#
#
# Indices 1 2 3 4 5 6 
#
# 1 0.014581 -0.003859 -0.002098 0.000000 -0.005785 0.000000
# 2 -0.003859 0.012993 -0.001988 0.000000 0.003750 0.000000
# 3 -0.002098 -0.001988 0.012609 0.000000 -0.008794 0.000000
# 4 0.000000 0.000000 0.000000 0.032779 0.000000 -0.009817
# 5 -0.005785 0.003750 -0.008794 0.000000 0.034424 0.000000
# 6 0.000000 0.000000 0.000000 -0.009817 0.000000 0.047070
#
#
# Mechanical properties :
#
#
# Convention : Reuss Voigt Hill
#
# Bulk Modulus (GPa) = 41.16196 48.48967 44.82582
# Shear Modulus (GPa) = 28.02016 33.13635 30.57825
#
# Velocity S-wave (km/s) = 3.59217 3.90637 3.75256
# Velocity P-wave (km/s) = 6.01336 6.53272 6.27841
#
# Compressibility (1/GPa) = 0.02429427
#
# Stress axis : x y z
#
# Youngs Moduli (GPa) = 68.58040 76.96402 79.31098
#
# Poissons Ratio (x) = 0.29702 0.16637
# Poissons Ratio (y) = 0.26466 0.15764
# Poissons Ratio (z) = 0.14386 0.15297
#
# Static dielectric constant tensor:
#      x y z
#    x 3.650760 0.000000 0.351870 
#    y 0.000000 4.453000 0.000000 
#    z 0.351870 0.000000 3.767010 
# 
# 
# High freq. dielectric constant tensor:
#      x y z
#    x 1.812470 0.000000 0.052440 
#    y 0.000000 1.876940 0.000000 
#    z 0.052440 0.000000 1.849900 
# 
# From -- ./inp_files/16682.got.cif
#   From: 2010.06.25/outbox.cif.g09.slc.cpg/sg13_9_cif.got.tgz:16682.got - 2010.06.28 04:50:58.
