data_PCOD8119906
_publ_section_title
;
Structure prediction by ZEFSAII (Michael W. Deem and Ramdas Pophale) SiO2 
 PCOD8119906
Probable space group: P 2/C
;
_chemical_formula_sum "Si O2"
_cell_formula_units_Z 24
_cell_length_a 23.164314
_cell_length_b 10.569088
_cell_length_c 23.133675
_cell_angle_alpha 90.000000
_cell_angle_beta 12.404316
_cell_angle_gamma 90.000000
_cell_volume 1216.616925
_symmetry_space_group_name_H-M "P 2/C"
_symmetry_group_IT_number 13
_symmetry_cell_setting 'monoclinic'
loop_
_space_group_symop_operation_xyz
x,y,z
-x,y,1/2-z
-x,-y,-z
x,-y,1/2+z
loop_
_atom_site_type_symbol
_atom_site_label
_atom_site_fract_x
_atom_site_fract_y
_atom_site_fract_z
Si Si1 0.675605 0.393742 0.354237
Si Si2 0.607546 0.766181 0.275793
Si Si3 0.089930 0.673783 0.725914
Si Si4 0.835662 0.429687 0.788993
Si Si5 0.272374 0.991836 0.770473
Si Si6 0.709639 0.282178 0.204244
O O1 0.500000 0.500000 0.500000
O O2 0.469807 0.306683 0.590420
O O3 0.889017 0.463884 0.186721
O O4 0.815374 0.317558 0.165531
O O5 0.344347 0.763700 0.491979
O O6 0.702856 0.902988 0.204000
O O7 0.851473 0.700944 0.003964
O O8 0.168261 0.522195 0.651019
O O9 0.000000 0.710417 0.750000
O O10 0.076934 0.329051 0.552287
O O11 0.566886 0.348848 0.043433
O O12 0.500000 0.000000 0.500000
O O13 0.306034 0.868394 0.778176
O O14 0.000000 0.000000 0.000000
#
# Coordination Sequence:
#
# PCOD8119906 Si02
#       6
#     4   4   4   4   4   4
#     4   9  18  31  53  81 120 149 180 231 281 357
#     4  11  23  38  59  92 119 157 204 242 297 357
#     4  11  23  42  66  86 113 150 203 267 311 342
#     4  10  21  35  56  86 114 150 194 242 296 348
#     4  12  24  38  58  85 129 171 197 232 284 367
#     4  11  21  35  55  83 124 159 188 224 288 355
#
# _framework density 19.726834
#
# number of rings (size 3 to 8) (size 9 to 14) (size 15 to 20)
#    0.000    1.333    1.667    6.000    4.667    0.000 
#    0.000    0.000    0.000    6.000    0.000    0.000 
#    0.000    0.000    0.000    0.000    0.000    0.000 
#
# Total GULP energy -297347.386815 kJ/mol
# GULP energy per Si atom -12389.474451 kJ/mol
# Density = 1.968193 g / cm^3
# Si number density = 19.726834 Si / 1000 Ang^3
#
#
#
# Elastic Constant Matrix: (Units=GPa)
#
#
# Indices 1 2 3 4 5 6 
#
# 1 77.0182 44.7233 27.1127 0.0000 -23.8987 0.0000
# 2 44.7233 128.3405 41.4329 0.0000 -11.0626 0.0000
# 3 27.1127 41.4329 126.9509 0.0000 -21.2256 0.0000
# 4 0.0000 0.0000 0.0000 29.1038 0.0000 -3.5945
# 5 -23.8987 -11.0626 -21.2256 0.0000 25.2968 0.0000
# 6 0.0000 0.0000 0.0000 -3.5945 0.0000 19.7920
#
#
#
# Elastic Compliance Matrix: (Units=1/GPa)
#
#
# Indices 1 2 3 4 5 6 
#
# 1 0.022274 -0.006288 0.000412 0.000000 0.018638 0.000000
# 2 -0.006288 0.010545 -0.002699 0.000000 -0.003594 0.000000
# 3 0.000412 -0.002699 0.009931 0.000000 0.007541 0.000000
# 4 0.000000 0.000000 0.000000 0.035148 0.000000 0.006383
# 5 0.018638 -0.003594 0.007541 0.000000 0.061895 0.000000
# 6 0.000000 0.000000 0.000000 0.006383 0.000000 0.051685
#
#
# Mechanical properties :
#
#
# Convention : Reuss Voigt Hill
#
# Bulk Modulus (GPa) = 39.06636 62.09412 50.58024
# Shear Modulus (GPa) = 23.02430 29.44125 26.23277
#
# Velocity S-wave (km/s) = 3.42007 3.86741 3.65060
# Velocity P-wave (km/s) = 5.95336 7.17550 6.59281
#
# Compressibility (1/GPa) = 0.02559747
#
# Stress axis : x y z
#
# Youngs Moduli (GPa) = 44.89538 94.83441 100.69452
#
# Poissons Ratio (x) = 0.59633 -0.04144
# Poissons Ratio (y) = 0.28231 0.27182
# Poissons Ratio (z) = -0.01847 0.25600
#
# Static dielectric constant tensor:
#      x y z
#    x 2.434910 0.000000 0.059180 
#    y 0.000000 3.754690 0.000000 
#    z 0.059180 0.000000 3.494050 
# 
# 
# High freq. dielectric constant tensor:
#      x y z
#    x 1.738540 0.000000 -0.010900 
#    y 0.000000 1.771130 0.000000 
#    z -0.010900 0.000000 1.779430 
# 
# From -- ./inp_files/89084.got.cif
#   From: 2010.06.25/outbox.cif.g09.slc.cpg/sg13_45_cif.got.tgz:89084.got - 2010.06.28 04:50:58.
