data_PCOD8119675
_publ_section_title
;
Structure prediction by ZEFSAII (Michael W. Deem and Ramdas Pophale) SiO2 
 PCOD8119675
Probable space group: P 2/C
;
_chemical_formula_sum "Si O2"
_cell_formula_units_Z 28
_cell_length_a 19.915740
_cell_length_b 8.305631
_cell_length_c 13.750853
_cell_angle_alpha 90.000000
_cell_angle_beta 33.242834
_cell_angle_gamma 90.000000
_cell_volume 1246.891728
_symmetry_space_group_name_H-M "P 2/C"
_symmetry_group_IT_number 13
_symmetry_cell_setting 'monoclinic'
loop_
_space_group_symop_operation_xyz
x,y,z
-x,y,1/2-z
-x,-y,-z
x,-y,1/2+z
loop_
_atom_site_type_symbol
_atom_site_label
_atom_site_fract_x
_atom_site_fract_y
_atom_site_fract_z
Si Si1 0.267435 0.118102 0.985622
Si Si2 0.943041 0.278322 0.645098
Si Si3 0.158722 0.876107 0.972493
Si Si4 0.274985 0.927055 0.160218
Si Si5 0.131289 0.623016 0.763583
Si Si6 0.682672 0.609954 0.790744
Si Si7 0.417768 0.268417 0.637306
O O1 0.376811 0.174415 0.783491
O O2 0.180709 0.987264 0.038550
O O3 0.179991 0.268557 0.116500
O O4 0.326279 0.040947 0.011759
O O5 0.811837 0.205165 0.782328
O O6 0.922815 0.456970 0.713230
O O7 0.015488 0.172795 0.637807
O O8 0.022490 0.282657 0.449940
O O9 0.240326 0.712982 0.881216
O O10 0.196351 0.964000 0.827479
O O11 0.385968 0.837656 0.080518
O O12 0.240128 0.579168 0.705948
O O13 0.649220 0.440408 0.782977
O O14 0.562776 0.711742 0.965156
#
# Coordination Sequence:
#
# PCOD8119675 Si02
#       7
#     4   4   4   4   4   4   4
#     4  11  24  41  63 102 134 171 230 269 336 402
#     4  10  20  40  68  89 130 178 210 272 337 384
#     4  10  23  41  64  97 132 172 216 280 326 401
#     4  11  21  41  63  96 137 168 215 275 338 386
#     4  10  21  41  70  93 127 178 223 270 327 403
#     4  10  20  47  68  91 130 175 226 271 339 383
#     4  10  24  42  70  93 132 179 217 282 322 399
#
# _framework density 22.455839000000001
#
# number of rings (size 3 to 8) (size 9 to 14) (size 15 to 20)
#    0.000    1.714    4.286    0.429    0.000    4.571 
#    5.143    1.429    0.000    0.000    0.000    0.000 
#    0.000    0.000    0.000    0.000    0.000    0.000 
#
# Total GULP energy -347266.359430 kJ/mol
# GULP energy per Si atom -12402.369980 kJ/mol
# Density = 2.240473 g / cm^3
# Si number density = 22.455839 Si / 1000 Ang^3
#
#
#
# Elastic Constant Matrix: (Units=GPa)
#
#
# Indices 1 2 3 4 5 6 
#
# 1 75.1166 32.5355 38.3607 0.0000 11.7637 0.0000
# 2 32.5355 84.0906 17.5262 0.0000 2.8284 0.0000
# 3 38.3607 17.5262 62.7857 0.0000 -3.9631 0.0000
# 4 0.0000 0.0000 0.0000 37.6786 0.0000 -1.3086
# 5 11.7637 2.8284 -3.9631 0.0000 34.6799 0.0000
# 6 0.0000 0.0000 0.0000 -1.3086 0.0000 40.5910
#
#
#
# Elastic Compliance Matrix: (Units=1/GPa)
#
#
# Indices 1 2 3 4 5 6 
#
# 1 0.024600 -0.006312 -0.013862 0.000000 -0.009414 0.000000
# 2 -0.006312 0.014318 -0.000079 0.000000 0.000964 0.000000
# 3 -0.013862 -0.000079 0.024896 0.000000 0.007554 0.000000
# 4 0.000000 0.000000 0.000000 0.026570 0.000000 0.000857
# 5 -0.009414 0.000964 0.007554 0.000000 0.032813 0.000000
# 6 0.000000 0.000000 0.000000 0.000857 0.000000 0.024664
#
#
# Mechanical properties :
#
#
# Convention : Reuss Voigt Hill
#
# Bulk Modulus (GPa) = 42.90680 44.31530 43.61105
# Shear Modulus (GPa) = 25.49229 31.49459 28.49344
#
# Velocity S-wave (km/s) = 3.37296 3.74908 3.56598
# Velocity P-wave (km/s) = 5.85814 6.20629 6.03472
#
# Compressibility (1/GPa) = 0.02330633
#
# Stress axis : x y z
#
# Youngs Moduli (GPa) = 40.65002 69.84067 40.16746
#
# Poissons Ratio (x) = 0.44085 0.55682
# Poissons Ratio (y) = 0.25659 0.00319
# Poissons Ratio (z) = 0.56351 0.00554
#
# Static dielectric constant tensor:
#      x y z
#    x 3.943720 0.000000 -0.018970 
#    y 0.000000 4.385630 0.000000 
#    z -0.018970 0.000000 3.866070 
# 
# 
# High freq. dielectric constant tensor:
#      x y z
#    x 1.873810 0.000000 -0.005410 
#    y 0.000000 1.907460 0.000000 
#    z -0.005410 0.000000 1.873920 
# 
# From -- ./inp_files/57441.got.cif
#   From: 2010.06.25/outbox.cif.g09.slc.cpg/sg13_29_cif.got.tgz:57441.got - 2010.06.28 04:50:58.
