data_PCOD8119768
_publ_section_title
;
Structure prediction by ZEFSAII (Michael W. Deem and Ramdas Pophale) SiO2 
 PCOD8119768
Probable space group: P 2/C
;
_chemical_formula_sum "Si O2"
_cell_formula_units_Z 24
_cell_length_a 12.141040
_cell_length_b 7.928902
_cell_length_c 12.763221
_cell_angle_alpha 90.000000
_cell_angle_beta 65.985382
_cell_angle_gamma 90.000000
_cell_volume 1122.302790
_symmetry_space_group_name_H-M "P 2/C"
_symmetry_group_IT_number 13
_symmetry_cell_setting 'monoclinic'
loop_
_space_group_symop_operation_xyz
x,y,z
-x,y,1/2-z
-x,-y,-z
x,-y,1/2+z
loop_
_atom_site_type_symbol
_atom_site_label
_atom_site_fract_x
_atom_site_fract_y
_atom_site_fract_z
Si Si1 0.193315 0.726262 0.673899
Si Si2 0.268515 0.604753 0.255419
Si Si3 0.500000 0.257361 0.750000
Si Si4 0.000000 0.012578 0.250000
Si Si5 0.874135 0.462109 0.497646
Si Si6 0.191445 0.204106 0.582036
Si Si7 0.614721 0.934122 0.017497
O O1 0.230679 0.586446 0.743358
O O2 0.111029 0.646792 0.613271
O O3 0.318542 0.795554 0.579603
O O4 0.108739 0.872574 0.757099
O O5 0.412348 0.624271 0.214336
O O6 0.207190 0.644770 0.390635
O O7 0.223001 0.737854 0.187813
O O8 0.422284 0.140154 0.856414
O O9 0.062819 0.894636 0.137093
O O10 0.811879 0.638943 0.494060
O O11 0.000000 0.500000 0.500000
O O12 0.294930 0.087233 0.494646
O O13 0.500000 0.000000 0.000000
#
# Coordination Sequence:
#
# PCOD8119768 Si02
#       7
#     4   4   2   2   4   4   4
#     4  10  23  41  65  91 129 168 214 265 320 376
#     4  11  23  42  66  92 127 171 216 262 319 379
#     4  12  24  42  68  94 128 168 220 266 318 392
#     4  10  20  42  64  92 126 170 204 258 330 374
#     4  11  22  40  64  97 127 170 221 260 313 385
#     4  10  23  42  67  93 135 169 210 269 324 377
#     4  11  23  43  65  94 129 169 211 269 326 379
#
# _framework density 21.384606000000002
#
# number of rings (size 3 to 8) (size 9 to 14) (size 15 to 20)
#    0.000    1.333    3.333    2.000    0.000    6.000 
#    3.000    5.000    0.000    0.000    0.000    0.000 
#    0.000    0.000    0.000    0.000    0.000    0.000 
#
# Total GULP energy -297629.888386 kJ/mol
# GULP energy per Si atom -12401.245349 kJ/mol
# Density = 2.133593 g / cm^3
# Si number density = 21.384606 Si / 1000 Ang^3
#
#
#
# Elastic Constant Matrix: (Units=GPa)
#
#
# Indices 1 2 3 4 5 6 
#
# 1 128.3420 35.0153 41.0942 0.0000 -5.0080 0.0000
# 2 35.0153 73.4730 24.2532 0.0000 -0.2870 0.0000
# 3 41.0942 24.2532 90.5426 0.0000 -7.8783 0.0000
# 4 0.0000 0.0000 0.0000 32.0435 0.0000 -12.9971
# 5 -5.0080 -0.2870 -7.8783 0.0000 37.9047 0.0000
# 6 0.0000 0.0000 0.0000 -12.9971 0.0000 32.4475
#
#
#
# Elastic Compliance Matrix: (Units=1/GPa)
#
#
# Indices 1 2 3 4 5 6 
#
# 1 0.009904 -0.003565 -0.003492 0.000000 0.000556 0.000000
# 2 -0.003565 0.016234 -0.002812 0.000000 -0.000932 0.000000
# 3 -0.003492 -0.002812 0.013586 0.000000 0.002341 0.000000
# 4 0.000000 0.000000 0.000000 0.037261 0.000000 0.014925
# 5 0.000556 -0.000932 0.002341 0.000000 0.026935 0.000000
# 6 0.000000 0.000000 0.000000 0.014925 0.000000 0.036797
#
#
# Mechanical properties :
#
#
# Convention : Reuss Voigt Hill
#
# Bulk Modulus (GPa) = 50.03211 54.78701 52.40956
# Shear Modulus (GPa) = 29.91908 33.27880 31.59894
#
# Velocity S-wave (km/s) = 3.74450 3.94915 3.84819
# Velocity P-wave (km/s) = 6.49170 6.81688 6.65628
#
# Compressibility (1/GPa) = 0.01998717
#
# Stress axis : x y z
#
# Youngs Moduli (GPa) = 100.96820 61.59917 73.60442
#
# Poissons Ratio (x) = 0.21962 0.25701
# Poissons Ratio (y) = 0.35998 0.20694
# Poissons Ratio (z) = 0.35256 0.17319
#
# Static dielectric constant tensor:
#      x y z
#    x 4.313940 0.000000 -0.156400 
#    y 0.000000 4.351410 0.000000 
#    z -0.156400 0.000000 3.939980 
# 
# 
# High freq. dielectric constant tensor:
#      x y z
#    x 1.844240 0.000000 -0.013890 
#    y 0.000000 1.848250 0.000000 
#    z -0.013890 0.000000 1.832600 
# 
# From -- ./inp_files/32543.got.cif
#   From: 2010.06.25/outbox.cif.g09.slc.cpg/sg13_17_cif.got.tgz:32543.got - 2010.06.28 04:50:58.
