data_PCOD8119029
_publ_section_title
;
Structure prediction by ZEFSAII (Michael W. Deem and Ramdas Pophale) SiO2 
 PCOD8119029
Probable space group: P 2/C
;
_chemical_formula_sum "Si O2"
_cell_formula_units_Z 26
_cell_length_a 5.112433
_cell_length_b 25.071460
_cell_length_c 10.221498
_cell_angle_alpha 90.000000
_cell_angle_beta 62.391465
_cell_angle_gamma 90.000000
_cell_volume 1160.971276
_symmetry_space_group_name_H-M "P 2/C"
_symmetry_group_IT_number 13
_symmetry_cell_setting 'monoclinic'
loop_
_space_group_symop_operation_xyz
x,y,z
-x,y,1/2-z
-x,-y,-z
x,-y,1/2+z
loop_
_atom_site_type_symbol
_atom_site_label
_atom_site_fract_x
_atom_site_fract_y
_atom_site_fract_z
Si Si1 0.755552 0.961749 0.393130
Si Si2 0.318184 0.473266 0.426666
Si Si3 0.319768 0.705731 0.418343
Si Si4 0.182225 0.636523 0.080851
Si Si5 0.728768 0.180863 0.472253
Si Si6 0.500000 0.879867 0.250000
Si Si7 0.732395 0.121802 0.098403
O O1 0.651468 0.915790 0.322306
O O2 0.885331 0.928930 0.488271
O O3 0.000000 0.994045 0.250000
O O4 0.500000 0.000000 0.500000
O O5 0.500000 0.481178 0.250000
O O6 0.500000 0.500000 0.500000
O O7 0.263174 0.411069 0.465100
O O8 0.000000 0.500000 0.500000
O O9 0.500000 0.725998 0.250000
O O10 0.506475 0.660982 0.449030
O O11 0.262459 0.755155 0.528920
O O12 0.006086 0.681062 0.451268
O O13 0.000000 0.615734 0.250000
O O14 0.726357 0.159073 0.623020
O O15 0.446475 0.161628 0.456246
O O16 0.046906 0.155857 0.358816
O O17 0.500000 0.094551 0.250000
#
# Coordination Sequence:
#
# PCOD8119029 Si02
#       7
#     4   4   4   4   4   2   4
#     4  11  25  43  67  94 128 170 211 274 330 402
#     4  12  25  44  70 100 138 192 238 289 346 409
#     4  10  20  36  63  96 128 174 217 283 332 395
#     4  10  21  38  61  99 136 171 229 282 338 392
#     4  11  21  41  69  93 131 163 226 263 330 389
#     4  10  22  40  64  98 120 168 218 268 314 408
#     4  11  25  43  64  93 127 168 213 267 325 401
#
# _framework density 22.395042
#
# number of rings (size 3 to 8) (size 9 to 14) (size 15 to 20)
#    0.000    1.231    2.308    3.692    1.077    4.308 
#    0.000    4.615    0.000    0.000    0.000    0.000 
#    0.000    0.000    0.000    0.000    0.000    0.000 
#
# Total GULP energy -322266.302812 kJ/mol
# GULP energy per Si atom -12394.857800 kJ/mol
# Density = 2.234407 g / cm^3
# Si number density = 22.395042 Si / 1000 Ang^3
#
#
#
# Elastic Constant Matrix: (Units=GPa)
#
#
# Indices 1 2 3 4 5 6 
#
# 1 104.6048 13.2559 25.3984 0.0000 -2.9084 0.0000
# 2 13.2559 76.2596 40.5696 0.0000 -4.9911 0.0000
# 3 25.3984 40.5696 123.0774 0.0000 -14.2505 0.0000
# 4 0.0000 0.0000 0.0000 -23.4883 0.0000 -42.2205
# 5 -2.9084 -4.9911 -14.2505 0.0000 34.7260 0.0000
# 6 0.0000 0.0000 0.0000 -42.2205 0.0000 -5.2602
#
#
#
# Elastic Compliance Matrix: (Units=1/GPa)
#
#
# Indices 1 2 3 4 5 6 
#
# 1 0.010103 -0.000785 -0.001828 0.000000 -0.000017 0.000000
# 2 -0.000785 0.015963 -0.005083 0.000000 0.000143 0.000000
# 3 -0.001828 -0.005083 0.010578 0.000000 0.003457 0.000000
# 4 0.000000 0.000000 0.000000 0.003171 0.000000 -0.025449
# 5 -0.000017 0.000143 0.003457 0.000000 0.030235 0.000000
# 6 0.000000 0.000000 0.000000 -0.025449 0.000000 0.014158
#
#
# Mechanical properties :
#
#
# Convention : Reuss Voigt Hill
#
# Bulk Modulus (GPa) = 47.05544 51.37662 49.21603
# Shear Modulus (GPa) = 46.86756 16.17670 31.52213
#
# Velocity S-wave (km/s) = 4.57964 2.69054 3.75580
# Velocity P-wave (km/s) = 7.00152 5.71340 6.39000
#
# Compressibility (1/GPa) = 0.02125153
#
# Stress axis : x y z
#
# Youngs Moduli (GPa) = 98.98419 62.64407 94.53445
#
# Poissons Ratio (x) = 0.04915 0.17282
# Poissons Ratio (y) = 0.07767 0.48056
# Poissons Ratio (z) = 0.18095 0.31845
#
# Static dielectric constant tensor:
#      x y z
#    x 5.145640 0.000000 -0.474360 
#    y 0.000000 3.864140 0.000000 
#    z -0.474360 0.000000 4.899840 
# 
# 
# High freq. dielectric constant tensor:
#      x y z
#    x 1.891830 0.000000 -0.002180 
#    y 0.000000 1.875030 0.000000 
#    z -0.002180 0.000000 1.888950 
# 
# From -- ./inp_files/26687.got.cif
#   From: 2010.06.25/outbox.cif.g09.slc.cpg/sg13_14_cif.got.tgz:26687.got - 2010.06.28 04:50:58.
