data_PCOD8119871
_publ_section_title
;
Structure prediction by ZEFSAII (Michael W. Deem and Ramdas Pophale) SiO2 
 PCOD8119871
Probable space group: P 2/C
;
_chemical_formula_sum "Si O2"
_cell_formula_units_Z 22
_cell_length_a 11.121706
_cell_length_b 18.207032
_cell_length_c 5.127921
_cell_angle_alpha 90.000000
_cell_angle_beta 106.826081
_cell_angle_gamma 90.000000
_cell_volume 993.914578
_symmetry_space_group_name_H-M "P 2/C"
_symmetry_group_IT_number 13
_symmetry_cell_setting 'monoclinic'
loop_
_space_group_symop_operation_xyz
x,y,z
-x,y,1/2-z
-x,-y,-z
x,-y,1/2+z
loop_
_atom_site_type_symbol
_atom_site_label
_atom_site_fract_x
_atom_site_fract_y
_atom_site_fract_z
Si Si1 0.856639 0.546838 0.647747
Si Si2 0.133285 0.193867 0.955798
Si Si3 0.712202 0.308357 0.189901
Si Si4 0.371230 0.756933 0.368081
Si Si5 0.500000 0.126099 0.250000
Si Si6 0.759544 0.952538 0.819554
O O1 0.831358 0.517046 0.341969
O O2 0.760665 0.611901 0.644699
O O3 0.000000 0.575376 0.750000
O O4 0.236367 0.201081 0.790185
O O5 0.000000 0.212355 0.750000
O O6 0.168261 0.253304 0.203925
O O7 0.139333 0.112426 0.081060
O O8 0.631866 0.306553 0.407756
O O9 0.613897 0.280492 0.905672
O O10 0.474689 0.820028 0.487504
O O11 0.382733 0.076389 0.251512
O O12 0.782787 0.985469 0.549838
#
# Coordination Sequence:
#
# PCOD8119871 Si02
#       6
#     4   4   4   4   2   4
#     4  10  21  34  55  88 125 162 193 229 284 348
#     4   9  23  38  59  84 118 157 201 236 286 358
#     4  10  21  37  57  87 120 154 195 239 288 341
#     4   9  22  35  59  87 112 148 200 245 293 338
#     4  10  22  42  64  86 116 144 200 258 304 344
#     4  11  25  41  59  87 116 153 194 246 308 352
#
# _framework density 22.134698
#
# number of rings (size 3 to 8) (size 9 to 14) (size 15 to 20)
#    1.091    1.091    0.000    1.636    7.636    3.636 
#    0.000    0.000    0.000    0.000    0.000   12.727 
#    0.000    0.000    0.000    0.000    0.000    0.000 
#
# Total GULP energy -272672.098162 kJ/mol
# GULP energy per Si atom -12394.186280 kJ/mol
# Density = 2.208432 g / cm^3
# Si number density = 22.134698 Si / 1000 Ang^3
#
#
#
# Elastic Constant Matrix: (Units=GPa)
#
#
# Indices 1 2 3 4 5 6 
#
# 1 21.7547 0.9940 16.6472 0.0000 -6.6022 0.0000
# 2 0.9940 77.3610 15.4430 0.0000 -1.0394 0.0000
# 3 16.6472 15.4430 120.8536 0.0000 -1.1041 0.0000
# 4 0.0000 0.0000 0.0000 25.6800 0.0000 2.3128
# 5 -6.6022 -1.0394 -1.1041 0.0000 34.3165 0.0000
# 6 0.0000 0.0000 0.0000 2.3128 0.0000 26.1715
#
#
#
# Elastic Compliance Matrix: (Units=1/GPa)
#
#
# Indices 1 2 3 4 5 6 
#
# 1 0.054865 0.000948 -0.007584 0.000000 0.010340 0.000000
# 2 0.000948 0.013285 -0.001823 0.000000 0.000526 0.000000
# 3 -0.007584 -0.001823 0.009541 0.000000 -0.001207 0.000000
# 4 0.000000 0.000000 0.000000 0.039253 0.000000 -0.003469
# 5 0.010340 0.000526 -0.001207 0.000000 0.031107 0.000000
# 6 0.000000 0.000000 0.000000 -0.003469 0.000000 0.038516
#
#
# Mechanical properties :
#
#
# Convention : Reuss Voigt Hill
#
# Bulk Modulus (GPa) = 16.45479 31.79307 24.12393
# Shear Modulus (GPa) = 22.34689 29.69262 26.01975
#
# Velocity S-wave (km/s) = 3.18085 3.66656 3.43230
# Velocity P-wave (km/s) = 4.57607 5.68502 5.16042
#
# Compressibility (1/GPa) = 0.06077257
#
# Stress axis : x y z
#
# Youngs Moduli (GPa) = 18.22644 75.27121 104.80926
#
# Poissons Ratio (x) = -0.07136 0.79489
# Poissons Ratio (y) = -0.01728 0.19111
# Poissons Ratio (z) = 0.13823 0.13725
#
# Static dielectric constant tensor:
#      x y z
#    x 3.717960 0.000000 0.059750 
#    y 0.000000 3.758120 0.000000 
#    z 0.059750 0.000000 4.035040 
# 
# 
# High freq. dielectric constant tensor:
#      x y z
#    x 1.858330 0.000000 0.002630 
#    y 0.000000 1.855700 0.000000 
#    z 0.002630 0.000000 1.881930 
# 
# From -- ./inp_files/3537.got.cif
#   From: 2010.06.25/outbox.cif.g09.slc.cpg/sg13_2_cif.got.tgz:3537.got - 2010.06.28 04:50:58.
