data_PCOD8119602
_publ_section_title
;
Structure prediction by ZEFSAII (Michael W. Deem and Ramdas Pophale) SiO2 
 PCOD8119602
Probable space group: P 2/C
;
_chemical_formula_sum "Si O2"
_cell_formula_units_Z 28
_cell_length_a 8.385211
_cell_length_b 9.322776
_cell_length_c 19.323503
_cell_angle_alpha 90.000000
_cell_angle_beta 75.280952
_cell_angle_gamma 90.000000
_cell_volume 1461.012426
_symmetry_space_group_name_H-M "P 2/C"
_symmetry_group_IT_number 13
_symmetry_cell_setting 'monoclinic'
loop_
_space_group_symop_operation_xyz
x,y,z
-x,y,1/2-z
-x,-y,-z
x,-y,1/2+z
loop_
_atom_site_type_symbol
_atom_site_label
_atom_site_fract_x
_atom_site_fract_y
_atom_site_fract_z
Si Si1 0.591251 0.003396 0.597527
Si Si2 0.000000 0.443794 0.250000
Si Si3 0.184760 0.285060 0.729203
Si Si4 0.765468 0.325789 0.931839
Si Si5 0.116809 0.638517 0.594744
Si Si6 0.566230 0.214081 0.483844
Si Si7 0.091446 0.856763 0.971819
Si Si8 0.500000 0.132825 0.750000
O O1 0.461414 0.917721 0.565221
O O2 0.750174 0.902529 0.590661
O O3 0.630537 0.150361 0.550480
O O4 0.513939 0.034753 0.680746
O O5 0.845877 0.548196 0.245910
O O6 0.952617 0.344412 0.319854
O O7 0.258687 0.278439 0.644336
O O8 0.327125 0.222310 0.763908
O O9 0.000000 0.208334 0.750000
O O10 0.870640 0.471787 0.928585
O O11 0.585910 0.323535 0.987554
O O12 0.869345 0.202711 0.956941
O O13 0.301377 0.692613 0.570515
O O14 0.002798 0.732619 0.558280
O O15 0.000000 0.000000 0.000000
#
# Coordination Sequence:
#
# PCOD8119602 Si02
#       8
#     4   2   4   4   4   4   4   2
#     4  10  23  38  57  91 129 157 214 260 315 388
#     4   8  22  42  56  92 130 160 212 264 328 380
#     4   9  21  39  62  89 131 164 206 271 316 386
#     4  10  21  41  61  91 123 161 216 269 315 381
#     4  11  21  39  66  89 123 174 212 263 325 387
#     4  10  20  40  61  86 126 167 204 269 322 374
#     4  11  23  37  59  91 124 163 207 262 314 381
#     4  12  22  40  66  96 126 176 218 260 326 398
#
# _framework density 19.164793
#
# number of rings (size 3 to 8) (size 9 to 14) (size 15 to 20)
#    0.429    1.429    2.857    0.857    2.000    1.143 
#    2.571    2.857    0.000    0.000    0.000    0.000 
#    0.000    0.000    0.000    0.000    0.000    0.000 
#
# Total GULP energy -346929.683295 kJ/mol
# GULP energy per Si atom -12390.345832 kJ/mol
# Density = 1.912117 g / cm^3
# Si number density = 19.164793 Si / 1000 Ang^3
#
#
#
# Elastic Constant Matrix: (Units=GPa)
#
#
# Indices 1 2 3 4 5 6 
#
# 1 103.1243 30.6801 38.3734 0.0000 -0.9615 0.0000
# 2 30.6801 71.9596 39.6184 0.0000 -0.7104 0.0000
# 3 38.3734 39.6184 132.4920 0.0000 -14.0053 0.0000
# 4 0.0000 0.0000 0.0000 30.8622 0.0000 -2.7110
# 5 -0.9615 -0.7104 -14.0053 0.0000 23.2389 0.0000
# 6 0.0000 0.0000 0.0000 -2.7110 0.0000 29.8032
#
#
#
# Elastic Compliance Matrix: (Units=1/GPa)
#
#
# Indices 1 2 3 4 5 6 
#
# 1 0.011670 -0.003666 -0.002397 0.000000 -0.001074 0.000000
# 2 -0.003666 0.017942 -0.004551 0.000000 -0.002346 0.000000
# 3 -0.002397 -0.004551 0.010229 0.000000 0.005927 0.000000
# 4 0.000000 0.000000 0.000000 0.032663 0.000000 0.002971
# 5 -0.001074 -0.002346 0.005927 0.000000 0.046487 0.000000
# 6 0.000000 0.000000 0.000000 0.002971 0.000000 0.033824
#
#
# Mechanical properties :
#
#
# Convention : Reuss Voigt Hill
#
# Bulk Modulus (GPa) = 53.72866 58.32444 56.02655
# Shear Modulus (GPa) = 27.73943 30.04112 28.89028
#
# Velocity S-wave (km/s) = 3.80862 3.96348 3.88682
# Velocity P-wave (km/s) = 6.88743 7.17250 7.03141
#
# Compressibility (1/GPa) = 0.01861204
#
# Stress axis : x y z
#
# Youngs Moduli (GPa) = 85.69174 55.73365 97.75786
#
# Poissons Ratio (x) = 0.20433 0.23434
# Poissons Ratio (y) = 0.31417 0.44494
# Poissons Ratio (z) = 0.20541 0.25367
#
# Static dielectric constant tensor:
#      x y z
#    x 3.578100 0.000000 -0.088640 
#    y 0.000000 3.548650 0.000000 
#    z -0.088640 0.000000 3.498780 
# 
# 
# High freq. dielectric constant tensor:
#      x y z
#    x 1.745560 0.000000 -0.010930 
#    y 0.000000 1.736540 0.000000 
#    z -0.010930 0.000000 1.744640 
# 
# From -- ./inp_files/63779.got.cif
#   From: 2010.06.25/outbox.cif.g09.slc.cpg/sg13_32_cif.got.tgz:63779.got - 2010.06.28 04:50:58.
