data_PCOD8119853
_publ_section_title
;
Structure prediction by ZEFSAII (Michael W. Deem and Ramdas Pophale) SiO2 
 PCOD8119853
Probable space group: P 2/C
;
_chemical_formula_sum "Si O2"
_cell_formula_units_Z 28
_cell_length_a 33.777187
_cell_length_b 9.531023
_cell_length_c 9.619339
_cell_angle_alpha 90.000000
_cell_angle_beta 30.770049
_cell_angle_gamma 90.000000
_cell_volume 1584.285622
_symmetry_space_group_name_H-M "P 2/C"
_symmetry_group_IT_number 13
_symmetry_cell_setting 'monoclinic'
loop_
_space_group_symop_operation_xyz
x,y,z
-x,y,1/2-z
-x,-y,-z
x,-y,1/2+z
loop_
_atom_site_type_symbol
_atom_site_label
_atom_site_fract_x
_atom_site_fract_y
_atom_site_fract_z
Si Si1 0.006700 0.859406 0.068284
Si Si2 0.706048 0.652439 0.952447
Si Si3 0.593870 0.107124 0.825899
Si Si4 0.131221 0.361776 0.197555
Si Si5 0.307278 0.605121 0.191156
Si Si6 0.579686 0.151324 0.181606
Si Si7 0.881876 0.372091 0.943702
O O1 0.940131 0.750582 0.223570
O O2 0.000000 0.900465 0.250000
O O3 0.088930 0.784492 0.788837
O O4 0.000000 0.000000 0.000000
O O5 0.677505 0.545673 0.921208
O O6 0.796690 0.683823 0.663511
O O7 0.661673 0.796873 0.060663
O O8 0.686058 0.588377 0.163461
O O9 0.603019 0.955335 0.731615
O O10 0.603176 0.085684 0.962525
O O11 0.512090 0.180616 0.035839
O O12 0.110132 0.407527 0.417709
O O13 0.099657 0.485133 0.194177
O O14 0.222847 0.336876 0.901450
O O15 0.373515 0.706652 0.932238
#
# Coordination Sequence:
#
# PCOD8119853 Si02
#       7
#     4   4   4   4   4   4   4
#     4  10  21  34  48  70  98 124 153 190 230 272
#     4   9  18  32  49  70  95 121 152 191 232 273
#     4   9  18  32  48  67  93 124 156 190 229 273
#     4   9  18  33  51  70  93 122 155 190 229 274
#     4   9  18  32  49  70  95 121 152 191 232 273
#     4   9  18  32  48  67  93 124 156 190 229 273
#     4   9  18  33  51  70  93 122 155 190 229 274
#
# _framework density 17.673580000000001
#
# number of rings (size 3 to 8) (size 9 to 14) (size 15 to 20)
#    0.000    2.857    0.000    0.429    0.000    4.000 
#    0.000    0.000    0.000    0.000    0.000    0.000 
#    0.000    0.000    0.000    0.000    0.000    0.000 
#
# Total GULP energy -347232.081196 kJ/mol
# GULP energy per Si atom -12401.145757 kJ/mol
# Density = 1.763335 g / cm^3
# Si number density = 17.673580 Si / 1000 Ang^3
#
#
#
# Elastic Constant Matrix: (Units=GPa)
#
#
# Indices 1 2 3 4 5 6 
#
# 1 57.0723 24.9009 6.8282 0.0000 0.0895 0.0000
# 2 24.9009 48.5631 14.6520 0.0000 3.0037 0.0000
# 3 6.8282 14.6520 50.3298 0.0000 -4.1463 0.0000
# 4 0.0000 0.0000 0.0000 32.2765 0.0000 0.5239
# 5 0.0895 3.0037 -4.1463 0.0000 14.9715 0.0000
# 6 0.0000 0.0000 0.0000 0.5239 0.0000 36.0729
#
#
#
# Elastic Compliance Matrix: (Units=1/GPa)
#
#
# Indices 1 2 3 4 5 6 
#
# 1 0.022660 -0.011952 0.000605 0.000000 0.002430 0.000000
# 2 -0.011952 0.029514 -0.007626 0.000000 -0.007962 0.000000
# 3 0.000605 -0.007626 0.022650 0.000000 0.007799 0.000000
# 4 0.000000 0.000000 0.000000 0.030990 0.000000 -0.000450
# 5 0.002430 -0.007962 0.007799 0.000000 0.070536 0.000000
# 6 0.000000 0.000000 0.000000 -0.000450 0.000000 0.027728
#
#
# Mechanical properties :
#
#
# Convention : Reuss Voigt Hill
#
# Bulk Modulus (GPa) = 27.11699 27.63635 27.37667
# Shear Modulus (GPa) = 19.66059 23.96978 21.81518
#
# Velocity S-wave (km/s) = 3.33893 3.68672 3.51713
# Velocity P-wave (km/s) = 5.49919 5.81323 5.65839
#
# Compressibility (1/GPa) = 0.03687724
#
# Stress axis : x y z
#
# Youngs Moduli (GPa) = 44.13044 33.88264 44.15101
#
# Poissons Ratio (x) = 0.40497 -0.02673
# Poissons Ratio (y) = 0.52745 0.33671
# Poissons Ratio (z) = -0.02672 0.25840
#
# Static dielectric constant tensor:
#      x y z
#    x 3.342320 0.000000 -0.084650 
#    y 0.000000 3.057720 0.000000 
#    z -0.084650 0.000000 3.385270 
# 
# 
# High freq. dielectric constant tensor:
#      x y z
#    x 1.687170 0.000000 -0.005760 
#    y 0.000000 1.666500 0.000000 
#    z -0.005760 0.000000 1.688640 
# 
# From -- ./inp_files/24864.got.cif
#   From: 2010.06.25/outbox.cif.g09.slc.cpg/sg13_13_cif.got.tgz:24864.got - 2010.06.28 04:50:58.
