data_PCOD8119515
_publ_section_title
;
Structure prediction by ZEFSAII (Michael W. Deem and Ramdas Pophale) SiO2 
 PCOD8119515
Probable space group: P 2/C
;
_chemical_formula_sum "Si O2"
_cell_formula_units_Z 26
_cell_length_a 11.468651
_cell_length_b 14.742569
_cell_length_c 13.917078
_cell_angle_alpha 90.000000
_cell_angle_beta 31.057892
_cell_angle_gamma 90.000000
_cell_volume 1213.954411
_symmetry_space_group_name_H-M "P 2/C"
_symmetry_group_IT_number 13
_symmetry_cell_setting 'monoclinic'
loop_
_space_group_symop_operation_xyz
x,y,z
-x,y,1/2-z
-x,-y,-z
x,-y,1/2+z
loop_
_atom_site_type_symbol
_atom_site_label
_atom_site_fract_x
_atom_site_fract_y
_atom_site_fract_z
Si Si1 0.284300 0.907667 0.468771
Si Si2 0.709943 0.643863 0.809892
Si Si3 0.190087 0.154131 0.239154
Si Si4 0.261241 0.562512 0.906857
Si Si5 0.744563 0.295839 0.945273
Si Si6 0.580201 0.895588 0.589144
Si Si7 0.000000 0.545325 0.750000
O O1 0.500000 0.885953 0.250000
O O2 0.275657 0.843633 0.568190
O O3 0.056407 0.889382 0.570168
O O4 0.279327 0.011610 0.508236
O O5 0.814889 0.743468 0.718232
O O6 0.803977 0.576082 0.659326
O O7 0.793566 0.606294 0.854047
O O8 0.434793 0.653904 0.000973
O O9 0.360123 0.090533 0.178565
O O10 0.500000 0.508870 0.750000
O O11 0.308066 0.665327 0.912166
O O12 0.079397 0.512384 0.101995
O O13 0.000000 0.327648 0.750000
O O14 0.730257 0.187368 0.943810
O O15 0.500000 0.866726 0.750000
#
# Coordination Sequence:
#
# PCOD8119515 Si02
#       7
#     4   4   4   4   4   4   2
#     4  10  22  38  61  91 124 164 213 257 308 368
#     4  10  23  43  66  87 133 168 200 261 313 376
#     4  10  21  43  60  85 131 167 201 262 308 363
#     4  10  22  42  64  95 125 161 210 258 306 376
#     4  10  20  39  63  92 121 166 216 252 305 366
#     4  10  21  38  60  89 124 167 210 261 309 354
#     4  12  22  42  66  98 128 164 200 254 326 372
#
# _framework density 21.417608000000001
#
# number of rings (size 3 to 8) (size 9 to 14) (size 15 to 20)
#    0.000    1.846    0.769    4.154    2.154    4.923 
#   13.846    1.538    0.000    0.000    0.000    0.000 
#    0.000    0.000    0.000    0.000    0.000    0.000 
#
# Total GULP energy -322152.046500 kJ/mol
# GULP energy per Si atom -12390.463327 kJ/mol
# Density = 2.136886 g / cm^3
# Si number density = 21.417608 Si / 1000 Ang^3
#
#
#
# Elastic Constant Matrix: (Units=GPa)
#
#
# Indices 1 2 3 4 5 6 
#
# 1 135.5134 38.0624 48.1996 0.0000 -23.6069 0.0000
# 2 38.0624 82.5473 33.3690 0.0000 -13.0924 0.0000
# 3 48.1996 33.3690 129.1974 0.0000 -18.0942 0.0000
# 4 0.0000 0.0000 0.0000 22.1886 0.0000 4.7997
# 5 -23.6069 -13.0924 -18.0942 0.0000 34.7679 0.0000
# 6 0.0000 0.0000 0.0000 4.7997 0.0000 23.5565
#
#
#
# Elastic Compliance Matrix: (Units=1/GPa)
#
#
# Indices 1 2 3 4 5 6 
#
# 1 0.009761 -0.002886 -0.002287 0.000000 0.004351 0.000000
# 2 -0.002886 0.014795 -0.002415 0.000000 0.002355 0.000000
# 3 -0.002287 -0.002415 0.009570 0.000000 0.002518 0.000000
# 4 0.000000 0.000000 0.000000 0.047146 0.000000 -0.009606
# 5 0.004351 0.002355 0.002518 0.000000 0.033914 0.000000
# 6 0.000000 0.000000 0.000000 -0.009606 0.000000 0.044408
#
#
# Mechanical properties :
#
#
# Convention : Reuss Voigt Hill
#
# Bulk Modulus (GPa) = 52.77042 65.16890 58.96966
# Shear Modulus (GPa) = 27.61116 31.27774 29.44445
#
# Velocity S-wave (km/s) = 3.59441 3.82563 3.71182
# Velocity P-wave (km/s) = 6.47446 7.07161 6.77962
#
# Compressibility (1/GPa) = 0.01895001
#
# Stress axis : x y z
#
# Youngs Moduli (GPa) = 102.44448 67.59158 104.49799
#
# Poissons Ratio (x) = 0.19510 0.23897
# Poissons Ratio (y) = 0.29570 0.25231
# Poissons Ratio (z) = 0.23427 0.16320
#
# Static dielectric constant tensor:
#      x y z
#    x 4.582770 0.000000 -0.733690 
#    y 0.000000 3.713500 0.000000 
#    z -0.733690 0.000000 4.290370 
# 
# 
# High freq. dielectric constant tensor:
#      x y z
#    x 1.849130 0.000000 -0.013600 
#    y 0.000000 1.834710 0.000000 
#    z -0.013600 0.000000 1.826440 
# 
# From -- ./inp_files/51432.got.cif
#   From: 2010.06.25/outbox.cif.g09.slc.cpg/sg13_26_cif.got.tgz:51432.got - 2010.06.28 04:50:58.
