data_PCOD8119552
_publ_section_title
;
Structure prediction by ZEFSAII (Michael W. Deem and Ramdas Pophale) SiO2 
 PCOD8119552
Probable space group: P 2/C
;
_chemical_formula_sum "Si O2"
_cell_formula_units_Z 32
_cell_length_a 21.287595
_cell_length_b 13.870665
_cell_length_c 14.981976
_cell_angle_alpha 90.000000
_cell_angle_beta 20.759821
_cell_angle_gamma 90.000000
_cell_volume 1568.012718
_symmetry_space_group_name_H-M "P 2/C"
_symmetry_group_IT_number 13
_symmetry_cell_setting 'monoclinic'
loop_
_space_group_symop_operation_xyz
x,y,z
-x,y,1/2-z
-x,-y,-z
x,-y,1/2+z
loop_
_atom_site_type_symbol
_atom_site_label
_atom_site_fract_x
_atom_site_fract_y
_atom_site_fract_z
Si Si1 0.393381 0.075098 0.086841
Si Si2 0.460085 0.597082 0.003212
Si Si3 0.525795 0.733480 0.354524
Si Si4 0.677646 0.307443 0.066007
Si Si5 0.193303 0.111808 0.524986
Si Si6 0.899971 0.399942 0.619796
Si Si7 0.209879 0.266672 0.146162
Si Si8 0.296547 0.055445 0.028783
O O1 0.280721 0.126271 0.312486
O O2 0.278724 0.024700 0.158337
O O3 0.532325 0.151357 0.860136
O O4 0.500000 0.000000 0.000000
O O5 0.613564 0.618524 0.727238
O O6 0.500000 0.500000 0.000000
O O7 0.456534 0.686156 0.073741
O O8 0.267016 0.582597 0.220165
O O9 0.335060 0.709223 0.564278
O O10 0.688936 0.696981 0.077050
O O11 0.500000 0.273935 0.250000
O O12 0.780133 0.213006 0.962192
O O13 0.826250 0.362244 0.811742
O O14 0.000000 0.085772 0.750000
O O15 0.255474 0.027579 0.511126
O O16 0.000000 0.500000 0.500000
O O17 0.025543 0.321203 0.405202
O O18 0.175329 0.151429 0.179776
O O19 0.500000 0.088098 0.750000
#
# Coordination Sequence:
#
# PCOD8119552 Si02
#       8
#     4   4   4   4   4   4   4   4
#     4  11  21  39  69  92 129 182 227 265 332 407
#     4  11  24  44  70  97 126 171 226 270 338 406
#     4  10  20  39  66  95 126 172 217 263 327 398
#     4  10  25  47  68  94 134 179 223 271 337 409
#     4  12  26  41  64 102 136 176 228 285 336 397
#     4  11  26  45  67  99 132 171 216 282 340 392
#     4  10  21  42  65  93 131 171 217 266 331 384
#     4  11  21  43  65  95 135 180 222 267 331 408
#
# _framework density 20.407997999999999
#
# number of rings (size 3 to 8) (size 9 to 14) (size 15 to 20)
#    0.000    1.250    5.000    1.125    5.250    2.000 
#    4.500    0.000    0.000    0.000    0.000    0.000 
#    0.000    0.000    0.000    0.000    0.000    0.000 
#
# Total GULP energy -396506.689880 kJ/mol
# GULP energy per Si atom -12390.834059 kJ/mol
# Density = 2.036155 g / cm^3
# Si number density = 20.407998 Si / 1000 Ang^3
#
#
#
# Elastic Constant Matrix: (Units=GPa)
#
#
# Indices 1 2 3 4 5 6 
#
# 1 127.0929 55.5321 47.5381 0.0000 19.1563 0.0000
# 2 55.5321 114.4671 66.1248 0.0000 -2.5441 0.0000
# 3 47.5381 66.1248 119.7527 0.0000 14.3749 0.0000
# 4 0.0000 0.0000 0.0000 32.4268 0.0000 -4.5972
# 5 19.1563 -2.5441 14.3749 0.0000 28.1756 0.0000
# 6 0.0000 0.0000 0.0000 -4.5972 0.0000 51.8189
#
#
#
# Elastic Compliance Matrix: (Units=1/GPa)
#
#
# Indices 1 2 3 4 5 6 
#
# 1 0.011744 -0.005508 -0.000642 0.000000 -0.008155 0.000000
# 2 -0.005508 0.016133 -0.007826 0.000000 0.009194 0.000000
# 3 -0.000642 -0.007826 0.013804 0.000000 -0.007313 0.000000
# 4 0.000000 0.000000 0.000000 0.031231 0.000000 0.002771
# 5 -0.008155 0.009194 -0.007313 0.000000 0.045597 0.000000
# 6 0.000000 0.000000 0.000000 0.002771 0.000000 0.019544
#
#
# Mechanical properties :
#
#
# Convention : Reuss Voigt Hill
#
# Bulk Modulus (GPa) = 72.82831 77.74475 75.28653
# Shear Modulus (GPa) = 29.31149 35.29212 32.30180
#
# Velocity S-wave (km/s) = 3.79393 4.16303 3.98276
# Velocity P-wave (km/s) = 7.41320 7.82852 7.62369
#
# Compressibility (1/GPa) = 0.01373092
#
# Stress axis : x y z
#
# Youngs Moduli (GPa) = 85.14924 61.98390 72.44138
#
# Poissons Ratio (x) = 0.34141 0.04649
# Poissons Ratio (y) = 0.46900 0.56689
# Poissons Ratio (z) = 0.05465 0.48506
#
# Static dielectric constant tensor:
#      x y z
#    x 3.253940 0.000000 0.062380 
#    y 0.000000 4.022790 0.000000 
#    z 0.062380 0.000000 3.641660 
# 
# 
# High freq. dielectric constant tensor:
#      x y z
#    x 1.816420 0.000000 0.020390 
#    y 0.000000 1.796440 0.000000 
#    z 0.020390 0.000000 1.792910 
# 
# From -- ./inp_files/57841.got.cif
#   From: 2010.06.25/outbox.cif.g09.slc.cpg/sg13_29_cif.got.tgz:57841.got - 2010.06.28 04:50:58.
