data_PCOD8119192
_publ_section_title
;
Structure prediction by ZEFSAII (Michael W. Deem and Ramdas Pophale) SiO2 
 PCOD8119192
Probable space group: P 2/C
;
_chemical_formula_sum "Si O2"
_cell_formula_units_Z 22
_cell_length_a 24.038049
_cell_length_b 8.680407
_cell_length_c 15.659399
_cell_angle_alpha 90.000000
_cell_angle_beta 160.652286
_cell_angle_gamma 90.000000
_cell_volume 1082.520551
_symmetry_space_group_name_H-M "P 2/C"
_symmetry_group_IT_number 13
_symmetry_cell_setting 'monoclinic'
loop_
_space_group_symop_operation_xyz
x,y,z
-x,y,1/2-z
-x,-y,-z
x,-y,1/2+z
loop_
_atom_site_type_symbol
_atom_site_label
_atom_site_fract_x
_atom_site_fract_y
_atom_site_fract_z
Si Si1 0.953937 0.701968 0.586007
Si Si2 0.177825 0.404350 0.038852
Si Si3 0.541768 0.197499 0.984790
Si Si4 0.295332 0.419148 0.546324
Si Si5 0.500000 0.648877 0.750000
Si Si6 0.369445 0.140657 0.912740
O O1 0.855041 0.539467 0.440056
O O2 0.832221 0.832151 0.369897
O O3 0.000000 0.745927 0.750000
O O4 0.126087 0.679346 0.781188
O O5 0.280951 0.268650 0.231219
O O6 0.279243 0.479335 0.108135
O O7 0.000000 0.334209 0.750000
O O8 0.450670 0.302156 0.782660
O O9 0.419682 0.182445 0.889016
O O10 0.583540 0.035465 0.000556
O O11 0.338821 0.538650 0.533598
O O12 0.469073 0.753865 0.623112
#
# Coordination Sequence:
#
# PCOD8119192 Si02
#       6
#     4   4   4   4   2   4
#     4   9  18  37  61  91 114 150 207 258 276 346
#     4   9  17  33  59  89 112 146 210 250 278 338
#     4  11  20  38  61  88 115 164 206 243 291 366
#     4  10  20  37  64  87 118 157 206 246 292 354
#     4  12  24  38  60  88 126 162 196 252 300 366
#     4  11  23  36  59  90 126 157 194 249 310 357
#
# _framework density 20.322939999999999
#
# number of rings (size 3 to 8) (size 9 to 14) (size 15 to 20)
#    0.000    2.182    5.455    1.636    0.000    2.182 
#    0.000    0.000    0.000    6.545    0.000    0.000 
#    0.000    0.000    0.000    0.000    0.000    0.000 
#
# Total GULP energy -272736.762180 kJ/mol
# GULP energy per Si atom -12397.125554 kJ/mol
# Density = 2.027668 g / cm^3
# Si number density = 20.322940 Si / 1000 Ang^3
#
#
#
# Elastic Constant Matrix: (Units=GPa)
#
#
# Indices 1 2 3 4 5 6 
#
# 1 43.5715 40.3793 26.6193 0.0000 10.9829 0.0000
# 2 40.3793 115.4815 65.8256 0.0000 10.4150 0.0000
# 3 26.6193 65.8256 110.2209 0.0000 26.1865 0.0000
# 4 0.0000 0.0000 0.0000 21.2342 0.0000 -1.6383
# 5 10.9829 10.4150 26.1865 0.0000 22.7313 0.0000
# 6 0.0000 0.0000 0.0000 -1.6383 0.0000 24.7804
#
#
#
# Elastic Compliance Matrix: (Units=1/GPa)
#
#
# Indices 1 2 3 4 5 6 
#
# 1 0.037331 -0.013003 0.002230 0.000000 -0.014648 0.000000
# 2 -0.013003 0.017949 -0.009800 0.000000 0.009349 0.000000
# 3 0.002230 -0.009800 0.018692 0.000000 -0.018121 0.000000
# 4 0.000000 0.000000 0.000000 0.047335 0.000000 0.003129
# 5 -0.014648 0.009349 -0.018121 0.000000 0.067661 0.000000
# 6 0.000000 0.000000 0.000000 0.003129 0.000000 0.040561
#
#
# Mechanical properties :
#
#
# Convention : Reuss Voigt Hill
#
# Bulk Modulus (GPa) = 30.46383 59.43581 44.94982
# Shear Modulus (GPa) = 17.75446 22.84584 20.30015
#
# Velocity S-wave (km/s) = 2.95891 3.35646 3.16393
# Velocity P-wave (km/s) = 5.16681 6.65810 5.95929
#
# Compressibility (1/GPa) = 0.03282581
#
# Stress axis : x y z
#
# Youngs Moduli (GPa) = 26.78706 55.71256 53.49876
#
# Poissons Ratio (x) = 0.72446 -0.11931
# Poissons Ratio (y) = 0.34832 0.52430
# Poissons Ratio (z) = -0.05974 0.54599
#
# Static dielectric constant tensor:
#      x y z
#    x 3.445440 0.000000 0.270050 
#    y 0.000000 3.627050 0.000000 
#    z 0.270050 0.000000 3.673880 
# 
# 
# High freq. dielectric constant tensor:
#      x y z
#    x 1.766940 0.000000 0.016970 
#    y 0.000000 1.783150 0.000000 
#    z 0.016970 0.000000 1.796040 
# 
# From -- ./inp_files/58749.got.cif
#   From: 2010.06.25/outbox.cif.g09.slc.cpg/sg13_30_cif.got.tgz:58749.got - 2010.06.28 04:50:58.
