data_PCOD8119386
_publ_section_title
;
Structure prediction by ZEFSAII (Michael W. Deem and Ramdas Pophale) SiO2 
 PCOD8119386
Probable space group: P 2/C
;
_chemical_formula_sum "Si O2"
_cell_formula_units_Z 22
_cell_length_a 8.647520
_cell_length_b 8.293525
_cell_length_c 13.844090
_cell_angle_alpha 90.000000
_cell_angle_beta 95.590395
_cell_angle_gamma 90.000000
_cell_volume 988.153934
_symmetry_space_group_name_H-M "P 2/C"
_symmetry_group_IT_number 13
_symmetry_cell_setting 'monoclinic'
loop_
_space_group_symop_operation_xyz
x,y,z
-x,y,1/2-z
-x,-y,-z
x,-y,1/2+z
loop_
_atom_site_type_symbol
_atom_site_label
_atom_site_fract_x
_atom_site_fract_y
_atom_site_fract_z
Si Si1 0.717931 0.536709 0.852163
Si Si2 0.357051 0.996497 0.098910
Si Si3 0.191837 0.245948 0.970201
Si Si4 0.530894 0.302045 0.637695
Si Si5 0.500000 0.763954 0.750000
Si Si6 0.101168 0.782448 0.165569
O O1 0.563083 0.464089 0.894642
O O2 0.655235 0.649011 0.759254
O O3 0.821578 0.393434 0.815289
O O4 0.809968 0.636714 0.937578
O O5 0.476256 0.123595 0.155172
O O6 0.460227 0.845605 0.069705
O O7 0.228414 0.923336 0.164518
O O8 0.267086 0.075199 0.003981
O O9 0.288983 0.317446 0.883960
O O10 0.012078 0.223120 0.933711
O O11 0.500000 0.265360 0.750000
O O12 0.000000 0.831944 0.250000
#
# Coordination Sequence:
#
# PCOD8119386 Si02
#       6
#     4   4   4   4   2   4
#     4  10  22  39  63  92 126 165 206 256 305 369
#     4  10  22  39  63  92 126 165 206 256 305 369
#     4  11  22  39  63  91 127 162 210 255 313 368
#     4  11  20  38  65  92 125 163 211 252 309 369
#     4  10  20  38  64  88 126 152 214 258 302 354
#     4  11  24  41  65  90 128 169 208 250 318 370
#
# _framework density 22.263738
#
# number of rings (size 3 to 8) (size 9 to 14) (size 15 to 20)
#    0.000    1.455    1.818    4.364    0.000    0.000 
#    0.000    3.636    8.000    0.000    0.000    0.000 
#    0.000    0.000    0.000    0.000    0.000    0.000 
#
# Total GULP energy -272601.972525 kJ/mol
# GULP energy per Si atom -12390.998751 kJ/mol
# Density = 2.221306 g / cm^3
# Si number density = 22.263738 Si / 1000 Ang^3
#
#
#
# Elastic Constant Matrix: (Units=GPa)
#
#
# Indices 1 2 3 4 5 6 
#
# 1 97.2783 30.8374 32.3419 0.0000 7.6839 0.0000
# 2 30.8374 102.4200 31.9238 0.0000 18.2974 0.0000
# 3 32.3419 31.9238 80.4767 0.0000 20.4728 0.0000
# 4 0.0000 0.0000 0.0000 22.7324 0.0000 15.4864
# 5 7.6839 18.2974 20.4728 0.0000 46.6850 0.0000
# 6 0.0000 0.0000 0.0000 15.4864 0.0000 27.8019
#
#
#
# Elastic Compliance Matrix: (Units=1/GPa)
#
#
# Indices 1 2 3 4 5 6 
#
# 1 0.012422 -0.002583 -0.004170 0.000000 0.000796 0.000000
# 2 -0.002583 0.011997 -0.002964 0.000000 -0.002977 0.000000
# 3 -0.004170 -0.002964 0.016667 0.000000 -0.005461 0.000000
# 4 0.000000 0.000000 0.000000 0.070891 0.000000 -0.039488
# 5 0.000796 -0.002977 -0.005461 0.000000 0.024851 0.000000
# 6 0.000000 0.000000 0.000000 -0.039488 0.000000 0.057965
#
#
# Mechanical properties :
#
#
# Convention : Reuss Voigt Hill
#
# Bulk Modulus (GPa) = 46.18382 52.26460 49.22421
# Shear Modulus (GPa) = 22.57914 31.78199 27.18057
#
# Velocity S-wave (km/s) = 3.18805 3.78236 3.49785
# Velocity P-wave (km/s) = 5.86008 6.52695 6.20249
#
# Compressibility (1/GPa) = 0.02165261
#
# Stress axis : x y z
#
# Youngs Moduli (GPa) = 80.50201 83.35447 59.99949
#
# Poissons Ratio (x) = 0.21527 0.25022
# Poissons Ratio (y) = 0.20790 0.17782
# Poissons Ratio (z) = 0.33572 0.24704
#
# Static dielectric constant tensor:
#      x y z
#    x 4.110410 0.000000 0.438000 
#    y 0.000000 4.284390 0.000000 
#    z 0.438000 0.000000 3.804650 
# 
# 
# High freq. dielectric constant tensor:
#      x y z
#    x 1.870490 0.000000 0.030220 
#    y 0.000000 1.886720 0.000000 
#    z 0.030220 0.000000 1.862890 
# 
# From -- ./inp_files/45998.got.cif
#   From: 2010.06.25/outbox.cif.g09.slc.cpg/sg13_23_cif.got.tgz:45998.got - 2010.06.28 04:50:58.
