data_PCOD8119673
_publ_section_title
;
Structure prediction by ZEFSAII (Michael W. Deem and Ramdas Pophale) SiO2 
 PCOD8119673
Probable space group: P 2/C
;
_chemical_formula_sum "Si O2"
_cell_formula_units_Z 22
_cell_length_a 5.619572
_cell_length_b 9.568356
_cell_length_c 19.036382
_cell_angle_alpha 90.000000
_cell_angle_beta 109.659477
_cell_angle_gamma 90.000000
_cell_volume 963.921284
_symmetry_space_group_name_H-M "P 2/C"
_symmetry_group_IT_number 13
_symmetry_cell_setting 'monoclinic'
loop_
_space_group_symop_operation_xyz
x,y,z
-x,y,1/2-z
-x,-y,-z
x,-y,1/2+z
loop_
_atom_site_type_symbol
_atom_site_label
_atom_site_fract_x
_atom_site_fract_y
_atom_site_fract_z
Si Si1 0.500000 0.429484 0.250000
Si Si2 0.116262 0.876661 0.106151
Si Si3 0.975845 0.396989 0.827711
Si Si4 0.730118 0.899007 0.534795
Si Si5 0.261154 0.333118 0.362603
Si Si6 0.000000 0.139216 0.250000
Si Si7 0.500000 0.982367 0.250000
O O1 0.292993 0.528836 0.193406
O O2 0.422817 0.329160 0.306761
O O3 0.981498 0.735899 0.118983
O O4 0.377824 0.891294 0.175036
O O5 0.155669 0.852785 0.027797
O O6 0.939214 0.013461 0.100986
O O7 0.000000 0.347743 0.750000
O O8 0.191590 0.507442 0.874037
O O9 0.622774 0.757532 0.561757
O O10 0.500000 0.000000 0.500000
O O11 0.011646 0.242641 0.318930
O O12 0.264108 0.056727 0.265861
#
# Coordination Sequence:
#
# PCOD8119673 Si02
#       7
#     2   4   4   4   4   2   2
#     4  10  20  40  68 106 138 184 236 302 356 436
#     4  11  26  45  69 103 141 190 239 302 367 437
#     4  10  23  41  68 102 141 180 239 299 362 428
#     4  11  26  47  67 100 146 191 240 301 367 436
#     4  11  22  41  68 101 139 185 239 298 358 434
#     4  12  22  40  70 110 136 188 244 302 356 432
#     4  12  26  42  76 108 142 190 252 304 368 436
#
# _framework density 22.823442
#
# number of rings (size 3 to 8) (size 9 to 14) (size 15 to 20)
#    0.000    1.091    4.545    2.182    1.273    6.545 
#    0.000    1.818    0.000    0.000    0.000    0.000 
#    0.000    0.000    0.000    0.000    0.000    0.000 
#
# Total GULP energy -272565.460867 kJ/mol
# GULP energy per Si atom -12389.339130 kJ/mol
# Density = 2.277149 g / cm^3
# Si number density = 22.823442 Si / 1000 Ang^3
#
#
#
# Elastic Constant Matrix: (Units=GPa)
#
#
# Indices 1 2 3 4 5 6 
#
# 1 107.2710 57.5994 40.7135 0.0000 -12.9921 0.0000
# 2 57.5994 163.3566 80.8656 0.0000 -30.6498 0.0000
# 3 40.7135 80.8656 104.7533 0.0000 -6.0476 0.0000
# 4 0.0000 0.0000 0.0000 46.6494 0.0000 -9.3074
# 5 -12.9921 -30.6498 -6.0476 0.0000 33.9477 0.0000
# 6 0.0000 0.0000 0.0000 -9.3074 0.0000 25.7527
#
#
#
# Elastic Compliance Matrix: (Units=1/GPa)
#
#
# Indices 1 2 3 4 5 6 
#
# 1 0.011891 -0.002639 -0.002485 0.000000 0.001726 0.000000
# 2 -0.002639 0.012956 -0.008445 0.000000 0.009183 0.000000
# 3 -0.002485 -0.008445 0.016708 0.000000 -0.005599 0.000000
# 4 0.000000 0.000000 0.000000 0.023102 0.000000 0.008350
# 5 0.001726 0.009183 -0.005599 0.000000 0.037410 0.000000
# 6 0.000000 0.000000 0.000000 0.008350 0.000000 0.041848
#
#
# Mechanical properties :
#
#
# Convention : Reuss Voigt Hill
#
# Bulk Modulus (GPa) = 69.36442 81.52645 75.44543
# Shear Modulus (GPa) = 28.43157 34.35015 31.39086
#
# Velocity S-wave (km/s) = 3.53330 3.88369 3.71263
# Velocity P-wave (km/s) = 6.86319 7.47722 7.17677
#
# Compressibility (1/GPa) = 0.01441661
#
# Stress axis : x y z
#
# Youngs Moduli (GPa) = 84.09509 77.18599 59.85047
#
# Poissons Ratio (x) = 0.20370 0.14872
# Poissons Ratio (y) = 0.22193 0.50547
# Poissons Ratio (z) = 0.20896 0.65187
#
# Static dielectric constant tensor:
#      x y z
#    x -35.716710 0.000000 49.895340 
#    y 0.000000 4.113240 0.000000 
#    z 49.895340 0.000000 -58.401190 
# 
# 
# High freq. dielectric constant tensor:
#      x y z
#    x 1.898540 0.000000 -0.006890 
#    y 0.000000 1.908020 0.000000 
#    z -0.006890 0.000000 1.892080 
# 
# From -- ./inp_files/73016.got.cif
#   From: 2010.06.25/outbox.cif.g09.slc.cpg/sg13_37_cif.got.tgz:73016.got - 2010.06.28 04:50:58.
