data_PCOD8119036
_publ_section_title
;
Structure prediction by ZEFSAII (Michael W. Deem and Ramdas Pophale) SiO2 
 PCOD8119036
Probable space group: P 2/C
;
_chemical_formula_sum "Si O2"
_cell_formula_units_Z 26
_cell_length_a 8.573915
_cell_length_b 13.572429
_cell_length_c 13.864761
_cell_angle_alpha 90.000000
_cell_angle_beta 55.405607
_cell_angle_gamma 90.000000
_cell_volume 1328.159540
_symmetry_space_group_name_H-M "P 2/C"
_symmetry_group_IT_number 13
_symmetry_cell_setting 'monoclinic'
loop_
_space_group_symop_operation_xyz
x,y,z
-x,y,1/2-z
-x,-y,-z
x,-y,1/2+z
loop_
_atom_site_type_symbol
_atom_site_label
_atom_site_fract_x
_atom_site_fract_y
_atom_site_fract_z
Si Si1 0.500000 0.669461 0.250000
Si Si2 0.844572 0.247154 0.387000
Si Si3 0.523518 0.607305 0.033756
Si Si4 0.561604 0.912380 0.910183
Si Si5 0.259759 0.222721 0.560899
Si Si6 0.113973 0.212311 0.913780
Si Si7 0.178057 0.061342 0.747483
O O1 0.507208 0.599834 0.340619
O O2 0.686869 0.736259 0.177969
O O3 0.731137 0.350077 0.435247
O O4 0.701006 0.159088 0.418709
O O5 0.943268 0.220666 0.454288
O O6 0.000000 0.259232 0.250000
O O7 0.363119 0.675678 0.044643
O O8 0.500000 0.500000 0.000000
O O9 0.380852 0.845723 0.941946
O O10 0.674520 0.971042 0.786784
O O11 0.500000 0.000000 0.000000
O O12 0.250097 0.157915 0.662490
O O13 0.058991 0.256364 0.588342
O O14 0.128881 0.098358 0.872549
O O15 0.000000 0.017469 0.750000
#
# Coordination Sequence:
#
# PCOD8119036 Si02
#       7
#     2   4   4   4   4   4   4
#     4  10  20  38  64  92 112 154 194 252 294 350
#     4  10  22  42  57  81 125 162 195 248 306 354
#     4  10  21  41  63  89 120 153 196 244 302 357
#     4   9  18  34  56  80 120 158 191 239 298 344
#     4   9  18  36  57  88 119 150 193 247 294 347
#     4  10  20  36  64  85 113 155 207 242 298 344
#     4   9  16  31  57  87 111 150 199 244 284 342
#
# _framework density 19.575959999999998
#
# number of rings (size 3 to 8) (size 9 to 14) (size 15 to 20)
#    0.000    2.462    1.538    0.462    2.154    0.000 
#    5.538   17.692    0.000    0.000    0.000    0.000 
#    0.000    0.000    0.000    0.000    0.000    0.000 
#
# Total GULP energy -322108.123858 kJ/mol
# GULP energy per Si atom -12388.773995 kJ/mol
# Density = 1.953140 g / cm^3
# Si number density = 19.575960 Si / 1000 Ang^3
#
#
#
# Elastic Constant Matrix: (Units=GPa)
#
#
# Indices 1 2 3 4 5 6 
#
# 1 106.2578 48.4489 53.6118 0.0000 -6.8701 0.0000
# 2 48.4489 108.8294 48.6876 0.0000 -1.6591 0.0000
# 3 53.6118 48.6876 128.4730 0.0000 2.3113 0.0000
# 4 0.0000 0.0000 0.0000 21.6136 0.0000 -2.3776
# 5 -6.8701 -1.6591 2.3113 0.0000 29.8702 0.0000
# 6 0.0000 0.0000 0.0000 -2.3776 0.0000 14.4819
#
#
#
# Elastic Compliance Matrix: (Units=1/GPa)
#
#
# Indices 1 2 3 4 5 6 
#
# 1 0.013613 -0.004147 -0.004167 0.000000 0.003223 0.000000
# 2 -0.004147 0.012354 -0.002951 0.000000 -0.000039 0.000000
# 3 -0.004167 -0.002951 0.010676 0.000000 -0.001948 0.000000
# 4 0.000000 0.000000 0.000000 0.047118 0.000000 0.007736
# 5 0.003223 -0.000039 -0.001948 0.000000 0.034368 0.000000
# 6 0.000000 0.000000 0.000000 0.007736 0.000000 0.070322
#
#
# Mechanical properties :
#
#
# Convention : Reuss Voigt Hill
#
# Bulk Modulus (GPa) = 70.85293 71.67299 71.26296
# Shear Modulus (GPa) = 23.18203 26.04727 24.61465
#
# Velocity S-wave (km/s) = 3.44497 3.65166 3.54982
# Velocity P-wave (km/s) = 7.21777 7.38050 7.29959
#
# Compressibility (1/GPa) = 0.01411374
#
# Stress axis : x y z
#
# Youngs Moduli (GPa) = 73.46102 80.94383 93.66848
#
# Poissons Ratio (x) = 0.33565 0.39032
# Poissons Ratio (y) = 0.30462 0.27639
# Poissons Ratio (z) = 0.30612 0.23885
#
# Static dielectric constant tensor:
#      x y z
#    x 3.690220 0.000000 -0.274580 
#    y 0.000000 3.379800 0.000000 
#    z -0.274580 0.000000 3.924550 
# 
# 
# High freq. dielectric constant tensor:
#      x y z
#    x 1.761910 0.000000 -0.020230 
#    y 0.000000 1.739880 0.000000 
#    z -0.020230 0.000000 1.760310 
# 
# From -- ./inp_files/46813.got.cif
#   From: 2010.06.25/outbox.cif.g09.slc.cpg/sg13_24_cif.got.tgz:46813.got - 2010.06.28 04:50:58.
