data_PCOD8119902
_publ_section_title
;
Structure prediction by ZEFSAII (Michael W. Deem and Ramdas Pophale) SiO2 
 PCOD8119902
Probable space group: P 2/C
;
_chemical_formula_sum "Si O2"
_cell_formula_units_Z 32
_cell_length_a 26.376637
_cell_length_b 9.903222
_cell_length_c 20.969322
_cell_angle_alpha 90.000000
_cell_angle_beta 17.696397
_cell_angle_gamma 90.000000
_cell_volume 1665.005046
_symmetry_space_group_name_H-M "P 2/C"
_symmetry_group_IT_number 13
_symmetry_cell_setting 'monoclinic'
loop_
_space_group_symop_operation_xyz
x,y,z
-x,y,1/2-z
-x,-y,-z
x,-y,1/2+z
loop_
_atom_site_type_symbol
_atom_site_label
_atom_site_fract_x
_atom_site_fract_y
_atom_site_fract_z
Si Si1 0.631034 0.383901 0.245475
Si Si2 0.886462 0.951098 0.553918
Si Si3 0.747297 0.408302 0.766488
Si Si4 0.699201 0.304789 0.299608
Si Si5 0.554433 0.139545 0.257304
Si Si6 0.818722 0.052651 0.497437
Si Si7 0.682754 0.327893 0.707165
Si Si8 0.802609 0.852110 0.261555
O O1 0.449803 0.405464 0.490953
O O2 0.729415 0.320901 0.187380
O O3 0.638497 0.282833 0.176354
O O4 0.698156 0.533755 0.146663
O O5 0.789651 0.834199 0.708888
O O6 0.082584 0.908614 0.318598
O O7 0.818135 0.974231 0.565233
O O8 0.859395 0.086651 0.626121
O O9 0.794003 0.566851 0.719482
O O10 0.784408 0.353179 0.650889
O O11 0.828671 0.310552 0.722310
O O12 0.508799 0.288856 0.549767
O O13 0.500000 0.149402 0.250000
O O14 0.390205 0.111784 0.496109
O O15 0.684945 0.019079 0.111686
O O16 0.768959 0.208591 0.564410
O O17 0.000000 0.043704 0.250000
#
# Coordination Sequence:
#
# PCOD8119902 Si02
#       8
#     4   4   4   4   4   4   4   4
#     4   8  16  32  57  83 104 137 181 230 275 334
#     4  11  21  34  54  85 118 144 187 234 277 338
#     4   8  15  30  55  84 110 137 174 227 280 329
#     4   9  16  30  57  87 107 135 181 230 279 333
#     4  11  22  39  59  79 112 151 192 232 280 335
#     4  12  24  37  56  80 114 153 192 234 280 337
#     4   9  17  33  57  82 110 140 182 225 283 338
#     4  10  21  35  55  83 117 150 181 229 285 331
#
# _framework density 19.219161
#
# number of rings (size 3 to 8) (size 9 to 14) (size 15 to 20)
#    0.000    2.250    2.500    3.000    0.000    1.500 
#    0.000    1.250    2.750    3.000    0.000    0.000 
#    0.000    0.000    0.000    0.000    0.000    0.000 
#
# Total GULP energy -396565.229176 kJ/mol
# GULP energy per Si atom -12392.663412 kJ/mol
# Density = 1.917542 g / cm^3
# Si number density = 19.219161 Si / 1000 Ang^3
#
#
#
# Elastic Constant Matrix: (Units=GPa)
#
#
# Indices 1 2 3 4 5 6 
#
# 1 69.7955 23.6584 7.8659 0.0000 -0.4625 0.0000
# 2 23.6584 98.2048 21.2187 0.0000 -5.7800 0.0000
# 3 7.8659 21.2187 58.9627 0.0000 -7.4634 0.0000
# 4 0.0000 0.0000 0.0000 21.6965 0.0000 -1.2850
# 5 -0.4625 -5.7800 -7.4634 0.0000 17.2124 0.0000
# 6 0.0000 0.0000 0.0000 -1.2850 0.0000 17.4730
#
#
#
# Elastic Compliance Matrix: (Units=1/GPa)
#
#
# Indices 1 2 3 4 5 6 
#
# 1 0.015659 -0.003642 -0.000931 0.000000 -0.001206 0.000000
# 2 -0.003642 0.011961 -0.003515 0.000000 0.002394 0.000000
# 3 -0.000931 -0.003515 0.019253 0.000000 0.007143 0.000000
# 4 0.000000 0.000000 0.000000 0.046292 0.000000 0.003404
# 5 -0.001206 0.002394 0.007143 0.000000 0.061966 0.000000
# 6 0.000000 0.000000 0.000000 0.003404 0.000000 0.057482
#
#
# Mechanical properties :
#
#
# Convention : Reuss Voigt Hill
#
# Bulk Modulus (GPa) = 32.57742 36.93878 34.75810
# Shear Modulus (GPa) = 20.91859 22.89106 21.90482
#
# Velocity S-wave (km/s) = 3.30271 3.45491 3.37966
# Velocity P-wave (km/s) = 5.61526 5.93099 5.77528
#
# Compressibility (1/GPa) = 0.03069611
#
# Stress axis : x y z
#
# Youngs Moduli (GPa) = 63.86067 83.60706 51.93931
#
# Poissons Ratio (x) = 0.30452 0.04835
# Poissons Ratio (y) = 0.23260 0.18258
# Poissons Ratio (z) = 0.05945 0.29390
#
# Static dielectric constant tensor:
#      x y z
#    x 3.258200 0.000000 -0.158260 
#    y 0.000000 3.804390 0.000000 
#    z -0.158260 0.000000 3.233350 
# 
# 
# High freq. dielectric constant tensor:
#      x y z
#    x 1.721590 0.000000 -0.014920 
#    y 0.000000 1.767590 0.000000 
#    z -0.014920 0.000000 1.719070 
# 
# From -- ./inp_files/82492.got.cif
#   From: 2010.06.25/outbox.cif.g09.slc.cpg/sg13_42_cif.got.tgz:82492.got - 2010.06.28 04:50:58.
