data_PCOD8119864
_publ_section_title
;
Structure prediction by ZEFSAII (Michael W. Deem and Ramdas Pophale) SiO2 
 PCOD8119864
Probable space group: P 2/C
;
_chemical_formula_sum "Si O2"
_cell_formula_units_Z 20
_cell_length_a 12.901971
_cell_length_b 5.081425
_cell_length_c 18.925633
_cell_angle_alpha 90.000000
_cell_angle_beta 124.955957
_cell_angle_gamma 90.000000
_cell_volume 1016.927709
_symmetry_space_group_name_H-M "P 2/C"
_symmetry_group_IT_number 13
_symmetry_cell_setting 'monoclinic'
loop_
_space_group_symop_operation_xyz
x,y,z
-x,y,1/2-z
-x,-y,-z
x,-y,1/2+z
loop_
_atom_site_type_symbol
_atom_site_label
_atom_site_fract_x
_atom_site_fract_y
_atom_site_fract_z
Si Si1 0.777206 0.238402 0.413614
Si Si2 0.170586 0.476315 0.205679
Si Si3 0.103433 0.324515 0.893403
Si Si4 0.354315 0.278865 0.681019
Si Si5 0.857103 0.187741 0.171680
O O1 0.860659 0.293172 0.375283
O O2 0.871454 0.245459 0.516357
O O3 0.667473 0.462039 0.376060
O O4 0.708917 0.960180 0.385029
O O5 0.285612 0.673663 0.230325
O O6 0.218626 0.282708 0.287747
O O7 0.048293 0.654354 0.177772
O O8 0.169853 0.602563 0.901617
O O9 0.166697 0.107094 0.865545
O O10 0.500000 0.218466 0.750000
O O11 0.000000 0.220321 0.250000
#
# Coordination Sequence:
#
# PCOD8119864 Si02
#       5
#     4   4   4   4   4
#     4  10  22  36  61  86 116 147 194 247 291 324
#     4   9  23  36  62  86 118 155 195 225 293 346
#     4  11  21  35  57  90 124 142 183 238 299 351
#     4  10  22  38  61  83 112 153 205 243 274 333
#     4  10  21  34  54  83 124 155 178 222 291 364
#
# _framework density 19.667083000000002
#
# number of rings (size 3 to 8) (size 9 to 14) (size 15 to 20)
#    1.200    0.800    0.000    4.200    8.400    0.800 
#    0.000    0.000    0.000    7.200    0.000    0.000 
#    0.000    0.000    0.000    0.000    0.000    0.000 
#
# Total GULP energy -247767.174813 kJ/mol
# GULP energy per Si atom -12388.358741 kJ/mol
# Density = 1.962232 g / cm^3
# Si number density = 19.667083 Si / 1000 Ang^3
#
#
#
# Elastic Constant Matrix: (Units=GPa)
#
#
# Indices 1 2 3 4 5 6 
#
# 1 47.2809 19.6775 34.1659 0.0000 -6.0367 0.0000
# 2 19.6775 119.3228 21.1883 0.0000 -5.5929 0.0000
# 3 34.1659 21.1883 57.0626 0.0000 -21.3823 0.0000
# 4 0.0000 0.0000 0.0000 31.9031 0.0000 0.6630
# 5 -6.0367 -5.5929 -21.3823 0.0000 26.5744 0.0000
# 6 0.0000 0.0000 0.0000 0.6630 0.0000 11.2739
#
#
#
# Elastic Compliance Matrix: (Units=1/GPa)
#
#
# Indices 1 2 3 4 5 6 
#
# 1 0.041633 -0.002298 -0.029652 0.000000 -0.014885 0.000000
# 2 -0.002298 0.009123 -0.002130 0.000000 -0.000316 0.000000
# 3 -0.029652 -0.002130 0.047785 0.000000 0.031265 0.000000
# 4 0.000000 0.000000 0.000000 0.031383 0.000000 -0.001845
# 5 -0.014885 -0.000316 0.031265 0.000000 0.059339 0.000000
# 6 0.000000 0.000000 0.000000 -0.001845 0.000000 0.088809
#
#
# Mechanical properties :
#
#
# Convention : Reuss Voigt Hill
#
# Bulk Modulus (GPa) = 32.91501 41.52552 37.22026
# Shear Modulus (GPa) = 14.03082 23.85925 18.94504
#
# Velocity S-wave (km/s) = 2.67388 3.48682 3.10705
# Velocity P-wave (km/s) = 5.12887 6.11315 5.64251
#
# Compressibility (1/GPa) = 0.03038128
#
# Stress axis : x y z
#
# Youngs Moduli (GPa) = 24.01942 109.61298 20.92723
#
# Poissons Ratio (x) = 0.25190 0.62053
# Poissons Ratio (y) = 0.05520 0.04457
# Poissons Ratio (z) = 0.71222 0.23346
#
# Static dielectric constant tensor:
#      x y z
#    x 3.412010 0.000000 -0.435950 
#    y 0.000000 3.827910 0.000000 
#    z -0.435950 0.000000 3.476800 
# 
# 
# High freq. dielectric constant tensor:
#      x y z
#    x 1.723530 0.000000 -0.032350 
#    y 0.000000 1.786720 0.000000 
#    z -0.032350 0.000000 1.743790 
# 
# From -- ./inp_files/65158.got.cif
#   From: 2010.06.25/outbox.cif.g09.slc.cpg/sg13_33_cif.got.tgz:65158.got - 2010.06.28 04:50:58.
