data_PCOD8119869
_publ_section_title
;
Structure prediction by ZEFSAII (Michael W. Deem and Ramdas Pophale) SiO2 
 PCOD8119869
Probable space group: P 2/C
;
_chemical_formula_sum "Si O2"
_cell_formula_units_Z 24
_cell_length_a 27.149746
_cell_length_b 5.218006
_cell_length_c 19.393648
_cell_angle_alpha 90.000000
_cell_angle_beta 27.773789
_cell_angle_gamma 90.000000
_cell_volume 1280.262202
_symmetry_space_group_name_H-M "P 2/C"
_symmetry_group_IT_number 13
_symmetry_cell_setting 'monoclinic'
loop_
_space_group_symop_operation_xyz
x,y,z
-x,y,1/2-z
-x,-y,-z
x,-y,1/2+z
loop_
_atom_site_type_symbol
_atom_site_label
_atom_site_fract_x
_atom_site_fract_y
_atom_site_fract_z
Si Si1 0.692318 0.343475 0.142166
Si Si2 0.352113 0.974322 0.024027
Si Si3 0.107502 0.557440 0.658011
Si Si4 0.598012 0.827057 0.900025
Si Si5 0.530966 0.536600 0.104933
Si Si6 0.812015 0.933643 0.386048
O O1 0.669905 0.241786 0.246259
O O2 0.593868 0.496350 0.231485
O O3 0.793701 0.533192 0.017848
O O4 0.719637 0.101845 0.058389
O O5 0.408854 0.706369 0.938251
O O6 0.331465 0.011564 0.131831
O O7 0.429247 0.208709 0.903799
O O8 0.240638 0.980173 0.123026
O O9 0.112945 0.826596 0.690585
O O10 0.000000 0.536622 0.750000
O O11 0.115296 0.323502 0.703829
O O12 0.555236 0.571178 0.992555
O O13 0.500000 0.000000 0.000000
#
# Coordination Sequence:
#
# PCOD8119869 Si02
#       6
#     4   4   4   4   4   4
#     4  10  22  35  59  87 113 156 200 232 283 351
#     4  10  22  36  55  84 125 161 175 233 284 351
#     4  10  23  41  63  82 111 148 203 263 295 329
#     4  10  21  35  57  84 128 161 189 224 279 355
#     4  10  21  34  55  80 127 150 187 217 285 347
#     4  10  23  39  60  87 116 149 201 238 299 345
#
# _framework density 18.74616
#
# number of rings (size 3 to 8) (size 9 to 14) (size 15 to 20)
#    2.000    0.000    1.667    2.000    4.667    0.667 
#    0.000    0.000    0.000    2.000    0.000    0.000 
#    0.000    0.000    0.000    0.000    0.000    0.000 
#
# Total GULP energy -297326.685897 kJ/mol
# GULP energy per Si atom -12388.611912 kJ/mol
# Density = 1.870349 g / cm^3
# Si number density = 18.746160 Si / 1000 Ang^3
#
#
#
# Elastic Constant Matrix: (Units=GPa)
#
#
# Indices 1 2 3 4 5 6 
#
# 1 101.7286 34.1591 22.4367 0.0000 -31.4611 0.0000
# 2 34.1591 140.3434 22.0003 0.0000 -23.9876 0.0000
# 3 22.4367 22.0003 32.1957 0.0000 -26.0865 0.0000
# 4 0.0000 0.0000 0.0000 20.9818 0.0000 -11.5705
# 5 -31.4611 -23.9876 -26.0865 0.0000 37.5991 0.0000
# 6 0.0000 0.0000 0.0000 -11.5705 0.0000 26.0947
#
#
#
# Elastic Compliance Matrix: (Units=1/GPa)
#
#
# Indices 1 2 3 4 5 6 
#
# 1 0.013547 -0.001526 -0.000005 0.000000 0.010359 0.000000
# 2 -0.001526 0.008302 -0.003089 0.000000 0.001876 0.000000
# 3 -0.000005 -0.003089 0.072113 0.000000 0.048058 0.000000
# 4 0.000000 0.000000 0.000000 0.063086 0.000000 0.027973
# 5 0.010359 0.001876 0.048058 0.000000 0.069804 0.000000
# 6 0.000000 0.000000 0.000000 0.027973 0.000000 0.050725
#
#
# Mechanical properties :
#
#
# Convention : Reuss Voigt Hill
#
# Bulk Modulus (GPa) = 11.80338 47.94000 29.87169
# Shear Modulus (GPa) = 15.87010 29.97989 22.92499
#
# Velocity S-wave (km/s) = 2.91276 4.00341 3.50082
# Velocity P-wave (km/s) = 4.19789 6.85554 5.68422
#
# Compressibility (1/GPa) = 0.08472147
#
# Stress axis : x y z
#
# Youngs Moduli (GPa) = 73.81631 120.45651 13.86708
#
# Poissons Ratio (x) = 0.18382 0.00007
# Poissons Ratio (y) = 0.11265 0.04284
# Poissons Ratio (z) = 0.00037 0.37212
#
# Static dielectric constant tensor:
#      x y z
#    x 3.386470 0.000000 0.007310 
#    y 0.000000 3.545600 0.000000 
#    z 0.007310 0.000000 3.088430 
# 
# 
# High freq. dielectric constant tensor:
#      x y z
#    x 1.725170 0.000000 -0.017390 
#    y 0.000000 1.743680 0.000000 
#    z -0.017390 0.000000 1.677990 
# 
# From -- ./inp_files/89592.got.cif
#   From: 2010.06.25/outbox.cif.g09.slc.cpg/sg13_45_cif.got.tgz:89592.got - 2010.06.28 04:50:58.
