data_PCOD8119540
_publ_section_title
;
Structure prediction by ZEFSAII (Michael W. Deem and Ramdas Pophale) SiO2 
 PCOD8119540
Probable space group: P 2/C
;
_chemical_formula_sum "Si O2"
_cell_formula_units_Z 32
_cell_length_a 9.626268
_cell_length_b 18.611629
_cell_length_c 13.574595
_cell_angle_alpha 90.000000
_cell_angle_beta 136.775123
_cell_angle_gamma 90.000000
_cell_volume 1665.609804
_symmetry_space_group_name_H-M "P 2/C"
_symmetry_group_IT_number 13
_symmetry_cell_setting 'monoclinic'
loop_
_space_group_symop_operation_xyz
x,y,z
-x,y,1/2-z
-x,-y,-z
x,-y,1/2+z
loop_
_atom_site_type_symbol
_atom_site_label
_atom_site_fract_x
_atom_site_fract_y
_atom_site_fract_z
Si Si1 0.920614 0.787363 0.400711
Si Si2 0.824169 0.057755 0.915456
Si Si3 0.344093 0.728130 0.584901
Si Si4 0.728910 0.430275 0.386442
Si Si5 0.486724 0.942479 0.077776
Si Si6 0.051526 0.555837 0.889123
Si Si7 0.316058 0.684143 0.088636
Si Si8 0.441869 0.783986 0.428910
O O1 0.904858 0.861044 0.453015
O O2 0.858166 0.720392 0.436094
O O3 0.784021 0.785428 0.232279
O O4 0.152323 0.780202 0.489190
O O5 0.717078 0.046774 0.964982
O O6 0.675799 0.046689 0.747281
O O7 0.000000 0.000000 0.000000
O O8 0.500000 0.750921 0.750000
O O9 0.277811 0.645681 0.561406
O O10 0.451078 0.741299 0.535827
O O11 0.500000 0.458110 0.250000
O O12 0.849341 0.483474 0.519189
O O13 0.847620 0.424125 0.343884
O O14 0.483169 0.865499 0.022175
O O15 0.500000 0.000000 0.000000
O O16 0.000000 0.541436 0.750000
O O17 0.216132 0.619131 0.978229
O O18 0.500000 0.653299 0.250000
O O19 0.401862 0.744684 0.061707
#
# Coordination Sequence:
#
# PCOD8119540 Si02
#       8
#     4   4   4   4   4   4   4   4
#     4  10  20  41  63  86 120 156 206 245 296 364
#     4  10  22  40  62  86 119 160 198 252 300 350
#     4  11  24  40  60  91 126 158 190 256 304 348
#     4  10  24  45  59  89 129 157 200 252 299 359
#     4  10  22  41  60  87 121 155 204 248 296 362
#     4  11  24  41  66  90 120 164 202 246 301 359
#     4  10  20  39  65  91 114 156 202 249 296 357
#     4  10  22  39  65  88 117 161 203 244 299 360
#
# _framework density 19.212181999999999
#
# number of rings (size 3 to 8) (size 9 to 14) (size 15 to 20)
#    0.000    1.750    2.500    0.750    5.250    3.000 
#    2.250    0.000    0.000    0.000    0.000    0.000 
#    0.000    0.000    0.000    0.000    0.000    0.000 
#
# Total GULP energy -396896.994515 kJ/mol
# GULP energy per Si atom -12403.031079 kJ/mol
# Density = 1.916845 g / cm^3
# Si number density = 19.212182 Si / 1000 Ang^3
#
#
#
# Elastic Constant Matrix: (Units=GPa)
#
#
# Indices 1 2 3 4 5 6 
#
# 1 90.6276 44.1982 45.1649 0.0000 -3.8196 0.0000
# 2 44.1982 96.5638 47.0362 0.0000 -8.3804 0.0000
# 3 45.1649 47.0362 81.2070 0.0000 -9.4143 0.0000
# 4 0.0000 0.0000 0.0000 33.2757 0.0000 -1.4969
# 5 -3.8196 -8.3804 -9.4143 0.0000 37.8035 0.0000
# 6 0.0000 0.0000 0.0000 -1.4969 0.0000 30.7517
#
#
#
# Elastic Compliance Matrix: (Units=1/GPa)
#
#
# Indices 1 2 3 4 5 6 
#
# 1 0.016479 -0.004329 -0.006771 0.000000 -0.000981 0.000000
# 2 -0.004329 0.015612 -0.006471 0.000000 0.001412 0.000000
# 3 -0.006771 -0.006471 0.020165 0.000000 0.002903 0.000000
# 4 0.000000 0.000000 0.000000 0.030118 0.000000 0.001466
# 5 -0.000981 0.001412 0.002903 0.000000 0.027389 0.000000
# 6 0.000000 0.000000 0.000000 0.001466 0.000000 0.032590
#
#
# Mechanical properties :
#
#
# Convention : Reuss Voigt Hill
#
# Bulk Modulus (GPa) = 58.43732 60.13300 59.28516
# Shear Modulus (GPa) = 27.29259 29.16612 28.22936
#
# Velocity S-wave (km/s) = 3.77316 3.90051 3.83736
# Velocity P-wave (km/s) = 7.03314 7.18698 7.11048
#
# Compressibility (1/GPa) = 0.01711235
#
# Stress axis : x y z
#
# Youngs Moduli (GPa) = 60.68483 64.05283 49.59142
#
# Poissons Ratio (x) = 0.27731 0.33578
# Poissons Ratio (y) = 0.26273 0.32092
# Poissons Ratio (z) = 0.41090 0.41450
#
# Static dielectric constant tensor:
#      x y z
#    x 3.618980 0.000000 0.076080 
#    y 0.000000 3.524430 0.000000 
#    z 0.076080 0.000000 3.449240 
# 
# 
# High freq. dielectric constant tensor:
#      x y z
#    x 1.759280 0.000000 0.003460 
#    y 0.000000 1.756300 0.000000 
#    z 0.003460 0.000000 1.741210 
# 
# From -- ./inp_files/30809.got.cif
#   From: 2010.06.25/outbox.cif.g09.slc.cpg/sg13_16_cif.got.tgz:30809.got - 2010.06.28 04:50:58.
