data_PCOD8119053
_publ_section_title
;
Structure prediction by ZEFSAII (Michael W. Deem and Ramdas Pophale) SiO2 
 PCOD8119053
Probable space group: P 2/C
;
_chemical_formula_sum "Si O2"
_cell_formula_units_Z 24
_cell_length_a 11.162067
_cell_length_b 8.694485
_cell_length_c 19.511215
_cell_angle_alpha 90.000000
_cell_angle_beta 39.874741
_cell_angle_gamma 90.000000
_cell_volume 1213.965309
_symmetry_space_group_name_H-M "P 2/C"
_symmetry_group_IT_number 13
_symmetry_cell_setting 'monoclinic'
loop_
_space_group_symop_operation_xyz
x,y,z
-x,y,1/2-z
-x,-y,-z
x,-y,1/2+z
loop_
_atom_site_type_symbol
_atom_site_label
_atom_site_fract_x
_atom_site_fract_y
_atom_site_fract_z
Si Si1 0.005735 0.789863 0.325624
Si Si2 0.867383 0.585092 0.112774
Si Si3 0.688848 0.046495 0.327413
Si Si4 0.941285 0.157942 0.492638
Si Si5 0.678428 0.289972 0.215893
Si Si6 0.722953 0.963784 0.966612
O O1 0.031356 0.640427 0.361663
O O2 0.000000 0.731808 0.250000
O O3 0.805514 0.863313 0.433405
O O4 0.161428 0.924948 0.268247
O O5 0.694277 0.476979 0.213611
O O6 0.802931 0.743341 0.103020
O O7 0.000000 0.500000 0.000000
O O8 0.675633 0.202891 0.289627
O O9 0.489491 0.961812 0.414948
O O10 0.743291 0.099194 0.380256
O O11 0.135390 0.246203 0.405148
O O12 0.842957 0.147320 0.462362
O O13 0.000000 0.000000 0.500000
O O14 0.500000 0.239935 0.250000
#
# Coordination Sequence:
#
# PCOD8119053 Si02
#       6
#     4   4   4   4   4   4
#     4  10  20  40  63  88 120 157 205 259 299 362
#     4  10  23  38  55  87 122 164 198 245 313 364
#     4  10  21  37  63  93 120 157 202 260 309 353
#     4  11  19  37  64  86 116 160 207 257 305 347
#     4  11  23  37  56  88 125 161 201 246 303 377
#     4  10  20  36  66  92 120 150 211 260 302 357
#
# _framework density 19.769921
#
# number of rings (size 3 to 8) (size 9 to 14) (size 15 to 20)
#    0.000    1.667    3.333    1.000    2.333    1.333 
#    6.000    0.833    0.000    4.000    0.000    0.000 
#    0.000    0.000    0.000    0.000    0.000    0.000 
#
# Total GULP energy -297368.691550 kJ/mol
# GULP energy per Si atom -12390.362148 kJ/mol
# Density = 1.972492 g / cm^3
# Si number density = 19.769921 Si / 1000 Ang^3
#
#
#
# Elastic Constant Matrix: (Units=GPa)
#
#
# Indices 1 2 3 4 5 6 
#
# 1 155.7093 61.4327 44.1037 0.0000 16.2192 0.0000
# 2 61.4327 105.0806 34.8427 0.0000 20.1203 0.0000
# 3 44.1037 34.8427 65.6254 0.0000 7.3278 0.0000
# 4 0.0000 0.0000 0.0000 24.6878 0.0000 5.6920
# 5 16.2192 20.1203 7.3278 0.0000 37.0432 0.0000
# 6 0.0000 0.0000 0.0000 5.6920 0.0000 39.3018
#
#
#
# Elastic Compliance Matrix: (Units=1/GPa)
#
#
# Indices 1 2 3 4 5 6 
#
# 1 0.009187 -0.003817 -0.004018 0.000000 -0.001154 0.000000
# 2 -0.003817 0.014195 -0.004394 0.000000 -0.005170 0.000000
# 3 -0.004018 -0.004394 0.020256 0.000000 0.000139 0.000000
# 4 0.000000 0.000000 0.000000 0.041905 0.000000 -0.006069
# 5 -0.001154 -0.005170 0.000139 0.000000 0.030281 0.000000
# 6 0.000000 0.000000 0.000000 -0.006069 0.000000 0.026323
#
#
# Mechanical properties :
#
#
# Convention : Reuss Voigt Hill
#
# Bulk Modulus (GPa) = 52.14197 67.46370 59.80284
# Shear Modulus (GPa) = 28.90194 32.60898 30.75546
#
# Velocity S-wave (km/s) = 3.82765 4.06572 3.94848
# Velocity P-wave (km/s) = 6.77984 7.49924 7.14859
#
# Compressibility (1/GPa) = 0.01917841
#
# Stress axis : x y z
#
# Youngs Moduli (GPa) = 108.85330 70.44725 49.36856
#
# Poissons Ratio (x) = 0.26893 0.19838
# Poissons Ratio (y) = 0.41554 0.21692
# Poissons Ratio (z) = 0.43740 0.30954
#
# Static dielectric constant tensor:
#      x y z
#    x 3.808490 0.000000 0.040690 
#    y 0.000000 2.757180 0.000000 
#    z 0.040690 0.000000 3.593930 
# 
# 
# High freq. dielectric constant tensor:
#      x y z
#    x 1.777610 0.000000 0.011470 
#    y 0.000000 1.756080 0.000000 
#    z 0.011470 0.000000 1.770340 
# 
# From -- ./inp_files/77942.got.cif
#   From: 2010.06.25/outbox.cif.g09.slc.cpg/sg13_39_cif.got.tgz:77942.got - 2010.06.28 04:50:58.
