data_PCOD8119571
_publ_section_title
;
Structure prediction by ZEFSAII (Michael W. Deem and Ramdas Pophale) SiO2 
 PCOD8119571
Probable space group: P 2/C
;
_chemical_formula_sum "Si O2"
_cell_formula_units_Z 30
_cell_length_a 12.129774
_cell_length_b 11.606995
_cell_length_c 11.550341
_cell_angle_alpha 90.000000
_cell_angle_beta 107.242011
_cell_angle_gamma 90.000000
_cell_volume 1553.096899
_symmetry_space_group_name_H-M "P 2/C"
_symmetry_group_IT_number 13
_symmetry_cell_setting 'monoclinic'
loop_
_space_group_symop_operation_xyz
x,y,z
-x,y,1/2-z
-x,-y,-z
x,-y,1/2+z
loop_
_atom_site_type_symbol
_atom_site_label
_atom_site_fract_x
_atom_site_fract_y
_atom_site_fract_z
Si Si1 0.228596 0.335499 0.547312
Si Si2 0.367948 0.277074 0.366881
Si Si3 0.243748 0.158629 0.745494
Si Si4 0.000000 0.244681 0.750000
Si Si5 0.020031 0.366058 0.996057
Si Si6 0.626812 0.234300 0.492827
Si Si7 0.368010 0.063926 0.214668
Si Si8 0.738401 0.597778 0.874497
O O1 0.284022 0.314475 0.441722
O O2 0.276387 0.249808 0.657842
O O3 0.252851 0.461532 0.606686
O O4 0.092945 0.306510 0.485567
O O5 0.496472 0.279390 0.455382
O O6 0.346266 0.147539 0.316982
O O7 0.348805 0.368038 0.255938
O O8 0.110643 0.165670 0.748639
O O9 0.272352 0.034982 0.698402
O O10 0.335490 0.182491 0.874232
O O11 0.963429 0.326325 0.632177
O O12 0.135589 0.342457 0.106949
O O13 0.000000 0.500000 0.000000
O O14 0.653768 0.134808 0.408603
O O15 0.696399 0.349768 0.483215
O O16 0.500000 0.016376 0.250000
#
# Coordination Sequence:
#
# PCOD8119571 Si02
#       8
#     4   4   4   2   4   4   4   4
#     4  10  24  35  59  95 120 152 206 241 294 365
#     4  10  23  41  58  88 124 152 200 251 295 356
#     4  11  23  39  64  86 119 159 199 249 296 352
#     4  10  20  40  56  90 122 148 202 254 294 350
#     4   9  19  35  60  84 115 163 201 237 285 353
#     4  10  22  41  63  84 119 162 194 244 303 354
#     4   9  22  41  63  85 113 157 206 243 291 354
#     4  10  20  40  61  85 122 163 193 245 303 349
#
# _framework density 19.316244999999999
#
# number of rings (size 3 to 8) (size 9 to 14) (size 15 to 20)
#    0.000    2.133    1.333    1.200    5.600    5.333 
#    2.400    3.333    0.000    0.000    0.000    0.000 
#    0.000    0.000    0.000    0.000    0.000    0.000 
#
# Total GULP energy -371787.518196 kJ/mol
# GULP energy per Si atom -12392.917273 kJ/mol
# Density = 1.927228 g / cm^3
# Si number density = 19.316245 Si / 1000 Ang^3
#
#
#
# Elastic Constant Matrix: (Units=GPa)
#
#
# Indices 1 2 3 4 5 6 
#
# 1 87.8129 40.6039 29.5326 0.0000 -3.6887 0.0000
# 2 40.6039 93.0020 18.8242 0.0000 -5.5523 0.0000
# 3 29.5326 18.8242 68.8942 0.0000 0.4192 0.0000
# 4 0.0000 0.0000 0.0000 16.8748 0.0000 -2.9501
# 5 -3.6887 -5.5523 0.4192 0.0000 35.5566 0.0000
# 6 0.0000 0.0000 0.0000 -2.9501 0.0000 31.7414
#
#
#
# Elastic Compliance Matrix: (Units=1/GPa)
#
#
# Indices 1 2 3 4 5 6 
#
# 1 0.015869 -0.005825 -0.005216 0.000000 0.000798 0.000000
# 2 -0.005825 0.013638 -0.001239 0.000000 0.001540 0.000000
# 3 -0.005216 -0.001239 0.017095 0.000000 -0.000936 0.000000
# 4 0.000000 0.000000 0.000000 0.060239 0.000000 0.005599
# 5 0.000798 0.001540 -0.000936 0.000000 0.028459 0.000000
# 6 0.000000 0.000000 0.000000 0.005599 0.000000 0.032025
#
#
# Mechanical properties :
#
#
# Convention : Reuss Voigt Hill
#
# Bulk Modulus (GPa) = 45.36555 47.51448 46.44001
# Shear Modulus (GPa) = 25.09651 27.55112 26.32381
#
# Velocity S-wave (km/s) = 3.60841 3.78076 3.69559
# Velocity P-wave (km/s) = 6.39512 6.61139 6.50415
#
# Compressibility (1/GPa) = 0.02204316
#
# Stress axis : x y z
#
# Youngs Moduli (GPa) = 63.01656 73.32326 58.49663
#
# Poissons Ratio (x) = 0.42710 0.30510
# Poissons Ratio (y) = 0.36706 0.07247
# Poissons Ratio (z) = 0.32868 0.09084
#
# Static dielectric constant tensor:
#      x y z
#    x 4.038020 0.000000 0.198950 
#    y 0.000000 3.480210 0.000000 
#    z 0.198950 0.000000 3.554110 
# 
# 
# High freq. dielectric constant tensor:
#      x y z
#    x 1.765110 0.000000 0.002740 
#    y 0.000000 1.741440 0.000000 
#    z 0.002740 0.000000 1.749630 
# 
# From -- ./inp_files/33880.got.cif
#   From: 2010.06.25/outbox.cif.g09.slc.cpg/sg13_17_cif.got.tgz:33880.got - 2010.06.28 04:50:58.
