data_PCOD8119664
_publ_section_title
;
Structure prediction by ZEFSAII (Michael W. Deem and Ramdas Pophale) SiO2 
 PCOD8119664
Probable space group: P 2/C
;
_chemical_formula_sum "Si O2"
_cell_formula_units_Z 30
_cell_length_a 16.095538
_cell_length_b 6.208837
_cell_length_c 15.128046
_cell_angle_alpha 90.000000
_cell_angle_beta 66.370888
_cell_angle_gamma 90.000000
_cell_volume 1385.063029
_symmetry_space_group_name_H-M "P 2/C"
_symmetry_group_IT_number 13
_symmetry_cell_setting 'monoclinic'
loop_
_space_group_symop_operation_xyz
x,y,z
-x,y,1/2-z
-x,-y,-z
x,-y,1/2+z
loop_
_atom_site_type_symbol
_atom_site_label
_atom_site_fract_x
_atom_site_fract_y
_atom_site_fract_z
Si Si1 0.670939 0.329945 0.342896
Si Si2 0.685083 0.466292 0.014193
Si Si3 0.500000 0.905616 0.250000
Si Si4 0.131464 0.406173 0.488392
Si Si5 0.799363 0.057985 0.181246
Si Si6 0.328036 0.684954 0.294875
Si Si7 0.045943 0.194867 0.928561
Si Si8 0.476342 0.849085 0.927392
O O1 0.679352 0.345896 0.444494
O O2 0.704155 0.540640 0.274429
O O3 0.566436 0.284591 0.363100
O O4 0.740043 0.137376 0.288983
O O5 0.790700 0.395235 0.970131
O O6 0.660946 0.542219 0.122266
O O7 0.611995 0.291490 0.011229
O O8 0.427576 0.766178 0.227020
O O9 0.552615 0.034099 0.150871
O O10 0.110210 0.646207 0.460344
O O11 0.038368 0.327818 0.575372
O O12 0.167837 0.255404 0.393494
O O13 0.736784 0.886360 0.155856
O O14 0.888784 0.919180 0.172165
O O15 0.000000 0.000000 0.000000
O O16 0.500000 0.000000 0.000000
#
# Coordination Sequence:
#
# PCOD8119664 Si02
#       8
#     4   4   2   4   4   4   4   4
#     4  12  25  42  63  97 141 178 227 284 343 401
#     4  12  24  41  67  97 138 182 232 279 343 423
#     4  12  22  38  68  88 128 182 230 272 340 408
#     4  10  20  40  67 104 129 173 229 278 350 419
#     4  11  20  41  67  96 132 176 220 282 346 407
#     4  12  23  43  64  99 131 177 228 284 343 405
#     4   9  19  37  71  99 132 167 219 290 350 407
#     4  12  25  44  63 100 135 184 233 286 342 407
#
# _framework density 21.659662999999998
#
# number of rings (size 3 to 8) (size 9 to 14) (size 15 to 20)
#    0.000    0.800    4.000    4.400    0.000    0.000 
#    0.000    0.000    0.000   19.200    0.000    0.000 
#    0.000    0.000    0.000    0.000    0.000    0.000 
#
# Total GULP energy -371647.592240 kJ/mol
# GULP energy per Si atom -12388.253075 kJ/mol
# Density = 2.161036 g / cm^3
# Si number density = 21.659663 Si / 1000 Ang^3
#
#
#
# Elastic Constant Matrix: (Units=GPa)
#
#
# Indices 1 2 3 4 5 6 
#
# 1 138.4780 50.0276 39.0023 0.0000 -37.5135 0.0000
# 2 50.0276 105.4544 29.9951 0.0000 -14.4393 0.0000
# 3 39.0023 29.9951 74.7821 0.0000 -0.2389 0.0000
# 4 0.0000 0.0000 0.0000 36.4097 0.0000 -11.2572
# 5 -37.5135 -14.4393 -0.2389 0.0000 31.8725 0.0000
# 6 0.0000 0.0000 0.0000 -11.2572 0.0000 45.8009
#
#
#
# Elastic Compliance Matrix: (Units=1/GPa)
#
#
# Indices 1 2 3 4 5 6 
#
# 1 0.014138 -0.002854 -0.006180 0.000000 0.015301 0.000000
# 2 -0.002854 0.012075 -0.003348 0.000000 0.002086 0.000000
# 3 -0.006180 -0.003348 0.017910 0.000000 -0.008656 0.000000
# 4 0.000000 0.000000 0.000000 0.029724 0.000000 0.007306
# 5 0.015301 0.002086 -0.008656 0.000000 0.050264 0.000000
# 6 0.000000 0.000000 0.000000 0.007306 0.000000 0.023629
#
#
# Mechanical properties :
#
#
# Convention : Reuss Voigt Hill
#
# Bulk Modulus (GPa) = 51.65519 61.86273 56.75896
# Shear Modulus (GPa) = 27.93956 36.12926 32.03441
#
# Velocity S-wave (km/s) = 3.59546 4.08860 3.84994
# Velocity P-wave (km/s) = 6.41380 7.13527 6.78413
#
# Compressibility (1/GPa) = 0.01935914
#
# Stress axis : x y z
#
# Youngs Moduli (GPa) = 70.73085 82.81808 55.83328
#
# Poissons Ratio (x) = 0.23638 0.34505
# Poissons Ratio (y) = 0.20188 0.18692
# Poissons Ratio (z) = 0.43711 0.27726
#
# Static dielectric constant tensor:
#      x y z
#    x 4.364740 0.000000 -0.478430 
#    y 0.000000 4.236370 0.000000 
#    z -0.478430 0.000000 3.604500 
# 
# 
# High freq. dielectric constant tensor:
#      x y z
#    x 1.859740 0.000000 -0.034980 
#    y 0.000000 1.865840 0.000000 
#    z -0.034980 0.000000 1.822510 
# 
# From -- ./inp_files/54644.got.cif
#   From: 2010.06.25/outbox.cif.g09.slc.cpg/sg13_28_cif.got.tgz:54644.got - 2010.06.28 04:50:58.
