data_PCOD8119397
_publ_section_title
;
Structure prediction by ZEFSAII (Michael W. Deem and Ramdas Pophale) SiO2 
 PCOD8119397
Probable space group: P 2/C
;
_chemical_formula_sum "Si O2"
_cell_formula_units_Z 30
_cell_length_a 8.031121
_cell_length_b 11.883289
_cell_length_c 15.088999
_cell_angle_alpha 90.000000
_cell_angle_beta 86.960289
_cell_angle_gamma 90.000000
_cell_volume 1438.009599
_symmetry_space_group_name_H-M "P 2/C"
_symmetry_group_IT_number 13
_symmetry_cell_setting 'monoclinic'
loop_
_space_group_symop_operation_xyz
x,y,z
-x,y,1/2-z
-x,-y,-z
x,-y,1/2+z
loop_
_atom_site_type_symbol
_atom_site_label
_atom_site_fract_x
_atom_site_fract_y
_atom_site_fract_z
Si Si1 0.000000 0.307692 0.250000
Si Si2 0.192554 0.008296 0.386868
Si Si3 0.857915 0.408143 0.083203
Si Si4 0.320403 0.852994 0.724774
Si Si5 0.366084 0.152182 0.023068
Si Si6 0.738431 0.796500 0.502420
Si Si7 0.824718 0.648260 0.038913
Si Si8 0.992446 0.191137 0.850714
O O1 0.048077 0.393003 0.326763
O O2 0.164762 0.232762 0.230298
O O3 0.294604 0.928620 0.450138
O O4 0.026138 0.942352 0.362646
O O5 0.289744 0.042845 0.293573
O O6 0.141150 0.120690 0.442642
O O7 0.760723 0.527953 0.078237
O O8 0.718039 0.315513 0.062952
O O9 0.998936 0.384297 0.007034
O O10 0.500000 0.798491 0.750000
O O11 0.333195 0.895957 0.622786
O O12 0.560806 0.147664 0.996971
O O13 0.301405 0.283231 0.021555
O O14 0.818006 0.777900 0.403105
O O15 0.855206 0.735857 0.116513
O O16 0.000000 0.226228 0.750000
#
# Coordination Sequence:
#
# PCOD8119397 Si02
#       8
#     2   4   4   4   4   4   4   4
#     4  12  22  38  68  96 128 172 208 280 322 376
#     4  11  24  38  60  91 128 167 211 261 319 386
#     4  10  20  38  64  94 119 161 217 260 316 389
#     4  12  25  41  64 101 131 169 224 265 325 392
#     4  11  23  43  63  87 137 172 204 274 326 383
#     4  11  22  40  62  90 126 165 211 265 325 377
#     4   9  21  41  62  88 122 165 209 259 326 381
#     4  10  24  39  60  89 122 165 215 261 312 399
#
# _framework density 20.862166999999999
#
# number of rings (size 3 to 8) (size 9 to 14) (size 15 to 20)
#    0.000    1.333    4.000    0.800    3.733    0.533 
#    0.000    2.000    0.000    0.000    0.000    0.000 
#    0.000    0.000    0.000    0.000    0.000    0.000 
#
# Total GULP energy -371654.500922 kJ/mol
# GULP energy per Si atom -12388.483364 kJ/mol
# Density = 2.081468 g / cm^3
# Si number density = 20.862167 Si / 1000 Ang^3
#
#
#
# Elastic Constant Matrix: (Units=GPa)
#
#
# Indices 1 2 3 4 5 6 
#
# 1 57.5734 8.6198 29.4991 0.0000 -5.2505 0.0000
# 2 8.6198 116.5026 44.7334 0.0000 0.3483 0.0000
# 3 29.4991 44.7334 160.2334 0.0000 0.7937 0.0000
# 4 0.0000 0.0000 0.0000 20.2821 0.0000 2.3880
# 5 -5.2505 0.3483 0.7937 0.0000 20.4957 0.0000
# 6 0.0000 0.0000 0.0000 2.3880 0.0000 22.6098
#
#
#
# Elastic Compliance Matrix: (Units=1/GPa)
#
#
# Indices 1 2 3 4 5 6 
#
# 1 0.019716 -0.000079 -0.003633 0.000000 0.005193 0.000000
# 2 -0.000079 0.009614 -0.002669 0.000000 -0.000080 0.000000
# 3 -0.003633 -0.002669 0.007661 0.000000 -0.001182 0.000000
# 4 0.000000 0.000000 0.000000 0.049926 0.000000 -0.005273
# 5 0.005193 -0.000080 -0.001182 0.000000 0.050168 0.000000
# 6 0.000000 0.000000 0.000000 -0.005273 0.000000 0.044786
#
#
# Mechanical properties :
#
#
# Convention : Reuss Voigt Hill
#
# Bulk Modulus (GPa) = 41.27444 55.55711 48.41578
# Shear Modulus (GPa) = 24.66574 29.44131 27.05353
#
# Velocity S-wave (km/s) = 3.44222 3.76071 3.60498
# Velocity P-wave (km/s) = 5.96873 6.74875 6.37069
#
# Compressibility (1/GPa) = 0.02422807
#
# Stress axis : x y z
#
# Youngs Moduli (GPa) = 50.71963 104.00987 130.53412
#
# Poissons Ratio (x) = 0.00824 0.47428
# Poissons Ratio (y) = 0.00402 0.34842
# Poissons Ratio (z) = 0.18428 0.27762
#
# Static dielectric constant tensor:
#      x y z
#    x 3.633470 0.000000 0.104900 
#    y 0.000000 4.354850 0.000000 
#    z 0.104900 0.000000 3.960490 
# 
# 
# High freq. dielectric constant tensor:
#      x y z
#    x 1.797500 0.000000 0.008010 
#    y 0.000000 1.813840 0.000000 
#    z 0.008010 0.000000 1.826290 
# 
# From -- ./inp_files/46921.got.cif
#   From: 2010.06.25/outbox.cif.g09.slc.cpg/sg13_24_cif.got.tgz:46921.got - 2010.06.28 04:50:58.
