data_PCOD8119650
_publ_section_title
;
Structure prediction by ZEFSAII (Michael W. Deem and Ramdas Pophale) SiO2 
 PCOD8119650
Probable space group: P 2/C
;
_chemical_formula_sum "Si O2"
_cell_formula_units_Z 20
_cell_length_a 16.247413
_cell_length_b 6.572447
_cell_length_c 8.671151
_cell_angle_alpha 90.000000
_cell_angle_beta 89.999953
_cell_angle_gamma 90.000000
_cell_volume 925.951121
_symmetry_space_group_name_H-M "P 2/C"
_symmetry_group_IT_number 13
_symmetry_cell_setting 'monoclinic'
loop_
_space_group_symop_operation_xyz
x,y,z
-x,y,1/2-z
-x,-y,-z
x,-y,1/2+z
loop_
_atom_site_type_symbol
_atom_site_label
_atom_site_fract_x
_atom_site_fract_y
_atom_site_fract_z
Si Si1 0.250000 0.408126 0.636254
Si Si2 0.614501 0.136346 0.995786
Si Si3 0.750000 0.798955 0.033740
Si Si4 0.500000 0.051475 0.250000
Si Si5 0.000000 0.948525 0.750000
Si Si6 0.114501 0.863655 0.004214
O O1 0.330437 0.327754 0.547936
O O2 0.250000 0.652597 0.617254
O O3 0.250000 0.339698 0.813292
O O4 0.169563 0.327754 0.547936
O O5 0.551054 0.097006 0.859505
O O6 0.562572 0.190650 0.150141
O O7 0.669035 0.936277 0.028628
O O8 0.830965 0.936277 0.028628
O O9 0.937428 0.809350 0.650141
O O10 0.051054 0.097006 0.640495
#
# Coordination Sequence:
#
# PCOD8119650 Si02
#       6
#     4   4   4   2   2   4
#     4  11  24  40  63  91 119 161 205 243 292 360
#     4  10  22  42  64  86 124 156 204 244 302 352
#     4  11  24  40  63  91 119 161 205 243 292 360
#     4  10  20  40  66  86 118 164 192 254 302 350
#     4  10  20  40  66  86 118 164 192 254 302 350
#     4  10  22  42  64  86 124 156 204 244 302 352
#
# _framework density 21.599412999999998
#
# number of rings (size 3 to 8) (size 9 to 14) (size 15 to 20)
#    0.000    1.600    4.000    0.000    5.600    0.000 
#    0.000   12.000    0.000    0.000    0.000    0.000 
#    0.000    0.000    0.000    0.000    0.000    0.000 
#
# Total GULP energy -248014.982200 kJ/mol
# GULP energy per Si atom -12400.749110 kJ/mol
# Density = 2.155025 g / cm^3
# Si number density = 21.599413 Si / 1000 Ang^3
#
#
#
# Elastic Constant Matrix: (Units=GPa)
#
#
# Indices 1 2 3 4 5 6 
#
# 1 121.8535 18.6227 44.5159 0.0000 0.0002 0.0000
# 2 18.6227 62.5849 12.3338 0.0000 0.0000 0.0000
# 3 44.5159 12.3338 108.4624 0.0000 0.0001 0.0000
# 4 0.0000 0.0000 0.0000 24.9584 0.0000 0.0001
# 5 0.0002 0.0000 0.0001 0.0000 45.0970 0.0000
# 6 0.0000 0.0000 0.0000 0.0001 0.0000 6.7185
#
#
#
# Elastic Compliance Matrix: (Units=1/GPa)
#
#
# Indices 1 2 3 4 5 6 
#
# 1 0.009943 -0.002204 -0.003830 0.000000 0.000000 0.000000
# 2 -0.002204 0.016833 -0.001010 0.000000 0.000000 0.000000
# 3 -0.003830 -0.001010 0.010907 0.000000 0.000000 0.000000
# 4 0.000000 0.000000 0.000000 0.040067 0.000000 -0.000001
# 5 0.000000 0.000000 0.000000 0.000000 0.022174 0.000000
# 6 0.000000 0.000000 0.000000 -0.000001 0.000000 0.148843
#
#
# Mechanical properties :
#
#
# Convention : Reuss Voigt Hill
#
# Bulk Modulus (GPa) = 42.38156 49.31615 45.84886
# Shear Modulus (GPa) = 18.46936 29.85001 24.15968
#
# Velocity S-wave (km/s) = 2.92736 3.72154 3.34808
# Velocity P-wave (km/s) = 5.57585 6.43025 6.01823
#
# Compressibility (1/GPa) = 0.02359517
#
# Stress axis : x y z
#
# Youngs Moduli (GPa) = 100.57744 59.40706 91.68772
#
# Poissons Ratio (x) = 0.13091 0.35117
# Poissons Ratio (y) = 0.22164 0.09258
# Poissons Ratio (z) = 0.38522 0.05998
#
# Static dielectric constant tensor:
#      x y z
#    x 4.319960 0.000000 0.000010 
#    y 0.000000 3.392210 0.000000 
#    z 0.000010 0.000000 4.196740 
# 
# 
# High freq. dielectric constant tensor:
#      x y z
#    x 1.872940 0.000000 0.000000 
#    y 0.000000 1.803760 0.000000 
#    z 0.000000 0.000000 1.869790 
# 
# From -- ./inp_files/11810.got.cif
#   From: 2010.06.25/outbox.cif.g09.slc.cpg/sg13_6_cif.got.tgz:11810.got - 2010.06.28 04:50:58.
