data_PCOD8119749
_publ_section_title
;
Structure prediction by ZEFSAII (Michael W. Deem and Ramdas Pophale) SiO2 
 PCOD8119749
Probable space group: P 2/C
;
_chemical_formula_sum "Si O2"
_cell_formula_units_Z 32
_cell_length_a 12.808987
_cell_length_b 13.606883
_cell_length_c 18.989734
_cell_angle_alpha 90.000000
_cell_angle_beta 26.306150
_cell_angle_gamma 90.000000
_cell_volume 1466.763645
_symmetry_space_group_name_H-M "P 2/C"
_symmetry_group_IT_number 13
_symmetry_cell_setting 'monoclinic'
loop_
_space_group_symop_operation_xyz
x,y,z
-x,y,1/2-z
-x,-y,-z
x,-y,1/2+z
loop_
_atom_site_type_symbol
_atom_site_label
_atom_site_fract_x
_atom_site_fract_y
_atom_site_fract_z
Si Si1 0.576232 0.657866 0.124084
Si Si2 0.034816 0.812281 0.652558
Si Si3 0.872685 0.036877 0.146703
Si Si4 0.357422 0.334660 0.147168
Si Si5 0.526746 0.813785 0.654008
Si Si6 0.039624 0.128159 0.804244
Si Si7 0.023490 0.522614 0.654320
Si Si8 0.754184 0.662797 0.301042
O O1 0.500000 0.677360 0.250000
O O2 0.336740 0.656134 0.224002
O O3 0.737093 0.744728 0.995687
O O4 0.720416 0.555045 0.029692
O O5 0.795773 0.750406 0.794993
O O6 0.000000 0.863114 0.750000
O O7 0.051739 0.892948 0.580966
O O8 0.814074 0.946159 0.234270
O O9 0.636609 0.095321 0.270762
O O10 0.000000 0.000000 0.000000
O O11 0.477180 0.288294 0.143751
O O12 0.181514 0.425618 0.268957
O O13 0.554864 0.376047 0.974857
O O14 0.500000 0.783753 0.750000
O O15 0.789831 0.851380 0.489150
O O16 0.189575 0.227310 0.709059
O O17 0.000000 0.085138 0.750000
O O18 0.986965 0.405451 0.667939
O O19 0.000000 0.556069 0.750000
#
# Coordination Sequence:
#
# PCOD8119749 Si02
#       8
#     4   4   4   4   4   4   4   4
#     4  11  25  42  66 102 137 173 222 282 344 395
#     4  10  20  43  70  98 129 176 228 275 329 407
#     4  11  25  43  69  99 132 176 224 272 341 407
#     4  10  20  41  70  98 129 173 228 273 327 402
#     4  11  24  45  68  99 138 175 217 276 342 397
#     4  12  26  43  65 102 135 170 230 279 329 399
#     4  11  23  42  72  98 130 177 233 274 331 411
#     4  12  24  41  69  99 132 178 229 276 336 402
#
# _framework density 21.816738000000001
#
# number of rings (size 3 to 8) (size 9 to 14) (size 15 to 20)
#    0.000    1.000    5.000    1.875    1.750    3.000 
#    0.000    1.250    0.000    0.000    0.000    0.000 
#    0.000    0.000    0.000    0.000    0.000    0.000 
#
# Total GULP energy -396796.424326 kJ/mol
# GULP energy per Si atom -12399.888260 kJ/mol
# Density = 2.176708 g / cm^3
# Si number density = 21.816738 Si / 1000 Ang^3
#
#
#
# Elastic Constant Matrix: (Units=GPa)
#
#
# Indices 1 2 3 4 5 6 
#
# 1 124.4689 26.5942 31.1060 0.0000 22.7928 0.0000
# 2 26.5942 90.4324 0.5298 0.0000 3.0705 0.0000
# 3 31.1060 0.5298 76.1721 0.0000 15.4666 0.0000
# 4 0.0000 0.0000 0.0000 28.0692 0.0000 -0.6229
# 5 22.7928 3.0705 15.4666 0.0000 41.6347 0.0000
# 6 0.0000 0.0000 0.0000 -0.6229 0.0000 32.4889
#
#
#
# Elastic Compliance Matrix: (Units=1/GPa)
#
#
# Indices 1 2 3 4 5 6 
#
# 1 0.010233 -0.002849 -0.003314 0.000000 -0.004161 0.000000
# 2 -0.002849 0.011879 0.001019 0.000000 0.000305 0.000000
# 3 -0.003314 0.001019 0.015273 0.000000 -0.003935 0.000000
# 4 0.000000 0.000000 0.000000 0.035641 0.000000 0.000683
# 5 -0.004161 0.000305 -0.003935 0.000000 0.027735 0.000000
# 6 0.000000 0.000000 0.000000 0.000683 0.000000 0.030793
#
#
# Mechanical properties :
#
#
# Convention : Reuss Voigt Hill
#
# Bulk Modulus (GPa) = 36.90351 45.28149 41.09250
# Shear Modulus (GPa) = 33.13985 35.96146 34.55065
#
# Velocity S-wave (km/s) = 3.90168 4.06438 3.98386
# Velocity P-wave (km/s) = 6.10323 6.54416 6.32754
#
# Compressibility (1/GPa) = 0.02709769
#
# Stress axis : x y z
#
# Youngs Moduli (GPa) = 97.72392 84.17956 65.47348
#
# Poissons Ratio (x) = 0.23979 0.21699
# Poissons Ratio (y) = 0.27837 -0.06670
# Poissons Ratio (z) = 0.32387 -0.08576
#
# Static dielectric constant tensor:
#      x y z
#    x 4.159550 0.000000 -0.118470 
#    y 0.000000 4.070960 0.000000 
#    z -0.118470 0.000000 3.756300 
# 
# 
# High freq. dielectric constant tensor:
#      x y z
#    x 1.870010 0.000000 -0.004620 
#    y 0.000000 1.856540 0.000000 
#    z -0.004620 0.000000 1.844310 
# 
# From -- ./inp_files/66918.got.cif
#   From: 2010.06.25/outbox.cif.g09.slc.cpg/sg13_34_cif.got.tgz:66918.got - 2010.06.28 04:50:58.
