data_PCOD8119697
_publ_section_title
;
Structure prediction by ZEFSAII (Michael W. Deem and Ramdas Pophale) SiO2 
 PCOD8119697
Probable space group: P 2/C
;
_chemical_formula_sum "Si O2"
_cell_formula_units_Z 22
_cell_length_a 25.834540
_cell_length_b 8.076401
_cell_length_c 8.847285
_cell_angle_alpha 90.000000
_cell_angle_beta 147.360941
_cell_angle_gamma 90.000000
_cell_volume 995.623765
_symmetry_space_group_name_H-M "P 2/C"
_symmetry_group_IT_number 13
_symmetry_cell_setting 'monoclinic'
loop_
_space_group_symop_operation_xyz
x,y,z
-x,y,1/2-z
-x,-y,-z
x,-y,1/2+z
loop_
_atom_site_type_symbol
_atom_site_label
_atom_site_fract_x
_atom_site_fract_y
_atom_site_fract_z
Si Si1 0.370513 0.371511 0.676776
Si Si2 0.782799 0.158367 0.326645
Si Si3 0.207655 0.381560 0.866617
Si Si4 0.921389 0.335670 0.448243
Si Si5 0.500000 0.469242 0.250000
Si Si6 0.909617 0.848391 0.626906
O O1 0.314843 0.197248 0.508998
O O2 0.300390 0.530693 0.521615
O O3 0.437935 0.408993 0.700944
O O4 0.432787 0.350537 0.982472
O O5 0.764748 0.242636 0.444525
O O6 0.867934 0.232024 0.442014
O O7 0.818746 0.970478 0.436484
O O8 0.143316 0.523059 0.789167
O O9 0.141270 0.306569 0.574163
O O10 0.956707 0.212390 0.401532
O O11 0.000000 0.420528 0.750000
O O12 0.000000 0.918646 0.750000
#
# Coordination Sequence:
#
# PCOD8119697 Si02
#       6
#     4   4   4   4   2   4
#     4  10  21  40  71 104 127 170 211 278 324 401
#     4  11  23  40  61  93 134 170 215 263 327 390
#     4  11  23  41  64  98 128 172 225 272 323 380
#     4  11  23  40  64  89 125 172 228 277 312 376
#     4  10  20  40  74 104 128 160 226 270 342 388
#     4  12  26  42  64  93 135 183 219 265 327 387
#
# _framework density 22.096700999999999
#
# number of rings (size 3 to 8) (size 9 to 14) (size 15 to 20)
#    0.000    1.091    1.818    5.455    2.545    4.364 
#    0.000    1.818    0.000    6.545    0.000    0.000 
#    0.000    0.000    0.000    0.000    0.000    0.000 
#
# Total GULP energy -272573.624831 kJ/mol
# GULP energy per Si atom -12389.710220 kJ/mol
# Density = 2.204641 g / cm^3
# Si number density = 22.096701 Si / 1000 Ang^3
#
#
#
# Elastic Constant Matrix: (Units=GPa)
#
#
# Indices 1 2 3 4 5 6 
#
# 1 104.9543 29.9280 50.3730 0.0000 -1.5190 0.0000
# 2 29.9280 76.0401 31.3059 0.0000 1.2478 0.0000
# 3 50.3730 31.3059 142.2000 0.0000 -8.1055 0.0000
# 4 0.0000 0.0000 0.0000 90.4593 0.0000 28.0711
# 5 -1.5190 1.2478 -8.1055 0.0000 33.1146 0.0000
# 6 0.0000 0.0000 0.0000 28.0711 0.0000 39.9502
#
#
#
# Elastic Compliance Matrix: (Units=1/GPa)
#
#
# Indices 1 2 3 4 5 6 
#
# 1 0.012200 -0.003315 -0.003603 0.000000 -0.000197 0.000000
# 2 -0.003315 0.015422 -0.002295 0.000000 -0.001295 0.000000
# 3 -0.003603 -0.002295 0.008934 0.000000 0.002108 0.000000
# 4 0.000000 0.000000 0.000000 0.014137 0.000000 -0.009934
# 5 -0.000197 -0.001295 0.002108 0.000000 0.030754 0.000000
# 6 0.000000 0.000000 0.000000 -0.009934 0.000000 0.032011
#
#
# Mechanical properties :
#
#
# Convention : Reuss Voigt Hill
#
# Bulk Modulus (GPa) = 55.15723 60.71204 57.93463
# Shear Modulus (GPa) = 36.25131 46.81066 41.53098
#
# Velocity S-wave (km/s) = 4.05480 4.60765 4.34004
# Velocity P-wave (km/s) = 6.85111 7.47279 7.16869
#
# Compressibility (1/GPa) = 0.01812999
#
# Stress axis : x y z
#
# Youngs Moduli (GPa) = 81.96953 64.84405 111.93148
#
# Poissons Ratio (x) = 0.21495 0.40330
# Poissons Ratio (y) = 0.27172 0.25684
# Poissons Ratio (z) = 0.29534 0.14879
#
# Static dielectric constant tensor:
#      x y z
#    x 4.132570 0.000000 -0.089880 
#    y 0.000000 3.997250 0.000000 
#    z -0.089880 0.000000 4.535070 
# 
# 
# High freq. dielectric constant tensor:
#      x y z
#    x 1.879540 0.000000 -0.012370 
#    y 0.000000 1.841190 0.000000 
#    z -0.012370 0.000000 1.877770 
# 
# From -- ./inp_files/21065.got.cif
#   From: 2010.06.25/outbox.cif.g09.slc.cpg/sg13_11_cif.got.tgz:21065.got - 2010.06.28 04:50:58.
