data_PCOD8119525
_publ_section_title
;
Structure prediction by ZEFSAII (Michael W. Deem and Ramdas Pophale) SiO2 
 PCOD8119525
Probable space group: P 2/C
;
_chemical_formula_sum "Si O2"
_cell_formula_units_Z 22
_cell_length_a 9.400267
_cell_length_b 7.998646
_cell_length_c 18.449361
_cell_angle_alpha 90.000000
_cell_angle_beta 130.327867
_cell_angle_gamma 90.000000
_cell_volume 1057.534353
_symmetry_space_group_name_H-M "P 2/C"
_symmetry_group_IT_number 13
_symmetry_cell_setting 'monoclinic'
loop_
_space_group_symop_operation_xyz
x,y,z
-x,y,1/2-z
-x,-y,-z
x,-y,1/2+z
loop_
_atom_site_type_symbol
_atom_site_label
_atom_site_fract_x
_atom_site_fract_y
_atom_site_fract_z
Si Si1 0.259640 0.371413 0.280421
Si Si2 0.147995 0.430661 0.397417
Si Si3 0.559431 0.133805 0.349747
Si Si4 0.740112 0.202508 0.937661
Si Si5 0.500000 0.585230 0.250000
Si Si6 0.093098 0.333213 0.998737
O O1 0.259642 0.459425 0.359381
O O2 0.370233 0.195698 0.326776
O O3 0.362854 0.475823 0.253198
O O4 0.049993 0.342132 0.183845
O O5 0.256806 0.302833 0.485745
O O6 0.127353 0.617248 0.425661
O O7 0.500000 0.078740 0.250000
O O8 0.709969 0.286712 0.398749
O O9 0.653772 0.980462 0.423854
O O10 0.613811 0.299220 0.840358
O O11 0.944660 0.185842 0.966398
O O12 0.000000 0.500000 0.000000
#
# Coordination Sequence:
#
# PCOD8119525 Si02
#       6
#     4   4   4   4   2   4
#     4  11  23  41  68  94 125 168 218 266 315 377
#     4  10  23  43  65  94 128 167 214 269 320 370
#     4  12  23  37  62  95 129 168 212 258 321 390
#     4  11  23  39  61  95 131 166 209 263 328 382
#     4  12  22  40  68  92 124 166 224 266 304 388
#     4  10  20  39  64  89 123 163 214 258 315 376
#
# _framework density 20.803104999999999
#
# number of rings (size 3 to 8) (size 9 to 14) (size 15 to 20)
#    0.000    1.091    3.636    4.909    0.000    3.636 
#    0.000    0.000    0.000    4.364    0.000    0.000 
#    0.000    0.000    0.000    0.000    0.000    0.000 
#
# Total GULP energy -272675.330803 kJ/mol
# GULP energy per Si atom -12394.333218 kJ/mol
# Density = 2.075576 g / cm^3
# Si number density = 20.803105 Si / 1000 Ang^3
#
#
#
# Elastic Constant Matrix: (Units=GPa)
#
#
# Indices 1 2 3 4 5 6 
#
# 1 95.0220 32.8494 37.5242 0.0000 -14.6464 0.0000
# 2 32.8494 76.2982 29.5248 0.0000 0.7859 0.0000
# 3 37.5242 29.5248 128.6490 0.0000 -1.7401 0.0000
# 4 0.0000 0.0000 0.0000 38.3338 0.0000 9.1141
# 5 -14.6464 0.7859 -1.7401 0.0000 37.6517 0.0000
# 6 0.0000 0.0000 0.0000 9.1141 0.0000 36.8280
#
#
#
# Elastic Compliance Matrix: (Units=1/GPa)
#
#
# Indices 1 2 3 4 5 6 
#
# 1 0.014286 -0.005075 -0.002928 0.000000 0.005528 0.000000
# 2 -0.005075 0.016194 -0.002269 0.000000 -0.002417 0.000000
# 3 -0.002928 -0.002269 0.009139 0.000000 -0.000669 0.000000
# 4 0.000000 0.000000 0.000000 0.027718 0.000000 -0.006859
# 5 0.005528 -0.002417 -0.000669 0.000000 0.028729 0.000000
# 6 0.000000 0.000000 0.000000 -0.006859 0.000000 0.028851
#
#
# Mechanical properties :
#
#
# Convention : Reuss Voigt Hill
#
# Bulk Modulus (GPa) = 52.42083 55.52958 53.97521
# Shear Modulus (GPa) = 32.93395 35.90075 34.41735
#
# Velocity S-wave (km/s) = 3.98317 4.15871 4.07188
# Velocity P-wave (km/s) = 6.81230 7.05767 6.93607
#
# Compressibility (1/GPa) = 0.01907639
#
# Stress axis : x y z
#
# Youngs Moduli (GPa) = 69.99622 61.74986 109.42478
#
# Poissons Ratio (x) = 0.31338 0.32035
# Poissons Ratio (y) = 0.35523 0.24829
# Poissons Ratio (z) = 0.20492 0.14011
#
# Static dielectric constant tensor:
#      x y z
#    x 4.735460 0.000000 -0.547620 
#    y 0.000000 3.999210 0.000000 
#    z -0.547620 0.000000 4.949900 
# 
# 
# High freq. dielectric constant tensor:
#      x y z
#    x 1.810480 0.000000 0.012850 
#    y 0.000000 1.788040 0.000000 
#    z 0.012850 0.000000 1.836910 
# 
# From -- ./inp_files/63953.got.cif
#   From: 2010.06.25/outbox.cif.g09.slc.cpg/sg13_32_cif.got.tgz:63953.got - 2010.06.28 04:50:58.
