data_PCOD8119456
_publ_section_title
;
Structure prediction by ZEFSAII (Michael W. Deem and Ramdas Pophale) SiO2 
 PCOD8119456
Probable space group: P 2/C
;
_chemical_formula_sum "Si O2"
_cell_formula_units_Z 16
_cell_length_a 15.187701
_cell_length_b 8.489229
_cell_length_c 12.719951
_cell_angle_alpha 90.000000
_cell_angle_beta 24.009764
_cell_angle_gamma 90.000000
_cell_volume 667.306287
_symmetry_space_group_name_H-M "P 2/C"
_symmetry_group_IT_number 13
_symmetry_cell_setting 'monoclinic'
loop_
_space_group_symop_operation_xyz
x,y,z
-x,y,1/2-z
-x,-y,-z
x,-y,1/2+z
loop_
_atom_site_type_symbol
_atom_site_label
_atom_site_fract_x
_atom_site_fract_y
_atom_site_fract_z
Si Si1 0.383240 0.148571 0.234596
Si Si2 0.206972 0.717725 0.725493
Si Si3 0.500000 0.872621 0.250000
Si Si4 0.000000 0.680376 0.250000
Si Si5 0.215154 0.373310 0.721502
O O1 0.290926 0.150226 0.216896
O O2 0.207524 0.212037 0.506335
O O3 0.428310 0.972742 0.226376
O O4 0.597582 0.253234 0.009217
O O5 0.299236 0.764351 0.509737
O O6 0.304282 0.546543 0.655900
O O7 0.944093 0.706013 0.017060
O O8 0.061788 0.583110 0.287088
#
# Coordination Sequence:
#
# PCOD8119456 Si02
#       5
#     4   4   2   2   4
#     4  11  22  44  66  92 135 175 210 273 327 383
#     4  10  25  42  66  99 130 168 227 267 323 384
#     4  12  24  42  64 102 134 174 214 266 326 400
#     4  10  20  38  72  94 124 174 224 258 328 382
#     4  10  21  45  68  94 130 173 219 275 319 381
#
# _framework density 23.976994999999999
#
# number of rings (size 3 to 8) (size 9 to 14) (size 15 to 20)
#    0.000    1.500    2.500    1.500    3.500    1.000 
#    4.500    0.000    0.000    0.000    0.000    0.000 
#    0.000    0.000    0.000    0.000    0.000    0.000 
#
# Total GULP energy -198236.465941 kJ/mol
# GULP energy per Si atom -12389.779121 kJ/mol
# Density = 2.392242 g / cm^3
# Si number density = 23.976995 Si / 1000 Ang^3
#
#
#
# Elastic Constant Matrix: (Units=GPa)
#
#
# Indices 1 2 3 4 5 6 
#
# 1 32.1194 26.9391 27.2285 0.0000 15.1974 0.0000
# 2 26.9391 97.7255 79.4606 0.0000 12.6181 0.0000
# 3 27.2285 79.4606 220.8033 0.0000 26.4192 0.0000
# 4 0.0000 0.0000 0.0000 34.4238 0.0000 11.4979
# 5 15.1974 12.6181 26.4192 0.0000 30.6702 0.0000
# 6 0.0000 0.0000 0.0000 11.4979 0.0000 26.8424
#
#
#
# Elastic Compliance Matrix: (Units=1/GPa)
#
#
# Indices 1 2 3 4 5 6 
#
# 1 0.050114 -0.011505 0.000407 0.000000 -0.020449 0.000000
# 2 -0.011505 0.017181 -0.005129 0.000000 0.003051 0.000000
# 3 0.000407 -0.005129 0.006797 0.000000 -0.003946 0.000000
# 4 0.000000 0.000000 0.000000 0.033900 0.000000 -0.014521
# 5 -0.020449 0.003051 -0.003946 0.000000 0.044882 0.000000
# 6 0.000000 0.000000 0.000000 -0.014521 0.000000 0.043475
#
#
# Mechanical properties :
#
#
# Convention : Reuss Voigt Hill
#
# Bulk Modulus (GPa) = 24.01694 68.65608 46.33651
# Shear Modulus (GPa) = 20.60318 32.85527 26.72922
#
# Velocity S-wave (km/s) = 2.93454 3.70575 3.34246
# Velocity P-wave (km/s) = 4.63902 6.85612 5.85350
#
# Compressibility (1/GPa) = 0.04163728
#
# Stress axis : x y z
#
# Youngs Moduli (GPa) = 19.95457 58.20413 147.13043
#
# Poissons Ratio (x) = 0.66965 -0.05993
# Poissons Ratio (y) = 0.22958 0.75465
# Poissons Ratio (z) = -0.00813 0.29854
#
# Static dielectric constant tensor:
#      x y z
#    x 4.173860 0.000000 0.225190 
#    y 0.000000 4.039270 0.000000 
#    z 0.225190 0.000000 4.553570 
# 
# 
# High freq. dielectric constant tensor:
#      x y z
#    x 1.931930 0.000000 0.019750 
#    y 0.000000 1.934770 0.000000 
#    z 0.019750 0.000000 1.977600 
# 
# From -- ./inp_files/43244.got.cif
#   From: 2010.06.25/outbox.cif.g09.slc.cpg/sg13_22_cif.got.tgz:43244.got - 2010.06.28 04:50:58.
