data_PCOD8119754
_publ_section_title
;
Structure prediction by ZEFSAII (Michael W. Deem and Ramdas Pophale) SiO2 
 PCOD8119754
Probable space group: P 2/C
;
_chemical_formula_sum "Si O2"
_cell_formula_units_Z 24
_cell_length_a 18.250706
_cell_length_b 11.059086
_cell_length_c 11.301859
_cell_angle_alpha 90.000000
_cell_angle_beta 30.039377
_cell_angle_gamma 90.000000
_cell_volume 1141.919142
_symmetry_space_group_name_H-M "P 2/C"
_symmetry_group_IT_number 13
_symmetry_cell_setting 'monoclinic'
loop_
_space_group_symop_operation_xyz
x,y,z
-x,y,1/2-z
-x,-y,-z
x,-y,1/2+z
loop_
_atom_site_type_symbol
_atom_site_label
_atom_site_fract_x
_atom_site_fract_y
_atom_site_fract_z
Si Si1 0.903361 0.086837 0.994226
Si Si2 0.500000 0.628893 0.250000
Si Si3 0.355049 0.736845 0.672426
Si Si4 0.405580 0.694877 0.993031
Si Si5 0.885707 0.173069 0.617130
Si Si6 0.291471 0.477800 0.846825
Si Si7 0.000000 0.661223 0.750000
O O1 0.000000 0.043002 0.750000
O O2 0.000800 0.180772 0.933593
O O3 0.755794 0.152713 0.161867
O O4 0.858391 0.966990 0.126787
O O5 0.398463 0.713914 0.474823
O O6 0.601456 0.547224 0.192947
O O7 0.499290 0.773769 0.546508
O O8 0.281545 0.620327 0.838191
O O9 0.271469 0.772578 0.129524
O O10 0.352512 0.576445 0.138353
O O11 0.500000 0.651225 0.750000
O O12 0.956498 0.251251 0.415721
O O13 0.133544 0.424644 0.100926
#
# Coordination Sequence:
#
# PCOD8119754 Si02
#       7
#     4   2   4   4   4   4   2
#     4  11  23  42  62  89 122 153 202 249 296 348
#     4  10  20  42  56  86 124 162 196 236 292 364
#     4  11  24  37  61  92 120 159 194 246 298 347
#     4  10  21  40  61  90 120 155 201 240 296 354
#     4  10  22  42  66  84 117 164 195 250 297 341
#     4  10  23  36  64  86 122 160 193 244 296 350
#     4  10  20  44  60  90 114 158 208 238 292 366
#
# _framework density 21.017251000000002
#
# number of rings (size 3 to 8) (size 9 to 14) (size 15 to 20)
#    0.000    1.667    0.833    4.000    5.833    0.667 
#    1.500    2.500    0.000    0.000    0.000    0.000 
#    0.000    0.000    0.000    0.000    0.000    0.000 
#
# Total GULP energy -297634.914124 kJ/mol
# GULP energy per Si atom -12401.454755 kJ/mol
# Density = 2.096941 g / cm^3
# Si number density = 21.017251 Si / 1000 Ang^3
#
#
#
# Elastic Constant Matrix: (Units=GPa)
#
#
# Indices 1 2 3 4 5 6 
#
# 1 66.0919 15.7094 19.8983 0.0000 -12.8671 0.0000
# 2 15.7094 48.7616 35.2016 0.0000 -10.4005 0.0000
# 3 19.8983 35.2016 105.1947 0.0000 -12.5138 0.0000
# 4 0.0000 0.0000 0.0000 1.0105 0.0000 -8.7831
# 5 -12.8671 -10.4005 -12.5138 0.0000 39.5229 0.0000
# 6 0.0000 0.0000 0.0000 -8.7831 0.0000 30.5246
#
#
#
# Elastic Compliance Matrix: (Units=1/GPa)
#
#
# Indices 1 2 3 4 5 6 
#
# 1 0.017261 -0.003520 -0.001589 0.000000 0.004190 0.000000
# 2 -0.003520 0.028521 -0.008440 0.000000 0.003687 0.000000
# 3 -0.001589 -0.008440 0.012787 0.000000 0.001311 0.000000
# 4 0.000000 0.000000 0.000000 -0.659286 0.000000 -0.189703
# 5 0.004190 0.003687 0.001311 0.000000 0.028051 0.000000
# 6 0.000000 0.000000 0.000000 -0.189703 0.000000 -0.021824
#
#
# Mechanical properties :
#
#
# Convention : Reuss Voigt Hill
#
# Bulk Modulus (GPa) = 31.77435 40.18520 35.97977
# Shear Modulus (GPa) = -8.97824 24.16085 7.59131
#
# Velocity S-wave (km/s) = -2.06909 3.39421 1.90257
# Velocity P-wave (km/s) = 3.07293 5.87559 4.68857
#
# Compressibility (1/GPa) = 0.03147193
#
# Stress axis : x y z
#
# Youngs Moduli (GPa) = 57.93322 35.06160 78.20610
#
# Poissons Ratio (x) = 0.12343 0.12423
# Poissons Ratio (y) = 0.20395 0.66003
# Poissons Ratio (z) = 0.09203 0.29591
#
# Static dielectric constant tensor:
#      x y z
#    x 4.048990 0.000000 -0.084960 
#    y 0.000000 3.511150 0.000000 
#    z -0.084960 0.000000 4.001510 
# 
# 
# High freq. dielectric constant tensor:
#      x y z
#    x 1.838070 0.000000 -0.000690 
#    y 0.000000 1.808150 0.000000 
#    z -0.000690 0.000000 1.831090 
# 
# From -- ./inp_files/39137.got.cif
#   From: 2010.06.25/outbox.cif.g09.slc.cpg/sg13_20_cif.got.tgz:39137.got - 2010.06.28 04:50:58.
