data_PCOD8119868
_publ_section_title
;
Structure prediction by ZEFSAII (Michael W. Deem and Ramdas Pophale) SiO2 
 PCOD8119868
Probable space group: P 2/C
;
_chemical_formula_sum "Si O2"
_cell_formula_units_Z 32
_cell_length_a 17.056783
_cell_length_b 11.639111
_cell_length_c 11.328240
_cell_angle_alpha 90.000000
_cell_angle_beta 50.949207
_cell_angle_gamma 90.000000
_cell_volume 1746.505337
_symmetry_space_group_name_H-M "P 2/C"
_symmetry_group_IT_number 13
_symmetry_cell_setting 'monoclinic'
loop_
_space_group_symop_operation_xyz
x,y,z
-x,y,1/2-z
-x,-y,-z
x,-y,1/2+z
loop_
_atom_site_type_symbol
_atom_site_label
_atom_site_fract_x
_atom_site_fract_y
_atom_site_fract_z
Si Si1 0.887569 0.752847 0.381120
Si Si2 0.771047 0.283649 0.649875
Si Si3 0.764665 0.430535 0.876047
Si Si4 0.472043 0.606095 0.899646
Si Si5 0.866423 0.908782 0.186083
Si Si6 0.107722 0.646986 0.682089
Si Si7 0.448938 0.642357 0.178210
Si Si8 0.083884 0.157324 0.395424
O O1 0.806070 0.652554 0.439094
O O2 0.870260 0.864528 0.316354
O O3 0.869032 0.792895 0.530628
O O4 0.000000 0.703573 0.250000
O O5 0.802110 0.379440 0.716473
O O6 0.775250 0.156620 0.704723
O O7 0.851691 0.290030 0.471142
O O8 0.661944 0.308836 0.701666
O O9 0.812141 0.555699 0.845357
O O10 0.643619 0.437244 0.994989
O O11 0.500000 0.674703 0.750000
O O12 0.546664 0.496061 0.827033
O O13 0.490467 0.678000 0.005358
O O14 0.850300 0.045553 0.203921
O O15 0.968009 0.877260 0.019956
O O16 0.091940 0.745884 0.791004
O O17 0.000000 0.589240 0.750000
O O18 0.500000 0.691751 0.250000
#
# Coordination Sequence:
#
# PCOD8119868 Si02
#       8
#     4   4   4   4   4   4   4   4
#     4   9  19  36  53  75 108 151 183 215 280 324
#     4  10  21  37  53  78 112 147 180 222 285 324
#     4  10  22  36  52  77 117 152 172 220 275 343
#     4   9  17  33  54  75 104 142 182 222 268 327
#     4   9  19  37  57  73 106 144 188 238 271 311
#     4  12  23  32  51  80 114 146 188 219 264 326
#     4   9  17  32  52  77 105 135 176 223 280 326
#     4  10  21  34  55  79 104 143 193 234 261 309
#
# _framework density 18.322303999999999
#
# number of rings (size 3 to 8) (size 9 to 14) (size 15 to 20)
#    0.000    2.250    1.250    1.875    3.500    1.000 
#    2.250    0.000    0.000    0.000    0.000    4.375 
#    0.000    0.000    0.000    0.000    0.000    0.000 
#
# Total GULP energy -396547.174250 kJ/mol
# GULP energy per Si atom -12392.099195 kJ/mol
# Density = 1.828060 g / cm^3
# Si number density = 18.322304 Si / 1000 Ang^3
#
#
#
# Elastic Constant Matrix: (Units=GPa)
#
#
# Indices 1 2 3 4 5 6 
#
# 1 119.4773 36.8010 39.8691 0.0000 10.3194 0.0000
# 2 36.8010 81.4775 18.2546 0.0000 2.4520 0.0000
# 3 39.8691 18.2546 95.2204 0.0000 26.1601 0.0000
# 4 0.0000 0.0000 0.0000 15.5259 0.0000 -0.8782
# 5 10.3194 2.4520 26.1601 0.0000 32.9385 0.0000
# 6 0.0000 0.0000 0.0000 -0.8782 0.0000 13.0240
#
#
#
# Elastic Compliance Matrix: (Units=1/GPa)
#
#
# Indices 1 2 3 4 5 6 
#
# 1 0.010884 -0.004074 -0.003738 0.000000 -0.000138 0.000000
# 2 -0.004074 0.014391 -0.001419 0.000000 0.001332 0.000000
# 3 -0.003738 -0.001419 0.015334 0.000000 -0.010902 0.000000
# 4 0.000000 0.000000 0.000000 0.064655 0.000000 0.004360
# 5 -0.000138 0.001332 -0.010902 0.000000 0.038962 0.000000
# 6 0.000000 0.000000 0.000000 0.004360 0.000000 0.077075
#
#
# Mechanical properties :
#
#
# Convention : Reuss Voigt Hill
#
# Bulk Modulus (GPa) = 45.15382 54.00276 49.57829
# Shear Modulus (GPa) = 20.23083 25.71438 22.97260
#
# Velocity S-wave (km/s) = 3.32650 3.75032 3.54475
# Velocity P-wave (km/s) = 6.28107 6.94917 6.62355
#
# Compressibility (1/GPa) = 0.02214652
#
# Stress axis : x y z
#
# Youngs Moduli (GPa) = 91.87711 69.48587 65.21318
#
# Poissons Ratio (x) = 0.28311 0.24379
# Poissons Ratio (y) = 0.37434 0.09254
# Poissons Ratio (z) = 0.34347 0.09860
#
# Static dielectric constant tensor:
#      x y z
#    x 3.642550 0.000000 0.272470 
#    y 0.000000 3.154660 0.000000 
#    z 0.272470 0.000000 3.534220 
# 
# 
# High freq. dielectric constant tensor:
#      x y z
#    x 1.719420 0.000000 0.023510 
#    y 0.000000 1.672250 0.000000 
#    z 0.023510 0.000000 1.710500 
# 
# From -- ./inp_files/37157.got.cif
#   From: 2010.06.25/outbox.cif.g09.slc.cpg/sg13_19_cif.got.tgz:37157.got - 2010.06.28 04:50:58.
