data_PCOD8119511
_publ_section_title
;
Structure prediction by ZEFSAII (Michael W. Deem and Ramdas Pophale) SiO2 
 PCOD8119511
Probable space group: P 2/C
;
_chemical_formula_sum "Si O2"
_cell_formula_units_Z 22
_cell_length_a 8.734977
_cell_length_b 7.942510
_cell_length_c 14.766107
_cell_angle_alpha 90.000000
_cell_angle_beta 102.372139
_cell_angle_gamma 90.000000
_cell_volume 1000.646742
_symmetry_space_group_name_H-M "P 2/C"
_symmetry_group_IT_number 13
_symmetry_cell_setting 'monoclinic'
loop_
_space_group_symop_operation_xyz
x,y,z
-x,y,1/2-z
-x,-y,-z
x,-y,1/2+z
loop_
_atom_site_type_symbol
_atom_site_label
_atom_site_fract_x
_atom_site_fract_y
_atom_site_fract_z
Si Si1 0.329303 0.550514 0.093852
Si Si2 0.197065 0.758461 0.479862
Si Si3 0.904864 0.754801 0.325922
Si Si4 0.695379 0.945729 0.829222
Si Si5 0.516028 0.136068 0.578542
Si Si6 0.500000 0.661334 0.750000
O O1 0.220681 0.612276 0.163449
O O2 0.397913 0.707138 0.046023
O O3 0.476821 0.450519 0.157278
O O4 0.232097 0.433189 0.014005
O O5 0.228153 0.885327 0.566431
O O6 0.305020 0.799229 0.404801
O O7 0.018487 0.775945 0.426658
O O8 0.000000 0.695281 0.250000
O O9 0.818090 0.932540 0.294821
O O10 0.653012 0.784707 0.761219
O O11 0.532499 0.047924 0.832800
O O12 0.500000 0.000000 0.500000
#
# Coordination Sequence:
#
# PCOD8119511 Si02
#       6
#     4   4   4   4   4   2
#     4  10  22  40  62  89 129 166 202 264 312 380
#     4  10  20  39  63  89 122 161 209 250 324 376
#     4  11  24  38  61  92 127 164 204 255 318 376
#     4   9  21  40  62  88 123 164 206 257 308 375
#     4   9  19  36  64  94 113 161 215 258 303 369
#     4  10  22  38  64  86 124 162 212 252 322 348
#
# _framework density 21.985779999999998
#
# number of rings (size 3 to 8) (size 9 to 14) (size 15 to 20)
#    0.000    2.182    0.000    1.636    5.091    1.455 
#    0.000    3.636    4.000    0.000    0.000    0.000 
#    0.000    0.000    0.000    0.000    0.000    0.000 
#
# Total GULP energy -272671.849892 kJ/mol
# GULP energy per Si atom -12394.174995 kJ/mol
# Density = 2.193574 g / cm^3
# Si number density = 21.985780 Si / 1000 Ang^3
#
#
#
# Elastic Constant Matrix: (Units=GPa)
#
#
# Indices 1 2 3 4 5 6 
#
# 1 90.8760 46.7081 37.7783 0.0000 -3.0023 0.0000
# 2 46.7081 137.7375 39.3583 0.0000 -3.4411 0.0000
# 3 37.7783 39.3583 73.5885 0.0000 1.8994 0.0000
# 4 0.0000 0.0000 0.0000 23.6794 0.0000 4.3155
# 5 -3.0023 -3.4411 1.8994 0.0000 30.8242 0.0000
# 6 0.0000 0.0000 0.0000 4.3155 0.0000 27.1520
#
#
#
# Elastic Compliance Matrix: (Units=1/GPa)
#
#
# Indices 1 2 3 4 5 6 
#
# 1 0.015343 -0.003428 -0.006082 0.000000 0.001486 0.000000
# 2 -0.003428 0.009384 -0.003282 0.000000 0.000916 0.000000
# 3 -0.006082 -0.003282 0.018521 0.000000 -0.002100 0.000000
# 4 0.000000 0.000000 0.000000 0.043490 0.000000 -0.006912
# 5 0.001486 0.000916 -0.002100 0.000000 0.032818 0.000000
# 6 0.000000 0.000000 0.000000 -0.006912 0.000000 0.037928
#
#
# Mechanical properties :
#
#
# Convention : Reuss Voigt Hill
#
# Bulk Modulus (GPa) = 56.61432 61.09905 58.85668
# Shear Modulus (GPa) = 26.46099 28.22163 27.34131
#
# Velocity S-wave (km/s) = 3.47299 3.58667 3.53028
# Velocity P-wave (km/s) = 6.47213 6.70841 6.59133
#
# Compressibility (1/GPa) = 0.01766338
#
# Stress axis : x y z
#
# Youngs Moduli (GPa) = 65.17502 106.56974 53.99257
#
# Poissons Ratio (x) = 0.36533 0.32837
# Poissons Ratio (y) = 0.22343 0.17723
# Poissons Ratio (z) = 0.39637 0.34981
#
# Static dielectric constant tensor:
#      x y z
#    x 4.148330 0.000000 -0.021810 
#    y 0.000000 4.215100 0.000000 
#    z -0.021810 0.000000 3.663590 
# 
# 
# High freq. dielectric constant tensor:
#      x y z
#    x 1.852170 0.000000 0.009270 
#    y 0.000000 1.879760 0.000000 
#    z 0.009270 0.000000 1.850060 
# 
# From -- ./inp_files/46189.got.cif
#   From: 2010.06.25/outbox.cif.g09.slc.cpg/sg13_24_cif.got.tgz:46189.got - 2010.06.28 04:50:58.
