data_PCOD8119444
_publ_section_title
;
Structure prediction by ZEFSAII (Michael W. Deem and Ramdas Pophale) SiO2 
 PCOD8119444
Probable space group: P 2/C
;
_chemical_formula_sum "Si O2"
_cell_formula_units_Z 28
_cell_length_a 9.116590
_cell_length_b 13.955225
_cell_length_c 11.178399
_cell_angle_alpha 90.000000
_cell_angle_beta 75.306573
_cell_angle_gamma 90.000000
_cell_volume 1375.652212
_symmetry_space_group_name_H-M "P 2/C"
_symmetry_group_IT_number 13
_symmetry_cell_setting 'monoclinic'
loop_
_space_group_symop_operation_xyz
x,y,z
-x,y,1/2-z
-x,-y,-z
x,-y,1/2+z
loop_
_atom_site_type_symbol
_atom_site_label
_atom_site_fract_x
_atom_site_fract_y
_atom_site_fract_z
Si Si1 0.166980 0.310652 0.737037
Si Si2 0.258897 0.677243 0.486016
Si Si3 0.168853 0.179240 0.191905
Si Si4 0.672837 0.665166 0.682450
Si Si5 0.462189 0.929947 0.619397
Si Si6 0.828607 0.473762 0.310819
Si Si7 0.588273 0.744318 0.473375
O O1 0.184799 0.413128 0.668576
O O2 0.293094 0.236430 0.659384
O O3 0.000000 0.267216 0.750000
O O4 0.191958 0.329417 0.869765
O O5 0.168542 0.763010 0.567968
O O6 0.230779 0.576108 0.556231
O O7 0.437565 0.699649 0.448421
O O8 0.221927 0.251869 0.284004
O O9 0.281779 0.088876 0.157530
O O10 0.000000 0.139578 0.250000
O O11 0.500000 0.687547 0.750000
O O12 0.725702 0.562057 0.720481
O O13 0.678773 0.667826 0.537647
O O14 0.500000 0.964374 0.750000
O O15 0.555734 0.834922 0.565318
O O16 0.500000 0.000000 0.500000
O O17 0.000000 0.441234 0.250000
#
# Coordination Sequence:
#
# PCOD8119444 Si02
#       7
#     4   4   4   4   4   4   4
#     4  11  27  37  54  86 126 171 209 264 319 360
#     4  10  21  39  56  85 118 157 215 256 312 362
#     4  10  20  38  68  94 120 157 202 255 304 376
#     4  11  17  36  65  90 113 155 218 247 301 362
#     4  11  23  44  71  99 127 164 206 256 319 391
#     4  10  23  37  55  86 122 166 210 267 310 359
#     4  11  22  41  63  86 121 162 208 255 312 380
#
# _framework density 20.353981000000001
#
# number of rings (size 3 to 8) (size 9 to 14) (size 15 to 20)
#    0.000    1.429    5.714    2.143    6.000    5.143 
#    0.000    1.429    0.000    0.000    0.000    0.000 
#    0.000    0.000    0.000    0.000    0.000    0.000 
#
# Total GULP energy -347011.813853 kJ/mol
# GULP energy per Si atom -12393.279066 kJ/mol
# Density = 2.030765 g / cm^3
# Si number density = 20.353981 Si / 1000 Ang^3
#
#
#
# Elastic Constant Matrix: (Units=GPa)
#
#
# Indices 1 2 3 4 5 6 
#
# 1 134.9175 29.2191 66.2478 0.0000 -17.5167 0.0000
# 2 29.2191 37.4269 27.1959 0.0000 -9.6833 0.0000
# 3 66.2478 27.1959 113.3605 0.0000 -0.0597 0.0000
# 4 0.0000 0.0000 0.0000 23.5359 0.0000 1.2071
# 5 -17.5167 -9.6833 -0.0597 0.0000 39.9019 0.0000
# 6 0.0000 0.0000 0.0000 1.2071 0.0000 10.8559
#
#
#
# Elastic Compliance Matrix: (Units=1/GPa)
#
#
# Indices 1 2 3 4 5 6 
#
# 1 0.011675 -0.003716 -0.005929 0.000000 0.004215 0.000000
# 2 -0.003716 0.036197 -0.006509 0.000000 0.007143 0.000000
# 3 -0.005929 -0.006509 0.013846 0.000000 -0.004162 0.000000
# 4 0.000000 0.000000 0.000000 0.042732 0.000000 -0.004752
# 5 0.004215 0.007143 -0.004162 0.000000 0.028639 0.000000
# 6 0.000000 0.000000 0.000000 -0.004752 0.000000 0.092644
#
#
# Mechanical properties :
#
#
# Convention : Reuss Voigt Hill
#
# Bulk Modulus (GPa) = 34.00129 59.00340 46.50234
# Shear Modulus (GPa) = 18.66748 25.72820 22.19784
#
# Velocity S-wave (km/s) = 3.03172 3.55919 3.30599
# Velocity P-wave (km/s) = 5.38483 6.77805 6.12121
#
# Compressibility (1/GPa) = 0.02941065
#
# Stress axis : x y z
#
# Youngs Moduli (GPa) = 85.65015 27.62633 72.22400
#
# Poissons Ratio (x) = 0.10266 0.42824
# Poissons Ratio (y) = 0.31827 0.47008
# Poissons Ratio (z) = 0.50785 0.17981
#
# Static dielectric constant tensor:
#      x y z
#    x 3.961580 0.000000 0.211090 
#    y 0.000000 3.378630 0.000000 
#    z 0.211090 0.000000 4.232990 
# 
# 
# High freq. dielectric constant tensor:
#      x y z
#    x 1.805310 0.000000 0.000680 
#    y 0.000000 1.753090 0.000000 
#    z 0.000680 0.000000 1.806790 
# 
# From -- ./inp_files/30070.got.cif
#   From: 2010.06.25/outbox.cif.g09.slc.cpg/sg13_16_cif.got.tgz:30070.got - 2010.06.28 04:50:58.
