data_PCOD8119498
_publ_section_title
;
Structure prediction by ZEFSAII (Michael W. Deem and Ramdas Pophale) SiO2 
 PCOD8119498
Probable space group: P 2/C
;
_chemical_formula_sum "Si O2"
_cell_formula_units_Z 26
_cell_length_a 5.272804
_cell_length_b 13.673415
_cell_length_c 20.778634
_cell_angle_alpha 90.000000
_cell_angle_beta 130.006170
_cell_angle_gamma 90.000000
_cell_volume 1147.493769
_symmetry_space_group_name_H-M "P 2/C"
_symmetry_group_IT_number 13
_symmetry_cell_setting 'monoclinic'
loop_
_space_group_symop_operation_xyz
x,y,z
-x,y,1/2-z
-x,-y,-z
x,-y,1/2+z
loop_
_atom_site_type_symbol
_atom_site_label
_atom_site_fract_x
_atom_site_fract_y
_atom_site_fract_z
Si Si1 0.258136 0.371413 0.346835
Si Si2 0.000000 0.269213 0.750000
Si Si3 0.049173 0.836320 0.131786
Si Si4 0.332430 0.769530 0.969927
Si Si5 0.664596 0.324167 0.904200
Si Si6 0.120118 0.025202 0.448698
Si Si7 0.759332 0.490643 0.347094
O O1 0.363999 0.275378 0.403933
O O2 0.587423 0.414999 0.368347
O O3 0.000000 0.338622 0.250000
O O4 0.088237 0.447487 0.368433
O O5 0.850059 0.198545 0.780613
O O6 0.271662 0.341706 0.826612
O O7 0.274936 0.782025 0.116647
O O8 0.093667 0.954097 0.133410
O O9 0.673798 0.809700 0.053054
O O10 0.067231 0.859334 0.924711
O O11 0.228993 0.683408 0.003545
O O12 0.868479 0.412162 0.904249
O O13 0.500000 0.000000 0.500000
O O14 0.000000 0.000000 0.500000
O O15 0.500000 0.522208 0.250000
#
# Coordination Sequence:
#
# PCOD8119498 Si02
#       7
#     4   2   4   4   4   4   4
#     4  10  24  43  61  88 126 167 215 261 306 371
#     4  10  22  36  58  94 128 156 208 254 318 376
#     4  10  21  38  61  91 128 164 205 259 313 377
#     4  10  23  39  64  90 124 166 212 256 311 369
#     4  11  22  37  64  91 126 163 205 261 319 377
#     4  10  20  39  62  88 121 161 200 247 313 366
#     4  10  23  39  62  86 125 166 206 259 320 367
#
# _framework density 22.658076000000001
#
# number of rings (size 3 to 8) (size 9 to 14) (size 15 to 20)
#    0.000    1.846    1.538    1.385    9.692    1.231 
#    1.385    0.000    0.000    1.846    0.000    0.000 
#    0.000    0.000    0.000    0.000    0.000    0.000 
#
# Total GULP energy -322295.127764 kJ/mol
# GULP energy per Si atom -12395.966452 kJ/mol
# Density = 2.260651 g / cm^3
# Si number density = 22.658076 Si / 1000 Ang^3
#
#
#
# Elastic Constant Matrix: (Units=GPa)
#
#
# Indices 1 2 3 4 5 6 
#
# 1 80.4423 4.3617 12.4477 0.0000 -25.9637 0.0000
# 2 4.3617 103.2762 41.4915 0.0000 -22.2076 0.0000
# 3 12.4477 41.4915 79.3695 0.0000 -31.2544 0.0000
# 4 0.0000 0.0000 0.0000 32.8400 0.0000 -13.3961
# 5 -25.9637 -22.2076 -31.2544 0.0000 34.2559 0.0000
# 6 0.0000 0.0000 0.0000 -13.3961 0.0000 30.4015
#
#
#
# Elastic Compliance Matrix: (Units=1/GPa)
#
#
# Indices 1 2 3 4 5 6 
#
# 1 0.017384 0.001690 0.003137 0.000000 0.017134 0.000000
# 2 0.001690 0.012662 -0.004912 0.000000 0.005007 0.000000
# 3 0.003137 -0.004912 0.022409 0.000000 0.019638 0.000000
# 4 0.000000 0.000000 0.000000 0.037123 0.000000 0.016358
# 5 0.017134 0.005007 0.019638 0.000000 0.063342 0.000000
# 6 0.000000 0.000000 0.000000 0.016358 0.000000 0.040101
#
#
# Mechanical properties :
#
#
# Convention : Reuss Voigt Hill
#
# Bulk Modulus (GPa) = 19.12626 42.18777 30.65702
# Shear Modulus (GPa) = 23.73944 33.15196 28.44570
#
# Velocity S-wave (km/s) = 3.24037 3.82925 3.54705
# Velocity P-wave (km/s) = 4.73915 6.18147 5.50773
#
# Compressibility (1/GPa) = 0.05228415
#
# Stress axis : x y z
#
# Youngs Moduli (GPa) = 57.52282 78.97867 44.62578
#
# Poissons Ratio (x) = -0.13345 -0.14001
# Poissons Ratio (y) = -0.09720 0.21922
# Poissons Ratio (z) = -0.18047 0.38797
#
# Static dielectric constant tensor:
#      x y z
#    x 4.186080 0.000000 -0.236610 
#    y 0.000000 4.362280 0.000000 
#    z -0.236610 0.000000 4.060060 
# 
# 
# High freq. dielectric constant tensor:
#      x y z
#    x 1.901320 0.000000 -0.019530 
#    y 0.000000 1.886030 0.000000 
#    z -0.019530 0.000000 1.875010 
# 
# From -- ./inp_files/73499.got.cif
#   From: 2010.06.25/outbox.cif.g09.slc.cpg/sg13_37_cif.got.tgz:73499.got - 2010.06.28 04:50:58.
