data_PCOD8119674
_publ_section_title
;
Structure prediction by ZEFSAII (Michael W. Deem and Ramdas Pophale) SiO2 
 PCOD8119674
Probable space group: P 2/C
;
_chemical_formula_sum "Si O2"
_cell_formula_units_Z 26
_cell_length_a 21.978669
_cell_length_b 8.187154
_cell_length_c 16.821394
_cell_angle_alpha 90.000000
_cell_angle_beta 24.662770
_cell_angle_gamma 90.000000
_cell_volume 1263.049624
_symmetry_space_group_name_H-M "P 2/C"
_symmetry_group_IT_number 13
_symmetry_cell_setting 'monoclinic'
loop_
_space_group_symop_operation_xyz
x,y,z
-x,y,1/2-z
-x,-y,-z
x,-y,1/2+z
loop_
_atom_site_type_symbol
_atom_site_label
_atom_site_fract_x
_atom_site_fract_y
_atom_site_fract_z
Si Si1 0.834562 0.075151 0.148217
Si Si2 0.656658 0.195538 0.928425
Si Si3 0.500000 0.370561 0.250000
Si Si4 0.404433 0.696036 0.615417
Si Si5 0.617356 0.594269 0.246156
Si Si6 0.948730 0.327992 0.532022
Si Si7 0.107121 0.195942 0.053641
O O1 0.748639 0.216757 0.206881
O O2 0.730554 0.985012 0.337386
O O3 0.976113 0.162673 0.019810
O O4 0.867486 0.952733 0.036853
O O5 0.777351 0.323279 0.754811
O O6 0.608731 0.249915 0.073579
O O7 0.517051 0.203520 0.036748
O O8 0.596394 0.487868 0.191747
O O9 0.468176 0.685816 0.449369
O O10 0.358480 0.521740 0.706154
O O11 0.746432 0.726190 0.082309
O O12 0.971501 0.330408 0.409316
O O13 0.000000 0.500000 0.500000
O O14 0.000000 0.137842 0.250000
#
# Coordination Sequence:
#
# PCOD8119674 Si02
#       7
#     4   4   2   4   4   4   4
#     4  11  23  42  66  96 125 175 213 260 331 390
#     4  10  21  42  62  90 132 160 213 259 320 383
#     4  10  24  38  62 100 126 164 212 280 314 382
#     4  10  20  40  68  89 122 169 218 260 314 389
#     4  10  21  39  64  91 127 163 220 261 318 379
#     4  11  24  43  69  91 125 176 218 261 322 393
#     4  11  24  42  62  95 136 166 216 274 318 387
#
# _framework density 20.585097999999999
#
# number of rings (size 3 to 8) (size 9 to 14) (size 15 to 20)
#    0.000    1.538    3.077    3.231    6.462    0.000 
#   11.077    1.538    0.000    0.000    0.000    0.000 
#    0.000    0.000    0.000    0.000    0.000    0.000 
#
# Total GULP energy -322147.940041 kJ/mol
# GULP energy per Si atom -12390.305386 kJ/mol
# Density = 2.053824 g / cm^3
# Si number density = 20.585098 Si / 1000 Ang^3
#
#
#
# Elastic Constant Matrix: (Units=GPa)
#
#
# Indices 1 2 3 4 5 6 
#
# 1 80.6112 14.6774 46.2714 0.0000 21.2785 0.0000
# 2 14.6774 69.8130 19.6364 0.0000 14.5487 0.0000
# 3 46.2714 19.6364 100.4305 0.0000 19.5985 0.0000
# 4 0.0000 0.0000 0.0000 25.6628 0.0000 -10.3564
# 5 21.2785 14.5487 19.5985 0.0000 32.4914 0.0000
# 6 0.0000 0.0000 0.0000 -10.3564 0.0000 30.8486
#
#
#
# Elastic Compliance Matrix: (Units=1/GPa)
#
#
# Indices 1 2 3 4 5 6 
#
# 1 0.018504 -0.000314 -0.006944 0.000000 -0.007789 0.000000
# 2 -0.000314 0.016143 -0.001860 0.000000 -0.005901 0.000000
# 3 -0.006944 -0.001860 0.014134 0.000000 -0.003145 0.000000
# 4 0.000000 0.000000 0.000000 0.045073 0.000000 0.015132
# 5 -0.007789 -0.005901 -0.003145 0.000000 0.040418 0.000000
# 6 0.000000 0.000000 0.000000 0.015132 0.000000 0.037496
#
#
# Mechanical properties :
#
#
# Convention : Reuss Voigt Hill
#
# Bulk Modulus (GPa) = 32.73880 45.78056 39.25968
# Shear Modulus (GPa) = 24.97667 29.15188 27.06427
#
# Velocity S-wave (km/s) = 3.48708 3.76728 3.62988
# Velocity P-wave (km/s) = 5.67024 6.41959 6.05651
#
# Compressibility (1/GPa) = 0.03054480
#
# Stress axis : x y z
#
# Youngs Moduli (GPa) = 54.04099 61.94688 70.75177
#
# Poissons Ratio (x) = 0.01945 0.49131
# Poissons Ratio (y) = 0.01696 0.13161
# Poissons Ratio (z) = 0.37527 0.11523
#
# Static dielectric constant tensor:
#      x y z
#    x 3.804530 0.000000 -0.054980 
#    y 0.000000 3.841890 0.000000 
#    z -0.054980 0.000000 3.951140 
# 
# 
# High freq. dielectric constant tensor:
#      x y z
#    x 1.800060 0.000000 -0.011430 
#    y 0.000000 1.810410 0.000000 
#    z -0.011430 0.000000 1.801600 
# 
# From -- ./inp_files/71280.got.cif
#   From: 2010.06.25/outbox.cif.g09.slc.cpg/sg13_36_cif.got.tgz:71280.got - 2010.06.28 04:50:58.
