data_PCOD8119629
_publ_section_title
;
Structure prediction by ZEFSAII (Michael W. Deem and Ramdas Pophale) SiO2 
 PCOD8119629
Probable space group: P 2/C
;
_chemical_formula_sum "Si O2"
_cell_formula_units_Z 28
_cell_length_a 19.914645
_cell_length_b 6.216585
_cell_length_c 14.898833
_cell_angle_alpha 90.000000
_cell_angle_beta 44.914252
_cell_angle_gamma 90.000000
_cell_volume 1302.299181
_symmetry_space_group_name_H-M "P 2/C"
_symmetry_group_IT_number 13
_symmetry_cell_setting 'monoclinic'
loop_
_space_group_symop_operation_xyz
x,y,z
-x,y,1/2-z
-x,-y,-z
x,-y,1/2+z
loop_
_atom_site_type_symbol
_atom_site_label
_atom_site_fract_x
_atom_site_fract_y
_atom_site_fract_z
Si Si1 0.299162 0.040377 0.979250
Si Si2 0.052238 0.990171 0.044386
Si Si3 0.353760 0.968693 0.620192
Si Si4 0.150813 0.631124 0.541954
Si Si5 0.000000 0.312564 0.750000
Si Si6 0.241910 0.247785 0.375714
Si Si7 0.471672 0.693820 0.087813
Si Si8 0.500000 0.758003 0.250000
O O1 0.407385 0.097676 0.854304
O O2 0.276072 0.831133 0.941655
O O3 0.285892 0.990983 0.098246
O O4 0.222984 0.228210 0.032044
O O5 0.993013 0.841031 0.169391
O O6 0.069969 0.227370 0.068842
O O7 0.154014 0.892688 0.926279
O O8 0.000000 0.000000 0.000000
O O9 0.318419 0.788802 0.724622
O O10 0.452070 0.883892 0.487349
O O11 0.371114 0.197995 0.654080
O O12 0.214182 0.498862 0.409316
O O13 0.095072 0.458122 0.656705
O O14 0.472512 0.610004 0.190180
O O15 0.500000 0.500000 0.000000
#
# Coordination Sequence:
#
# PCOD8119629 Si02
#       8
#     4   4   4   4   2   4   4   2
#     4  10  22  40  61  91 131 169 216 273 325 375
#     4  10  23  41  64  94 129 169 209 271 330 386
#     4  10  22  39  60  89 123 164 216 262 316 381
#     4  10  23  40  63  97 129 171 220 258 334 396
#     4  10  22  42  66  92 134 170 212 272 322 402
#     4  10  22  39  62  91 129 165 211 272 321 386
#     4  10  22  39  59  91 122 167 221 262 317 373
#     4  10  20  40  64  84 134 174 214 276 316 372
#
# _framework density 21.500433999999998
#
# number of rings (size 3 to 8) (size 9 to 14) (size 15 to 20)
#    0.000    2.000    1.429    0.429    2.000   10.286 
#    0.000    0.714    0.000    0.000    0.000    0.000 
#    0.000    0.000    0.000    0.000    0.000    0.000 
#
# Total GULP energy -347041.872314 kJ/mol
# GULP energy per Si atom -12394.352583 kJ/mol
# Density = 2.145150 g / cm^3
# Si number density = 21.500434 Si / 1000 Ang^3
#
#
#
# Elastic Constant Matrix: (Units=GPa)
#
#
# Indices 1 2 3 4 5 6 
#
# 1 160.5016 57.3478 60.6638 0.0000 34.7831 0.0000
# 2 57.3478 103.3543 42.5818 0.0000 13.9622 0.0000
# 3 60.6638 42.5818 101.3043 0.0000 21.1735 0.0000
# 4 0.0000 0.0000 0.0000 31.9209 0.0000 -1.9282
# 5 34.7831 13.9622 21.1735 0.0000 43.6782 0.0000
# 6 0.0000 0.0000 0.0000 -1.9282 0.0000 16.0021
#
#
#
# Elastic Compliance Matrix: (Units=1/GPa)
#
#
# Indices 1 2 3 4 5 6 
#
# 1 0.009822 -0.003359 -0.003404 0.000000 -0.005098 0.000000
# 2 -0.003359 0.012941 -0.003475 0.000000 0.000222 0.000000
# 3 -0.003404 -0.003475 0.013989 0.000000 -0.002959 0.000000
# 4 0.000000 0.000000 0.000000 0.031557 0.000000 0.003802
# 5 -0.005098 0.000222 -0.002959 0.000000 0.028318 0.000000
# 6 0.000000 0.000000 0.000000 0.003802 0.000000 0.062950
#
#
# Mechanical properties :
#
#
# Convention : Reuss Voigt Hill
#
# Bulk Modulus (GPa) = 61.43957 76.26076 68.85017
# Shear Modulus (GPa) = 26.95745 31.95803 29.45774
#
# Velocity S-wave (km/s) = 3.54476 3.85956 3.70550
# Velocity P-wave (km/s) = 6.73734 7.44365 7.09929
#
# Compressibility (1/GPa) = 0.01627616
#
# Stress axis : x y z
#
# Youngs Moduli (GPa) = 101.81168 77.27655 71.48471
#
# Poissons Ratio (x) = 0.25954 0.24337
# Poissons Ratio (y) = 0.34195 0.24838
# Poissons Ratio (z) = 0.34662 0.26851
#
# Static dielectric constant tensor:
#      x y z
#    x 4.223410 0.000000 -0.131370 
#    y 0.000000 3.777210 0.000000 
#    z -0.131370 0.000000 4.459940 
# 
# 
# High freq. dielectric constant tensor:
#      x y z
#    x 1.846570 0.000000 0.001320 
#    y 0.000000 1.831570 0.000000 
#    z 0.001320 0.000000 1.850860 
# 
# From -- ./inp_files/56540.got.cif
#   From: 2010.06.25/outbox.cif.g09.slc.cpg/sg13_29_cif.got.tgz:56540.got - 2010.06.28 04:50:58.
