data_PCOD8119054
_publ_section_title
;
Structure prediction by ZEFSAII (Michael W. Deem and Ramdas Pophale) SiO2 
 PCOD8119054
Probable space group: P 2/C
;
_chemical_formula_sum "Si O2"
_cell_formula_units_Z 20
_cell_length_a 20.160016
_cell_length_b 8.784922
_cell_length_c 14.190127
_cell_angle_alpha 90.000000
_cell_angle_beta 157.928522
_cell_angle_gamma 90.000000
_cell_volume 944.341477
_symmetry_space_group_name_H-M "P 2/C"
_symmetry_group_IT_number 13
_symmetry_cell_setting 'monoclinic'
loop_
_space_group_symop_operation_xyz
x,y,z
-x,y,1/2-z
-x,-y,-z
x,-y,1/2+z
loop_
_atom_site_type_symbol
_atom_site_label
_atom_site_fract_x
_atom_site_fract_y
_atom_site_fract_z
Si Si1 0.351890 0.989481 0.882457
Si Si2 0.500000 0.172116 0.250000
Si Si3 0.000000 0.550033 0.750000
Si Si4 0.313975 0.272799 0.458038
Si Si5 0.793544 0.399166 0.644984
Si Si6 0.934799 0.766015 0.512118
O O1 0.307745 0.813370 0.848415
O O2 0.170572 0.076138 0.616551
O O3 0.500000 0.000000 0.000000
O O4 0.433640 0.067517 0.080317
O O5 0.655423 0.281608 0.419954
O O6 0.897980 0.444988 0.689116
O O7 0.874103 0.658893 0.519726
O O8 0.297929 0.454652 0.425817
O O9 0.500000 0.230394 0.750000
O O10 0.147354 0.207798 0.300053
O O11 0.909739 0.319495 0.879019
#
# Coordination Sequence:
#
# PCOD8119054 Si02
#       6
#     4   2   2   4   4   4
#     4  11  25  40  62  94 125 168 210 256 313 379
#     4  10  22  42  60  90 132 156 208 262 308 370
#     4  10  20  36  66  92 120 160 214 256 308 372
#     4  11  21  40  66  87 123 167 205 255 322 361
#     4  10  22  41  65  92 122 167 205 263 314 370
#     4  10  24  41  64  92 130 163 210 260 317 372
#
# _framework density 21.17878
#
# number of rings (size 3 to 8) (size 9 to 14) (size 15 to 20)
#    0.000    1.600    2.000    3.000    5.600    3.200 
#    0.000    4.000    0.000    1.200    0.000    0.000 
#    0.000    0.000    0.000    0.000    0.000    0.000 
#
# Total GULP energy -247834.148968 kJ/mol
# GULP energy per Si atom -12391.707448 kJ/mol
# Density = 2.113058 g / cm^3
# Si number density = 21.178780 Si / 1000 Ang^3
#
#
#
# Elastic Constant Matrix: (Units=GPa)
#
#
# Indices 1 2 3 4 5 6 
#
# 1 107.7945 23.7316 20.8694 0.0000 13.2274 0.0000
# 2 23.7316 74.8066 14.4065 0.0000 18.0415 0.0000
# 3 20.8694 14.4065 110.5947 0.0000 16.3538 0.0000
# 4 0.0000 0.0000 0.0000 10.7688 0.0000 10.2864
# 5 13.2274 18.0415 16.3538 0.0000 23.9755 0.0000
# 6 0.0000 0.0000 0.0000 10.2864 0.0000 25.2775
#
#
#
# Elastic Compliance Matrix: (Units=1/GPa)
#
#
# Indices 1 2 3 4 5 6 
#
# 1 0.010406 -0.002301 -0.001191 0.000000 -0.003197 0.000000
# 2 -0.002301 0.016852 -0.000082 0.000000 -0.011356 0.000000
# 3 -0.001191 -0.000082 0.010200 0.000000 -0.006239 0.000000
# 4 0.000000 0.000000 0.000000 0.151907 0.000000 -0.061817
# 5 -0.003197 -0.011356 -0.006239 0.000000 0.056274 0.000000
# 6 0.000000 0.000000 0.000000 -0.061817 0.000000 0.064716
#
#
# Mechanical properties :
#
#
# Convention : Reuss Voigt Hill
#
# Bulk Modulus (GPa) = 32.99124 45.69009 39.34066
# Shear Modulus (GPa) = 15.26215 27.61693 21.43954
#
# Velocity S-wave (km/s) = 2.68737 3.61500 3.18514
# Velocity P-wave (km/s) = 5.02400 6.24857 5.66945
#
# Compressibility (1/GPa) = 0.03031108
#
# Stress axis : x y z
#
# Youngs Moduli (GPa) = 96.09458 59.33913 98.03923
#
# Poissons Ratio (x) = 0.13653 0.11678
# Poissons Ratio (y) = 0.22109 0.00802
# Poissons Ratio (z) = 0.11447 0.00486
#
# Static dielectric constant tensor:
#      x y z
#    x 3.672250 0.000000 -0.057120 
#    y 0.000000 2.392410 0.000000 
#    z -0.057120 0.000000 4.048730 
# 
# 
# High freq. dielectric constant tensor:
#      x y z
#    x 1.815970 0.000000 0.000760 
#    y 0.000000 1.841950 0.000000 
#    z 0.000760 0.000000 1.835180 
# 
# From -- ./inp_files/38850.got.cif
#   From: 2010.06.25/outbox.cif.g09.slc.cpg/sg13_20_cif.got.tgz:38850.got - 2010.06.28 04:50:58.
