data_PCOD8119667
_publ_section_title
;
Structure prediction by ZEFSAII (Michael W. Deem and Ramdas Pophale) SiO2 
 PCOD8119667
Probable space group: P 2/C
;
_chemical_formula_sum "Si O2"
_cell_formula_units_Z 20
_cell_length_a 11.581643
_cell_length_b 10.212293
_cell_length_c 8.690058
_cell_angle_alpha 90.000000
_cell_angle_beta 117.982910
_cell_angle_gamma 90.000000
_cell_volume 907.653100
_symmetry_space_group_name_H-M "P 2/C"
_symmetry_group_IT_number 13
_symmetry_cell_setting 'monoclinic'
loop_
_space_group_symop_operation_xyz
x,y,z
-x,y,1/2-z
-x,-y,-z
x,-y,1/2+z
loop_
_atom_site_type_symbol
_atom_site_label
_atom_site_fract_x
_atom_site_fract_y
_atom_site_fract_z
Si Si1 0.685355 0.931064 0.052085
Si Si2 0.457239 0.799353 0.058571
Si Si3 0.789046 0.672474 0.726236
Si Si4 0.861731 0.065735 0.384467
Si Si5 0.095701 0.544732 0.427836
O O1 0.581925 0.816344 0.023918
O O2 0.767409 0.955510 0.257383
O O3 0.790333 0.882596 0.993094
O O4 0.609527 0.060768 0.949528
O O5 0.500000 0.739499 0.250000
O O6 0.361005 0.699868 0.911391
O O7 0.872240 0.808962 0.776406
O O8 0.846522 0.576192 0.633222
O O9 0.792201 0.620865 0.906755
O O10 0.000000 0.000000 0.500000
O O11 0.000000 0.627243 0.250000
O O12 0.000000 0.500000 0.500000
#
# Coordination Sequence:
#
# PCOD8119667 Si02
#       5
#     4   4   4   4   4
#     4  10  21  38  63  95 142 182 216 261 364 424
#     4  10  20  40  67  95 137 188 224 271 341 427
#     4  10  23  41  70  98 133 179 239 286 344 412
#     4  11  23  39  65 107 141 173 226 286 349 430
#     4   9  20  43  67  91 129 179 229 286 348 395
#
# _framework density 22.034848
#
# number of rings (size 3 to 8) (size 9 to 14) (size 15 to 20)
#    0.000    2.000    2.000    0.600    0.000   11.200 
#    7.200    1.000    0.000    0.000    0.000    0.000 
#    0.000    0.000    0.000    0.000    0.000    0.000 
#
# Total GULP energy -247767.929756 kJ/mol
# GULP energy per Si atom -12388.396488 kJ/mol
# Density = 2.198470 g / cm^3
# Si number density = 22.034848 Si / 1000 Ang^3
#
#
#
# Elastic Constant Matrix: (Units=GPa)
#
#
# Indices 1 2 3 4 5 6 
#
# 1 145.5175 47.2301 74.7997 0.0000 5.0341 0.0000
# 2 47.2301 73.7132 59.0817 0.0000 12.1367 0.0000
# 3 74.7997 59.0817 211.0817 0.0000 21.1449 0.0000
# 4 0.0000 0.0000 0.0000 41.3848 0.0000 5.9522
# 5 5.0341 12.1367 21.1449 0.0000 40.0847 0.0000
# 6 0.0000 0.0000 0.0000 5.9522 0.0000 29.7938
#
#
#
# Elastic Compliance Matrix: (Units=1/GPa)
#
#
# Indices 1 2 3 4 5 6 
#
# 1 0.009420 -0.004478 -0.002219 0.000000 0.001343 0.000000
# 2 -0.004478 0.019936 -0.003637 0.000000 -0.003555 0.000000
# 3 -0.002219 -0.003637 0.006761 0.000000 -0.002187 0.000000
# 4 0.000000 0.000000 0.000000 0.024878 0.000000 -0.004970
# 5 0.001343 -0.003555 -0.002187 0.000000 0.027008 0.000000
# 6 0.000000 0.000000 0.000000 -0.004970 0.000000 0.034557
#
#
# Mechanical properties :
#
#
# Convention : Reuss Voigt Hill
#
# Bulk Modulus (GPa) = 64.73354 88.05951 76.39653
# Shear Modulus (GPa) = 33.69785 38.86607 36.28196
#
# Velocity S-wave (km/s) = 3.91487 4.20437 4.06220
# Velocity P-wave (km/s) = 7.06233 7.97618 7.53313
#
# Compressibility (1/GPa) = 0.01544794
#
# Stress axis : x y z
#
# Youngs Moduli (GPa) = 106.16091 50.16129 147.90839
#
# Poissons Ratio (x) = 0.22462 0.32824
# Poissons Ratio (y) = 0.47538 0.53795
# Poissons Ratio (z) = 0.23559 0.18244
#
# Static dielectric constant tensor:
#      x y z
#    x 3.552990 0.000000 -0.035820 
#    y 0.000000 3.479470 0.000000 
#    z -0.035820 0.000000 4.879330 
# 
# 
# High freq. dielectric constant tensor:
#      x y z
#    x 1.860640 0.000000 0.003900 
#    y 0.000000 1.824810 0.000000 
#    z 0.003900 0.000000 1.897760 
# 
# From -- ./inp_files/15643.got.cif
#   From: 2010.06.25/outbox.cif.g09.slc.cpg/sg13_8_cif.got.tgz:15643.got - 2010.06.28 04:50:58.
