data_PCOD8119316
_publ_section_title
;
Structure prediction by ZEFSAII (Michael W. Deem and Ramdas Pophale) SiO2 
 PCOD8119316
Probable space group: P 2/C
;
_chemical_formula_sum "Si O2"
_cell_formula_units_Z 20
_cell_length_a 12.253059
_cell_length_b 6.953292
_cell_length_c 19.141605
_cell_angle_alpha 90.000000
_cell_angle_beta 145.137802
_cell_angle_gamma 90.000000
_cell_volume 932.199974
_symmetry_space_group_name_H-M "P 2/C"
_symmetry_group_IT_number 13
_symmetry_cell_setting 'monoclinic'
loop_
_space_group_symop_operation_xyz
x,y,z
-x,y,1/2-z
-x,-y,-z
x,-y,1/2+z
loop_
_atom_site_type_symbol
_atom_site_label
_atom_site_fract_x
_atom_site_fract_y
_atom_site_fract_z
Si Si1 0.269605 0.827142 0.519591
Si Si2 0.348007 0.322508 0.316620
Si Si3 0.167153 0.263775 0.718892
Si Si4 0.214600 0.969169 0.635235
Si Si5 0.788940 0.949642 0.644436
O O1 0.429262 0.664824 0.588077
O O2 0.331885 0.927287 0.625869
O O3 0.287436 0.999144 0.472576
O O4 0.062638 0.726641 0.413827
O O5 0.255623 0.529049 0.276132
O O6 0.225908 0.209281 0.194479
O O7 0.341883 0.211195 0.387866
O O8 0.206035 0.147438 0.809657
O O9 0.273383 0.161910 0.708714
O O10 0.000000 0.000000 0.500000
O O11 0.000000 0.860160 0.750000
#
# Coordination Sequence:
#
# PCOD8119316 Si02
#       5
#     4   4   4   4   4
#     4  10  20  38  61  88 121 156 197 245 295 352
#     4  11  21  38  62  88 117 155 199 242 294 353
#     4   9  21  40  59  85 121 155 192 241 297 352
#     4   9  20  40  59  80 116 154 193 242 294 349
#     4   9  20  39  60  84 118 156 195 243 296 351
#
# _framework density 21.454622000000001
#
# number of rings (size 3 to 8) (size 9 to 14) (size 15 to 20)
#    0.000    2.400    0.000    2.400    0.000    6.400 
#    0.000   28.000    0.000    0.000    0.000    0.000 
#    0.000    0.000    0.000    0.000    0.000    0.000 
#
# Total GULP energy -247910.809525 kJ/mol
# GULP energy per Si atom -12395.540476 kJ/mol
# Density = 2.140579 g / cm^3
# Si number density = 21.454622 Si / 1000 Ang^3
#
#
#
# Elastic Constant Matrix: (Units=GPa)
#
#
# Indices 1 2 3 4 5 6 
#
# 1 141.8777 59.0080 32.8911 0.0000 -4.8864 0.0000
# 2 59.0080 124.7840 23.8420 0.0000 7.4557 0.0000
# 3 32.8911 23.8420 49.6500 0.0000 1.1244 0.0000
# 4 0.0000 0.0000 0.0000 12.7146 0.0000 7.5323
# 5 -4.8864 7.4557 1.1244 0.0000 42.6959 0.0000
# 6 0.0000 0.0000 0.0000 7.5323 0.0000 19.3095
#
#
#
# Elastic Compliance Matrix: (Units=1/GPa)
#
#
# Indices 1 2 3 4 5 6 
#
# 1 0.009805 -0.003855 -0.004687 0.000000 0.001919 0.000000
# 2 -0.003855 0.010428 -0.002403 0.000000 -0.002199 0.000000
# 3 -0.004687 -0.002403 0.024417 0.000000 -0.000760 0.000000
# 4 0.000000 0.000000 0.000000 0.102287 0.000000 -0.039900
# 5 0.001919 -0.002199 -0.000760 0.000000 0.024045 0.000000
# 6 0.000000 0.000000 0.000000 -0.039900 0.000000 0.067352
#
#
# Mechanical properties :
#
#
# Convention : Reuss Voigt Hill
#
# Bulk Modulus (GPa) = 43.94185 60.86599 52.40392
# Shear Modulus (GPa) = 18.66983 28.31538 23.49260
#
# Velocity S-wave (km/s) = 2.95312 3.63682 3.31265
# Velocity P-wave (km/s) = 5.67042 6.78723 6.25380
#
# Compressibility (1/GPa) = 0.02275735
#
# Stress axis : x y z
#
# Youngs Moduli (GPa) = 101.99355 95.89911 40.95442
#
# Poissons Ratio (x) = 0.36974 0.19196
# Poissons Ratio (y) = 0.39323 0.09843
# Poissons Ratio (z) = 0.47806 0.23049
#
# Static dielectric constant tensor:
#      x y z
#    x 4.654760 0.000000 -0.251600 
#    y 0.000000 3.449690 0.000000 
#    z -0.251600 0.000000 3.989470 
# 
# 
# High freq. dielectric constant tensor:
#      x y z
#    x 1.860400 0.000000 -0.006270 
#    y 0.000000 1.803110 0.000000 
#    z -0.006270 0.000000 1.853390 
# 
# From -- ./inp_files/72039.got.cif
#   From: 2010.06.25/outbox.cif.g09.slc.cpg/sg13_37_cif.got.tgz:72039.got - 2010.06.28 04:50:58.
