data_PCOD8119722
_publ_section_title
;
Structure prediction by ZEFSAII (Michael W. Deem and Ramdas Pophale) SiO2 
 PCOD8119722
Probable space group: P 2/C
;
_chemical_formula_sum "Si O2"
_cell_formula_units_Z 24
_cell_length_a 5.434000
_cell_length_b 8.674388
_cell_length_c 25.425369
_cell_angle_alpha 90.000000
_cell_angle_beta 117.887526
_cell_angle_gamma 90.000000
_cell_volume 1059.285188
_symmetry_space_group_name_H-M "P 2/C"
_symmetry_group_IT_number 13
_symmetry_cell_setting 'monoclinic'
loop_
_space_group_symop_operation_xyz
x,y,z
-x,y,1/2-z
-x,-y,-z
x,-y,1/2+z
loop_
_atom_site_type_symbol
_atom_site_label
_atom_site_fract_x
_atom_site_fract_y
_atom_site_fract_z
Si Si1 0.537110 0.460238 0.900924
Si Si2 0.165313 0.265381 0.028491
Si Si3 0.819687 0.773152 0.084480
Si Si4 0.972759 0.661641 0.686500
Si Si5 0.786378 0.130108 0.081325
Si Si6 0.719452 0.366839 0.812197
O O1 0.803027 0.559823 0.946906
O O2 0.439717 0.347022 0.938295
O O3 0.312136 0.579780 0.856574
O O4 0.602325 0.352269 0.858602
O O5 0.476479 0.198228 0.050669
O O6 0.962964 0.169392 0.046489
O O7 0.027559 0.263098 0.956321
O O8 0.001596 0.735375 0.155232
O O9 0.731359 0.949028 0.079090
O O10 0.977010 0.813033 0.649685
O O11 0.000000 0.712156 0.750000
O O12 0.223312 0.543809 0.698797
O O13 0.500000 0.291557 0.750000
#
# Coordination Sequence:
#
# PCOD8119722 Si02
#       6
#     4   4   4   4   4   4
#     4  10  22  40  66  94 129 170 227 275 336 399
#     4  11  24  45  69  97 136 181 225 274 339 422
#     4  11  26  40  65 101 136 174 220 288 347 402
#     4  10  20  41  64  91 124 173 227 270 323 405
#     4  11  25  44  67 100 134 180 224 277 343 407
#     4  11  22  41  67  90 130 172 224 277 334 396
#
# _framework density 22.656790000000001
#
# number of rings (size 3 to 8) (size 9 to 14) (size 15 to 20)
#    0.000    1.333    3.333    1.500    4.667    0.667 
#    3.000    0.833    0.000    0.000    0.000    0.000 
#    0.000    0.000    0.000    0.000    0.000    0.000 
#
# Total GULP energy -297433.888631 kJ/mol
# GULP energy per Si atom -12393.078693 kJ/mol
# Density = 2.260522 g / cm^3
# Si number density = 22.656790 Si / 1000 Ang^3
#
#
#
# Elastic Constant Matrix: (Units=GPa)
#
#
# Indices 1 2 3 4 5 6 
#
# 1 74.7096 13.8415 18.3111 0.0000 -6.7350 0.0000
# 2 13.8415 93.8917 36.9336 0.0000 -0.4786 0.0000
# 3 18.3111 36.9336 146.0422 0.0000 -6.3540 0.0000
# 4 0.0000 0.0000 0.0000 21.0238 0.0000 -9.4738
# 5 -6.7350 -0.4786 -6.3540 0.0000 36.3243 0.0000
# 6 0.0000 0.0000 0.0000 -9.4738 0.0000 10.2164
#
#
#
# Elastic Compliance Matrix: (Units=1/GPa)
#
#
# Indices 1 2 3 4 5 6 
#
# 1 0.014206 -0.001579 -0.001278 0.000000 0.002390 0.000000
# 2 -0.001579 0.012008 -0.002866 0.000000 -0.000636 0.000000
# 3 -0.001278 -0.002866 0.007780 0.000000 0.001086 0.000000
# 4 0.000000 0.000000 0.000000 0.081709 0.000000 0.075770
# 5 0.002390 -0.000636 0.001086 0.000000 0.028155 0.000000
# 6 0.000000 0.000000 0.000000 0.075770 0.000000 0.168144
#
#
# Mechanical properties :
#
#
# Convention : Reuss Voigt Hill
#
# Bulk Modulus (GPa) = 44.35271 50.31286 47.33278
# Shear Modulus (GPa) = 15.10740 29.88339 22.49540
#
# Velocity S-wave (km/s) = 2.58504 3.63569 3.15441
# Velocity P-wave (km/s) = 5.34119 6.31499 5.84839
#
# Compressibility (1/GPa) = 0.02254654
#
# Stress axis : x y z
#
# Youngs Moduli (GPa) = 70.39073 83.28004 128.53970
#
# Poissons Ratio (x) = 0.13154 0.16425
# Poissons Ratio (y) = 0.11118 0.36844
# Poissons Ratio (z) = 0.08995 0.23871
#
# Static dielectric constant tensor:
#      x y z
#    x 4.100090 0.000000 0.024060 
#    y 0.000000 3.980220 0.000000 
#    z 0.024060 0.000000 4.384980 
# 
# 
# High freq. dielectric constant tensor:
#      x y z
#    x 1.897830 0.000000 0.002820 
#    y 0.000000 1.873790 0.000000 
#    z 0.002820 0.000000 1.906390 
# 
# From -- ./inp_files/83290.got.cif
#   From: 2010.06.25/outbox.cif.g09.slc.cpg/sg13_42_cif.got.tgz:83290.got - 2010.06.28 04:50:58.
