data_PCOD8119440
_publ_section_title
;
Structure prediction by ZEFSAII (Michael W. Deem and Ramdas Pophale) SiO2 
 PCOD8119440
Probable space group: P 2/C
;
_chemical_formula_sum "Si O2"
_cell_formula_units_Z 16
_cell_length_a 14.814414
_cell_length_b 9.521122
_cell_length_c 8.490495
_cell_angle_alpha 90.000000
_cell_angle_beta 148.264665
_cell_angle_gamma 90.000000
_cell_volume 629.924168
_symmetry_space_group_name_H-M "P 2/C"
_symmetry_group_IT_number 13
_symmetry_cell_setting 'monoclinic'
loop_
_space_group_symop_operation_xyz
x,y,z
-x,y,1/2-z
-x,-y,-z
x,-y,1/2+z
loop_
_atom_site_type_symbol
_atom_site_label
_atom_site_fract_x
_atom_site_fract_y
_atom_site_fract_z
Si Si1 0.316996 0.052352 0.674646
Si Si2 0.769663 0.296433 0.135846
Si Si3 0.198837 0.567752 0.504505
Si Si4 0.847121 0.186559 0.764541
O O1 0.352994 0.166504 0.590044
O O2 0.221156 0.133187 0.671621
O O3 0.194560 0.926846 0.433680
O O4 0.500000 0.000000 0.000000
O O5 0.702373 0.376199 0.192905
O O6 0.952354 0.219350 0.426586
O O7 0.763076 0.407406 0.981967
O O8 0.244815 0.667586 0.424147
O O9 0.000000 0.581940 0.250000
#
# Coordination Sequence:
#
# PCOD8119440 Si02
#       4
#     4   4   4   4
#     4  12  25  42  63  94 135 179 221 269 325 392
#     4  11  22  41  69 101 131 171 219 272 329 392
#     4  10  20  38  68 103 131 163 217 278 328 385
#     4  11  23  41  65  96 131 173 221 275 329 389
#
# _framework density 25.399884
#
# number of rings (size 3 to 8) (size 9 to 14) (size 15 to 20)
#    0.000    1.000    0.000    9.750    0.000    4.000 
#    0.000    1.250    0.000   12.000    0.000    0.000 
#    0.000    0.000    0.000    0.000    0.000    0.000 
#
# Total GULP energy -198313.771673 kJ/mol
# GULP energy per Si atom -12394.610730 kJ/mol
# Density = 2.534207 g / cm^3
# Si number density = 25.399884 Si / 1000 Ang^3
#
#
#
# Elastic Constant Matrix: (Units=GPa)
#
#
# Indices 1 2 3 4 5 6 
#
# 1 42.4234 17.7877 41.2918 0.0000 -3.3746 0.0000
# 2 17.7877 192.6204 90.9570 0.0000 0.9298 0.0000
# 3 41.2918 90.9570 133.0042 0.0000 -21.7946 0.0000
# 4 0.0000 0.0000 0.0000 46.4040 0.0000 -36.1907
# 5 -3.3746 0.9298 -21.7946 0.0000 15.1726 0.0000
# 6 0.0000 0.0000 0.0000 -36.1907 0.0000 43.6409
#
#
#
# Elastic Compliance Matrix: (Units=1/GPa)
#
#
# Indices 1 2 3 4 5 6 
#
# 1 0.037704 0.005225 -0.018254 0.000000 -0.018155 0.000000
# 2 0.005225 0.009915 -0.010871 0.000000 -0.015060 0.000000
# 3 -0.018254 -0.010871 0.026240 0.000000 0.034298 0.000000
# 4 0.000000 0.000000 0.000000 0.061006 0.000000 0.050592
# 5 -0.018155 -0.015060 0.034298 0.000000 0.112061 0.000000
# 6 0.000000 0.000000 0.000000 0.050592 0.000000 0.064869
#
#
# Mechanical properties :
#
#
# Convention : Reuss Voigt Hill
#
# Bulk Modulus (GPa) = 38.37214 74.23568 56.30391
# Shear Modulus (GPa) = 13.57668 35.57759 24.57714
#
# Velocity S-wave (km/s) = 2.31447 3.74665 3.11401
# Velocity P-wave (km/s) = 4.72042 6.92869 5.92829
#
# Compressibility (1/GPa) = 0.02606058
#
# Stress axis : x y z
#
# Youngs Moduli (GPa) = 26.52272 100.85870 38.11023
#
# Poissons Ratio (x) = -0.52703 0.69565
# Poissons Ratio (y) = -0.13859 0.41428
# Poissons Ratio (z) = 0.48414 1.09639
#
# Static dielectric constant tensor:
#      x y z
#    x 4.758780 0.000000 -0.713420 
#    y 0.000000 5.282270 0.000000 
#    z -0.713420 0.000000 4.913140 
# 
# 
# High freq. dielectric constant tensor:
#      x y z
#    x 1.994420 0.000000 -0.035730 
#    y 0.000000 2.046880 0.000000 
#    z -0.035730 0.000000 2.009180 
# 
# From -- ./inp_files/21013.got.cif
#   From: 2010.06.25/outbox.cif.g09.slc.cpg/sg13_11_cif.got.tgz:21013.got - 2010.06.28 04:50:58.
