data_PCOD8119441
_publ_section_title
;
Structure prediction by ZEFSAII (Michael W. Deem and Ramdas Pophale) SiO2 
 PCOD8119441
Probable space group: P 2/C
;
_chemical_formula_sum "Si O2"
_cell_formula_units_Z 26
_cell_length_a 12.722554
_cell_length_b 18.468342
_cell_length_c 5.618250
_cell_angle_alpha 90.000000
_cell_angle_beta 115.423742
_cell_angle_gamma 90.000000
_cell_volume 1192.248411
_symmetry_space_group_name_H-M "P 2/C"
_symmetry_group_IT_number 13
_symmetry_cell_setting 'monoclinic'
loop_
_space_group_symop_operation_xyz
x,y,z
-x,y,1/2-z
-x,-y,-z
x,-y,1/2+z
loop_
_atom_site_type_symbol
_atom_site_label
_atom_site_fract_x
_atom_site_fract_y
_atom_site_fract_z
Si Si1 0.117621 0.919684 0.985603
Si Si2 0.636806 0.699588 0.348233
Si Si3 0.636582 0.467669 0.862030
Si Si4 0.380194 0.179212 0.008485
Si Si5 0.360071 0.967022 0.259298
Si Si6 0.000000 0.827005 0.250000
Si Si7 0.209566 0.198033 0.221739
O O1 0.180362 0.856037 0.902629
O O2 0.000000 0.953268 0.750000
O O3 0.218417 0.979753 0.125155
O O4 0.083549 0.881548 0.193875
O O5 0.500000 0.712641 0.250000
O O6 0.667105 0.615933 0.350022
O O7 0.715834 0.731126 0.637624
O O8 0.669191 0.745361 0.145678
O O9 0.500000 0.482685 0.750000
O O10 0.687908 0.506924 0.671712
O O11 0.500000 0.196339 0.250000
O O12 0.286702 0.151777 0.110186
O O13 0.392412 0.117673 0.817872
O O14 0.411416 0.007817 0.548625
O O15 0.084650 0.776599 0.491015
#
# Coordination Sequence:
#
# PCOD8119441 Si02
#       7
#     4   4   4   4   4   2   4
#     4  10  22  39  63  88 119 157 207 273 337 392
#     4  11  22  35  65  95 126 173 217 260 315 378
#     4   9  20  36  56  90 137 173 207 254 313 378
#     4  12  25  41  64  89 128 167 222 271 314 385
#     4  12  27  44  62  87 124 168 216 270 335 391
#     4  10  20  38  68  86 122 158 204 280 334 384
#     4  11  20  39  62  96 125 160 214 271 319 380
#
# _framework density 21.807538000000001
#
# number of rings (size 3 to 8) (size 9 to 14) (size 15 to 20)
#    0.000    1.231    4.615    0.923    4.308    1.846 
#    0.000    0.000    0.000    0.000    0.000    1.077 
#    0.000    0.000    0.000    0.000    0.000    0.000 
#
# Total GULP energy -322184.703816 kJ/mol
# GULP energy per Si atom -12391.719378 kJ/mol
# Density = 2.175790 g / cm^3
# Si number density = 21.807538 Si / 1000 Ang^3
#
#
#
# Elastic Constant Matrix: (Units=GPa)
#
#
# Indices 1 2 3 4 5 6 
#
# 1 56.7857 20.4416 38.2500 0.0000 -33.8218 0.0000
# 2 20.4416 107.5254 57.6957 0.0000 -17.0819 0.0000
# 3 38.2500 57.6957 147.2482 0.0000 -8.1774 0.0000
# 4 0.0000 0.0000 0.0000 3.9479 0.0000 10.5232
# 5 -33.8218 -17.0819 -8.1774 0.0000 46.6847 0.0000
# 6 0.0000 0.0000 0.0000 10.5232 0.0000 10.7421
#
#
#
# Elastic Compliance Matrix: (Units=1/GPa)
#
#
# Indices 1 2 3 4 5 6 
#
# 1 0.040141 0.002019 -0.009656 0.000000 0.028128 0.000000
# 2 0.002019 0.012485 -0.005131 0.000000 0.005132 0.000000
# 3 -0.009656 -0.005131 0.010924 0.000000 -0.006960 0.000000
# 4 0.000000 0.000000 0.000000 -0.157213 0.000000 0.154009
# 5 0.028128 0.005132 -0.006960 0.000000 0.042457 0.000000
# 6 0.000000 0.000000 0.000000 0.154009 0.000000 -0.057778
#
#
# Mechanical properties :
#
#
# Convention : Reuss Voigt Hill
#
# Bulk Modulus (GPa) = 26.30747 60.48154 43.39451
# Shear Modulus (GPa) = -70.64523 25.28640 -22.67941
#
# Velocity S-wave (km/s) = -5.69782 3.40888 -3.22837
# Velocity P-wave (km/s) = 5.58545 6.57939 2.45877
#
# Compressibility (1/GPa) = 0.03801201
#
# Stress axis : x y z
#
# Youngs Moduli (GPa) = 24.91223 80.09621 91.54457
#
# Poissons Ratio (x) = -0.16168 0.88396
# Poissons Ratio (y) = -0.05029 0.46974
# Poissons Ratio (z) = 0.24055 0.41100
#
# Static dielectric constant tensor:
#      x y z
#    x 3.383820 0.000000 -0.852780 
#    y 0.000000 3.527630 0.000000 
#    z -0.852780 0.000000 3.361830 
# 
# 
# High freq. dielectric constant tensor:
#      x y z
#    x 1.851380 0.000000 -0.006120 
#    y 0.000000 1.810120 0.000000 
#    z -0.006120 0.000000 1.888800 
# 
# From -- ./inp_files/5286.got.cif
#   From: 2010.06.25/outbox.cif.g09.slc.cpg/sg13_3_cif.got.tgz:5286.got - 2010.06.28 04:50:58.
