data_PCOD8119221
_publ_section_title
;
Structure prediction by ZEFSAII (Michael W. Deem and Ramdas Pophale) SiO2 
 PCOD8119221
Probable space group: P 2/C
;
_chemical_formula_sum "Si O2"
_cell_formula_units_Z 28
_cell_length_a 15.385134
_cell_length_b 10.509427
_cell_length_c 9.114448
_cell_angle_alpha 90.000000
_cell_angle_beta 69.083017
_cell_angle_gamma 90.000000
_cell_volume 1376.586344
_symmetry_space_group_name_H-M "P 2/C"
_symmetry_group_IT_number 13
_symmetry_cell_setting 'monoclinic'
loop_
_space_group_symop_operation_xyz
x,y,z
-x,y,1/2-z
-x,-y,-z
x,-y,1/2+z
loop_
_atom_site_type_symbol
_atom_site_label
_atom_site_fract_x
_atom_site_fract_y
_atom_site_fract_z
Si Si1 0.254048 0.862807 0.403842
Si Si2 0.358116 0.257534 0.605144
Si Si3 0.121160 0.095432 0.423453
Si Si4 0.500000 0.684918 0.250000
Si Si5 0.721218 0.241741 0.304289
Si Si6 0.391812 0.925655 0.821224
Si Si7 0.000000 0.020408 0.750000
Si Si8 0.393690 0.531325 0.521018
O O1 0.266997 0.766833 0.259820
O O2 0.235424 0.783797 0.561964
O O3 0.174311 0.962916 0.418377
O O4 0.353438 0.932711 0.361447
O O5 0.456091 0.240684 0.637658
O O6 0.356424 0.156121 0.478318
O O7 0.343638 0.395729 0.539275
O O8 0.191043 0.216763 0.360393
O O9 0.058644 0.114472 0.607061
O O10 0.061305 0.074803 0.312603
O O11 0.408455 0.602513 0.356075
O O12 0.643657 0.137427 0.308873
O O13 0.669380 0.379539 0.332365
O O14 0.500000 0.934887 0.750000
O O15 0.500000 0.500000 0.500000
#
# Coordination Sequence:
#
# PCOD8119221 Si02
#       8
#     4   4   4   2   4   4   2   4
#     4  11  23  39  56  85 129 160 197 265 321 385
#     4  11  24  36  57  78 112 164 214 263 310 359
#     4  10  21  39  63 100 126 157 201 256 337 402
#     4  10  20  38  54  76 112 158 232 276 300 330
#     4  11  22  39  57  83 129 161 209 272 307 367
#     4  11  24  33  53  81 118 164 214 256 314 370
#     4  10  20  38  70  96 128 156 198 262 338 420
#     4  10  22  36  58  80 115 170 227 266 298 346
#
# _framework density 20.340170000000001
#
# number of rings (size 3 to 8) (size 9 to 14) (size 15 to 20)
#    0.000    1.429    2.857    3.429    8.000    1.143 
#    0.000    0.000    0.000    0.000    0.000    6.000 
#    0.000    0.000    0.000    0.000    0.000    0.000 
#
# Total GULP energy -346902.451561 kJ/mol
# GULP energy per Si atom -12389.373270 kJ/mol
# Density = 2.029388 g / cm^3
# Si number density = 20.340170 Si / 1000 Ang^3
#
#
#
# Elastic Constant Matrix: (Units=GPa)
#
#
# Indices 1 2 3 4 5 6 
#
# 1 78.9189 6.5011 29.5462 0.0000 -10.6319 0.0000
# 2 6.5011 57.8852 25.6459 0.0000 -15.9245 0.0000
# 3 29.5462 25.6459 112.3617 0.0000 -16.9164 0.0000
# 4 0.0000 0.0000 0.0000 22.7706 0.0000 -5.9922
# 5 -10.6319 -15.9245 -16.9164 0.0000 38.0556 0.0000
# 6 0.0000 0.0000 0.0000 -5.9922 0.0000 21.5994
#
#
#
# Elastic Compliance Matrix: (Units=1/GPa)
#
#
# Indices 1 2 3 4 5 6 
#
# 1 0.014294 0.000699 -0.003508 0.000000 0.002727 0.000000
# 2 0.000699 0.020896 -0.003866 0.000000 0.007221 0.000000
# 3 -0.003508 -0.003866 0.011053 0.000000 0.002316 0.000000
# 4 0.000000 0.000000 0.000000 0.047375 0.000000 0.013143
# 5 0.002727 0.007221 0.002316 0.000000 0.031090 0.000000
# 6 0.000000 0.000000 0.000000 0.013143 0.000000 0.049944
#
#
# Mechanical properties :
#
#
# Convention : Reuss Voigt Hill
#
# Bulk Modulus (GPa) = 30.40080 41.39468 35.89774
# Shear Modulus (GPa) = 25.12974 28.98330 27.05652
#
# Velocity S-wave (km/s) = 3.51874 3.77892 3.65115
# Velocity P-wave (km/s) = 5.61136 6.27978 5.95496
#
# Compressibility (1/GPa) = 0.03289387
#
# Stress axis : x y z
#
# Youngs Moduli (GPa) = 69.95817 47.85498 90.47111
#
# Poissons Ratio (x) = -0.03344 0.31735
# Poissons Ratio (y) = -0.04889 0.34977
# Poissons Ratio (z) = 0.24540 0.18501
#
# Static dielectric constant tensor:
#      x y z
#    x 3.645350 0.000000 -0.057340 
#    y 0.000000 3.974090 0.000000 
#    z -0.057340 0.000000 4.495140 
# 
# 
# High freq. dielectric constant tensor:
#      x y z
#    x 1.770440 0.000000 0.007260 
#    y 0.000000 1.764860 0.000000 
#    z 0.007260 0.000000 1.815270 
# 
# From -- ./inp_files/21379.got.cif
#   From: 2010.06.25/outbox.cif.g09.slc.cpg/sg13_11_cif.got.tgz:21379.got - 2010.06.28 04:50:58.
