data_PCOD8119014
_publ_section_title
;
Structure prediction by ZEFSAII (Michael W. Deem and Ramdas Pophale) SiO2 
 PCOD8119014
Probable space group: P 2/C
;
_chemical_formula_sum "Si O2"
_cell_formula_units_Z 30
_cell_length_a 21.671654
_cell_length_b 13.404488
_cell_length_c 15.629723
_cell_angle_alpha 90.000000
_cell_angle_beta 18.357310
_cell_angle_gamma 90.000000
_cell_volume 1429.960679
_symmetry_space_group_name_H-M "P 2/C"
_symmetry_group_IT_number 13
_symmetry_cell_setting 'monoclinic'
loop_
_space_group_symop_operation_xyz
x,y,z
-x,y,1/2-z
-x,-y,-z
x,-y,1/2+z
loop_
_atom_site_type_symbol
_atom_site_label
_atom_site_fract_x
_atom_site_fract_y
_atom_site_fract_z
Si Si1 0.401957 0.450449 0.009060
Si Si2 0.216513 0.408127 0.087940
Si Si3 0.907205 0.069294 0.551868
Si Si4 0.503572 0.835654 0.645366
Si Si5 0.164159 0.191059 0.102851
Si Si6 0.591274 0.633300 0.825392
Si Si7 0.000000 0.532439 0.250000
Si Si8 0.678696 0.989589 0.200253
O O1 0.599040 0.461373 0.695980
O O2 0.406351 0.560233 0.047021
O O3 0.218183 0.429103 0.187951
O O4 0.403829 0.362728 0.077555
O O5 0.258995 0.293297 0.008785
O O6 0.021506 0.458950 0.304591
O O7 0.868639 0.009031 0.512804
O O8 0.070696 0.149741 0.313317
O O9 0.714784 0.122451 0.841304
O O10 0.000000 0.000000 0.500000
O O11 0.500000 0.807779 0.750000
O O12 0.456876 0.740087 0.649912
O O13 0.334492 0.918091 0.848478
O O14 0.000000 0.217385 0.250000
O O15 0.321869 0.113481 0.854145
O O16 0.808457 0.600436 0.510282
O O17 0.500000 0.000000 0.500000
#
# Coordination Sequence:
#
# PCOD8119014 Si02
#       8
#     4   4   4   4   4   4   2   4
#     4   9  22  40  62  92 123 162 215 262 318 385
#     4  10  20  38  65  92 124 158 210 266 318 377
#     4  10  22  41  62  91 125 162 211 267 314 374
#     4  11  24  42  63  87 126 181 211 257 326 393
#     4  10  20  36  62  92 119 157 200 266 316 364
#     4  10  23  42  63  89 128 172 212 265 325 389
#     4  10  22  40  62  92 130 164 212 270 314 382
#     4   9  21  40  62  87 126 164 207 261 317 389
#
# _framework density 20.979599
#
# number of rings (size 3 to 8) (size 9 to 14) (size 15 to 20)
#    0.000    2.133    0.667    0.800    9.333    2.667 
#   18.000    0.000    0.000    0.000    0.000    0.000 
#    0.000    0.000    0.000    0.000    0.000    0.000 
#
# Total GULP energy -371708.331792 kJ/mol
# GULP energy per Si atom -12390.277726 kJ/mol
# Density = 2.093185 g / cm^3
# Si number density = 20.979599 Si / 1000 Ang^3
#
#
#
# Elastic Constant Matrix: (Units=GPa)
#
#
# Indices 1 2 3 4 5 6 
#
# 1 163.8008 69.4822 26.2388 0.0000 -2.4132 0.0000
# 2 69.4822 124.3261 26.6096 0.0000 -15.8261 0.0000
# 3 26.2388 26.6096 61.6237 0.0000 -0.1496 0.0000
# 4 0.0000 0.0000 0.0000 26.4799 0.0000 -2.4341
# 5 -2.4132 -15.8261 -0.1496 0.0000 27.1587 0.0000
# 6 0.0000 0.0000 0.0000 -2.4341 0.0000 33.5956
#
#
#
# Elastic Compliance Matrix: (Units=1/GPa)
#
#
# Indices 1 2 3 4 5 6 
#
# 1 0.008242 -0.004514 -0.001565 0.000000 -0.001907 0.000000
# 2 -0.004514 0.012117 -0.003294 0.000000 0.006641 0.000000
# 3 -0.001565 -0.003294 0.018311 0.000000 -0.001958 0.000000
# 4 0.000000 0.000000 0.000000 0.038018 0.000000 0.002754
# 5 -0.001907 0.006641 -0.001958 0.000000 0.040511 0.000000
# 6 0.000000 0.000000 0.000000 0.002754 0.000000 0.029965
#
#
# Mechanical properties :
#
#
# Convention : Reuss Voigt Hill
#
# Bulk Modulus (GPa) = 50.18932 66.04574 58.11753
# Shear Modulus (GPa) = 28.97686 32.60818 30.79252
#
# Velocity S-wave (km/s) = 3.72047 3.94671 3.83526
# Velocity P-wave (km/s) = 6.51389 7.23312 6.88290
#
# Compressibility (1/GPa) = 0.01992456
#
# Stress axis : x y z
#
# Youngs Moduli (GPa) = 121.32313 82.53112 54.61081
#
# Poissons Ratio (x) = 0.37257 0.08546
# Poissons Ratio (y) = 0.54768 0.17988
# Poissons Ratio (z) = 0.18986 0.27184
#
# Static dielectric constant tensor:
#      x y z
#    x 4.440750 0.000000 -0.101120 
#    y 0.000000 3.795500 0.000000 
#    z -0.101120 0.000000 3.674200 
# 
# 
# High freq. dielectric constant tensor:
#      x y z
#    x 1.838080 0.000000 0.007160 
#    y 0.000000 1.812610 0.000000 
#    z 0.007160 0.000000 1.807930 
# 
# From -- ./inp_files/57808.got.cif
#   From: 2010.06.25/outbox.cif.g09.slc.cpg/sg13_29_cif.got.tgz:57808.got - 2010.06.28 04:50:58.
