data_PCOD8119480
_publ_section_title
;
Structure prediction by ZEFSAII (Michael W. Deem and Ramdas Pophale) SiO2 
 PCOD8119480
Probable space group: P 2/C
;
_chemical_formula_sum "Si O2"
_cell_formula_units_Z 32
_cell_length_a 14.099375
_cell_length_b 9.896319
_cell_length_c 14.622495
_cell_angle_alpha 90.000000
_cell_angle_beta 51.862656
_cell_angle_gamma 90.000000
_cell_volume 1604.766332
_symmetry_space_group_name_H-M "P 2/C"
_symmetry_group_IT_number 13
_symmetry_cell_setting 'monoclinic'
loop_
_space_group_symop_operation_xyz
x,y,z
-x,y,1/2-z
-x,-y,-z
x,-y,1/2+z
loop_
_atom_site_type_symbol
_atom_site_label
_atom_site_fract_x
_atom_site_fract_y
_atom_site_fract_z
Si Si1 0.604263 0.724023 0.326467
Si Si2 0.755265 0.281956 0.564023
Si Si3 0.899174 0.240807 0.878800
Si Si4 0.755037 0.926051 0.335816
Si Si5 0.315898 0.584749 0.920415
Si Si6 0.356502 0.797761 0.545191
Si Si7 0.066132 0.872683 0.424273
Si Si8 0.581379 0.589302 0.832849
O O1 0.651494 0.764722 0.197450
O O2 0.675947 0.791624 0.367611
O O3 0.471042 0.785042 0.410715
O O4 0.617080 0.563938 0.335091
O O5 0.745482 0.441589 0.560557
O O6 0.750820 0.225539 0.463157
O O7 0.881251 0.227807 0.529894
O O8 0.844154 0.101946 0.868450
O O9 0.000000 0.304877 0.750000
O O10 0.967598 0.216360 0.931645
O O11 0.785746 0.333849 0.966531
O O12 0.833075 0.942180 0.198544
O O13 0.666227 0.053804 0.400142
O O14 0.435801 0.586028 0.911933
O O15 0.355738 0.642443 0.797579
O O16 0.369575 0.687109 0.617168
O O17 0.000000 0.000000 0.500000
#
# Coordination Sequence:
#
# PCOD8119480 Si02
#       8
#     4   4   4   4   4   4   4   4
#     4  10  20  39  60  88 129 168 194 241 320 384
#     4  10  22  38  62  90 121 166 207 253 308 375
#     4  10  22  41  64  86 118 168 213 265 309 365
#     4  10  23  37  61  93 121 158 216 251 309 375
#     4  10  21  41  63  92 125 161 210 248 321 378
#     4  12  21  35  61  98 125 159 204 256 302 374
#     4  10  22  42  62  79 122 167 206 258 317 355
#     4  10  22  37  65  94 130 162 195 257 318 380
#
# _framework density 19.940595999999999
#
# number of rings (size 3 to 8) (size 9 to 14) (size 15 to 20)
#    0.000    1.750    1.250    2.625    3.500    0.500 
#    0.000    1.250    0.000    0.000    0.000    0.000 
#    0.000    0.000    0.000    0.000    0.000    0.000 
#
# Total GULP energy -396494.423435 kJ/mol
# GULP energy per Si atom -12390.450732 kJ/mol
# Density = 1.989521 g / cm^3
# Si number density = 19.940596 Si / 1000 Ang^3
#
#
#
# Elastic Constant Matrix: (Units=GPa)
#
#
# Indices 1 2 3 4 5 6 
#
# 1 134.2020 65.2061 44.9466 0.0000 24.0331 0.0000
# 2 65.2061 112.5269 57.3740 0.0000 3.1836 0.0000
# 3 44.9466 57.3740 72.6152 0.0000 5.1468 0.0000
# 4 0.0000 0.0000 0.0000 27.3235 0.0000 -6.3126
# 5 24.0331 3.1836 5.1468 0.0000 34.6263 0.0000
# 6 0.0000 0.0000 0.0000 -6.3126 0.0000 24.0474
#
#
#
# Elastic Compliance Matrix: (Units=1/GPa)
#
#
# Indices 1 2 3 4 5 6 
#
# 1 0.012486 -0.005619 -0.002740 0.000000 -0.007742 0.000000
# 2 -0.005619 0.017416 -0.010557 0.000000 0.003868 0.000000
# 3 -0.002740 -0.010557 0.023856 0.000000 -0.000674 0.000000
# 4 0.000000 0.000000 0.000000 0.038961 0.000000 0.010228
# 5 -0.007742 0.003868 -0.000674 0.000000 0.033998 0.000000
# 6 0.000000 0.000000 0.000000 0.010228 0.000000 0.044269
#
#
# Mechanical properties :
#
#
# Convention : Reuss Voigt Hill
#
# Bulk Modulus (GPa) = 62.78921 72.71083 67.75002
# Shear Modulus (GPa) = 23.35076 27.32061 25.33568
#
# Velocity S-wave (km/s) = 3.42572 3.70550 3.56836
# Velocity P-wave (km/s) = 6.87051 7.40611 7.14333
#
# Compressibility (1/GPa) = 0.01592630
#
# Stress axis : x y z
#
# Youngs Moduli (GPa) = 80.09114 57.41869 41.91879
#
# Poissons Ratio (x) = 0.32265 0.11485
# Poissons Ratio (y) = 0.45005 0.44252
# Poissons Ratio (z) = 0.21943 0.60614
#
# Static dielectric constant tensor:
#      x y z
#    x -4.924480 0.000000 12.616710 
#    y 0.000000 3.380000 0.000000 
#    z 12.616710 0.000000 -14.048220 
# 
# 
# High freq. dielectric constant tensor:
#      x y z
#    x 1.787760 0.000000 0.009030 
#    y 0.000000 1.760490 0.000000 
#    z 0.009030 0.000000 1.785300 
# 
# From -- ./inp_files/53039.got.cif
#   From: 2010.06.25/outbox.cif.g09.slc.cpg/sg13_27_cif.got.tgz:53039.got - 2010.06.28 04:50:58.
