data_PCOD8119425
_publ_section_title
;
Structure prediction by ZEFSAII (Michael W. Deem and Ramdas Pophale) SiO2 
 PCOD8119425
Probable space group: P 2/C
;
_chemical_formula_sum "Si O2"
_cell_formula_units_Z 22
_cell_length_a 15.631136
_cell_length_b 8.810211
_cell_length_c 8.688808
_cell_angle_alpha 90.000000
_cell_angle_beta 74.220092
_cell_angle_gamma 90.000000
_cell_volume 1151.472558
_symmetry_space_group_name_H-M "P 2/C"
_symmetry_group_IT_number 13
_symmetry_cell_setting 'monoclinic'
loop_
_space_group_symop_operation_xyz
x,y,z
-x,y,1/2-z
-x,-y,-z
x,-y,1/2+z
loop_
_atom_site_type_symbol
_atom_site_label
_atom_site_fract_x
_atom_site_fract_y
_atom_site_fract_z
Si Si1 0.507324 0.820032 0.973789
Si Si2 0.830888 0.662266 0.538858
Si Si3 0.500000 0.601871 0.250000
Si Si4 0.082582 0.604173 0.311456
Si Si5 0.984039 0.838078 0.575691
Si Si6 0.623036 0.675654 0.679554
O O1 0.590040 0.798656 0.819181
O O2 0.415460 0.742400 0.960949
O O3 0.532276 0.719069 0.106490
O O4 0.500000 0.000000 0.000000
O O5 0.844153 0.662240 0.347213
O O6 0.875071 0.518921 0.599128
O O7 0.880469 0.805077 0.590478
O O8 0.727942 0.668845 0.626699
O O9 0.416129 0.490930 0.257682
O O10 0.000000 0.539081 0.250000
O O11 0.049084 0.731618 0.444925
O O12 0.000000 0.826908 0.750000
O O13 0.000000 0.000000 0.500000
#
# Coordination Sequence:
#
# PCOD8119425 Si02
#       6
#     4   4   2   4   4   4
#     4  10  21  42  62  84 127 164 196 254 324 377
#     4  11  22  37  62  93 122 153 216 254 297 365
#     4  10  20  38  66  86 122 164 204 250 318 362
#     4  10  21  38  61  87 124 166 198 252 308 357
#     4  11  22  43  63  86 126 171 200 244 314 366
#     4  10  22  38  61  93 120 156 212 257 301 372
#
# _framework density 19.105969000000002
#
# number of rings (size 3 to 8) (size 9 to 14) (size 15 to 20)
#    0.000    1.818    0.000    8.727    5.091    0.000 
#    6.545    0.000    0.000    0.000    0.000    0.000 
#    0.000    0.000    0.000    0.000    0.000    0.000 
#
# Total GULP energy -272573.748557 kJ/mol
# GULP energy per Si atom -12389.715843 kJ/mol
# Density = 1.906248 g / cm^3
# Si number density = 19.105969 Si / 1000 Ang^3
#
#
#
# Elastic Constant Matrix: (Units=GPa)
#
#
# Indices 1 2 3 4 5 6 
#
# 1 132.1406 63.2161 50.3916 0.0000 -29.8430 0.0000
# 2 63.2161 141.9625 52.3601 0.0000 -9.6261 0.0000
# 3 50.3916 52.3601 129.3371 0.0000 -1.4163 0.0000
# 4 0.0000 0.0000 0.0000 53.7383 0.0000 -0.0778
# 5 -29.8430 -9.6261 -1.4163 0.0000 27.1289 0.0000
# 6 0.0000 0.0000 0.0000 -0.0778 0.0000 8.1632
#
#
#
# Elastic Compliance Matrix: (Units=1/GPa)
#
#
# Indices 1 2 3 4 5 6 
#
# 1 0.013968 -0.003919 -0.003705 0.000000 0.013781 0.000000
# 2 -0.003919 0.009593 -0.002368 0.000000 -0.001031 0.000000
# 3 -0.003705 -0.002368 0.010086 0.000000 -0.004389 0.000000
# 4 0.000000 0.000000 0.000000 0.018609 0.000000 0.000177
# 5 0.013781 -0.001031 -0.004389 0.000000 0.051426 0.000000
# 6 0.000000 0.000000 0.000000 0.000177 0.000000 0.122502
#
#
# Mechanical properties :
#
#
# Convention : Reuss Voigt Hill
#
# Bulk Modulus (GPa) = 73.18954 81.70844 77.44899
# Shear Modulus (GPa) = 19.94256 33.63758 26.79007
#
# Velocity S-wave (km/s) = 3.23427 4.20048 3.74864
# Velocity P-wave (km/s) = 7.23448 8.14764 7.70460
#
# Compressibility (1/GPa) = 0.01366315
#
# Stress axis : x y z
#
# Youngs Moduli (GPa) = 71.59419 104.24621 99.15134
#
# Poissons Ratio (x) = 0.40854 0.36731
# Poissons Ratio (y) = 0.28058 0.23477
# Poissons Ratio (z) = 0.26522 0.24684
#
# Static dielectric constant tensor:
#      x y z
#    x 3.193330 0.000000 -0.159720 
#    y 0.000000 3.519160 0.000000 
#    z -0.159720 0.000000 3.724340 
# 
# 
# High freq. dielectric constant tensor:
#      x y z
#    x 1.722590 0.000000 0.000750 
#    y 0.000000 1.746800 0.000000 
#    z 0.000750 0.000000 1.766870 
# 
# From -- ./inp_files/18027.got.cif
#   From: 2010.06.25/outbox.cif.g09.slc.cpg/sg13_10_cif.got.tgz:18027.got - 2010.06.28 04:50:58.
