data_PCOD8119394
_publ_section_title
;
Structure prediction by ZEFSAII (Michael W. Deem and Ramdas Pophale) SiO2 
 PCOD8119394
Probable space group: P 2/C
;
_chemical_formula_sum "Si O2"
_cell_formula_units_Z 20
_cell_length_a 9.889255
_cell_length_b 11.771965
_cell_length_c 9.273826
_cell_angle_alpha 90.000000
_cell_angle_beta 62.720284
_cell_angle_gamma 90.000000
_cell_volume 959.545414
_symmetry_space_group_name_H-M "P 2/C"
_symmetry_group_IT_number 13
_symmetry_cell_setting 'monoclinic'
loop_
_space_group_symop_operation_xyz
x,y,z
-x,y,1/2-z
-x,-y,-z
x,-y,1/2+z
loop_
_atom_site_type_symbol
_atom_site_label
_atom_site_fract_x
_atom_site_fract_y
_atom_site_fract_z
Si Si1 0.105464 0.540041 0.577618
Si Si2 0.316949 0.132441 0.346355
Si Si3 0.826932 0.295865 0.870670
Si Si4 0.347634 0.935897 0.526523
Si Si5 0.337958 0.716589 0.337775
O O1 0.190487 0.431553 0.605203
O O2 0.222394 0.634855 0.473887
O O3 0.000000 0.597922 0.750000
O O4 0.000000 0.500000 0.500000
O O5 0.500000 0.150024 0.250000
O O6 0.232651 0.243289 0.449765
O O7 0.257905 0.106235 0.213022
O O8 0.258377 0.029425 0.476468
O O9 0.722097 0.251250 0.791611
O O10 0.000000 0.261381 0.750000
O O11 0.374925 0.829340 0.410039
O O12 0.500000 0.000000 0.500000
O O13 0.500000 0.651942 0.250000
#
# Coordination Sequence:
#
# PCOD8119394 Si02
#       5
#     4   4   4   4   4
#     4  11  24  47  68  95 143 184 217 281 347 397
#     4  10  20  38  64  92 128 172 220 275 329 396
#     4  11  24  44  65  96 143 179 219 282 341 400
#     4  10  21  39  65  98 135 168 218 285 342 385
#     4  12  24  41  71 100 130 181 232 277 333 403
#
# _framework density 20.843202000000002
#
# number of rings (size 3 to 8) (size 9 to 14) (size 15 to 20)
#    0.000    1.200    4.000    5.400    2.800    1.600 
#    0.000    5.000    0.000    0.000    0.000    0.000 
#    0.000    0.000    0.000    0.000    0.000    0.000 
#
# Total GULP energy -247930.260195 kJ/mol
# GULP energy per Si atom -12396.513010 kJ/mol
# Density = 2.079576 g / cm^3
# Si number density = 20.843202 Si / 1000 Ang^3
#
#
#
# Elastic Constant Matrix: (Units=GPa)
#
#
# Indices 1 2 3 4 5 6 
#
# 1 96.0377 31.6346 36.6963 0.0000 4.9638 0.0000
# 2 31.6346 96.6611 42.0785 0.0000 -6.8029 0.0000
# 3 36.6963 42.0785 134.1695 0.0000 5.8424 0.0000
# 4 0.0000 0.0000 0.0000 40.7533 0.0000 3.2504
# 5 4.9638 -6.8029 5.8424 0.0000 42.4185 0.0000
# 6 0.0000 0.0000 0.0000 3.2504 0.0000 12.2447
#
#
#
# Elastic Compliance Matrix: (Units=1/GPa)
#
#
# Indices 1 2 3 4 5 6 
#
# 1 0.012433 -0.003168 -0.002336 0.000000 -0.001641 0.000000
# 2 -0.003168 0.013048 -0.003353 0.000000 0.002925 0.000000
# 3 -0.002336 -0.003353 0.009210 0.000000 -0.001533 0.000000
# 4 0.000000 0.000000 0.000000 0.025069 0.000000 -0.006655
# 5 -0.001641 0.002925 -0.001533 0.000000 0.024447 0.000000
# 6 0.000000 0.000000 0.000000 -0.006655 0.000000 0.083435
#
#
# Mechanical properties :
#
#
# Convention : Reuss Voigt Hill
#
# Bulk Modulus (GPa) = 58.89817 60.85416 59.87617
# Shear Modulus (GPa) = 26.17610 33.51388 29.84499
#
# Velocity S-wave (km/s) = 3.54765 4.01422 3.78813
# Velocity P-wave (km/s) = 6.71567 7.12354 6.92261
#
# Compressibility (1/GPa) = 0.01697846
#
# Stress axis : x y z
#
# Youngs Moduli (GPa) = 80.42885 76.64212 108.57310
#
# Poissons Ratio (x) = 0.24279 0.25359
# Poissons Ratio (y) = 0.25479 0.36404
# Poissons Ratio (z) = 0.18785 0.25698
#
# Static dielectric constant tensor:
#      x y z
#    x 3.687490 0.000000 0.276480 
#    y 0.000000 3.983670 0.000000 
#    z 0.276480 0.000000 4.386780 
# 
# 
# High freq. dielectric constant tensor:
#      x y z
#    x 1.792980 0.000000 0.017430 
#    y 0.000000 1.813110 0.000000 
#    z 0.017430 0.000000 1.841420 
# 
# From -- ./inp_files/15498.got.cif
#   From: 2010.06.25/outbox.cif.g09.slc.cpg/sg13_8_cif.got.tgz:15498.got - 2010.06.28 04:50:58.
