data_PCOD8119709
_publ_section_title
;
Structure prediction by ZEFSAII (Michael W. Deem and Ramdas Pophale) SiO2 
 PCOD8119709
Probable space group: P 2/C
;
_chemical_formula_sum "Si O2"
_cell_formula_units_Z 28
_cell_length_a 6.891370
_cell_length_b 8.879887
_cell_length_c 27.084442
_cell_angle_alpha 90.000000
_cell_angle_beta 124.370150
_cell_angle_gamma 90.000000
_cell_volume 1368.048291
_symmetry_space_group_name_H-M "P 2/C"
_symmetry_group_IT_number 13
_symmetry_cell_setting 'monoclinic'
loop_
_space_group_symop_operation_xyz
x,y,z
-x,y,1/2-z
-x,-y,-z
x,-y,1/2+z
loop_
_atom_site_type_symbol
_atom_site_label
_atom_site_fract_x
_atom_site_fract_y
_atom_site_fract_z
Si Si1 0.419137 0.171546 0.603160
Si Si2 0.917791 0.346503 0.012225
Si Si3 0.880478 0.652577 0.181077
Si Si4 0.729658 0.155447 0.810732
Si Si5 0.183373 0.643963 0.887934
Si Si6 0.710966 0.185499 0.311651
Si Si7 0.617829 0.831870 0.911760
O O1 0.312619 0.286131 0.548294
O O2 0.669944 0.229798 0.658334
O O3 0.262835 0.164377 0.629359
O O4 0.426814 0.005587 0.579940
O O5 0.841933 0.380755 0.057287
O O6 0.124194 0.223575 0.034568
O O7 0.000000 0.500000 0.000000
O O8 0.000000 0.606704 0.250000
O O9 0.061322 0.737626 0.173111
O O10 0.786308 0.508900 0.138063
O O11 0.500000 0.218652 0.750000
O O12 0.767957 0.982392 0.800489
O O13 0.945724 0.722088 0.835211
O O14 0.414263 0.740856 0.910118
O O15 0.500000 0.258871 0.250000
O O16 0.608573 0.190369 0.351928
#
# Coordination Sequence:
#
# PCOD8119709 Si02
#       7
#     4   4   4   4   4   4   4
#     4  11  23  42  68  92 123 165 212 261 313 375
#     4  11  24  44  66  92 128 168 211 261 315 373
#     4  12  25  38  60  94 128 166 208 257 317 378
#     4  10  20  41  62  88 123 160 208 260 308 368
#     4  11  25  41  60  95 130 165 209 258 314 375
#     4   9  21  39  63  89 123 167 206 255 315 370
#     4  10  23  42  65  95 123 164 214 261 311 370
#
# _framework density 20.467112
#
# number of rings (size 3 to 8) (size 9 to 14) (size 15 to 20)
#    0.000    1.429    1.429    3.000    2.000    5.714 
#    0.000    0.000    0.000    0.000    0.000    0.000 
#    0.000    0.000    0.000    0.000    0.000    0.000 
#
# Total GULP energy -347240.390534 kJ/mol
# GULP energy per Si atom -12401.442519 kJ/mol
# Density = 2.042053 g / cm^3
# Si number density = 20.467112 Si / 1000 Ang^3
#
#
#
# Elastic Constant Matrix: (Units=GPa)
#
#
# Indices 1 2 3 4 5 6 
#
# 1 95.1068 45.2834 21.3219 0.0000 -0.3889 0.0000
# 2 45.2834 111.4229 34.6327 0.0000 -7.1533 0.0000
# 3 21.3219 34.6327 103.3815 0.0000 2.5836 0.0000
# 4 0.0000 0.0000 0.0000 35.9128 0.0000 1.4668
# 5 -0.3889 -7.1533 2.5836 0.0000 26.0901 0.0000
# 6 0.0000 0.0000 0.0000 1.4668 0.0000 40.1308
#
#
#
# Elastic Compliance Matrix: (Units=1/GPa)
#
#
# Indices 1 2 3 4 5 6 
#
# 1 0.013166 -0.005120 -0.000972 0.000000 -0.001111 0.000000
# 2 -0.005120 0.012263 -0.003142 0.000000 0.003597 0.000000
# 3 -0.000972 -0.003142 0.010975 0.000000 -0.001963 0.000000
# 4 0.000000 0.000000 0.000000 0.027887 0.000000 -0.001019
# 5 -0.001111 0.003597 -0.001963 0.000000 0.039493 0.000000
# 6 0.000000 0.000000 0.000000 -0.001019 0.000000 0.024956
#
#
# Mechanical properties :
#
#
# Convention : Reuss Voigt Hill
#
# Bulk Modulus (GPa) = 55.75610 56.93193 56.34402
# Shear Modulus (GPa) = 32.64002 34.33831 33.48916
#
# Velocity S-wave (km/s) = 3.99777 4.10045 4.04944
# Velocity P-wave (km/s) = 6.97212 7.09190 7.03226
#
# Compressibility (1/GPa) = 0.01793526
#
# Stress axis : x y z
#
# Youngs Moduli (GPa) = 75.95538 81.54553 91.11501
#
# Poissons Ratio (x) = 0.41749 0.08861
# Poissons Ratio (y) = 0.38887 0.28629
# Poissons Ratio (z) = 0.07386 0.25622
#
# Static dielectric constant tensor:
#      x y z
#    x 3.643730 0.000000 0.028870 
#    y 0.000000 3.893840 0.000000 
#    z 0.028870 0.000000 3.783140 
# 
# 
# High freq. dielectric constant tensor:
#      x y z
#    x 1.804320 0.000000 0.002930 
#    y 0.000000 1.805750 0.000000 
#    z 0.002930 0.000000 1.809870 
# 
# From -- ./inp_files/95120.got.cif
#   From: 2010.06.25/outbox.cif.g09.slc.cpg/sg13_48_cif.got.tgz:95120.got - 2010.06.28 04:50:58.
