data_PCOD8119218
_publ_section_title
;
Structure prediction by ZEFSAII (Michael W. Deem and Ramdas Pophale) SiO2 
 PCOD8119218
Probable space group: P 2/C
;
_chemical_formula_sum "Si O2"
_cell_formula_units_Z 32
_cell_length_a 22.132173
_cell_length_b 12.198229
_cell_length_c 11.104461
_cell_angle_alpha 90.000000
_cell_angle_beta 144.557921
_cell_angle_gamma 90.000000
_cell_volume 1738.425954
_symmetry_space_group_name_H-M "P 2/C"
_symmetry_group_IT_number 13
_symmetry_cell_setting 'monoclinic'
loop_
_space_group_symop_operation_xyz
x,y,z
-x,y,1/2-z
-x,-y,-z
x,-y,1/2+z
loop_
_atom_site_type_symbol
_atom_site_label
_atom_site_fract_x
_atom_site_fract_y
_atom_site_fract_z
Si Si1 0.600073 0.741985 0.629985
Si Si2 0.362626 0.221338 0.678532
Si Si3 0.961637 0.864585 0.559880
Si Si4 0.050739 0.117539 0.955338
Si Si5 0.623393 0.585669 0.456763
Si Si6 0.272322 0.843317 0.267788
Si Si7 0.703444 0.089729 0.151553
Si Si8 0.380787 0.345629 0.080005
O O1 0.477120 0.767308 0.422612
O O2 0.646365 0.647927 0.618137
O O3 0.658958 0.856273 0.700986
O O4 0.637856 0.699686 0.818667
O O5 0.330374 0.342201 0.578644
O O6 0.276343 0.172711 0.629910
O O7 0.363455 0.137469 0.567948
O O8 0.840619 0.835964 0.357454
O O9 0.000000 0.812114 0.750000
O O10 0.012469 0.820136 0.516607
O O11 0.989058 0.992864 0.607101
O O12 0.000000 0.170525 0.750000
O O13 0.175228 0.120785 0.157572
O O14 0.500000 0.579375 0.250000
O O15 0.674414 0.464300 0.531763
O O16 0.341119 0.743423 0.423448
O O17 0.319688 0.960642 0.380262
O O18 0.500000 0.366920 0.250000
#
# Coordination Sequence:
#
# PCOD8119218 Si02
#       8
#     4   4   4   4   4   4   4   4
#     4  10  21  37  53  76 111 146 181 213 262 320
#     4  10  20  38  52  77 109 148 181 210 261 321
#     4   9  18  34  52  75 101 136 179 227 266 309
#     4   9  18  32  53  74 102 137 179 224 268 309
#     4   8  19  35  57  72 100 142 183 231 262 296
#     4  11  23  32  54  81 112 139 179 217 266 328
#     4  10  22  35  53  77 112 150 172 211 267 331
#     4  11  22  34  53  82 108 140 184 227 263 303
#
# _framework density 18.407456
#
# number of rings (size 3 to 8) (size 9 to 14) (size 15 to 20)
#    0.000    2.250    1.250    1.875    5.250    5.000 
#    0.000    0.000    0.000    0.000    0.000   11.375 
#    0.000    0.000    0.000    0.000    0.000    0.000 
#
# Total GULP energy -396510.882772 kJ/mol
# GULP energy per Si atom -12390.965087 kJ/mol
# Density = 1.836556 g / cm^3
# Si number density = 18.407456 Si / 1000 Ang^3
#
#
#
# Elastic Constant Matrix: (Units=GPa)
#
#
# Indices 1 2 3 4 5 6 
#
# 1 107.1692 27.4972 14.8384 0.0000 -10.4863 0.0000
# 2 27.4972 113.2073 17.7275 0.0000 -1.2691 0.0000
# 3 14.8384 17.7275 36.8968 0.0000 -13.0164 0.0000
# 4 0.0000 0.0000 0.0000 7.0555 0.0000 -5.2626
# 5 -10.4863 -1.2691 -13.0164 0.0000 25.2453 0.0000
# 6 0.0000 0.0000 0.0000 -5.2626 0.0000 20.1984
#
#
#
# Elastic Compliance Matrix: (Units=1/GPa)
#
#
# Indices 1 2 3 4 5 6 
#
# 1 0.010488 -0.002193 -0.002037 0.000000 0.003196 0.000000
# 2 -0.002193 0.010121 -0.005040 0.000000 -0.003000 0.000000
# 3 -0.002037 -0.005040 0.036615 0.000000 0.017779 0.000000
# 4 0.000000 0.000000 0.000000 0.175921 0.000000 0.045835
# 5 0.003196 -0.003000 0.017779 0.000000 0.049955 0.000000
# 6 0.000000 0.000000 0.000000 0.045835 0.000000 0.061451
#
#
# Mechanical properties :
#
#
# Convention : Reuss Voigt Hill
#
# Bulk Modulus (GPa) = 25.84876 41.93328 33.89102
# Shear Modulus (GPa) = 13.29833 23.64718 18.47275
#
# Velocity S-wave (km/s) = 2.69074 3.58809 3.17132
# Velocity P-wave (km/s) = 4.87099 6.32423 5.64457
#
# Compressibility (1/GPa) = 0.03868658
#
# Stress axis : x y z
#
# Youngs Moduli (GPa) = 95.34328 98.79966 27.31091
#
# Poissons Ratio (x) = 0.21664 0.05563
# Poissons Ratio (y) = 0.20906 0.13764
# Poissons Ratio (z) = 0.19421 0.49792
#
# Static dielectric constant tensor:
#      x y z
#    x 3.609440 0.000000 -0.265880 
#    y 0.000000 3.459600 0.000000 
#    z -0.265880 0.000000 3.250320 
# 
# 
# High freq. dielectric constant tensor:
#      x y z
#    x 1.725510 0.000000 -0.018260 
#    y 0.000000 1.689620 0.000000 
#    z -0.018260 0.000000 1.692240 
# 
# From -- ./inp_files/40704.got.cif
#   From: 2010.06.25/outbox.cif.g09.slc.cpg/sg13_21_cif.got.tgz:40704.got - 2010.06.28 04:50:58.
