data_PCOD8119261
_publ_section_title
;
Structure prediction by ZEFSAII (Michael W. Deem and Ramdas Pophale) SiO2 
 PCOD8119261
Probable space group: P 2/C
;
_chemical_formula_sum "Si O2"
_cell_formula_units_Z 28
_cell_length_a 15.003257
_cell_length_b 11.956272
_cell_length_c 9.176333
_cell_angle_alpha 90.000000
_cell_angle_beta 58.445256
_cell_angle_gamma 90.000000
_cell_volume 1402.690098
_symmetry_space_group_name_H-M "P 2/C"
_symmetry_group_IT_number 13
_symmetry_cell_setting 'monoclinic'
loop_
_space_group_symop_operation_xyz
x,y,z
-x,y,1/2-z
-x,-y,-z
x,-y,1/2+z
loop_
_atom_site_type_symbol
_atom_site_label
_atom_site_fract_x
_atom_site_fract_y
_atom_site_fract_z
Si Si1 0.131875 0.083133 0.516974
Si Si2 0.901529 0.867332 0.126731
Si Si3 0.223796 0.728144 0.778441
Si Si4 0.925316 0.451928 0.942914
Si Si5 0.556733 0.360756 0.333105
Si Si6 0.189576 0.678475 0.484717
Si Si7 0.414429 0.608643 0.217628
O O1 0.150847 0.098944 0.673815
O O2 0.221135 0.150488 0.355520
O O3 0.024427 0.135591 0.549116
O O4 0.134507 0.953368 0.468891
O O5 0.873107 0.745481 0.087232
O O6 0.346404 0.698585 0.672198
O O7 0.184114 0.737985 0.646558
O O8 0.152033 0.643914 0.933757
O O9 0.000000 0.404149 0.750000
O O10 0.855511 0.555319 0.947507
O O11 0.000000 0.500000 0.000000
O O12 0.500000 0.292834 0.250000
O O13 0.601842 0.477822 0.231250
O O14 0.457474 0.380250 0.519721
O O15 0.306849 0.674169 0.325215
O O16 0.500000 0.664295 0.250000
#
# Coordination Sequence:
#
# PCOD8119261 Si02
#       7
#     4   4   4   4   4   4   4
#     4  10  23  42  65  91 121 159 209 255 302 367
#     4  10  23  42  66  91 121 161 207 255 304 364
#     4  12  24  39  62  90 126 166 206 251 311 366
#     4  12  26  38  55  89 133 168 201 245 306 372
#     4  10  22  36  60  87 122 161 209 258 299 362
#     4  12  24  39  63  89 124 169 205 253 310 366
#     4  10  20  38  59  87 121 161 210 254 302 362
#
# _framework density 19.961644
#
# number of rings (size 3 to 8) (size 9 to 14) (size 15 to 20)
#    0.000    1.143    4.286    1.714    6.000    1.143 
#    0.000    0.000    0.000    1.714    0.000    0.000 
#    0.000    0.000    0.000    0.000    0.000    0.000 
#
# Total GULP energy -347105.740118 kJ/mol
# GULP energy per Si atom -12396.633576 kJ/mol
# Density = 1.991621 g / cm^3
# Si number density = 19.961644 Si / 1000 Ang^3
#
#
#
# Elastic Constant Matrix: (Units=GPa)
#
#
# Indices 1 2 3 4 5 6 
#
# 1 71.8163 10.2793 26.8883 0.0000 5.6519 0.0000
# 2 10.2793 56.6151 21.5387 0.0000 -2.9186 0.0000
# 3 26.8883 21.5387 112.2444 0.0000 6.8693 0.0000
# 4 0.0000 0.0000 0.0000 27.9687 0.0000 5.0874
# 5 5.6519 -2.9186 6.8693 0.0000 41.3302 0.0000
# 6 0.0000 0.0000 0.0000 5.0874 0.0000 20.0978
#
#
#
# Elastic Compliance Matrix: (Units=1/GPa)
#
#
# Indices 1 2 3 4 5 6 
#
# 1 0.015529 -0.001651 -0.003300 0.000000 -0.001692 0.000000
# 2 -0.001651 0.019390 -0.003458 0.000000 0.002170 0.000000
# 3 -0.003300 -0.003458 0.010457 0.000000 -0.001531 0.000000
# 4 0.000000 0.000000 0.000000 0.037480 0.000000 -0.009487
# 5 -0.001692 0.002170 -0.001531 0.000000 0.024834 0.000000
# 6 0.000000 0.000000 0.000000 -0.009487 0.000000 0.052158
#
#
# Mechanical properties :
#
#
# Convention : Reuss Voigt Hill
#
# Bulk Modulus (GPa) = 35.01608 39.78759 37.40184
# Shear Modulus (GPa) = 26.85474 30.01064 28.43269
#
# Velocity S-wave (km/s) = 3.67184 3.88160 3.77817
# Velocity P-wave (km/s) = 5.96291 6.32964 6.14901
#
# Compressibility (1/GPa) = 0.02855831
#
# Stress axis : x y z
#
# Youngs Moduli (GPa) = 64.39429 51.57183 95.63136
#
# Poissons Ratio (x) = 0.08517 0.31555
# Poissons Ratio (y) = 0.10635 0.33070
# Poissons Ratio (z) = 0.21248 0.17834
#
# Static dielectric constant tensor:
#      x y z
#    x 3.638390 0.000000 0.031150 
#    y 0.000000 3.474090 0.000000 
#    z 0.031150 0.000000 3.546500 
# 
# 
# High freq. dielectric constant tensor:
#      x y z
#    x 1.777770 0.000000 0.012560 
#    y 0.000000 1.748470 0.000000 
#    z 0.012560 0.000000 1.793020 
# 
# From -- ./inp_files/18933.got.cif
#   From: 2010.06.25/outbox.cif.g09.slc.cpg/sg13_10_cif.got.tgz:18933.got - 2010.06.28 04:50:58.
