data_PCOD8119506
_publ_section_title
;
Structure prediction by ZEFSAII (Michael W. Deem and Ramdas Pophale) SiO2 
 PCOD8119506
Probable space group: P 2/C
;
_chemical_formula_sum "Si O2"
_cell_formula_units_Z 30
_cell_length_a 8.315085
_cell_length_b 6.740924
_cell_length_c 29.172209
_cell_angle_alpha 90.000000
_cell_angle_beta 113.664830
_cell_angle_gamma 90.000000
_cell_volume 1497.641402
_symmetry_space_group_name_H-M "P 2/C"
_symmetry_group_IT_number 13
_symmetry_cell_setting 'monoclinic'
loop_
_space_group_symop_operation_xyz
x,y,z
-x,y,1/2-z
-x,-y,-z
x,-y,1/2+z
loop_
_atom_site_type_symbol
_atom_site_label
_atom_site_fract_x
_atom_site_fract_y
_atom_site_fract_z
Si Si1 0.500000 0.487074 0.250000
Si Si2 0.637783 0.359023 0.395742
Si Si3 0.426801 0.296881 0.010657
Si Si4 0.728850 0.000314 0.072044
Si Si5 0.836458 0.250795 0.257363
Si Si6 0.647100 0.254678 0.845035
Si Si7 0.107446 0.094980 0.134788
Si Si8 0.637885 0.946962 0.661296
O O1 0.648420 0.362242 0.240006
O O2 0.382756 0.617220 0.203325
O O3 0.677969 0.327203 0.453872
O O4 0.646092 0.595620 0.388002
O O5 0.780506 0.249862 0.381221
O O6 0.447716 0.267052 0.361348
O O7 0.591910 0.155525 0.036543
O O8 0.500000 0.500000 0.000000
O O9 0.289714 0.202943 0.958840
O O10 0.703257 0.947572 0.122553
O O11 0.919096 0.098550 0.089148
O O12 0.000000 0.366548 0.250000
O O13 0.898374 0.166887 0.313211
O O14 0.794693 0.076006 0.215931
O O15 0.827873 0.133137 0.861206
O O16 0.499851 0.089832 0.830938
#
# Coordination Sequence:
#
# PCOD8119506 Si02
#       8
#     2   4   4   4   4   4   4   4
#     4  12  22  42  60  94 134 174 214 266 310 390
#     4  10  21  39  64  88 121 166 206 259 331 369
#     4  10  22  42  66  90 117 163 210 268 331 384
#     4  10  22  41  63  90 124 156 214 266 317 387
#     4  12  22  41  66  93 133 174 211 260 323 373
#     4  11  21  37  61  87 124 170 210 250 321 383
#     4  11  23  40  61  93 129 163 210 264 311 386
#     4  10  20  39  63  86 124 171 204 257 309 382
#
# _framework density 20.031499
#
# number of rings (size 3 to 8) (size 9 to 14) (size 15 to 20)
#    0.000    1.333    4.000    2.400    0.000    2.667 
#    2.400    1.333    0.000    0.000    0.000    0.000 
#    0.000    0.000    0.000    0.000    0.000    0.000 
#
# Total GULP energy -371858.773605 kJ/mol
# GULP energy per Si atom -12395.292453 kJ/mol
# Density = 1.998591 g / cm^3
# Si number density = 20.031499 Si / 1000 Ang^3
#
#
#
# Elastic Constant Matrix: (Units=GPa)
#
#
# Indices 1 2 3 4 5 6 
#
# 1 100.3222 13.7082 29.8084 0.0000 -9.9115 0.0000
# 2 13.7082 71.5434 19.1865 0.0000 -12.5507 0.0000
# 3 29.8084 19.1865 109.9210 0.0000 -17.1079 0.0000
# 4 0.0000 0.0000 0.0000 21.4408 0.0000 -2.4968
# 5 -9.9115 -12.5507 -17.1079 0.0000 36.0339 0.0000
# 6 0.0000 0.0000 0.0000 -2.4968 0.0000 17.9558
#
#
#
# Elastic Compliance Matrix: (Units=1/GPa)
#
#
# Indices 1 2 3 4 5 6 
#
# 1 0.011030 -0.001179 -0.002567 0.000000 0.001405 0.000000
# 2 -0.001179 0.015404 -0.001711 0.000000 0.004229 0.000000
# 3 -0.002567 -0.001711 0.010679 0.000000 0.003768 0.000000
# 4 0.000000 0.000000 0.000000 0.047408 0.000000 0.006592
# 5 0.001405 0.004229 0.003768 0.000000 0.031400 0.000000
# 6 0.000000 0.000000 0.000000 0.006592 0.000000 0.056609
#
#
# Mechanical properties :
#
#
# Convention : Reuss Voigt Hill
#
# Bulk Modulus (GPa) = 38.16780 45.24365 41.70573
# Shear Modulus (GPa) = 26.01784 29.69168 27.85476
#
# Velocity S-wave (km/s) = 3.60786 3.85418 3.73305
# Velocity P-wave (km/s) = 6.03745 6.51472 6.28062
#
# Compressibility (1/GPa) = 0.02620010
#
# Stress axis : x y z
#
# Youngs Moduli (GPa) = 90.65852 64.91800 93.64525
#
# Poissons Ratio (x) = 0.07652 0.24037
# Poissons Ratio (y) = 0.10686 0.16022
# Poissons Ratio (z) = 0.23271 0.11107
#
# Static dielectric constant tensor:
#      x y z
#    x 3.777420 0.000000 -0.087130 
#    y 0.000000 3.686620 0.000000 
#    z -0.087130 0.000000 3.936130 
# 
# 
# High freq. dielectric constant tensor:
#      x y z
#    x 1.783170 0.000000 -0.011480 
#    y 0.000000 1.769780 0.000000 
#    z -0.011480 0.000000 1.792770 
# 
# From -- ./inp_files/95627.got.cif
#   From: 2010.06.25/outbox.cif.g09.slc.cpg/sg13_48_cif.got.tgz:95627.got - 2010.06.28 04:50:58.
