data_PCOD8119058
_publ_section_title
;
Structure prediction by ZEFSAII (Michael W. Deem and Ramdas Pophale) SiO2 
 PCOD8119058
Probable space group: P 2/C
;
_chemical_formula_sum "Si O2"
_cell_formula_units_Z 28
_cell_length_a 9.611669
_cell_length_b 8.356468
_cell_length_c 29.504153
_cell_angle_alpha 90.000000
_cell_angle_beta 35.373805
_cell_angle_gamma 90.000000
_cell_volume 1371.875174
_symmetry_space_group_name_H-M "P 2/C"
_symmetry_group_IT_number 13
_symmetry_cell_setting 'monoclinic'
loop_
_space_group_symop_operation_xyz
x,y,z
-x,y,1/2-z
-x,-y,-z
x,-y,1/2+z
loop_
_atom_site_type_symbol
_atom_site_label
_atom_site_fract_x
_atom_site_fract_y
_atom_site_fract_z
Si Si1 0.000000 0.981709 0.250000
Si Si2 0.542081 0.322877 0.800115
Si Si3 0.281394 0.614799 0.900265
Si Si4 0.305456 0.290175 0.638748
Si Si5 0.500000 0.958990 0.250000
Si Si6 0.992444 0.508780 0.156693
Si Si7 0.267963 0.810414 0.749549
Si Si8 0.212457 0.429167 0.005652
O O1 0.834524 0.878179 0.329023
O O2 0.825704 0.090722 0.267551
O O3 0.329728 0.451361 0.859343
O O4 0.678019 0.314385 0.811804
O O5 0.432421 0.155727 0.810769
O O6 0.754891 0.383364 0.709869
O O7 0.469357 0.749600 0.835846
O O8 0.013973 0.665720 0.955990
O O9 0.294793 0.574470 0.950358
O O10 0.574220 0.297236 0.546440
O O11 0.149419 0.428990 0.657015
O O12 0.711887 0.075425 0.211433
O O13 0.912701 0.329976 0.190117
O O14 0.158605 0.507376 0.068297
#
# Coordination Sequence:
#
# PCOD8119058 Si02
#       8
#     2   4   4   4   2   4   4   4
#     4  12  24  42  62  94 126 176 212 258 330 396
#     4  10  20  36  67  87 123 171 219 265 316 388
#     4   9  21  41  62  93 125 169 219 262 324 385
#     4  11  21  41  62  92 124 176 212 258 328 398
#     4  12  20  38  60 102 128 160 212 276 318 372
#     4  11  21  39  66  98 121 167 225 275 308 378
#     4  11  25  38  70  96 132 165 222 273 316 374
#     4  10  21  37  65  93 126 162 217 271 321 379
#
# _framework density 20.410021
#
# number of rings (size 3 to 8) (size 9 to 14) (size 15 to 20)
#    0.000    1.429    2.857    2.143    6.000    2.286 
#    0.000    1.429    9.429    0.000    0.000    0.000 
#    0.000    0.000    0.000    0.000    0.000    0.000 
#
# Total GULP energy -347030.736510 kJ/mol
# GULP energy per Si atom -12393.954875 kJ/mol
# Density = 2.036357 g / cm^3
# Si number density = 20.410021 Si / 1000 Ang^3
#
#
#
# Elastic Constant Matrix: (Units=GPa)
#
#
# Indices 1 2 3 4 5 6 
#
# 1 102.1808 63.0898 40.4189 0.0000 3.8080 0.0000
# 2 63.0898 127.1932 46.5699 0.0000 -6.3495 0.0000
# 3 40.4189 46.5699 120.5802 0.0000 -2.0200 0.0000
# 4 0.0000 0.0000 0.0000 -21.0397 0.0000 -17.7581
# 5 3.8080 -6.3495 -2.0200 0.0000 41.6038 0.0000
# 6 0.0000 0.0000 0.0000 -17.7581 0.0000 34.3571
#
#
#
# Elastic Compliance Matrix: (Units=1/GPa)
#
#
# Indices 1 2 3 4 5 6 
#
# 1 0.014962 -0.006633 -0.002496 0.000000 -0.002503 0.000000
# 2 -0.006633 0.012160 -0.002434 0.000000 0.002345 0.000000
# 3 -0.002496 -0.002434 0.010076 0.000000 0.000346 0.000000
# 4 0.000000 0.000000 0.000000 -0.033092 0.000000 -0.017104
# 5 -0.002503 0.002345 0.000346 0.000000 0.024640 0.000000
# 6 0.000000 0.000000 0.000000 -0.017104 0.000000 0.020265
#
#
# Mechanical properties :
#
#
# Convention : Reuss Voigt Hill
#
# Bulk Modulus (GPa) = 71.05534 72.23460 71.64497
# Shear Modulus (GPa) = 65.08160 24.30927 44.69544
#
# Velocity S-wave (km/s) = 5.65299 3.45490 4.68469
# Velocity P-wave (km/s) = 8.80329 7.16824 8.02750
#
# Compressibility (1/GPa) = 0.01407354
#
# Stress axis : x y z
#
# Youngs Moduli (GPa) = 66.83456 82.23576 99.24980
#
# Poissons Ratio (x) = 0.54545 0.24770
# Poissons Ratio (y) = 0.44330 0.24156
# Poissons Ratio (z) = 0.16680 0.20015
#
# Static dielectric constant tensor:
#      x y z
#    x 3.757970 0.000000 -0.111650 
#    y 0.000000 3.688250 0.000000 
#    z -0.111650 0.000000 3.786790 
# 
# 
# High freq. dielectric constant tensor:
#      x y z
#    x 1.820700 0.000000 -0.005560 
#    y 0.000000 1.777010 0.000000 
#    z -0.005560 0.000000 1.786530 
# 
# From -- ./inp_files/95944.got.cif
#   From: 2010.06.25/outbox.cif.g09.slc.cpg/sg13_48_cif.got.tgz:95944.got - 2010.06.28 04:50:58.
