data_PCOD8119777
_publ_section_title
;
Structure prediction by ZEFSAII (Michael W. Deem and Ramdas Pophale) SiO2 
 PCOD8119777
Probable space group: P 2/C
;
_chemical_formula_sum "Si O2"
_cell_formula_units_Z 26
_cell_length_a 10.941644
_cell_length_b 8.413313
_cell_length_c 23.847385
_cell_angle_alpha 90.000000
_cell_angle_beta 145.944421
_cell_angle_gamma 90.000000
_cell_volume 1229.351184
_symmetry_space_group_name_H-M "P 2/C"
_symmetry_group_IT_number 13
_symmetry_cell_setting 'monoclinic'
loop_
_space_group_symop_operation_xyz
x,y,z
-x,y,1/2-z
-x,-y,-z
x,-y,1/2+z
loop_
_atom_site_type_symbol
_atom_site_label
_atom_site_fract_x
_atom_site_fract_y
_atom_site_fract_z
Si Si1 0.305810 0.087047 0.990051
Si Si2 0.425231 0.355482 0.110474
Si Si3 0.842437 0.475380 0.739222
Si Si4 0.856052 0.397037 0.050712
Si Si5 0.043644 0.922509 0.577791
Si Si6 0.500000 0.799047 0.750000
Si Si7 0.434833 0.224297 0.925162
O O1 0.353362 0.184269 0.063168
O O2 0.495072 0.954305 0.062989
O O3 0.311371 0.205877 0.938386
O O4 0.065598 0.015241 0.910968
O O5 0.645827 0.401399 0.162441
O O6 0.460964 0.333354 0.188846
O O7 0.237267 0.484221 0.030848
O O8 0.737947 0.299154 0.685708
O O9 0.000000 0.529206 0.750000
O O10 0.973208 0.498958 0.847249
O O11 0.961318 0.259330 0.052614
O O12 0.655417 0.330875 0.013246
O O13 0.301450 0.919593 0.686093
O O14 0.000000 0.000000 0.500000
#
# Coordination Sequence:
#
# PCOD8119777 Si02
#       7
#     4   4   4   4   4   2   4
#     4  10  20  42  66  93 132 175 214 281 333 398
#     4  11  23  42  67  93 131 171 223 277 335 398
#     4  11  21  39  63  99 135 173 217 270 337 408
#     4  10  22  42  68  96 134 174 220 276 340 398
#     4  11  23  45  68  94 131 178 226 278 335 393
#     4  12  24  46  66  92 128 172 222 276 334 384
#     4   9  21  40  65  96 133 169 220 268 337 410
#
# _framework density 21.149367000000002
#
# number of rings (size 3 to 8) (size 9 to 14) (size 15 to 20)
#    0.000    1.538    3.077    1.846    0.000    3.077 
#    5.538    0.769    0.000    0.000    0.000    0.000 
#    0.000    0.000    0.000    0.000    0.000    0.000 
#
# Total GULP energy -322118.011489 kJ/mol
# GULP energy per Si atom -12389.154288 kJ/mol
# Density = 2.110123 g / cm^3
# Si number density = 21.149367 Si / 1000 Ang^3
#
#
#
# Elastic Constant Matrix: (Units=GPa)
#
#
# Indices 1 2 3 4 5 6 
#
# 1 108.4592 48.8040 58.4731 0.0000 5.5593 0.0000
# 2 48.8040 109.0398 70.7581 0.0000 -9.7332 0.0000
# 3 58.4731 70.7581 140.2059 0.0000 4.3694 0.0000
# 4 0.0000 0.0000 0.0000 23.2837 0.0000 -14.3733
# 5 5.5593 -9.7332 4.3694 0.0000 40.0566 0.0000
# 6 0.0000 0.0000 0.0000 -14.3733 0.0000 33.0188
#
#
#
# Elastic Compliance Matrix: (Units=1/GPa)
#
#
# Indices 1 2 3 4 5 6 
#
# 1 0.012862 -0.003763 -0.003392 0.000000 -0.002329 0.000000
# 2 -0.003763 0.015436 -0.006375 0.000000 0.004968 0.000000
# 3 -0.003392 -0.006375 0.011838 0.000000 -0.002370 0.000000
# 4 0.000000 0.000000 0.000000 0.058731 0.000000 0.025566
# 5 -0.002329 0.004968 -0.002370 0.000000 0.026754 0.000000
# 6 0.000000 0.000000 0.000000 0.025566 0.000000 0.041415
#
#
# Mechanical properties :
#
#
# Convention : Reuss Voigt Hill
#
# Bulk Modulus (GPa) = 76.48623 79.30836 77.89729
# Shear Modulus (GPa) = 25.19460 31.24979 28.22220
#
# Velocity S-wave (km/s) = 3.45522 3.84810 3.65694
# Velocity P-wave (km/s) = 7.22228 7.57128 7.39884
#
# Compressibility (1/GPa) = 0.01307425
#
# Stress axis : x y z
#
# Youngs Moduli (GPa) = 77.75058 64.78357 84.47063
#
# Poissons Ratio (x) = 0.24380 0.28653
# Poissons Ratio (y) = 0.29260 0.53854
# Poissons Ratio (z) = 0.26374 0.41303
#
# Static dielectric constant tensor:
#      x y z
#    x 3.979540 0.000000 0.231270 
#    y 0.000000 3.882110 0.000000 
#    z 0.231270 0.000000 3.928840 
# 
# 
# High freq. dielectric constant tensor:
#      x y z
#    x 1.835910 0.000000 0.016080 
#    y 0.000000 1.831010 0.000000 
#    z 0.016080 0.000000 1.823830 
# 
# From -- ./inp_files/92268.got.cif
#   From: 2010.06.25/outbox.cif.g09.slc.cpg/sg13_47_cif.got.tgz:92268.got - 2010.06.28 04:50:58.
