data_PCOD8119465
_publ_section_title
;
Structure prediction by ZEFSAII (Michael W. Deem and Ramdas Pophale) SiO2 
 PCOD8119465
Probable space group: P 2/C
;
_chemical_formula_sum "Si O2"
_cell_formula_units_Z 30
_cell_length_a 12.315983
_cell_length_b 10.498894
_cell_length_c 12.816575
_cell_angle_alpha 90.000000
_cell_angle_beta 63.935234
_cell_angle_gamma 90.000000
_cell_volume 1488.692573
_symmetry_space_group_name_H-M "P 2/C"
_symmetry_group_IT_number 13
_symmetry_cell_setting 'monoclinic'
loop_
_space_group_symop_operation_xyz
x,y,z
-x,y,1/2-z
-x,-y,-z
x,-y,1/2+z
loop_
_atom_site_type_symbol
_atom_site_label
_atom_site_fract_x
_atom_site_fract_y
_atom_site_fract_z
Si Si1 0.702206 0.447560 0.434879
Si Si2 0.947954 0.190177 0.631337
Si Si3 0.177779 0.807356 0.533493
Si Si4 0.000000 0.960314 0.750000
Si Si5 0.512960 0.439206 0.360557
Si Si6 0.564584 0.905308 0.115211
Si Si7 0.815641 0.715831 0.377313
Si Si8 0.432717 0.822595 0.974442
O O1 0.780641 0.329621 0.441461
O O2 0.655448 0.440026 0.334314
O O3 0.571200 0.457252 0.545628
O O4 0.781933 0.571955 0.419472
O O5 0.912486 0.201876 0.526073
O O6 0.861905 0.278768 0.738541
O O7 0.084223 0.241266 0.581916
O O8 0.943987 0.046678 0.680416
O O9 0.291494 0.886652 0.442588
O O10 0.108670 0.875059 0.658148
O O11 0.500000 0.487038 0.250000
O O12 0.463051 0.296553 0.389945
O O13 0.500000 0.865766 0.250000
O O14 0.512537 0.816643 0.045568
O O15 0.535899 0.052253 0.104342
O O16 0.707008 0.816257 0.433981
#
# Coordination Sequence:
#
# PCOD8119465 Si02
#       8
#     4   4   4   2   4   4   4   4
#     4  10  23  39  61  95 123 162 207 267 302 385
#     4  10  22  42  67  88 119 175 208 258 316 367
#     4  12  24  42  63  97 127 165 217 255 317 376
#     4  10  24  44  62  90 132 166 210 268 304 376
#     4  10  21  41  61  87 130 165 202 247 330 377
#     4  11  22  35  61  93 126 161 206 262 312 372
#     4   9  20  41  62  86 125 163 211 255 311 373
#     4  10  20  39  57  90 125 160 206 256 315 379
#
# _framework density 20.151911999999999
#
# number of rings (size 3 to 8) (size 9 to 14) (size 15 to 20)
#    0.000    1.867    1.333    3.200    1.867    3.200 
#    7.200    0.000    0.000    0.000    0.000    0.000 
#    0.000    0.000    0.000    0.000    0.000    0.000 
#
# Total GULP energy -371958.997296 kJ/mol
# GULP energy per Si atom -12398.633243 kJ/mol
# Density = 2.010604 g / cm^3
# Si number density = 20.151912 Si / 1000 Ang^3
#
#
#
# Elastic Constant Matrix: (Units=GPa)
#
#
# Indices 1 2 3 4 5 6 
#
# 1 134.4196 37.5010 48.4560 0.0000 9.3608 0.0000
# 2 37.5010 101.1382 30.6283 0.0000 2.8930 0.0000
# 3 48.4560 30.6283 80.0549 0.0000 4.7635 0.0000
# 4 0.0000 0.0000 0.0000 19.0010 0.0000 -2.2684
# 5 9.3608 2.8930 4.7635 0.0000 41.0057 0.0000
# 6 0.0000 0.0000 0.0000 -2.2684 0.0000 31.4485
#
#
#
# Elastic Compliance Matrix: (Units=1/GPa)
#
#
# Indices 1 2 3 4 5 6 
#
# 1 0.009989 -0.002100 -0.005152 0.000000 -0.001534 0.000000
# 2 -0.002100 0.011628 -0.003179 0.000000 0.000028 0.000000
# 3 -0.005152 -0.003179 0.016859 0.000000 -0.000558 0.000000
# 4 0.000000 0.000000 0.000000 0.053086 0.000000 0.003829
# 5 -0.001534 0.000028 -0.000558 0.000000 0.024800 0.000000
# 6 0.000000 0.000000 0.000000 0.003829 0.000000 0.032074
#
#
# Mechanical properties :
#
#
# Convention : Reuss Voigt Hill
#
# Bulk Modulus (GPa) = 56.77117 60.97591 58.87354
# Shear Modulus (GPa) = 28.54372 31.55953 30.05163
#
# Velocity S-wave (km/s) = 3.76763 3.96167 3.86587
# Velocity P-wave (km/s) = 6.86727 7.15893 7.01462
#
# Compressibility (1/GPa) = 0.01761457
#
# Stress axis : x y z
#
# Youngs Moduli (GPa) = 100.10922 85.99834 59.31469
#
# Poissons Ratio (x) = 0.18059 0.30556
# Poissons Ratio (y) = 0.21022 0.18859
# Poissons Ratio (z) = 0.51572 0.27343
#
# Static dielectric constant tensor:
#      x y z
#    x 3.775700 0.000000 -0.026420 
#    y 0.000000 3.554770 0.000000 
#    z -0.026420 0.000000 3.532850 
# 
# 
# High freq. dielectric constant tensor:
#      x y z
#    x 1.795250 0.000000 0.000440 
#    y 0.000000 1.791980 0.000000 
#    z 0.000440 0.000000 1.775050 
# 
# From -- ./inp_files/33812.got.cif
#   From: 2010.06.25/outbox.cif.g09.slc.cpg/sg13_17_cif.got.tgz:33812.got - 2010.06.28 04:50:58.
