data_PCOD8119968
_publ_section_title
;
Structure prediction by ZEFSAII (Michael W. Deem and Ramdas Pophale) SiO2 
 PCOD8119968
Probable space group: P 2/C
;
_chemical_formula_sum "Si O2"
_cell_formula_units_Z 26
_cell_length_a 10.939081
_cell_length_b 13.760236
_cell_length_c 8.966708
_cell_angle_alpha 90.000000
_cell_angle_beta 63.855239
_cell_angle_gamma 90.000000
_cell_volume 1211.610542
_symmetry_space_group_name_H-M "P 2/C"
_symmetry_group_IT_number 13
_symmetry_cell_setting 'monoclinic'
loop_
_space_group_symop_operation_xyz
x,y,z
-x,y,1/2-z
-x,-y,-z
x,-y,1/2+z
loop_
_atom_site_type_symbol
_atom_site_label
_atom_site_fract_x
_atom_site_fract_y
_atom_site_fract_z
Si Si1 0.646358 0.398220 0.479990
Si Si2 0.000000 0.125085 0.250000
Si Si3 0.588173 0.807074 0.930795
Si Si4 0.793996 0.085277 0.122597
Si Si5 0.236731 0.129816 0.928101
Si Si6 0.673417 0.413837 0.801925
Si Si7 0.272268 0.784947 0.097124
O O1 0.656161 0.300055 0.376160
O O2 0.717734 0.396031 0.605761
O O3 0.487993 0.413975 0.596116
O O4 0.719588 0.481782 0.342051
O O5 0.924530 0.065911 0.158212
O O6 0.879649 0.182056 0.403517
O O7 0.661014 0.886973 0.789569
O O8 0.616466 0.834748 0.089509
O O9 0.429611 0.810109 0.979444
O O10 0.770529 0.986338 0.044978
O O11 0.816616 0.174625 0.993242
O O12 0.217177 0.157720 0.769042
O O13 0.742744 0.330284 0.867131
#
# Coordination Sequence:
#
# PCOD8119968 Si02
#       7
#     4   2   4   4   4   4   4
#     4   9  17  32  50  78 118 158 186 222 272 324
#     4  10  24  44  58  78 108 148 200 266 284 306
#     4  10  21  36  54  86 131 155 176 233 285 349
#     4  11  24  37  58  84 112 156 195 236 286 337
#     4  11  22  39  60  82 113 154 193 238 289 334
#     4   9  18  30  52  80 115 155 190 223 267 335
#     4  11  21  35  57  90 122 151 193 224 284 360
#
# _framework density 21.459040999999999
#
# number of rings (size 3 to 8) (size 9 to 14) (size 15 to 20)
#    0.000    1.846    1.538    3.231    2.154    4.308 
#    0.000    0.000    0.000    0.000    0.000   17.231 
#    0.000    0.000    0.000    0.000    0.000    0.000 
#
# Total GULP energy -322095.481739 kJ/mol
# GULP energy per Si atom -12388.287759 kJ/mol
# Density = 2.141020 g / cm^3
# Si number density = 21.459041 Si / 1000 Ang^3
#
#
#
# Elastic Constant Matrix: (Units=GPa)
#
#
# Indices 1 2 3 4 5 6 
#
# 1 67.8144 38.8143 11.6414 0.0000 23.7750 0.0000
# 2 38.8143 106.9365 19.9301 0.0000 6.9342 0.0000
# 3 11.6414 19.9301 73.0627 0.0000 12.4677 0.0000
# 4 0.0000 0.0000 0.0000 26.5745 0.0000 13.8151
# 5 23.7750 6.9342 12.4677 0.0000 28.5249 0.0000
# 6 0.0000 0.0000 0.0000 13.8151 0.0000 15.0977
#
#
#
# Elastic Compliance Matrix: (Units=1/GPa)
#
#
# Indices 1 2 3 4 5 6 
#
# 1 0.026755 -0.008666 0.001671 0.000000 -0.020923 0.000000
# 2 -0.008666 0.012705 -0.003015 0.000000 0.005452 0.000000
# 3 0.001671 -0.003015 0.015513 0.000000 -0.007440 0.000000
# 4 0.000000 0.000000 0.000000 0.071772 0.000000 -0.065675
# 5 -0.020923 0.005452 -0.007440 0.000000 0.054423 0.000000
# 6 0.000000 0.000000 0.000000 -0.065675 0.000000 0.126331
#
#
# Mechanical properties :
#
#
# Convention : Reuss Voigt Hill
#
# Bulk Modulus (GPa) = 28.60975 43.17612 35.89293
# Shear Modulus (GPa) = 14.74187 25.86793 20.30490
#
# Velocity S-wave (km/s) = 2.62387 3.47573 3.07940
# Velocity P-wave (km/s) = 4.74771 6.02259 5.42275
#
# Compressibility (1/GPa) = 0.03495312
#
# Stress axis : x y z
#
# Youngs Moduli (GPa) = 37.37663 78.70815 64.46309
#
# Poissons Ratio (x) = 0.68207 -0.10774
# Poissons Ratio (y) = 0.32390 0.19438
# Poissons Ratio (z) = -0.06247 0.23733
#
# Static dielectric constant tensor:
#      x y z
#    x 3.763990 0.000000 0.292940 
#    y 0.000000 3.965070 0.000000 
#    z 0.292940 0.000000 3.910540 
# 
# 
# High freq. dielectric constant tensor:
#      x y z
#    x 1.810110 0.000000 0.029710 
#    y 0.000000 1.831270 0.000000 
#    z 0.029710 0.000000 1.843000 
# 
# From -- ./inp_files/16417.got.cif
#   From: 2010.06.25/outbox.cif.g09.slc.cpg/sg13_9_cif.got.tgz:16417.got - 2010.06.28 04:50:58.
