data_PCOD8119111
_publ_section_title
;
Structure prediction by ZEFSAII (Michael W. Deem and Ramdas Pophale) SiO2 
 PCOD8119111
Probable space group: P 2/C
;
_chemical_formula_sum "Si O2"
_cell_formula_units_Z 28
_cell_length_a 9.087709
_cell_length_b 19.448503
_cell_length_c 15.889421
_cell_angle_alpha 90.000000
_cell_angle_beta 29.046088
_cell_angle_gamma 90.000000
_cell_volume 1363.482355
_symmetry_space_group_name_H-M "P 2/C"
_symmetry_group_IT_number 13
_symmetry_cell_setting 'monoclinic'
loop_
_space_group_symop_operation_xyz
x,y,z
-x,y,1/2-z
-x,-y,-z
x,-y,1/2+z
loop_
_atom_site_type_symbol
_atom_site_label
_atom_site_fract_x
_atom_site_fract_y
_atom_site_fract_z
Si Si1 0.659832 0.300984 0.515634
Si Si2 0.639237 0.074776 0.430382
Si Si3 0.357948 0.842775 0.407867
Si Si4 0.356821 0.431026 0.730822
Si Si5 0.643181 0.568975 0.587641
Si Si6 0.357952 0.842775 0.734182
Si Si7 0.659826 0.699017 0.824538
O O1 0.546496 0.237041 0.628227
O O2 0.434028 0.365156 0.636058
O O3 0.660480 0.274718 0.419760
O O4 0.000003 0.323512 0.372491
O O5 0.520558 0.113377 0.573686
O O6 0.520554 0.113376 0.405759
O O7 0.000000 0.071062 0.250000
O O8 0.500000 0.000000 0.500000
O O9 0.500000 0.870784 0.250000
O O10 0.999998 0.849589 0.580956
O O11 0.500000 0.418411 0.750000
O O12 0.500000 0.500001 0.618294
O O13 0.000001 0.440675 0.916167
O O14 0.500000 0.581593 0.750000
O O15 0.565978 0.634844 0.570081
O O16 0.500000 0.870783 0.750000
O O17 0.453508 0.762959 0.674720
#
# Coordination Sequence:
#
# PCOD8119111 Si02
#       7
#     4   4   4   4   4   4   4
#     4  10  20  37  60  84 115 155 196 245 302 358
#     4  10  22  42  64  90 125 162 199 242 297 356
#     4  10  21  39  63  90 122 161 202 246 298 358
#     4  11  22  37  56  80 112 151 197 249 301 359
#     4  11  22  37  56  80 112 151 197 249 301 359
#     4  10  21  39  63  90 122 161 202 246 298 358
#     4  10  20  37  60  84 115 155 196 245 302 358
#
# _framework density 20.535654000000001
#
# number of rings (size 3 to 8) (size 9 to 14) (size 15 to 20)
#    0.000    1.714    1.429    4.286    0.000    6.286 
#    0.000    2.857    0.000    0.000    0.000    0.000 
#    0.000    0.000    0.000    0.000    0.000    0.000 
#
# Total GULP energy -347242.961095 kJ/mol
# GULP energy per Si atom -12401.534325 kJ/mol
# Density = 2.048891 g / cm^3
# Si number density = 20.535654 Si / 1000 Ang^3
#
#
#
# Elastic Constant Matrix: (Units=GPa)
#
#
# Indices 1 2 3 4 5 6 
#
# 1 113.4709 58.3248 40.8954 0.0000 11.8768 0.0000
# 2 58.3248 132.3608 51.5000 0.0000 6.9627 0.0000
# 3 40.8954 51.5000 97.1851 0.0000 4.7358 0.0000
# 4 0.0000 0.0000 0.0000 33.1627 0.0000 -2.4995
# 5 11.8768 6.9627 4.7358 0.0000 37.7500 0.0000
# 6 0.0000 0.0000 0.0000 -2.4995 0.0000 30.7127
#
#
#
# Elastic Compliance Matrix: (Units=1/GPa)
#
#
# Indices 1 2 3 4 5 6 
#
# 1 0.012252 -0.004158 -0.002819 0.000000 -0.002734 0.000000
# 2 -0.004158 0.010977 -0.004057 0.000000 -0.000207 0.000000
# 3 -0.002819 -0.004057 0.013629 0.000000 -0.000075 0.000000
# 4 0.000000 0.000000 0.000000 0.030340 0.000000 0.002469
# 5 -0.002734 -0.000207 -0.000075 0.000000 0.027398 0.000000
# 6 0.000000 0.000000 0.000000 0.002469 0.000000 0.032761
#
#
# Mechanical properties :
#
#
# Convention : Reuss Voigt Hill
#
# Bulk Modulus (GPa) = 67.61259 71.60634 69.60947
# Shear Modulus (GPa) = 32.39259 33.14485 32.76872
#
# Velocity S-wave (km/s) = 3.97594 4.02184 3.99895
# Velocity P-wave (km/s) = 7.35346 7.51744 7.43590
#
# Compressibility (1/GPa) = 0.01479015
#
# Stress axis : x y z
#
# Youngs Moduli (GPa) = 81.61654 91.10045 73.37124
#
# Poissons Ratio (x) = 0.37883 0.20683
# Poissons Ratio (y) = 0.33939 0.29766
# Poissons Ratio (z) = 0.23008 0.36959
#
# Static dielectric constant tensor:
#      x y z
#    x 3.756430 0.000000 0.129640 
#    y 0.000000 3.753890 0.000000 
#    z 0.129640 0.000000 3.629300 
# 
# 
# High freq. dielectric constant tensor:
#      x y z
#    x 1.800410 0.000000 0.006590 
#    y 0.000000 1.805520 0.000000 
#    z 0.006590 0.000000 1.793940 
# 
# From -- ./inp_files/48211.got.cif
#   From: 2010.06.25/outbox.cif.g09.slc.cpg/sg13_25_cif.got.tgz:48211.got - 2010.06.28 04:50:58.
