data_PCOD8119286
_publ_section_title
;
Structure prediction by ZEFSAII (Michael W. Deem and Ramdas Pophale) SiO2 
 PCOD8119286
Probable space group: P 2/C
;
_chemical_formula_sum "Si O2"
_cell_formula_units_Z 28
_cell_length_a 13.001478
_cell_length_b 13.961461
_cell_length_c 8.599107
_cell_angle_alpha 90.000000
_cell_angle_beta 118.598159
_cell_angle_gamma 90.000000
_cell_volume 1370.473520
_symmetry_space_group_name_H-M "P 2/C"
_symmetry_group_IT_number 13
_symmetry_cell_setting 'monoclinic'
loop_
_space_group_symop_operation_xyz
x,y,z
-x,y,1/2-z
-x,-y,-z
x,-y,1/2+z
loop_
_atom_site_type_symbol
_atom_site_label
_atom_site_fract_x
_atom_site_fract_y
_atom_site_fract_z
Si Si1 0.801157 0.877507 0.827186
Si Si2 0.450157 0.375403 0.564659
Si Si3 0.878508 0.937423 0.569436
Si Si4 0.976777 0.213863 0.917119
Si Si5 0.628511 0.274501 0.279113
Si Si6 0.675608 0.438492 0.540357
Si Si7 0.927526 0.422981 0.850658
O O1 0.783863 0.905991 0.632732
O O2 0.687062 0.829716 0.821548
O O3 0.900205 0.795386 0.904804
O O4 0.838120 0.964424 0.963593
O O5 0.500000 0.318099 0.750000
O O6 0.373336 0.307729 0.400832
O O7 0.566415 0.411610 0.565692
O O8 0.365694 0.461357 0.566546
O O9 0.888586 0.863194 0.432597
O O10 0.000000 0.953421 0.750000
O O11 0.923752 0.317462 0.924211
O O12 0.000000 0.195335 0.750000
O O13 0.500000 0.259672 0.250000
O O14 0.697896 0.355365 0.428461
O O15 0.794523 0.456708 0.723537
O O16 0.000000 0.407193 0.750000
O O17 0.000000 0.500000 0.000000
#
# Coordination Sequence:
#
# PCOD8119286 Si02
#       7
#     4   4   4   4   4   4   4
#     4  11  21  37  64  87 121 157 203 264 308 372
#     4  10  21  37  64  86 110 160 217 263 296 360
#     4  10  21  37  61  92 118 160 208 249 305 380
#     4  10  20  38  60  88 123 167 203 245 303 374
#     4  10  22  40  62  90 118 159 212 265 321 367
#     4  10  21  38  60  84 121 164 211 254 299 369
#     4  11  26  38  55  89 132 172 199 248 314 370
#
# _framework density 20.430893000000001
#
# number of rings (size 3 to 8) (size 9 to 14) (size 15 to 20)
#    0.000    1.714    0.000    6.857    6.000    2.857 
#    0.000    2.143    0.000    0.000    0.000    0.000 
#    0.000    0.000    0.000    0.000    0.000    0.000 
#
# Total GULP energy -346974.782427 kJ/mol
# GULP energy per Si atom -12391.956515 kJ/mol
# Density = 2.038439 g / cm^3
# Si number density = 20.430893 Si / 1000 Ang^3
#
#
#
# Elastic Constant Matrix: (Units=GPa)
#
#
# Indices 1 2 3 4 5 6 
#
# 1 56.8244 49.2783 30.7490 0.0000 1.9606 0.0000
# 2 49.2783 134.0935 67.8923 0.0000 -3.7467 0.0000
# 3 30.7490 67.8923 121.2817 0.0000 -5.0987 0.0000
# 4 0.0000 0.0000 0.0000 20.6716 0.0000 2.1178
# 5 1.9606 -3.7467 -5.0987 0.0000 36.7302 0.0000
# 6 0.0000 0.0000 0.0000 2.1178 0.0000 38.5036
#
#
#
# Elastic Compliance Matrix: (Units=1/GPa)
#
#
# Indices 1 2 3 4 5 6 
#
# 1 0.026328 -0.008810 -0.001851 0.000000 -0.002561 0.000000
# 2 -0.008810 0.013357 -0.005197 0.000000 0.001111 0.000000
# 3 -0.001851 -0.005197 0.011674 0.000000 0.001189 0.000000
# 4 0.000000 0.000000 0.000000 0.048650 0.000000 -0.002676
# 5 -0.002561 0.001111 0.001189 0.000000 0.027641 0.000000
# 6 0.000000 0.000000 0.000000 -0.002676 0.000000 0.026119
#
#
# Mechanical properties :
#
#
# Convention : Reuss Voigt Hill
#
# Bulk Modulus (GPa) = 50.90758 67.55987 59.23373
# Shear Modulus (GPa) = 26.03742 30.13310 28.08526
#
# Velocity S-wave (km/s) = 3.57377 3.84458 3.71165
# Velocity P-wave (km/s) = 6.48075 7.26960 6.88648
#
# Compressibility (1/GPa) = 0.01964344
#
# Stress axis : x y z
#
# Youngs Moduli (GPa) = 37.98261 74.86559 85.66176
#
# Poissons Ratio (x) = 0.65954 0.15857
# Poissons Ratio (y) = 0.33461 0.44519
# Poissons Ratio (z) = 0.07031 0.38908
#
# Static dielectric constant tensor:
#      x y z
#    x 3.683350 0.000000 -0.149700 
#    y 0.000000 4.686520 0.000000 
#    z -0.149700 0.000000 3.831440 
# 
# 
# High freq. dielectric constant tensor:
#      x y z
#    x 1.788240 0.000000 -0.013010 
#    y 0.000000 1.789950 0.000000 
#    z -0.013010 0.000000 1.800730 
# 
# From -- ./inp_files/16850.got.cif
#   From: 2010.06.25/outbox.cif.g09.slc.cpg/sg13_9_cif.got.tgz:16850.got - 2010.06.28 04:50:58.
