data_PCOD8119001
_publ_section_title
;
Structure prediction by ZEFSAII (Michael W. Deem and Ramdas Pophale) SiO2 
 PCOD8119001
Probable space group: P 2/C
;
_chemical_formula_sum "Si O2"
_cell_formula_units_Z 28
_cell_length_a 8.724749
_cell_length_b 8.322784
_cell_length_c 28.939283
_cell_angle_alpha 90.000000
_cell_angle_beta 137.625809
_cell_angle_gamma 90.000000
_cell_volume 1416.281857
_symmetry_space_group_name_H-M "P 2/C"
_symmetry_group_IT_number 13
_symmetry_cell_setting 'monoclinic'
loop_
_space_group_symop_operation_xyz
x,y,z
-x,y,1/2-z
-x,-y,-z
x,-y,1/2+z
loop_
_atom_site_type_symbol
_atom_site_label
_atom_site_fract_x
_atom_site_fract_y
_atom_site_fract_z
Si Si1 0.386710 0.439513 0.651374
Si Si2 0.500000 0.799386 0.250000
Si Si3 0.700952 0.887259 0.061553
Si Si4 0.984983 0.160672 0.468465
Si Si5 0.138109 0.059992 0.158767
Si Si6 0.425491 0.353996 0.558152
Si Si7 0.864093 0.354133 0.524503
Si Si8 0.500000 0.697324 0.750000
O O1 0.526657 0.305350 0.710056
O O2 0.488713 0.425334 0.622451
O O3 0.441581 0.603619 0.690133
O O4 0.114659 0.417647 0.592173
O O5 0.271153 0.895396 0.191857
O O6 0.638069 0.738250 0.081628
O O7 0.812166 0.805598 0.041585
O O8 0.888481 0.014224 0.123605
O O9 0.500000 0.000000 0.000000
O O10 0.862453 0.127242 0.393369
O O11 0.854283 0.302224 0.467939
O O12 0.242646 0.213595 0.518830
O O13 0.000000 0.000000 0.500000
O O14 0.281524 0.195714 0.217864
O O15 0.321375 0.505857 0.506360
#
# Coordination Sequence:
#
# PCOD8119001 Si02
#       8
#     4   2   4   4   4   4   4   2
#     4  10  20  39  61  90 112 156 212 250 300 343
#     4  10  20  36  62  80 116 160 200 248 280 354
#     4  12  23  38  58  91 128 159 189 246 320 381
#     4  11  18  35  61  92 123 151 200 258 296 353
#     4  11  20  37  58  92 119 156 204 244 310 352
#     4  11  22  36  59  91 123 157 195 251 313 360
#     4  11  21  37  61  90 124 156 200 257 308 355
#     4  10  22  36  66  90 114 156 216 270 280 358
#
# _framework density 19.770076
#
# number of rings (size 3 to 8) (size 9 to 14) (size 15 to 20)
#    0.000    1.143    4.286    4.714    0.000    0.000 
#    0.000    0.714    0.000    0.000    3.714    0.000 
#    0.000    0.000    0.000    0.000    0.000    0.000 
#
# Total GULP energy -346949.271600 kJ/mol
# GULP energy per Si atom -12391.045414 kJ/mol
# Density = 1.972508 g / cm^3
# Si number density = 19.770076 Si / 1000 Ang^3
#
#
#
# Elastic Constant Matrix: (Units=GPa)
#
#
# Indices 1 2 3 4 5 6 
#
# 1 85.6943 36.5906 41.5099 0.0000 9.0180 0.0000
# 2 36.5906 110.6120 44.3867 0.0000 10.4467 0.0000
# 3 41.5099 44.3867 95.2548 0.0000 4.8821 0.0000
# 4 0.0000 0.0000 0.0000 135.6634 0.0000 -3.2175
# 5 9.0180 10.4467 4.8821 0.0000 28.4648 0.0000
# 6 0.0000 0.0000 0.0000 -3.2175 0.0000 38.1759
#
#
#
# Elastic Compliance Matrix: (Units=1/GPa)
#
#
# Indices 1 2 3 4 5 6 
#
# 1 0.015806 -0.002753 -0.005448 0.000000 -0.003063 0.000000
# 2 -0.002753 0.011900 -0.004203 0.000000 -0.002774 0.000000
# 3 -0.005448 -0.004203 0.014793 0.000000 0.000731 0.000000
# 4 0.000000 0.000000 0.000000 0.007386 0.000000 0.000622
# 5 -0.003063 -0.002774 0.000731 0.000000 0.036994 0.000000
# 6 0.000000 0.000000 0.000000 0.000622 0.000000 0.026247
#
#
# Mechanical properties :
#
#
# Convention : Reuss Voigt Hill
#
# Bulk Modulus (GPa) = 56.52678 59.61505 58.07092
# Shear Modulus (GPa) = 34.76253 51.73240 43.24747
#
# Velocity S-wave (km/s) = 4.19781 5.12092 4.68217
# Velocity P-wave (km/s) = 7.22147 8.07371 7.65945
#
# Compressibility (1/GPa) = 0.01769073
#
# Stress axis : x y z
#
# Youngs Moduli (GPa) = 63.26562 84.03307 67.59750
#
# Poissons Ratio (x) = 0.23137 0.36828
# Poissons Ratio (y) = 0.17419 0.28412
# Poissons Ratio (z) = 0.34468 0.35321
#
# Static dielectric constant tensor:
#      x y z
#    x 3.511220 0.000000 -0.016750 
#    y 0.000000 3.894530 0.000000 
#    z -0.016750 0.000000 3.698650 
# 
# 
# High freq. dielectric constant tensor:
#      x y z
#    x 1.735490 0.000000 0.001210 
#    y 0.000000 1.800870 0.000000 
#    z 0.001210 0.000000 1.771200 
# 
# From -- ./inp_files/82165.got.cif
#   From: 2010.06.25/outbox.cif.g09.slc.cpg/sg13_42_cif.got.tgz:82165.got - 2010.06.28 04:50:58.
