data_PCOD8119903
_publ_section_title
;
Structure prediction by ZEFSAII (Michael W. Deem and Ramdas Pophale) SiO2 
 PCOD8119903
Probable space group: P 2/C
;
_chemical_formula_sum "Si O2"
_cell_formula_units_Z 28
_cell_length_a 8.575280
_cell_length_b 34.896838
_cell_length_c 5.124110
_cell_angle_alpha 90.000000
_cell_angle_beta 119.957157
_cell_angle_gamma 90.000000
_cell_volume 1328.528245
_symmetry_space_group_name_H-M "P 2/C"
_symmetry_group_IT_number 13
_symmetry_cell_setting 'monoclinic'
loop_
_space_group_symop_operation_xyz
x,y,z
-x,y,1/2-z
-x,-y,-z
x,-y,1/2+z
loop_
_atom_site_type_symbol
_atom_site_label
_atom_site_fract_x
_atom_site_fract_y
_atom_site_fract_z
Si Si1 0.207121 0.519123 0.378391
Si Si2 0.208682 0.976170 0.434335
Si Si3 0.783441 0.200519 0.071137
Si Si4 0.617324 0.321298 0.599166
Si Si5 0.791824 0.754854 0.085196
Si Si6 0.500000 0.085927 0.250000
Si Si7 0.619874 0.594811 0.104899
Si Si8 0.500000 0.137116 0.750000
O O1 0.298333 0.507967 0.731349
O O2 0.224823 0.563585 0.312042
O O3 0.000000 0.508767 0.250000
O O4 0.321893 0.939793 0.623332
O O5 0.000000 0.964293 0.250000
O O6 0.256441 0.009370 0.683963
O O7 0.716815 0.229357 0.247129
O O8 0.000000 0.193556 0.250000
O O9 0.710264 0.219683 0.746497
O O10 0.676654 0.160797 0.988492
O O11 0.500000 0.307604 0.750000
O O12 0.759534 0.289430 0.628950
O O13 0.707865 0.362907 0.734995
O O14 0.500000 0.328364 0.250000
O O15 0.000000 0.761569 0.250000
O O16 0.541085 0.111220 0.536527
O O17 0.500000 0.582511 0.250000
O O18 0.500000 0.595621 0.750000
#
# Coordination Sequence:
#
# PCOD8119903 Si02
#       8
#     4   4   4   4   4   2   4   2
#     4  10  21  36  54  77 104 141 186 223 266 325
#     4  10  21  39  64  92 123 162 204 250 306 357
#     4  10  23  41  59  84 117 151 201 253 288 356
#     4  10  21  35  55  85 111 141 177 229 289 345
#     4  10  21  38  60  84 109 145 191 239 292 348
#     4  12  24  39  60  92 124 160 206 252 296 363
#     4  10  21  36  53  79 113 139 177 223 276 337
#     4  12  26  39  60  88 120 166 204 240 314 355
#
# _framework density 21.075952999999998
#
# number of rings (size 3 to 8) (size 9 to 14) (size 15 to 20)
#    0.000    1.714    0.000    3.857    3.000    3.429 
#    0.000    0.000    0.000   10.286    0.000    0.000 
#    0.000    0.000    0.000    0.000    0.000    0.000 
#
# Total GULP energy -346969.881365 kJ/mol
# GULP energy per Si atom -12391.781477 kJ/mol
# Density = 2.102798 g / cm^3
# Si number density = 21.075953 Si / 1000 Ang^3
#
#
#
# Elastic Constant Matrix: (Units=GPa)
#
#
# Indices 1 2 3 4 5 6 
#
# 1 66.4218 49.6104 48.0529 0.0000 -29.6726 0.0000
# 2 49.6104 123.8183 32.1644 0.0000 -9.6509 0.0000
# 3 48.0529 32.1644 101.3676 0.0000 -30.6523 0.0000
# 4 0.0000 0.0000 0.0000 38.4550 0.0000 0.5587
# 5 -29.6726 -9.6509 -30.6523 0.0000 36.7440 0.0000
# 6 0.0000 0.0000 0.0000 0.5587 0.0000 28.5420
#
#
#
# Elastic Compliance Matrix: (Units=1/GPa)
#
#
# Indices 1 2 3 4 5 6 
#
# 1 0.040194 -0.012172 -0.008483 0.000000 0.022185 0.000000
# 2 -0.012172 0.012488 -0.000231 0.000000 -0.006742 0.000000
# 3 -0.008483 -0.000231 0.015874 0.000000 0.006331 0.000000
# 4 0.000000 0.000000 0.000000 0.026012 0.000000 -0.000509
# 5 0.022185 -0.006742 0.006331 0.000000 0.048642 0.000000
# 6 0.000000 0.000000 0.000000 -0.000509 0.000000 0.035046
#
#
# Mechanical properties :
#
#
# Convention : Reuss Voigt Hill
#
# Bulk Modulus (GPa) = 37.33588 61.25146 49.29367
# Shear Modulus (GPa) = 21.83819 31.53351 26.68585
#
# Velocity S-wave (km/s) = 3.22245 3.87225 3.56220
# Velocity P-wave (km/s) = 5.62129 7.00841 6.35282
#
# Compressibility (1/GPa) = 0.02678389
#
# Stress axis : x y z
#
# Youngs Moduli (GPa) = 24.87910 80.07821 62.99442
#
# Poissons Ratio (x) = 0.97470 0.53440
# Poissons Ratio (y) = 0.30282 0.01457
# Poissons Ratio (z) = 0.21106 0.01851
#
# Static dielectric constant tensor:
#      x y z
#    x 3.793660 0.000000 -0.492900 
#    y 0.000000 4.171610 0.000000 
#    z -0.492900 0.000000 4.258080 
# 
# 
# High freq. dielectric constant tensor:
#      x y z
#    x 1.820680 0.000000 -0.026580 
#    y 0.000000 1.829670 0.000000 
#    z -0.026580 0.000000 1.836540 
# 
# From -- ./inp_files/2762.got.cif
#   From: 2010.06.25/outbox.cif.g09.slc.cpg/sg13_2_cif.got.tgz:2762.got - 2010.06.28 04:50:58.
