data_PCOD8119881
_publ_section_title
;
Structure prediction by ZEFSAII (Michael W. Deem and Ramdas Pophale) SiO2 
 PCOD8119881
Probable space group: P 2/C
;
_chemical_formula_sum "Si O2"
_cell_formula_units_Z 30
_cell_length_a 10.031997
_cell_length_b 9.247777
_cell_length_c 17.741016
_cell_angle_alpha 90.000000
_cell_angle_beta 117.869961
_cell_angle_gamma 90.000000
_cell_volume 1454.992711
_symmetry_space_group_name_H-M "P 2/C"
_symmetry_group_IT_number 13
_symmetry_cell_setting 'monoclinic'
loop_
_space_group_symop_operation_xyz
x,y,z
-x,y,1/2-z
-x,-y,-z
x,-y,1/2+z
loop_
_atom_site_type_symbol
_atom_site_label
_atom_site_fract_x
_atom_site_fract_y
_atom_site_fract_z
Si Si1 0.610708 0.166966 0.439107
Si Si2 0.475023 0.920770 0.325561
Si Si3 0.661436 0.623655 0.828398
Si Si4 0.299760 0.742158 0.915389
Si Si5 0.764009 0.508706 0.706457
Si Si6 0.442371 0.375542 0.605228
Si Si7 0.224829 0.936251 0.376537
Si Si8 0.000000 0.261690 0.750000
O O1 0.706893 0.247984 0.398909
O O2 0.445854 0.239951 0.400104
O O3 0.684861 0.165342 0.540854
O O4 0.590023 0.999661 0.412436
O O5 0.500000 0.993296 0.250000
O O6 0.525617 0.756843 0.331100
O O7 0.306454 0.932292 0.315989
O O8 0.500000 0.657907 0.750000
O O9 0.772992 0.596572 0.787894
O O10 0.669682 0.478423 0.879514
O O11 0.187784 0.625783 0.845205
O O12 0.212290 0.896724 0.900944
O O13 0.357149 0.677440 0.008633
O O14 0.600132 0.457326 0.633634
O O15 0.868748 0.368209 0.743943
O O16 0.065502 0.851727 0.329283
#
# Coordination Sequence:
#
# PCOD8119881 Si02
#       8
#     4   4   4   4   4   4   4   2
#     4  11  19  37  61  96 126 148 193 252 323 366
#     4  11  20  32  62  96 124 149 191 254 318 357
#     4  10  21  34  59  96 129 148 189 257 319 357
#     4  11  20  37  63  92 122 153 200 255 316 363
#     4  11  23  39  61  90 123 167 203 247 301 365
#     4  11  19  35  60  97 121 147 194 261 318 362
#     4  11  24  40  60  89 123 166 204 244 298 372
#     4  12  26  44  62  78 122 172 222 240 282 360
#
# _framework density 20.618659000000001
#
# number of rings (size 3 to 8) (size 9 to 14) (size 15 to 20)
#    0.000    1.067    6.667    2.800    3.733    0.533 
#    0.000    0.667    0.000    1.600    0.000    0.000 
#    0.000    0.000    0.000    0.000    0.000    0.000 
#
# Total GULP energy -371656.969895 kJ/mol
# GULP energy per Si atom -12388.565663 kJ/mol
# Density = 2.057173 g / cm^3
# Si number density = 20.618659 Si / 1000 Ang^3
#
#
#
# Elastic Constant Matrix: (Units=GPa)
#
#
# Indices 1 2 3 4 5 6 
#
# 1 30.6130 15.6973 35.0600 0.0000 -0.5220 0.0000
# 2 15.6973 102.1610 39.4001 0.0000 11.8262 0.0000
# 3 35.0600 39.4001 101.0281 0.0000 -10.7397 0.0000
# 4 0.0000 0.0000 0.0000 36.0417 0.0000 0.6446
# 5 -0.5220 11.8262 -10.7397 0.0000 23.9412 0.0000
# 6 0.0000 0.0000 0.0000 0.6446 0.0000 24.0366
#
#
#
# Elastic Compliance Matrix: (Units=1/GPa)
#
#
# Indices 1 2 3 4 5 6 
#
# 1 0.055572 0.000167 -0.020193 0.000000 -0.007929 0.000000
# 2 0.000167 0.013237 -0.006211 0.000000 -0.009322 0.000000
# 3 -0.020193 -0.006211 0.020590 0.000000 0.011864 0.000000
# 4 0.000000 0.000000 0.000000 0.027759 0.000000 -0.000744
# 5 -0.007929 -0.009322 0.011864 0.000000 0.051523 0.000000
# 6 0.000000 0.000000 0.000000 -0.000744 0.000000 0.041623
#
#
# Mechanical properties :
#
#
# Convention : Reuss Voigt Hill
#
# Bulk Modulus (GPa) = 27.08306 46.01300 36.54803
# Shear Modulus (GPa) = 18.17611 26.38020 22.27815
#
# Velocity S-wave (km/s) = 2.97229 3.58080 3.29064
# Velocity P-wave (km/s) = 4.99430 6.28178 5.67467
#
# Compressibility (1/GPa) = 0.03692345
#
# Stress axis : x y z
#
# Youngs Moduli (GPa) = 17.99478 75.54363 48.56840
#
# Poissons Ratio (x) = -0.01262 0.98075
# Poissons Ratio (y) = -0.00301 0.30167
# Poissons Ratio (z) = 0.36337 0.46923
#
# Static dielectric constant tensor:
#      x y z
#    x 3.346610 0.000000 -0.252760 
#    y 0.000000 4.066920 0.000000 
#    z -0.252760 0.000000 3.796430 
# 
# 
# High freq. dielectric constant tensor:
#      x y z
#    x 1.736650 0.000000 -0.021870 
#    y 0.000000 1.836800 0.000000 
#    z -0.021870 0.000000 1.808190 
# 
# From -- ./inp_files/66318.got.cif
#   From: 2010.06.25/outbox.cif.g09.slc.cpg/sg13_34_cif.got.tgz:66318.got - 2010.06.28 04:50:58.
