data_PCOD8119953
_publ_section_title
;
Structure prediction by ZEFSAII (Michael W. Deem and Ramdas Pophale) SiO2 
 PCOD8119953
Probable space group: P 2/C
;
_chemical_formula_sum "Si O2"
_cell_formula_units_Z 18
_cell_length_a 24.814890
_cell_length_b 7.751102
_cell_length_c 5.046279
_cell_angle_alpha 90.000000
_cell_angle_beta 113.463429
_cell_angle_gamma 90.000000
_cell_volume 890.359254
_symmetry_space_group_name_H-M "P 2/C"
_symmetry_group_IT_number 13
_symmetry_cell_setting 'monoclinic'
loop_
_space_group_symop_operation_xyz
x,y,z
-x,y,1/2-z
-x,-y,-z
x,-y,1/2+z
loop_
_atom_site_type_symbol
_atom_site_label
_atom_site_fract_x
_atom_site_fract_y
_atom_site_fract_z
Si Si1 0.339739 0.391627 0.393485
Si Si2 0.793817 0.384604 0.319133
Si Si3 0.893270 0.117574 0.575751
Si Si4 0.000000 0.622638 0.250000
Si Si5 0.564701 0.110745 0.916127
O O1 0.350253 0.550911 0.612631
O O2 0.273586 0.322129 0.299766
O O3 0.385252 0.244974 0.559360
O O4 0.808758 0.526779 0.569605
O O5 0.830814 0.210915 0.424828
O O6 0.943037 0.258767 0.631025
O O7 0.899361 0.963799 0.377711
O O8 0.000000 0.500000 0.500000
O O9 0.500000 0.194910 0.750000
O O10 0.571771 0.949129 0.732532
#
# Coordination Sequence:
#
# PCOD8119953 Si02
#       5
#     4   4   4   2   4
#     4  10  21  36  57  82 109 143 186 231 270 323
#     4  10  21  39  58  81 113 149 185 222 275 335
#     4  12  24  39  60  89 117 144 186 235 274 319
#     4  12  24  42  64  84 114 156 188 222 278 332
#     4  10  21  36  54  78 110 145 181 225 279 334
#
# _framework density 20.216557999999999
#
# number of rings (size 3 to 8) (size 9 to 14) (size 15 to 20)
#    0.000    1.333    0.000    6.000    0.000    2.667 
#    0.000    0.000    0.000    0.000    0.000    0.000 
#    0.000    0.000    0.000    0.000    0.000    0.000 
#
# Total GULP energy -223306.779507 kJ/mol
# GULP energy per Si atom -12405.932195 kJ/mol
# Density = 2.017054 g / cm^3
# Si number density = 20.216558 Si / 1000 Ang^3
#
#
#
# Elastic Constant Matrix: (Units=GPa)
#
#
# Indices 1 2 3 4 5 6 
#
# 1 107.7726 57.6539 40.4476 0.0000 18.6704 0.0000
# 2 57.6539 87.0471 31.3649 0.0000 24.4921 0.0000
# 3 40.4476 31.3649 95.7264 0.0000 4.8039 0.0000
# 4 0.0000 0.0000 0.0000 142.1454 0.0000 141.7409
# 5 18.6704 24.4921 4.8039 0.0000 36.5078 0.0000
# 6 0.0000 0.0000 0.0000 141.7409 0.0000 215.5038
#
#
#
# Elastic Compliance Matrix: (Units=1/GPa)
#
#
# Indices 1 2 3 4 5 6 
#
# 1 0.015477 -0.008420 -0.003691 0.000000 -0.001781 0.000000
# 2 -0.008420 0.020635 -0.002743 0.000000 -0.009177 0.000000
# 3 -0.003691 -0.002743 0.012802 0.000000 0.002043 0.000000
# 4 0.000000 0.000000 0.000000 0.020442 0.000000 -0.013445
# 5 -0.001781 -0.009177 0.002043 0.000000 0.034190 0.000000
# 6 0.000000 0.000000 0.000000 -0.013445 0.000000 0.013483
#
#
# Mechanical properties :
#
#
# Convention : Reuss Voigt Hill
#
# Bulk Modulus (GPa) = 52.06671 61.05320 56.55995
# Shear Modulus (GPa) = 32.65012 89.57005 61.11009
#
# Velocity S-wave (km/s) = 4.02309 6.66344 5.50394
# Velocity P-wave (km/s) = 6.88409 9.45871 8.27218
#
# Compressibility (1/GPa) = 0.01920613
#
# Stress axis : x y z
#
# Youngs Moduli (GPa) = 64.61259 48.46141 78.11044
#
# Poissons Ratio (x) = 0.40803 0.28834
# Poissons Ratio (y) = 0.54402 0.21426
# Poissons Ratio (z) = 0.23851 0.13293
#
# Static dielectric constant tensor:
#      x y z
#    x 3.875840 0.000000 0.028890 
#    y 0.000000 3.409200 0.000000 
#    z 0.028890 0.000000 3.879430 
# 
# 
# High freq. dielectric constant tensor:
#      x y z
#    x 1.805270 0.000000 -0.001930 
#    y 0.000000 1.774580 0.000000 
#    z -0.001930 0.000000 1.811710 
# 
# From -- ./inp_files/7194.got.cif
#   From: 2010.06.25/outbox.cif.g09.slc.cpg/sg13_4_cif.got.tgz:7194.got - 2010.06.28 04:50:58.
