data_PCOD8119421
_publ_section_title
;
Structure prediction by ZEFSAII (Michael W. Deem and Ramdas Pophale) SiO2 
 PCOD8119421
Probable space group: P 2/C
;
_chemical_formula_sum "Si O2"
_cell_formula_units_Z 20
_cell_length_a 8.273048
_cell_length_b 7.572227
_cell_length_c 17.709311
_cell_angle_alpha 90.000000
_cell_angle_beta 125.003836
_cell_angle_gamma 90.000000
_cell_volume 908.730265
_symmetry_space_group_name_H-M "P 2/C"
_symmetry_group_IT_number 13
_symmetry_cell_setting 'monoclinic'
loop_
_space_group_symop_operation_xyz
x,y,z
-x,y,1/2-z
-x,-y,-z
x,-y,1/2+z
loop_
_atom_site_type_symbol
_atom_site_label
_atom_site_fract_x
_atom_site_fract_y
_atom_site_fract_z
Si Si1 0.763102 0.311111 0.063424
Si Si2 0.500000 0.158477 0.750000
Si Si3 0.230889 0.992817 0.053217
Si Si4 0.343692 0.324056 0.995957
Si Si5 0.217863 0.207053 0.801664
Si Si6 0.000000 0.865022 0.750000
O O1 0.577897 0.357241 0.068911
O O2 0.950890 0.258488 0.164972
O O3 0.711040 0.155927 0.991578
O O4 0.791948 0.499775 0.028615
O O5 0.652543 0.041027 0.838549
O O6 0.358571 0.272392 0.769634
O O7 0.282185 0.188882 0.042739
O O8 0.000000 0.000000 0.000000
O O9 0.325253 0.239091 0.908428
O O10 0.000000 0.299815 0.750000
O O11 0.187191 0.993916 0.782580
#
# Coordination Sequence:
#
# PCOD8119421 Si02
#       6
#     4   2   4   4   4   2
#     4  11  23  41  68  97 130 176 221 278 335 401
#     4  12  22  38  72  92 138 176 220 286 332 410
#     4  12  24  44  66 101 135 180 227 277 346 402
#     4  11  23  43  68  91 135 178 222 276 338 404
#     4  10  21  40  66  99 123 179 223 272 341 392
#     4  10  20  38  66 100 122 170 230 270 330 404
#
# _framework density 22.008731999999998
#
# number of rings (size 3 to 8) (size 9 to 14) (size 15 to 20)
#    0.600    0.400    4.000    4.200    1.400    0.800 
#    0.000    1.000    0.000    0.000    0.000    0.000 
#    0.000    0.000    0.000    0.000    0.000    0.000 
#
# Total GULP energy -247781.399620 kJ/mol
# GULP energy per Si atom -12389.069981 kJ/mol
# Density = 2.195864 g / cm^3
# Si number density = 22.008732 Si / 1000 Ang^3
#
#
#
# Elastic Constant Matrix: (Units=GPa)
#
#
# Indices 1 2 3 4 5 6 
#
# 1 85.8870 -18.7329 -10.6559 0.0000 13.0305 0.0000
# 2 -18.7329 91.6901 8.3120 0.0000 11.1308 0.0000
# 3 -10.6559 8.3120 93.6637 0.0000 18.6218 0.0000
# 4 0.0000 0.0000 0.0000 10.4392 0.0000 10.5672
# 5 13.0305 11.1308 18.6218 0.0000 28.8275 0.0000
# 6 0.0000 0.0000 0.0000 10.5672 0.0000 16.7912
#
#
#
# Elastic Compliance Matrix: (Units=1/GPa)
#
#
# Indices 1 2 3 4 5 6 
#
# 1 0.014447 0.003886 0.003322 0.000000 -0.010176 0.000000
# 2 0.003886 0.012490 0.000736 0.000000 -0.007055 0.000000
# 3 0.003322 0.000736 0.013016 0.000000 -0.010194 0.000000
# 4 0.000000 0.000000 0.000000 0.263923 0.000000 -0.166094
# 5 -0.010176 -0.007055 -0.010194 0.000000 0.048598 0.000000
# 6 0.000000 0.000000 0.000000 -0.166094 0.000000 0.164083
#
#
# Mechanical properties :
#
#
# Convention : Reuss Voigt Hill
#
# Bulk Modulus (GPa) = 17.90814 25.45416 21.68115
# Shear Modulus (GPa) = 9.62868 30.69942 20.16405
#
# Velocity S-wave (km/s) = 2.09390 3.73885 3.03014
# Velocity P-wave (km/s) = 3.74171 5.49812 4.70264
#
# Compressibility (1/GPa) = 0.05584051
#
# Stress axis : x y z
#
# Youngs Moduli (GPa) = 69.21930 80.06500 76.83000
#
# Poissons Ratio (x) = -0.31112 -0.25523
# Poissons Ratio (y) = -0.26897 -0.05657
# Poissons Ratio (z) = -0.22994 -0.05895
#
# Static dielectric constant tensor:
#      x y z
#    x 3.972690 0.000000 0.177340 
#    y 0.000000 3.860730 0.000000 
#    z 0.177340 0.000000 3.977280 
# 
# 
# High freq. dielectric constant tensor:
#      x y z
#    x 1.856180 0.000000 0.018360 
#    y 0.000000 1.847770 0.000000 
#    z 0.018360 0.000000 1.872350 
# 
# From -- ./inp_files/63072.got.cif
#   From: 2010.06.25/outbox.cif.g09.slc.cpg/sg13_32_cif.got.tgz:63072.got - 2010.06.28 04:50:58.
