data_PCOD8119479
_publ_section_title
;
Structure prediction by ZEFSAII (Michael W. Deem and Ramdas Pophale) SiO2 
 PCOD8119479
Probable space group: P 2/C
;
_chemical_formula_sum "Si O2"
_cell_formula_units_Z 22
_cell_length_a 27.129908
_cell_length_b 6.923407
_cell_length_c 16.389884
_cell_angle_alpha 90.000000
_cell_angle_beta 21.530143
_cell_angle_gamma 90.000000
_cell_volume 1129.793520
_symmetry_space_group_name_H-M "P 2/C"
_symmetry_group_IT_number 13
_symmetry_cell_setting 'monoclinic'
loop_
_space_group_symop_operation_xyz
x,y,z
-x,y,1/2-z
-x,-y,-z
x,-y,1/2+z
loop_
_atom_site_type_symbol
_atom_site_label
_atom_site_fract_x
_atom_site_fract_y
_atom_site_fract_z
Si Si1 0.000000 0.346943 0.250000
Si Si2 0.754440 0.449788 0.049989
Si Si3 0.370055 0.148889 0.789835
Si Si4 0.668028 0.873906 0.800223
Si Si5 0.096039 0.050762 0.972777
Si Si6 0.172828 0.882797 0.174731
O O1 0.900193 0.480878 0.353259
O O2 0.915591 0.218419 0.442931
O O3 0.659939 0.625195 0.169760
O O4 0.682968 0.330662 0.232037
O O5 0.769575 0.318537 0.946391
O O6 0.527855 0.122404 0.565025
O O7 0.327936 0.049111 0.770022
O O8 0.284249 0.051823 0.994617
O O9 0.789019 0.900481 0.677543
O O10 0.134443 0.146418 0.827598
O O11 0.956099 0.937465 0.181574
#
# Coordination Sequence:
#
# PCOD8119479 Si02
#       6
#     2   4   4   4   4   4
#     4  12  20  36  66  88 116 154 210 252 288 354
#     4  11  20  37  61  92 116 154 201 250 297 350
#     4  10  20  39  60  87 118 156 195 248 297 358
#     4  10  21  37  63  85 119 155 200 243 298 353
#     4  11  21  41  59  87 120 162 200 244 301 359
#     4  10  23  39  61  84 124 161 193 244 309 356
#
# _framework density 19.472586
#
# number of rings (size 3 to 8) (size 9 to 14) (size 15 to 20)
#    0.000    1.455    3.636    2.727    0.000    1.455 
#    3.273    0.000    0.000    0.000    0.000    0.000 
#    0.000    0.000    0.000    0.000    0.000    0.000 
#
# Total GULP energy -272909.849332 kJ/mol
# GULP energy per Si atom -12404.993151 kJ/mol
# Density = 1.942827 g / cm^3
# Si number density = 19.472586 Si / 1000 Ang^3
#
#
#
# Elastic Constant Matrix: (Units=GPa)
#
#
# Indices 1 2 3 4 5 6 
#
# 1 52.8218 31.7205 36.1687 0.0000 6.8369 0.0000
# 2 31.7205 122.2829 41.5267 0.0000 1.3407 0.0000
# 3 36.1687 41.5267 126.8385 0.0000 -7.3015 0.0000
# 4 0.0000 0.0000 0.0000 22.1842 0.0000 -7.1979
# 5 6.8369 1.3407 -7.3015 0.0000 21.1061 0.0000
# 6 0.0000 0.0000 0.0000 -7.1979 0.0000 10.4346
#
#
#
# Elastic Compliance Matrix: (Units=1/GPa)
#
#
# Indices 1 2 3 4 5 6 
#
# 1 0.028112 -0.004755 -0.007108 0.000000 -0.011263 0.000000
# 2 -0.004755 0.010062 -0.001925 0.000000 0.000235 0.000000
# 3 -0.007108 -0.001925 0.010898 0.000000 0.006195 0.000000
# 4 0.000000 0.000000 0.000000 0.058075 0.000000 0.040061
# 5 -0.011263 0.000235 0.006195 0.000000 0.053156 0.000000
# 6 0.000000 0.000000 0.000000 0.040061 0.000000 0.123470
#
#
# Mechanical properties :
#
#
# Convention : Reuss Voigt Hill
#
# Bulk Modulus (GPa) = 46.51961 57.86388 52.19174
# Shear Modulus (GPa) = 15.69788 23.58012 19.63900
#
# Velocity S-wave (km/s) = 2.84236 3.48363 3.17921
# Velocity P-wave (km/s) = 5.89183 6.77945 6.35117
#
# Compressibility (1/GPa) = 0.02149631
#
# Stress axis : x y z
#
# Youngs Moduli (GPa) = 35.57224 99.38041 91.76249
#
# Poissons Ratio (x) = 0.47256 0.65223
# Poissons Ratio (y) = 0.16915 0.17664
# Poissons Ratio (z) = 0.25284 0.19130
#
# Static dielectric constant tensor:
#      x y z
#    x 3.319230 0.000000 -0.046870 
#    y 0.000000 3.515770 0.000000 
#    z -0.046870 0.000000 3.737990 
# 
# 
# High freq. dielectric constant tensor:
#      x y z
#    x 1.737650 0.000000 -0.003980 
#    y 0.000000 1.758770 0.000000 
#    z -0.003980 0.000000 1.775180 
# 
# From -- ./inp_files/72068.got.cif
#   From: 2010.06.25/outbox.cif.g09.slc.cpg/sg13_37_cif.got.tgz:72068.got - 2010.06.28 04:50:58.
