data_PCOD8119176
_publ_section_title
;
Structure prediction by ZEFSAII (Michael W. Deem and Ramdas Pophale) SiO2 
 PCOD8119176
Probable space group: P 2/C
;
_chemical_formula_sum "Si O2"
_cell_formula_units_Z 20
_cell_length_a 10.967190
_cell_length_b 10.679933
_cell_length_c 13.733378
_cell_angle_alpha 90.000000
_cell_angle_beta 33.555847
_cell_angle_gamma 90.000000
_cell_volume 889.138972
_symmetry_space_group_name_H-M "P 2/C"
_symmetry_group_IT_number 13
_symmetry_cell_setting 'monoclinic'
loop_
_space_group_symop_operation_xyz
x,y,z
-x,y,1/2-z
-x,-y,-z
x,-y,1/2+z
loop_
_atom_site_type_symbol
_atom_site_label
_atom_site_fract_x
_atom_site_fract_y
_atom_site_fract_z
Si Si1 0.042843 0.371346 0.856745
Si Si2 0.479858 0.993326 0.651327
Si Si3 0.821917 0.097972 0.297190
Si Si4 0.645799 0.723002 0.499261
Si Si5 0.846376 0.353797 0.191777
O O1 0.807568 0.345937 0.965383
O O2 0.240413 0.284559 0.683488
O O3 0.109302 0.514038 0.786925
O O4 0.014428 0.343818 0.989267
O O5 0.500000 0.036320 0.750000
O O6 0.231140 0.970091 0.772488
O O7 0.621298 0.866783 0.546159
O O8 0.590945 0.100666 0.510377
O O9 0.905625 0.238720 0.223353
O O10 0.000000 0.029925 0.250000
O O11 0.411573 0.653934 0.663840
#
# Coordination Sequence:
#
# PCOD8119176 Si02
#       5
#     4   4   4   4   4
#     4  10  21  35  65  90 118 171 215 248 321 377
#     4  10  22  44  66  91 125 170 216 257 321 385
#     4  10  23  41  64  93 131 161 206 273 320 369
#     4  10  20  37  63  88 122 160 215 264 301 383
#     4  10  21  41  57  91 129 161 209 264 317 376
#
# _framework density 22.493672
#
# number of rings (size 3 to 8) (size 9 to 14) (size 15 to 20)
#    0.000    2.000    0.000    3.600    5.600    0.800 
#   10.800    0.000    0.000    0.000    0.000    0.000 
#    0.000    0.000    0.000    0.000    0.000    0.000 
#
# Total GULP energy -247813.990289 kJ/mol
# GULP energy per Si atom -12390.699514 kJ/mol
# Density = 2.244248 g / cm^3
# Si number density = 22.493672 Si / 1000 Ang^3
#
#
#
# Elastic Constant Matrix: (Units=GPa)
#
#
# Indices 1 2 3 4 5 6 
#
# 1 119.3246 5.8720 14.1233 0.0000 0.3968 0.0000
# 2 5.8720 45.5237 10.1417 0.0000 5.4601 0.0000
# 3 14.1233 10.1417 73.0471 0.0000 10.0914 0.0000
# 4 0.0000 0.0000 0.0000 39.2227 0.0000 6.6542
# 5 0.3968 5.4601 10.0914 0.0000 39.9511 0.0000
# 6 0.0000 0.0000 0.0000 6.6542 0.0000 17.0432
#
#
#
# Elastic Compliance Matrix: (Units=1/GPa)
#
#
# Indices 1 2 3 4 5 6 
#
# 1 0.008609 -0.000803 -0.001613 0.000000 0.000432 0.000000
# 2 -0.000803 0.022964 -0.002695 0.000000 -0.002450 0.000000
# 3 -0.001613 -0.002695 0.014841 0.000000 -0.003364 0.000000
# 4 0.000000 0.000000 0.000000 0.027304 0.000000 -0.010660
# 5 0.000432 -0.002450 -0.003364 0.000000 0.026211 0.000000
# 6 0.000000 0.000000 0.000000 -0.010660 0.000000 0.062837
#
#
# Mechanical properties :
#
#
# Convention : Reuss Voigt Hill
#
# Bulk Modulus (GPa) = 27.62920 33.12993 30.37956
# Shear Modulus (GPa) = 27.01957 33.09395 30.05676
#
# Velocity S-wave (km/s) = 3.46960 3.83986 3.65942
# Velocity P-wave (km/s) = 5.32547 5.86684 5.60270
#
# Compressibility (1/GPa) = 0.03619360
#
# Stress axis : x y z
#
# Youngs Moduli (GPa) = 116.15128 43.54584 67.38310
#
# Poissons Ratio (x) = 0.03497 0.10867
# Poissons Ratio (y) = 0.09327 0.18157
# Poissons Ratio (z) = 0.18732 0.11734
#
# Static dielectric constant tensor:
#      x y z
#    x 4.118120 0.000000 0.097930 
#    y 0.000000 3.912280 0.000000 
#    z 0.097930 0.000000 4.193660 
# 
# 
# High freq. dielectric constant tensor:
#      x y z
#    x 1.892220 0.000000 0.002220 
#    y 0.000000 1.873620 0.000000 
#    z 0.002220 0.000000 1.882470 
# 
# From -- ./inp_files/50723.got.cif
#   From: 2010.06.25/outbox.cif.g09.slc.cpg/sg13_26_cif.got.tgz:50723.got - 2010.06.28 04:50:58.
