data_PCOD8119919
_publ_section_title
;
Structure prediction by ZEFSAII (Michael W. Deem and Ramdas Pophale) SiO2 
 PCOD8119919
Probable space group: P 2/C
;
_chemical_formula_sum "Si O2"
_cell_formula_units_Z 22
_cell_length_a 11.192755
_cell_length_b 11.353979
_cell_length_c 21.928655
_cell_angle_alpha 90.000000
_cell_angle_beta 21.570310
_cell_angle_gamma 90.000000
_cell_volume 1024.526110
_symmetry_space_group_name_H-M "P 2/C"
_symmetry_group_IT_number 13
_symmetry_cell_setting 'monoclinic'
loop_
_space_group_symop_operation_xyz
x,y,z
-x,y,1/2-z
-x,-y,-z
x,-y,1/2+z
loop_
_atom_site_type_symbol
_atom_site_label
_atom_site_fract_x
_atom_site_fract_y
_atom_site_fract_z
Si Si1 0.000000 0.698204 0.750000
Si Si2 0.283328 0.556722 0.404621
Si Si3 0.550898 0.850695 0.658832
Si Si4 0.607927 0.900406 0.995612
Si Si5 0.235031 0.368760 0.261760
Si Si6 0.123283 0.050355 0.821620
O O1 0.856547 0.611509 0.765783
O O2 0.287406 0.780711 0.587162
O O3 0.500000 0.624636 0.250000
O O4 0.509523 0.463569 0.333790
O O5 0.000000 0.500000 0.500000
O O6 0.104831 0.638222 0.538828
O O7 0.500000 0.795457 0.750000
O O8 0.390863 0.760403 0.687927
O O9 0.927151 0.864341 0.460500
O O10 0.385990 0.978601 0.736172
O O11 0.306585 0.870898 0.183726
O O12 0.500000 0.000000 0.000000
O O13 0.901752 0.953144 0.894660
#
# Coordination Sequence:
#
# PCOD8119919 Si02
#       6
#     2   4   4   4   4   4
#     4  12  22  38  62  92 132 162 214 262 306 376
#     4   9  20  44  71  91 116 156 211 266 326 386
#     4  11  21  39  59  91 127 163 209 261 307 367
#     4  11  18  36  58  83 124 177 211 243 289 373
#     4  11  23  42  66  92 123 166 208 266 320 372
#     4  10  21  35  58  88 126 169 209 247 308 364
#
# _framework density 21.473341000000001
#
# number of rings (size 3 to 8) (size 9 to 14) (size 15 to 20)
#    0.000    1.455    3.636    3.273    0.000    0.727 
#    9.818    0.909    0.000    0.000    0.000    0.000 
#    0.000    0.000    0.000    0.000    0.000    0.000 
#
# Total GULP energy -272645.603115 kJ/mol
# GULP energy per Si atom -12392.981960 kJ/mol
# Density = 2.142447 g / cm^3
# Si number density = 21.473341 Si / 1000 Ang^3
#
#
#
# Elastic Constant Matrix: (Units=GPa)
#
#
# Indices 1 2 3 4 5 6 
#
# 1 126.2523 13.3134 39.6187 0.0000 6.4625 0.0000
# 2 13.3134 45.5029 30.6833 0.0000 3.0538 0.0000
# 3 39.6187 30.6833 165.6720 0.0000 26.3064 0.0000
# 4 0.0000 0.0000 0.0000 29.5913 0.0000 1.7881
# 5 6.4625 3.0538 26.3064 0.0000 33.7361 0.0000
# 6 0.0000 0.0000 0.0000 1.7881 0.0000 31.5517
#
#
#
# Elastic Compliance Matrix: (Units=1/GPa)
#
#
# Indices 1 2 3 4 5 6 
#
# 1 0.008630 -0.001301 -0.001802 0.000000 -0.000130 0.000000
# 2 -0.001301 0.025380 -0.004638 0.000000 0.001569 0.000000
# 3 -0.001802 -0.004638 0.008223 0.000000 -0.005647 0.000000
# 4 0.000000 0.000000 0.000000 0.033910 0.000000 -0.001922
# 5 -0.000130 0.001569 -0.005647 0.000000 0.033928 0.000000
# 6 0.000000 0.000000 0.000000 -0.001922 0.000000 0.031803
#
#
# Mechanical properties :
#
#
# Convention : Reuss Voigt Hill
#
# Bulk Modulus (GPa) = 37.38428 56.07312 46.72870
# Shear Modulus (GPa) = 30.07106 35.89660 32.98383
#
# Velocity S-wave (km/s) = 3.74624 4.09306 3.92348
# Velocity P-wave (km/s) = 6.01330 6.96470 6.50642
#
# Compressibility (1/GPa) = 0.02674921
#
# Stress axis : x y z
#
# Youngs Moduli (GPa) = 115.87440 39.40145 121.61513
#
# Poissons Ratio (x) = 0.05126 0.21917
# Poissons Ratio (y) = 0.15076 0.56410
# Poissons Ratio (z) = 0.20882 0.18276
#
# Static dielectric constant tensor:
#      x y z
#    x 4.141520 0.000000 0.109410 
#    y 0.000000 3.349810 0.000000 
#    z 0.109410 0.000000 4.717850 
# 
# 
# High freq. dielectric constant tensor:
#      x y z
#    x 1.855860 0.000000 0.005750 
#    y 0.000000 1.792850 0.000000 
#    z 0.005750 0.000000 1.863680 
# 
# From -- ./inp_files/15617.got.cif
#   From: 2010.06.25/outbox.cif.g09.slc.cpg/sg13_8_cif.got.tgz:15617.got - 2010.06.28 04:50:58.
