data_PCOD8119250
_publ_section_title
;
Structure prediction by ZEFSAII (Michael W. Deem and Ramdas Pophale) SiO2 
 PCOD8119250
Probable space group: P 2/C
;
_chemical_formula_sum "Si O2"
_cell_formula_units_Z 26
_cell_length_a 15.764231
_cell_length_b 11.079014
_cell_length_c 10.728021
_cell_angle_alpha 90.000000
_cell_angle_beta 142.355006
_cell_angle_gamma 90.000000
_cell_volume 1144.377185
_symmetry_space_group_name_H-M "P 2/C"
_symmetry_group_IT_number 13
_symmetry_cell_setting 'monoclinic'
loop_
_space_group_symop_operation_xyz
x,y,z
-x,y,1/2-z
-x,-y,-z
x,-y,1/2+z
loop_
_atom_site_type_symbol
_atom_site_label
_atom_site_fract_x
_atom_site_fract_y
_atom_site_fract_z
Si Si1 0.688517 0.325802 0.377940
Si Si2 0.463735 0.282878 0.915853
Si Si3 0.896001 0.761619 0.940647
Si Si4 0.000000 0.043881 0.750000
Si Si5 0.802850 0.773982 0.258400
Si Si6 0.500000 0.909308 0.250000
Si Si7 0.778803 0.033362 0.162723
Si Si8 0.500000 0.473491 0.750000
O O1 0.815158 0.343139 0.424420
O O2 0.748536 0.236092 0.552225
O O3 0.639960 0.447782 0.391790
O O4 0.555900 0.271990 0.148759
O O5 0.302005 0.294554 0.770213
O O6 0.470395 0.165748 0.839821
O O7 0.516619 0.396657 0.895804
O O8 0.783699 0.828660 0.721058
O O9 0.937261 0.874015 0.071214
O O10 0.041154 0.714931 0.046997
O O11 0.114705 0.956807 0.826676
O O12 0.811838 0.919586 0.293634
O O13 0.628324 0.994485 0.430698
#
# Coordination Sequence:
#
# PCOD8119250 Si02
#       8
#     4   4   4   2   4   2   4   2
#     4  12  21  42  69  91 123 164 220 268 313 385
#     4  11  25  44  62  97 122 168 215 273 329 373
#     4  11  22  41  61  98 132 172 213 252 312 387
#     4  10  20  38  58  88 136 178 208 238 318 374
#     4  11  23  39  69  94 132 172 212 256 316 383
#     4  11  26  37  60  96 140 161 222 257 302 384
#     4  11  24  37  60  96 139 178 204 254 307 378
#     4  11  26  45  72  86 126 165 214 283 346 376
#
# _framework density 22.719781000000001
#
# number of rings (size 3 to 8) (size 9 to 14) (size 15 to 20)
#    0.000    0.923    6.154    2.308    6.462    0.615 
#    0.000    0.769    3.385    0.000    0.000    0.000 
#    0.000    0.000    0.000    0.000    0.000    0.000 
#
# Total GULP energy -322103.039373 kJ/mol
# GULP energy per Si atom -12388.578437 kJ/mol
# Density = 2.266807 g / cm^3
# Si number density = 22.719781 Si / 1000 Ang^3
#
#
#
# Elastic Constant Matrix: (Units=GPa)
#
#
# Indices 1 2 3 4 5 6 
#
# 1 139.2378 30.2804 32.5286 0.0000 43.3697 0.0000
# 2 30.2804 47.8666 3.8597 0.0000 17.1955 0.0000
# 3 32.5286 3.8597 83.5342 0.0000 26.2347 0.0000
# 4 0.0000 0.0000 0.0000 16.4040 0.0000 7.2538
# 5 43.3697 17.1955 26.2347 0.0000 45.4735 0.0000
# 6 0.0000 0.0000 0.0000 7.2538 0.0000 35.0009
#
#
#
# Elastic Compliance Matrix: (Units=1/GPa)
#
#
# Indices 1 2 3 4 5 6 
#
# 1 0.010885 -0.003878 -0.001538 0.000000 -0.008028 0.000000
# 2 -0.003878 0.025875 0.002718 0.000000 -0.007654 0.000000
# 3 -0.001538 0.002718 0.015030 0.000000 -0.008232 0.000000
# 4 0.000000 0.000000 0.000000 0.067111 0.000000 -0.013908
# 5 -0.008028 -0.007654 -0.008232 0.000000 0.037291 0.000000
# 6 0.000000 0.000000 0.000000 -0.013908 0.000000 0.031453
#
#
# Mechanical properties :
#
#
# Convention : Reuss Voigt Hill
#
# Bulk Modulus (GPa) = 21.55447 44.88621 33.22034
# Shear Modulus (GPa) = 23.98016 32.97366 28.47691
#
# Velocity S-wave (km/s) = 3.25233 3.81375 3.54418
# Velocity P-wave (km/s) = 4.85914 6.26037 5.60373
#
# Compressibility (1/GPa) = 0.04639409
#
# Stress axis : x y z
#
# Youngs Moduli (GPa) = 91.86823 38.64708 66.53419
#
# Poissons Ratio (x) = 0.14988 0.10236
# Poissons Ratio (y) = 0.35627 -0.18087
# Poissons Ratio (z) = 0.14133 -0.10506
#
# Static dielectric constant tensor:
#      x y z
#    x 4.558090 0.000000 0.476030 
#    y 0.000000 3.623180 0.000000 
#    z 0.476030 0.000000 3.566590 
# 
# 
# High freq. dielectric constant tensor:
#      x y z
#    x 1.918090 0.000000 0.013120 
#    y 0.000000 1.848280 0.000000 
#    z 0.013120 0.000000 1.895510 
# 
# From -- ./inp_files/39289.got.cif
#   From: 2010.06.25/outbox.cif.g09.slc.cpg/sg13_20_cif.got.tgz:39289.got - 2010.06.28 04:50:58.
