data_PCOD8119015
_publ_section_title
;
Structure prediction by ZEFSAII (Michael W. Deem and Ramdas Pophale) SiO2 
 PCOD8119015
Probable space group: P 2/C
;
_chemical_formula_sum "Si O2"
_cell_formula_units_Z 26
_cell_length_a 9.790211
_cell_length_b 8.359243
_cell_length_c 21.120168
_cell_angle_alpha 90.000000
_cell_angle_beta 43.077540
_cell_angle_gamma 90.000000
_cell_volume 1180.508515
_symmetry_space_group_name_H-M "P 2/C"
_symmetry_group_IT_number 13
_symmetry_cell_setting 'monoclinic'
loop_
_space_group_symop_operation_xyz
x,y,z
-x,y,1/2-z
-x,-y,-z
x,-y,1/2+z
loop_
_atom_site_type_symbol
_atom_site_label
_atom_site_fract_x
_atom_site_fract_y
_atom_site_fract_z
Si Si1 0.500000 0.368101 0.750000
Si Si2 0.671518 0.426577 0.859177
Si Si3 0.321864 0.049492 0.514029
Si Si4 0.721760 0.422456 0.983321
Si Si5 0.428653 0.877230 0.161534
Si Si6 0.867564 0.452998 0.170970
Si Si7 0.935566 0.888971 0.700165
O O1 0.509378 0.249733 0.806259
O O2 0.313161 0.490011 0.812727
O O3 0.719287 0.493663 0.912342
O O4 0.664838 0.232379 0.863501
O O5 0.837448 0.478952 0.752358
O O6 0.450205 0.495431 0.915737
O O7 0.313926 0.235499 0.502658
O O8 0.500000 0.000000 0.500000
O O9 0.372088 0.966393 0.429615
O O10 0.111074 0.990996 0.610309
O O11 0.942160 0.472990 0.930646
O O12 0.263691 0.005653 0.237108
O O13 0.890768 0.263017 0.170941
O O14 0.000000 0.841544 0.750000
#
# Coordination Sequence:
#
# PCOD8119015 Si02
#       7
#     2   4   4   4   4   4   4
#     4  10  26  48  64  86 132 194 232 262 306 402
#     4  10  20  36  62  93 129 169 210 272 343 398
#     4  12  22  37  63 100 138 163 213 280 346 398
#     4  11  21  36  62  97 131 166 213 274 345 396
#     4  11  23  43  64  94 134 172 224 273 329 395
#     4  11  24  41  62  89 130 176 228 264 323 397
#     4  12  23  39  69 105 132 165 213 285 356 396
#
# _framework density 22.024405999999999
#
# number of rings (size 3 to 8) (size 9 to 14) (size 15 to 20)
#    0.000    0.923    3.077    5.077    2.154    0.615 
#    0.000   10.000    0.000    0.000    0.000    0.000 
#    0.000    0.000    0.000    0.000    0.000    0.000 
#
# Total GULP energy -322317.914680 kJ/mol
# GULP energy per Si atom -12396.842872 kJ/mol
# Density = 2.197428 g / cm^3
# Si number density = 22.024406 Si / 1000 Ang^3
#
#
#
# Elastic Constant Matrix: (Units=GPa)
#
#
# Indices 1 2 3 4 5 6 
#
# 1 57.9505 8.6967 -14.8372 0.0000 -12.1383 0.0000
# 2 8.6967 132.3986 15.7706 0.0000 -8.9344 0.0000
# 3 -14.8372 15.7706 84.7266 0.0000 -10.4488 0.0000
# 4 0.0000 0.0000 0.0000 45.3058 0.0000 -3.9671
# 5 -12.1383 -8.9344 -10.4488 0.0000 22.0024 0.0000
# 6 0.0000 0.0000 0.0000 -3.9671 0.0000 30.6625
#
#
#
# Elastic Compliance Matrix: (Units=1/GPa)
#
#
# Indices 1 2 3 4 5 6 
#
# 1 0.021942 -0.001164 0.005835 0.000000 0.014403 0.000000
# 2 -0.001164 0.007929 -0.001447 0.000000 0.001890 0.000000
# 3 0.005835 -0.001447 0.014253 0.000000 0.009401 0.000000
# 4 0.000000 0.000000 0.000000 0.022325 0.000000 0.002888
# 5 0.014403 0.001890 0.009401 0.000000 0.058628 0.000000
# 6 0.000000 0.000000 0.000000 0.002888 0.000000 0.032987
#
#
# Mechanical properties :
#
#
# Convention : Reuss Voigt Hill
#
# Bulk Modulus (GPa) = 19.77339 32.70396 26.23867
# Shear Modulus (GPa) = 29.67836 37.29052 33.48444
#
# Velocity S-wave (km/s) = 3.67484 4.11925 3.90338
# Velocity P-wave (km/s) = 5.19648 6.12417 5.67930
#
# Compressibility (1/GPa) = 0.05057303
#
# Stress axis : x y z
#
# Youngs Moduli (GPa) = 45.57502 126.11410 70.15983
#
# Poissons Ratio (x) = 0.14685 -0.40941
# Poissons Ratio (y) = 0.05307 0.10150
# Poissons Ratio (z) = -0.26595 0.18245
#
# Static dielectric constant tensor:
#      x y z
#    x 3.821240 0.000000 -0.049800 
#    y 0.000000 4.117770 0.000000 
#    z -0.049800 0.000000 4.221960 
# 
# 
# High freq. dielectric constant tensor:
#      x y z
#    x 1.830970 0.000000 -0.009070 
#    y 0.000000 1.884260 0.000000 
#    z -0.009070 0.000000 1.884150 
# 
# From -- ./inp_files/92219.got.cif
#   From: 2010.06.25/outbox.cif.g09.slc.cpg/sg13_47_cif.got.tgz:92219.got - 2010.06.28 04:50:58.
