data_PCOD8119814
_publ_section_title
;
Structure prediction by ZEFSAII (Michael W. Deem and Ramdas Pophale) SiO2 
 PCOD8119814
Probable space group: P 2/C
;
_chemical_formula_sum "Si O2"
_cell_formula_units_Z 20
_cell_length_a 9.602361
_cell_length_b 10.543358
_cell_length_c 11.608756
_cell_angle_alpha 90.000000
_cell_angle_beta 129.404460
_cell_angle_gamma 90.000000
_cell_volume 908.123002
_symmetry_space_group_name_H-M "P 2/C"
_symmetry_group_IT_number 13
_symmetry_cell_setting 'monoclinic'
loop_
_space_group_symop_operation_xyz
x,y,z
-x,y,1/2-z
-x,-y,-z
x,-y,1/2+z
loop_
_atom_site_type_symbol
_atom_site_label
_atom_site_fract_x
_atom_site_fract_y
_atom_site_fract_z
Si Si1 0.144221 0.448682 0.725334
Si Si2 0.337721 0.126161 0.079735
Si Si3 0.919386 0.307631 0.423007
Si Si4 0.407850 0.233391 0.871602
Si Si5 0.762130 0.150132 0.944790
O O1 0.182160 0.598387 0.720508
O O2 0.332632 0.376918 0.851756
O O3 0.000000 0.429855 0.750000
O O4 0.065599 0.388601 0.568761
O O5 0.500000 0.097163 0.250000
O O6 0.222015 0.242498 0.066724
O O7 0.227193 0.995945 0.011489
O O8 0.409425 0.159012 0.991829
O O9 0.039420 0.203039 0.419508
O O10 0.612852 0.233983 0.933984
O O11 0.279590 0.158776 0.714165
#
# Coordination Sequence:
#
# PCOD8119814 Si02
#       5
#     4   4   4   4   4
#     4  10  20  43  66  89 128 171 218 267 313 386
#     4  12  23  40  64 100 134 168 214 265 323 392
#     4  10  23  41  63  96 125 168 223 258 322 381
#     4  10  21  42  67  90 130 172 211 267 330 371
#     4  10  22  41  68  93 128 173 215 268 324 386
#
# _framework density 22.023447000000001
#
# number of rings (size 3 to 8) (size 9 to 14) (size 15 to 20)
#    0.000    1.600    4.000    1.200    0.000    1.600 
#   10.800    2.000    0.000    0.000    0.000    0.000 
#    0.000    0.000    0.000    0.000    0.000    0.000 
#
# Total GULP energy -247981.139564 kJ/mol
# GULP energy per Si atom -12399.056978 kJ/mol
# Density = 2.197332 g / cm^3
# Si number density = 22.023447 Si / 1000 Ang^3
#
#
#
# Elastic Constant Matrix: (Units=GPa)
#
#
# Indices 1 2 3 4 5 6 
#
# 1 100.5796 45.6764 20.8951 0.0000 -18.5457 0.0000
# 2 45.6764 117.6143 37.5177 0.0000 -8.2571 0.0000
# 3 20.8951 37.5177 40.3170 0.0000 -17.3268 0.0000
# 4 0.0000 0.0000 0.0000 12.0874 0.0000 -3.4097
# 5 -18.5457 -8.2571 -17.3268 0.0000 25.8205 0.0000
# 6 0.0000 0.0000 0.0000 -3.4097 0.0000 27.8979
#
#
#
# Elastic Compliance Matrix: (Units=1/GPa)
#
#
# Indices 1 2 3 4 5 6 
#
# 1 0.013666 -0.005224 0.001798 0.000000 0.009351 0.000000
# 2 -0.005224 0.014602 -0.014736 0.000000 -0.008971 0.000000
# 3 0.001798 -0.014736 0.050750 0.000000 0.030635 0.000000
# 4 0.000000 0.000000 0.000000 0.085685 0.000000 0.010473
# 5 0.009351 -0.008971 0.030635 0.000000 0.063134 0.000000
# 6 0.000000 0.000000 0.000000 0.010473 0.000000 0.037125
#
#
# Mechanical properties :
#
#
# Convention : Reuss Voigt Hill
#
# Bulk Modulus (GPa) = 23.42326 51.85438 37.63882
# Shear Modulus (GPa) = 15.84695 23.45593 19.65144
#
# Velocity S-wave (km/s) = 2.68535 3.26704 2.99037
# Velocity P-wave (km/s) = 4.50261 6.15041 5.38986
#
# Compressibility (1/GPa) = 0.04269260
#
# Stress axis : x y z
#
# Youngs Moduli (GPa) = 73.17672 68.48357 19.70426
#
# Poissons Ratio (x) = 0.35776 -0.03542
# Poissons Ratio (y) = 0.38228 0.29037
# Poissons Ratio (z) = -0.13154 1.00919
#
# Static dielectric constant tensor:
#      x y z
#    x 3.949220 0.000000 -0.033530 
#    y 0.000000 4.380350 0.000000 
#    z -0.033530 0.000000 3.756270 
# 
# 
# High freq. dielectric constant tensor:
#      x y z
#    x 1.872930 0.000000 -0.008780 
#    y 0.000000 1.873940 0.000000 
#    z -0.008780 0.000000 1.840240 
# 
# From -- ./inp_files/29631.got.cif
#   From: 2010.06.25/outbox.cif.g09.slc.cpg/sg13_15_cif.got.tgz:29631.got - 2010.06.28 04:50:58.
