data_PCOD8119410
_publ_section_title
;
Structure prediction by ZEFSAII (Michael W. Deem and Ramdas Pophale) SiO2 
 PCOD8119410
Probable space group: P 2/C
;
_chemical_formula_sum "Si O2"
_cell_formula_units_Z 32
_cell_length_a 18.743193
_cell_length_b 14.534549
_cell_length_c 12.520718
_cell_angle_alpha 90.000000
_cell_angle_beta 26.992315
_cell_angle_gamma 90.000000
_cell_volume 1548.127742
_symmetry_space_group_name_H-M "P 2/C"
_symmetry_group_IT_number 13
_symmetry_cell_setting 'monoclinic'
loop_
_space_group_symop_operation_xyz
x,y,z
-x,y,1/2-z
-x,-y,-z
x,-y,1/2+z
loop_
_atom_site_type_symbol
_atom_site_label
_atom_site_fract_x
_atom_site_fract_y
_atom_site_fract_z
Si Si1 0.627236 0.924078 0.809314
Si Si2 0.504151 0.419594 0.366102
Si Si3 0.758309 0.512903 0.665300
Si Si4 0.791315 0.673598 0.761242
Si Si5 0.482917 0.264436 0.557336
Si Si6 0.121180 0.014384 0.683206
Si Si7 0.110826 0.877778 0.875567
Si Si8 0.833920 0.332749 0.446378
O O1 0.752452 0.922563 0.736666
O O2 0.714224 0.945524 0.581011
O O3 0.532440 0.829419 0.935479
O O4 0.500000 0.000000 0.000000
O O5 0.500000 0.393416 0.250000
O O6 0.378184 0.498253 0.563662
O O7 0.679471 0.452161 0.160987
O O8 0.457768 0.330553 0.492438
O O9 0.858944 0.595609 0.587353
O O10 0.847152 0.420342 0.511246
O O11 0.892290 0.767184 0.616709
O O12 0.811951 0.634599 0.853213
O O13 0.610348 0.698372 0.972985
O O14 0.309955 0.261797 0.841993
O O15 0.141612 0.915814 0.714839
O O16 0.000000 0.998585 0.750000
O O17 0.056713 0.088778 0.854831
O O18 0.000000 0.281606 0.250000
#
# Coordination Sequence:
#
# PCOD8119410 Si02
#       8
#     4   4   4   4   4   4   4   4
#     4  10  21  38  60  87 121 157 200 252 297 362
#     4   9  16  32  58  82 111 151 194 244 308 347
#     4   9  19  34  56  85 116 152 201 247 302 370
#     4  10  20  38  65  86 117 162 206 250 303 382
#     4   9  21  40  57  86 118 155 207 250 299 376
#     4   9  19  39  62  88 125 162 197 256 309 368
#     4   9  20  39  62  90 119 162 203 240 313 375
#     4  11  23  38  57  88 122 157 205 260 315 360
#
# _framework density 20.670127999999998
#
# number of rings (size 3 to 8) (size 9 to 14) (size 15 to 20)
#    0.000    2.500    0.000    1.875    1.750    1.500 
#    6.750    5.625    0.000    0.000    0.000    0.000 
#    0.000    0.000    0.000    0.000    0.000    0.000 
#
# Total GULP energy -396555.097120 kJ/mol
# GULP energy per Si atom -12392.346785 kJ/mol
# Density = 2.062308 g / cm^3
# Si number density = 20.670128 Si / 1000 Ang^3
#
#
#
# Elastic Constant Matrix: (Units=GPa)
#
#
# Indices 1 2 3 4 5 6 
#
# 1 93.7079 27.7986 39.1876 0.0000 19.3180 0.0000
# 2 27.7986 112.6894 40.7407 0.0000 3.7301 0.0000
# 3 39.1876 40.7407 103.9770 0.0000 0.6837 0.0000
# 4 0.0000 0.0000 0.0000 22.4873 0.0000 -2.7570
# 5 19.3180 3.7301 0.6837 0.0000 25.6501 0.0000
# 6 0.0000 0.0000 0.0000 -2.7570 0.0000 31.9428
#
#
#
# Elastic Compliance Matrix: (Units=1/GPa)
#
#
# Indices 1 2 3 4 5 6 
#
# 1 0.015684 -0.001608 -0.005206 0.000000 -0.011439 0.000000
# 2 -0.001608 0.010554 -0.003528 0.000000 -0.000229 0.000000
# 3 -0.005206 -0.003528 0.012935 0.000000 0.004089 0.000000
# 4 0.000000 0.000000 0.000000 0.044945 0.000000 0.003879
# 5 -0.011439 -0.000229 0.004089 0.000000 0.047526 0.000000
# 6 0.000000 0.000000 0.000000 0.003879 0.000000 0.031641
#
#
# Mechanical properties :
#
#
# Convention : Reuss Voigt Hill
#
# Bulk Modulus (GPa) = 54.08553 58.42536 56.25544
# Shear Modulus (GPa) = 26.29782 29.52585 27.91184
#
# Velocity S-wave (km/s) = 3.57075 3.78356 3.67869
# Velocity P-wave (km/s) = 6.57443 6.88579 6.73191
#
# Compressibility (1/GPa) = 0.01848923
#
# Stress axis : x y z
#
# Youngs Moduli (GPa) = 63.76034 94.75451 77.31123
#
# Poissons Ratio (x) = 0.15239 0.40245
# Poissons Ratio (y) = 0.10254 0.27272
# Poissons Ratio (z) = 0.33191 0.33425
#
# Static dielectric constant tensor:
#      x y z
#    x 3.731280 0.000000 0.096900 
#    y 0.000000 12.111580 0.000000 
#    z 0.096900 0.000000 3.589430 
# 
# 
# High freq. dielectric constant tensor:
#      x y z
#    x 1.807900 0.000000 0.005380 
#    y 0.000000 1.806270 0.000000 
#    z 0.005380 0.000000 1.794130 
# 
# From -- ./inp_files/39438.got.cif
#   From: 2010.06.25/outbox.cif.g09.slc.cpg/sg13_20_cif.got.tgz:39438.got - 2010.06.28 04:50:58.
