data_PCOD8119753
_publ_section_title
;
Structure prediction by ZEFSAII (Michael W. Deem and Ramdas Pophale) SiO2 
 PCOD8119753
Probable space group: P 2/C
;
_chemical_formula_sum "Si O2"
_cell_formula_units_Z 24
_cell_length_a 24.791329
_cell_length_b 11.656444
_cell_length_c 8.735020
_cell_angle_alpha 90.000000
_cell_angle_beta 149.588935
_cell_angle_gamma 90.000000
_cell_volume 1277.768604
_symmetry_space_group_name_H-M "P 2/C"
_symmetry_group_IT_number 13
_symmetry_cell_setting 'monoclinic'
loop_
_space_group_symop_operation_xyz
x,y,z
-x,y,1/2-z
-x,-y,-z
x,-y,1/2+z
loop_
_atom_site_type_symbol
_atom_site_label
_atom_site_fract_x
_atom_site_fract_y
_atom_site_fract_z
Si Si1 0.333833 0.194501 0.445858
Si Si2 0.691726 0.138729 0.783860
Si Si3 0.500000 0.976461 0.250000
Si Si4 0.387986 0.577310 0.907035
Si Si5 0.386066 0.642593 0.544491
Si Si6 0.000000 0.008123 0.250000
Si Si7 0.849937 0.940165 0.134369
O O1 0.289989 0.201927 0.509849
O O2 0.356983 0.319025 0.439569
O O3 0.436991 0.110853 0.707999
O O4 0.243722 0.150609 0.109381
O O5 0.588641 0.055423 0.547564
O O6 0.679797 0.238170 0.626983
O O7 0.797715 0.067338 0.003560
O O8 0.391823 0.607889 0.738120
O O9 0.500000 0.535424 0.250000
O O10 0.325086 0.458836 0.796757
O O11 0.500000 0.675848 0.750000
O O12 0.086694 0.084769 0.553144
O O13 0.935558 0.927235 0.208558
#
# Coordination Sequence:
#
# PCOD8119753 Si02
#       7
#     4   4   2   4   4   2   4
#     4  11  21  35  53  85 115 154 186 228 272 342
#     4  11  21  35  53  85 115 154 186 228 272 342
#     4  10  22  30  54  76 126 150 182 220 270 322
#     4  11  22  36  55  77 112 155 194 230 269 322
#     4  11  22  36  55  77 112 155 194 230 269 322
#     4  10  20  42  56  84 110 150 180 250 274 356
#     4  10  22  36  62  82 118 142 194 222 304 326
#
# _framework density 18.782743
#
# number of rings (size 3 to 8) (size 9 to 14) (size 15 to 20)
#    0.000    1.333    3.333    4.500    2.333    1.333 
#    0.000    0.000    0.000    0.000    0.000    7.000 
#    0.000    0.000    0.000    0.000    0.000    0.000 
#
# Total GULP energy -297319.787756 kJ/mol
# GULP energy per Si atom -12388.324490 kJ/mol
# Density = 1.873999 g / cm^3
# Si number density = 18.782743 Si / 1000 Ang^3
#
#
#
# Elastic Constant Matrix: (Units=GPa)
#
#
# Indices 1 2 3 4 5 6 
#
# 1 69.3297 20.5586 20.2857 0.0000 -11.0385 0.0000
# 2 20.5586 110.4878 27.7418 0.0000 0.4952 0.0000
# 3 20.2857 27.7418 87.1719 0.0000 -7.9127 0.0000
# 4 0.0000 0.0000 0.0000 10.0748 0.0000 -8.8057
# 5 -11.0385 0.4952 -7.9127 0.0000 27.4501 0.0000
# 6 0.0000 0.0000 0.0000 -8.8057 0.0000 15.0371
#
#
#
# Elastic Compliance Matrix: (Units=1/GPa)
#
#
# Indices 1 2 3 4 5 6 
#
# 1 0.016897 -0.002525 -0.002575 0.000000 0.006098 0.000000
# 2 -0.002525 0.010247 -0.002857 0.000000 -0.002024 0.000000
# 3 -0.002575 -0.002857 0.013237 0.000000 0.002832 0.000000
# 4 0.000000 0.000000 0.000000 0.203326 0.000000 0.119068
# 5 0.006098 -0.002024 0.002832 0.000000 0.039735 0.000000
# 6 0.000000 0.000000 0.000000 0.119068 0.000000 0.136228
#
#
# Mechanical properties :
#
#
# Convention : Reuss Voigt Hill
#
# Bulk Modulus (GPa) = 40.87140 44.90685 42.88912
# Shear Modulus (GPa) = 11.26786 23.73928 17.50357
#
# Velocity S-wave (km/s) = 2.45195 3.55898 3.05601
# Velocity P-wave (km/s) = 5.46108 6.39131 5.94442
#
# Compressibility (1/GPa) = 0.02446699
#
# Stress axis : x y z
#
# Youngs Moduli (GPa) = 59.18253 97.58913 75.54502
#
# Poissons Ratio (x) = 0.24639 0.19453
# Poissons Ratio (y) = 0.14942 0.21585
# Poissons Ratio (z) = 0.15240 0.27883
#
# Static dielectric constant tensor:
#      x y z
#    x 3.393490 0.000000 -0.144160 
#    y 0.000000 3.550130 0.000000 
#    z -0.144160 0.000000 3.471760 
# 
# 
# High freq. dielectric constant tensor:
#      x y z
#    x 1.731940 0.000000 -0.021650 
#    y 0.000000 1.724560 0.000000 
#    z -0.021650 0.000000 1.705890 
# 
# From -- ./inp_files/18317.got.cif
#   From: 2010.06.25/outbox.cif.g09.slc.cpg/sg13_10_cif.got.tgz:18317.got - 2010.06.28 04:50:58.
