data_PCOD8119958
_publ_section_title
;
Structure prediction by ZEFSAII (Michael W. Deem and Ramdas Pophale) SiO2 
 PCOD8119958
Probable space group: P 2/C
;
_chemical_formula_sum "Si O2"
_cell_formula_units_Z 26
_cell_length_a 15.011207
_cell_length_b 6.520033
_cell_length_c 17.860758
_cell_angle_alpha 90.000000
_cell_angle_beta 53.493241
_cell_angle_gamma 90.000000
_cell_volume 1405.096338
_symmetry_space_group_name_H-M "P 2/C"
_symmetry_group_IT_number 13
_symmetry_cell_setting 'monoclinic'
loop_
_space_group_symop_operation_xyz
x,y,z
-x,y,1/2-z
-x,-y,-z
x,-y,1/2+z
loop_
_atom_site_type_symbol
_atom_site_label
_atom_site_fract_x
_atom_site_fract_y
_atom_site_fract_z
Si Si1 0.500000 0.500010 0.250000
Si Si2 0.393229 0.124674 0.230755
Si Si3 0.000008 0.906452 0.417126
Si Si4 0.000003 0.499497 0.336006
Si Si5 0.606782 0.875345 0.123985
Si Si6 0.176094 0.154069 0.247926
Si Si7 0.176083 0.845937 0.575985
O O1 0.424118 0.356656 0.236295
O O2 0.575906 0.643365 0.160417
O O3 0.301011 0.153451 0.214380
O O4 0.500003 0.999995 0.145378
O O5 0.348412 0.000025 0.325793
O O6 0.000006 0.661780 0.404274
O O7 0.888255 0.975145 0.433346
O O8 0.000000 0.000000 0.500000
O O9 0.111768 0.975151 0.321600
O O10 0.888690 0.366947 0.404206
O O11 0.000000 0.587450 0.250000
O O12 0.111317 0.366949 0.292890
O O13 0.699004 0.846570 0.015392
O O14 0.179637 0.094267 0.160181
#
# Coordination Sequence:
#
# PCOD8119958 Si02
#       7
#     2   4   4   4   4   4   4
#     4   8  18  36  54  72 104 136 174 222 260 316
#     4   9  19  35  55  79 105 139 179 219 266 312
#     4  11  22  36  57  81 105 141 181 219 266 316
#     4   9  20  37  54  77 110 143 172 212 266 317
#     4   9  19  35  55  79 105 139 179 219 266 312
#     4  10  21  36  54  79 110 141 177 220 265 317
#     4  10  21  36  54  79 110 141 177 220 265 317
#
# _framework density 18.504068
#
# number of rings (size 3 to 8) (size 9 to 14) (size 15 to 20)
#    0.000    2.769    0.000    3.231    0.000   10.462 
#    0.000    0.769    0.000    0.000    0.000    0.000 
#    0.000    0.000    0.000    0.000    0.000    0.000 
#
# Total GULP energy -322207.480917 kJ/mol
# GULP energy per Si atom -12392.595420 kJ/mol
# Density = 1.846195 g / cm^3
# Si number density = 18.504068 Si / 1000 Ang^3
#
#
#
# Elastic Constant Matrix: (Units=GPa)
#
#
# Indices 1 2 3 4 5 6 
#
# 1 142.2102 48.5659 61.4310 0.0000 -3.3803 0.0000
# 2 48.5659 113.5045 48.9122 0.0000 1.7350 0.0000
# 3 61.4310 48.9122 140.1769 0.0000 -5.6859 0.0000
# 4 0.0000 0.0000 0.0000 17.7612 0.0000 9.2040
# 5 -3.3803 1.7350 -5.6859 0.0000 29.3378 0.0000
# 6 0.0000 0.0000 0.0000 9.2040 0.0000 15.7700
#
#
#
# Elastic Compliance Matrix: (Units=1/GPa)
#
#
# Indices 1 2 3 4 5 6 
#
# 1 0.009300 -0.002640 -0.003129 0.000000 0.000621 0.000000
# 2 -0.002640 0.011170 -0.002802 0.000000 -0.001508 0.000000
# 3 -0.003129 -0.002802 0.009550 0.000000 0.001656 0.000000
# 4 0.000000 0.000000 0.000000 0.080714 0.000000 -0.047108
# 5 0.000621 -0.001508 0.001656 0.000000 0.034567 0.000000
# 6 0.000000 0.000000 0.000000 -0.047108 0.000000 0.090905
#
#
# Mechanical properties :
#
#
# Convention : Reuss Voigt Hill
#
# Bulk Modulus (GPa) = 77.65256 79.30109 78.47683
# Shear Modulus (GPa) = 19.40675 28.37263 23.88969
#
# Velocity S-wave (km/s) = 3.24200 3.92001 3.59702
# Velocity P-wave (km/s) = 7.48801 7.96478 7.73007
#
# Compressibility (1/GPa) = 0.01287787
#
# Stress axis : x y z
#
# Youngs Moduli (GPa) = 107.52682 89.52260 104.71262
#
# Poissons Ratio (x) = 0.23637 0.32766
# Poissons Ratio (y) = 0.28391 0.29338
# Poissons Ratio (z) = 0.33647 0.25082
#
# Static dielectric constant tensor:
#      x y z
#    x 3.385010 0.000000 -0.019690 
#    y 0.000000 3.392170 0.000000 
#    z -0.019690 0.000000 3.380780 
# 
# 
# High freq. dielectric constant tensor:
#      x y z
#    x 1.714930 0.000000 -0.006160 
#    y 0.000000 1.720820 0.000000 
#    z -0.006160 0.000000 1.713590 
# 
# From -- ./inp_files/78994.got.cif
#   From: 2010.06.25/outbox.cif.g09.slc.cpg/sg13_40_cif.got.tgz:78994.got - 2010.06.28 04:50:58.
