data_PCOD8119307
_publ_section_title
;
Structure prediction by ZEFSAII (Michael W. Deem and Ramdas Pophale) SiO2 
 PCOD8119307
Probable space group: P 2/C
;
_chemical_formula_sum "Si O2"
_cell_formula_units_Z 20
_cell_length_a 9.647935
_cell_length_b 6.987827
_cell_length_c 24.527886
_cell_angle_alpha 90.000000
_cell_angle_beta 35.068109
_cell_angle_gamma 90.000000
_cell_volume 950.089009
_symmetry_space_group_name_H-M "P 2/C"
_symmetry_group_IT_number 13
_symmetry_cell_setting 'monoclinic'
loop_
_space_group_symop_operation_xyz
x,y,z
-x,y,1/2-z
-x,-y,-z
x,-y,1/2+z
loop_
_atom_site_type_symbol
_atom_site_label
_atom_site_fract_x
_atom_site_fract_y
_atom_site_fract_z
Si Si1 0.586420 0.774660 0.578072
Si Si2 0.772178 0.502542 0.856534
Si Si3 0.023804 0.324908 0.870397
Si Si4 0.608140 0.814426 0.331030
Si Si5 0.261654 0.526288 0.391811
O O1 0.433952 0.662582 0.581018
O O2 0.583201 0.655538 0.636474
O O3 0.857920 0.796521 0.466075
O O4 0.460762 0.973912 0.629654
O O5 0.681788 0.300452 0.861335
O O6 0.000000 0.581905 0.750000
O O7 0.850813 0.472370 0.893778
O O8 0.164303 0.184234 0.783937
O O9 0.227628 0.451235 0.837243
O O10 0.376514 0.721294 0.377192
O O11 0.000000 0.500000 0.500000
#
# Coordination Sequence:
#
# PCOD8119307 Si02
#       5
#     4   4   4   4   4
#     4  10  21  39  62  85 115 156 195 235 292 350
#     4   9  20  38  59  84 118 152 191 241 289 345
#     4  10  20  38  61  85 118 154 191 243 291 336
#     4  10  21  39  57  86 122 149 192 244 284 344
#     4   9  20  39  60  83 114 150 192 240 288 342
#
# _framework density 21.050661000000002
#
# number of rings (size 3 to 8) (size 9 to 14) (size 15 to 20)
#    0.000    2.400    0.000    1.200    0.000    6.400 
#    0.000   34.000    0.000    0.000    0.000    0.000 
#    0.000    0.000    0.000    0.000    0.000    0.000 
#
# Total GULP energy -247905.779870 kJ/mol
# GULP energy per Si atom -12395.288994 kJ/mol
# Density = 2.100275 g / cm^3
# Si number density = 21.050661 Si / 1000 Ang^3
#
#
#
# Elastic Constant Matrix: (Units=GPa)
#
#
# Indices 1 2 3 4 5 6 
#
# 1 151.1039 44.5651 15.7849 0.0000 -7.2186 0.0000
# 2 44.5651 128.4321 43.3839 0.0000 -7.3575 0.0000
# 3 15.7849 43.3839 84.3467 0.0000 -5.1081 0.0000
# 4 0.0000 0.0000 0.0000 28.2264 0.0000 -6.9084
# 5 -7.2186 -7.3575 -5.1081 0.0000 31.1686 0.0000
# 6 0.0000 0.0000 0.0000 -6.9084 0.0000 10.5186
#
#
#
# Elastic Compliance Matrix: (Units=1/GPa)
#
#
# Indices 1 2 3 4 5 6 
#
# 1 0.007411 -0.002495 -0.000036 0.000000 0.001122 0.000000
# 2 -0.002495 0.010329 -0.004780 0.000000 0.001077 0.000000
# 3 -0.000036 -0.004780 0.014395 0.000000 0.001223 0.000000
# 4 0.000000 0.000000 0.000000 0.042213 0.000000 0.027725
# 5 0.001122 0.001077 0.001223 0.000000 0.032798 0.000000
# 6 0.000000 0.000000 0.000000 0.027725 0.000000 0.113279
#
#
# Mechanical properties :
#
#
# Convention : Reuss Voigt Hill
#
# Bulk Modulus (GPa) = 57.10173 63.48337 60.29255
# Shear Modulus (GPa) = 20.75677 31.32598 26.04138
#
# Velocity S-wave (km/s) = 3.14353 3.86181 3.52103
# Velocity P-wave (km/s) = 6.35299 7.07867 6.72563
#
# Compressibility (1/GPa) = 0.01751260
#
# Stress axis : x y z
#
# Youngs Moduli (GPa) = 134.93055 96.81904 69.46726
#
# Poissons Ratio (x) = 0.24160 0.00247
# Poissons Ratio (y) = 0.33670 0.33207
# Poissons Ratio (z) = 0.00479 0.46282
#
# Static dielectric constant tensor:
#      x y z
#    x 4.617490 0.000000 0.006520 
#    y 0.000000 3.378810 0.000000 
#    z 0.006520 0.000000 3.925050 
# 
# 
# High freq. dielectric constant tensor:
#      x y z
#    x 1.845980 0.000000 -0.015390 
#    y 0.000000 1.780930 0.000000 
#    z -0.015390 0.000000 1.835220 
# 
# From -- ./inp_files/96297.got.cif
#   From: 2010.06.25/outbox.cif.g09.slc.cpg/sg13_49_cif.got.tgz:96297.got - 2010.06.28 04:50:58.
