data_PCOD8119640
_publ_section_title
;
Structure prediction by ZEFSAII (Michael W. Deem and Ramdas Pophale) SiO2 
 PCOD8119640
Probable space group: P 2/C
;
_chemical_formula_sum "Si O2"
_cell_formula_units_Z 22
_cell_length_a 24.837993
_cell_length_b 5.070663
_cell_length_c 14.891215
_cell_angle_alpha 90.000000
_cell_angle_beta 148.152787
_cell_angle_gamma 90.000000
_cell_volume 989.605772
_symmetry_space_group_name_H-M "P 2/C"
_symmetry_group_IT_number 13
_symmetry_cell_setting 'monoclinic'
loop_
_space_group_symop_operation_xyz
x,y,z
-x,y,1/2-z
-x,-y,-z
x,-y,1/2+z
loop_
_atom_site_type_symbol
_atom_site_label
_atom_site_fract_x
_atom_site_fract_y
_atom_site_fract_z
Si Si1 0.420769 0.164870 0.325314
Si Si2 0.883674 0.517506 0.609854
Si Si3 0.708062 0.496196 0.232782
Si Si4 0.500000 0.911323 0.750000
Si Si5 0.699802 0.999993 0.606440
Si Si6 0.789380 0.994547 0.049606
O O1 0.383393 0.425899 0.326549
O O2 0.466775 0.254342 0.293205
O O3 0.500000 0.000000 0.500000
O O4 0.317110 0.994722 0.158048
O O5 0.814061 0.587153 0.425883
O O6 0.847139 0.726171 0.632660
O O7 0.000000 0.561504 0.750000
O O8 0.865174 0.221775 0.616280
O O9 0.670431 0.736444 0.119011
O O10 0.740257 0.235547 0.223703
O O11 0.406546 0.098744 0.588918
O O12 0.776597 0.076639 0.636102
#
# Coordination Sequence:
#
# PCOD8119640 Si02
#       6
#     4   4   4   2   4   4
#     4  10  20  40  64  96 135 178 221 265 330 392
#     4  11  23  44  68  93 125 176 225 277 346 396
#     4  11  23  41  66  93 133 173 222 273 330 394
#     4  10  22  38  62  96 134 184 216 262 318 400
#     4  11  23  42  62  96 135 172 219 272 327 392
#     4  10  23  42  65  96 134 170 220 283 329 400
#
# _framework density 22.231072999999999
#
# number of rings (size 3 to 8) (size 9 to 14) (size 15 to 20)
#    0.000    1.455    1.818    3.818    0.000    1.455 
#    6.545    5.455    0.000    0.000    0.000    0.000 
#    0.000    0.000    0.000    0.000    0.000    0.000 
#
# Total GULP energy -272648.126562 kJ/mol
# GULP energy per Si atom -12393.096662 kJ/mol
# Density = 2.218047 g / cm^3
# Si number density = 22.231073 Si / 1000 Ang^3
#
#
#
# Elastic Constant Matrix: (Units=GPa)
#
#
# Indices 1 2 3 4 5 6 
#
# 1 141.3806 29.4277 72.4209 0.0000 -9.1095 0.0000
# 2 29.4277 94.3899 35.3397 0.0000 -1.2215 0.0000
# 3 72.4209 35.3397 96.7950 0.0000 19.0998 0.0000
# 4 0.0000 0.0000 0.0000 15.5178 0.0000 5.9493
# 5 -9.1095 -1.2215 19.0998 0.0000 34.4453 0.0000
# 6 0.0000 0.0000 0.0000 5.9493 0.0000 18.7345
#
#
#
# Elastic Compliance Matrix: (Units=1/GPa)
#
#
# Indices 1 2 3 4 5 6 
#
# 1 0.014448 0.000595 -0.013233 0.000000 0.011180 0.000000
# 2 0.000595 0.012635 -0.005814 0.000000 0.003829 0.000000
# 3 -0.013233 -0.005814 0.025922 0.000000 -0.018079 0.000000
# 4 0.000000 0.000000 0.000000 0.073375 0.000000 -0.023301
# 5 0.011180 0.003829 -0.018079 0.000000 0.042149 0.000000
# 6 0.000000 0.000000 0.000000 -0.023301 0.000000 0.060777
#
#
# Mechanical properties :
#
#
# Convention : Reuss Voigt Hill
#
# Bulk Modulus (GPa) = 62.10658 67.43798 64.77228
# Shear Modulus (GPa) = 18.41097 26.76466 22.58782
#
# Velocity S-wave (km/s) = 2.88091 3.47353 3.19101
# Velocity P-wave (km/s) = 6.25009 6.81822 6.54033
#
# Compressibility (1/GPa) = 0.01610135
#
# Stress axis : x y z
#
# Youngs Moduli (GPa) = 69.21282 79.14472 38.57743
#
# Poissons Ratio (x) = -0.04707 0.51050
# Poissons Ratio (y) = -0.04116 0.22427
# Poissons Ratio (z) = 0.91590 0.46011
#
# Static dielectric constant tensor:
#      x y z
#    x 4.711380 0.000000 -0.417160 
#    y 0.000000 3.752700 0.000000 
#    z -0.417160 0.000000 4.145330 
# 
# 
# High freq. dielectric constant tensor:
#      x y z
#    x 1.888500 0.000000 -0.008570 
#    y 0.000000 1.859270 0.000000 
#    z -0.008570 0.000000 1.865660 
# 
# From -- ./inp_files/58261.got.cif
#   From: 2010.06.25/outbox.cif.g09.slc.cpg/sg13_30_cif.got.tgz:58261.got - 2010.06.28 04:50:58.
