data_PCOD8119284
_publ_section_title
;
Structure prediction by ZEFSAII (Michael W. Deem and Ramdas Pophale) SiO2 
 PCOD8119284
Probable space group: P 2/C
;
_chemical_formula_sum "Si O2"
_cell_formula_units_Z 28
_cell_length_a 27.457748
_cell_length_b 9.048504
_cell_length_c 9.969833
_cell_angle_alpha 90.000000
_cell_angle_beta 146.230689
_cell_angle_gamma 90.000000
_cell_volume 1376.852874
_symmetry_space_group_name_H-M "P 2/C"
_symmetry_group_IT_number 13
_symmetry_cell_setting 'monoclinic'
loop_
_space_group_symop_operation_xyz
x,y,z
-x,y,1/2-z
-x,-y,-z
x,-y,1/2+z
loop_
_atom_site_type_symbol
_atom_site_label
_atom_site_fract_x
_atom_site_fract_y
_atom_site_fract_z
Si Si1 0.755635 0.704565 0.818567
Si Si2 0.675021 0.687550 0.906399
Si Si3 0.039435 0.202697 0.202925
Si Si4 0.931670 0.137062 0.706384
Si Si5 0.509481 0.140674 0.116791
Si Si6 0.212960 0.369482 0.588800
Si Si7 0.351562 0.350691 0.684872
O O1 0.708968 0.763207 0.846955
O O2 0.795585 0.544849 0.941674
O O3 0.682179 0.703228 0.536249
O O4 0.834316 0.808666 0.950601
O O5 0.605462 0.793721 0.815917
O O6 0.632129 0.527049 0.778974
O O7 0.757819 0.674584 0.194913
O O8 0.118720 0.304598 0.336668
O O9 0.000000 0.266838 0.250000
O O10 0.075728 0.038581 0.306313
O O11 0.962601 0.205525 0.917696
O O12 0.000000 0.189519 0.750000
O O13 0.500000 0.092224 0.250000
O O14 0.441364 0.268524 0.922505
O O15 0.500000 0.000000 0.000000
O O16 0.281619 0.307492 0.638135
#
# Coordination Sequence:
#
# PCOD8119284 Si02
#       7
#     4   4   4   4   4   4   4
#     4  10  22  36  62  92 117 151 207 253 301 362
#     4  10  22  42  65  89 122 161 205 250 309 366
#     4  10  21  35  56  80 118 161 201 241 304 362
#     4  10  21  37  54  84 118 159 201 247 299 363
#     4  12  27  44  64  94 128 161 203 252 302 364
#     4  10  20  38  60  88 117 157 203 254 304 358
#     4  10  22  42  65  89 120 163 202 251 310 364
#
# _framework density 20.336233
#
# number of rings (size 3 to 8) (size 9 to 14) (size 15 to 20)
#    0.000    1.714    1.429    2.143    2.000    3.429 
#    0.000    0.000    0.000    0.000    0.000    0.000 
#    0.000    0.000    0.000    0.000    0.000    0.000 
#
# Total GULP energy -347349.791124 kJ/mol
# GULP energy per Si atom -12405.349683 kJ/mol
# Density = 2.028995 g / cm^3
# Si number density = 20.336233 Si / 1000 Ang^3
#
#
#
# Elastic Constant Matrix: (Units=GPa)
#
#
# Indices 1 2 3 4 5 6 
#
# 1 120.1719 20.8013 26.3039 0.0000 -15.4627 0.0000
# 2 20.8013 48.6619 19.4540 0.0000 5.7730 0.0000
# 3 26.3039 19.4540 52.8174 0.0000 -6.0262 0.0000
# 4 0.0000 0.0000 0.0000 22.5628 0.0000 2.9597
# 5 -15.4627 5.7730 -6.0262 0.0000 41.9739 0.0000
# 6 0.0000 0.0000 0.0000 2.9597 0.0000 24.5285
#
#
#
# Elastic Compliance Matrix: (Units=1/GPa)
#
#
# Indices 1 2 3 4 5 6 
#
# 1 0.010128 -0.003429 -0.003357 0.000000 0.003721 0.000000
# 2 -0.003429 0.026193 -0.008636 0.000000 -0.006106 0.000000
# 3 -0.003357 -0.008636 0.024176 0.000000 0.003422 0.000000
# 4 0.000000 0.000000 0.000000 0.045033 0.000000 -0.005434
# 5 0.003721 -0.006106 0.003422 0.000000 0.026526 0.000000
# 6 0.000000 0.000000 0.000000 -0.005434 0.000000 0.041425
#
#
# Mechanical properties :
#
#
# Convention : Reuss Voigt Hill
#
# Bulk Modulus (GPa) = 33.72292 39.41884 36.57088
# Shear Modulus (GPa) = 23.34156 28.15251 25.74704
#
# Velocity S-wave (km/s) = 3.39157 3.72473 3.56204
# Velocity P-wave (km/s) = 5.65293 6.15822 5.91098
#
# Compressibility (1/GPa) = 0.02965343
#
# Stress axis : x y z
#
# Youngs Moduli (GPa) = 98.73167 38.17848 41.36298
#
# Poissons Ratio (x) = 0.13092 0.13884
# Poissons Ratio (y) = 0.33856 0.35722
# Poissons Ratio (z) = 0.33140 0.32972
#
# Static dielectric constant tensor:
#      x y z
#    x 3.848590 0.000000 -0.175820 
#    y 0.000000 3.534710 0.000000 
#    z -0.175820 0.000000 3.607090 
# 
# 
# High freq. dielectric constant tensor:
#      x y z
#    x 1.809020 0.000000 -0.009690 
#    y 0.000000 1.780460 0.000000 
#    z -0.009690 0.000000 1.798770 
# 
# From -- ./inp_files/22950.got.cif
#   From: 2010.06.25/outbox.cif.g09.slc.cpg/sg13_12_cif.got.tgz:22950.got - 2010.06.28 04:50:58.
