data_PCOD8119011
_publ_section_title
;
Structure prediction by ZEFSAII (Michael W. Deem and Ramdas Pophale) SiO2 
 PCOD8119011
Probable space group: P 2/C
;
_chemical_formula_sum "Si O2"
_cell_formula_units_Z 32
_cell_length_a 13.846221
_cell_length_b 13.007073
_cell_length_c 9.299201
_cell_angle_alpha 90.000000
_cell_angle_beta 71.930961
_cell_angle_gamma 90.000000
_cell_volume 1592.180923
_symmetry_space_group_name_H-M "P 2/C"
_symmetry_group_IT_number 13
_symmetry_cell_setting 'monoclinic'
loop_
_space_group_symop_operation_xyz
x,y,z
-x,y,1/2-z
-x,-y,-z
x,-y,1/2+z
loop_
_atom_site_type_symbol
_atom_site_label
_atom_site_fract_x
_atom_site_fract_y
_atom_site_fract_z
Si Si1 0.309500 0.198024 0.980573
Si Si2 0.888120 0.022397 0.797589
Si Si3 0.613736 0.799600 0.754029
Si Si4 0.618273 0.616953 0.202500
Si Si5 0.109004 0.215779 0.240649
Si Si6 0.248504 0.996406 0.882867
Si Si7 0.725700 0.508954 0.403379
Si Si8 0.223575 0.640972 0.870456
O O1 0.345130 0.265524 0.829427
O O2 0.316850 0.078392 0.936127
O O3 0.389386 0.215022 0.073016
O O4 0.196082 0.234414 0.080192
O O5 0.900871 0.905628 0.734331
O O6 0.804658 0.062706 0.721640
O O7 0.000000 0.075036 0.750000
O O8 0.843743 0.041099 0.974840
O O9 0.500000 0.813267 0.750000
O O10 0.682041 0.900910 0.694666
O O11 0.665621 0.696439 0.665051
O O12 0.500000 0.606373 0.250000
O O13 0.652521 0.579618 0.342575
O O14 0.661791 0.553316 0.049056
O O15 0.141433 0.269610 0.376372
O O16 0.000000 0.263712 0.250000
O O17 0.799562 0.581770 0.468453
O O18 0.784659 0.434798 0.265197
#
# Coordination Sequence:
#
# PCOD8119011 Si02
#       8
#     4   4   4   4   4   4   4   4
#     4  10  22  41  56  88 126 152 198 244 293 349
#     4  10  20  36  62  90 116 153 200 251 297 342
#     4  11  23  39  61  83 122 164 199 237 291 358
#     4  11  22  38  60  88 119 155 196 243 298 344
#     4   9  17  37  65  83 114 160 190 239 304 348
#     4  11  20  40  59  87 121 160 197 239 290 360
#     4  10  22  37  62  85 119 152 194 250 294 345
#     4  10  20  40  60  88 118 150 200 241 293 351
#
# _framework density 20.098219
#
# number of rings (size 3 to 8) (size 9 to 14) (size 15 to 20)
#    0.000    1.750    6.250    0.750    1.750    4.000 
#    0.000    0.625    0.000    0.000    0.000    0.000 
#    0.000    0.000    0.000    0.000    0.000    0.000 
#
# Total GULP energy -396490.991847 kJ/mol
# GULP energy per Si atom -12390.343495 kJ/mol
# Density = 2.005247 g / cm^3
# Si number density = 20.098219 Si / 1000 Ang^3
#
#
#
# Elastic Constant Matrix: (Units=GPa)
#
#
# Indices 1 2 3 4 5 6 
#
# 1 100.5033 9.5234 16.2909 0.0000 20.1245 0.0000
# 2 9.5234 58.7289 17.3265 0.0000 10.9768 0.0000
# 3 16.2909 17.3265 79.6207 0.0000 18.7777 0.0000
# 4 0.0000 0.0000 0.0000 15.7858 0.0000 7.3870
# 5 20.1245 10.9768 18.7777 0.0000 13.0474 0.0000
# 6 0.0000 0.0000 0.0000 7.3870 0.0000 15.7065
#
#
#
# Elastic Compliance Matrix: (Units=1/GPa)
#
#
# Indices 1 2 3 4 5 6 
#
# 1 0.015289 0.002176 0.003620 0.000000 -0.030623 0.000000
# 2 0.002176 0.020532 -0.000073 0.000000 -0.020526 0.000000
# 3 0.003620 -0.000073 0.019887 0.000000 -0.034144 0.000000
# 4 0.000000 0.000000 0.000000 0.081224 0.000000 -0.038201
# 5 -0.030623 -0.020526 -0.034144 0.000000 0.190284 0.000000
# 6 0.000000 0.000000 0.000000 -0.038201 0.000000 0.081634
#
#
# Mechanical properties :
#
#
# Convention : Reuss Voigt Hill
#
# Bulk Modulus (GPa) = 14.89066 36.12605 25.50835
# Shear Modulus (GPa) = 11.91077 21.95542 16.93310
#
# Velocity S-wave (km/s) = 2.43704 3.30874 2.90576
# Velocity P-wave (km/s) = 3.91713 5.71059 4.89667
#
# Compressibility (1/GPa) = 0.06715619
#
# Stress axis : x y z
#
# Youngs Moduli (GPa) = 65.40788 48.70362 50.28383
#
# Poissons Ratio (x) = -0.10599 -0.18204
# Poissons Ratio (y) = -0.14235 0.00365
# Poissons Ratio (z) = -0.23679 0.00353
#
# Static dielectric constant tensor:
#      x y z
#    x 3.792500 0.000000 0.335820 
#    y 0.000000 3.787500 0.000000 
#    z 0.335820 0.000000 3.789050 
# 
# 
# High freq. dielectric constant tensor:
#      x y z
#    x 1.769370 0.000000 0.020230 
#    y 0.000000 1.780830 0.000000 
#    z 0.020230 0.000000 1.779830 
# 
# From -- ./inp_files/19368.got.cif
#   From: 2010.06.25/outbox.cif.g09.slc.cpg/sg13_10_cif.got.tgz:19368.got - 2010.06.28 04:50:58.
