data_PCOD8119957
_publ_section_title
;
Structure prediction by ZEFSAII (Michael W. Deem and Ramdas Pophale) SiO2 
 PCOD8119957
Probable space group: P 2/C
;
_chemical_formula_sum "Si O2"
_cell_formula_units_Z 24
_cell_length_a 13.967546
_cell_length_b 4.926660
_cell_length_c 18.439161
_cell_angle_alpha 90.000000
_cell_angle_beta 110.602057
_cell_angle_gamma 90.000000
_cell_volume 1187.712889
_symmetry_space_group_name_H-M "P 2/C"
_symmetry_group_IT_number 13
_symmetry_cell_setting 'monoclinic'
loop_
_space_group_symop_operation_xyz
x,y,z
-x,y,1/2-z
-x,-y,-z
x,-y,1/2+z
loop_
_atom_site_type_symbol
_atom_site_label
_atom_site_fract_x
_atom_site_fract_y
_atom_site_fract_z
Si Si1 0.611321 0.759426 0.084326
Si Si2 0.382746 0.727710 0.010094
Si Si3 0.091077 0.341095 0.062360
Si Si4 0.230520 0.120812 0.753981
Si Si5 0.097002 0.364681 0.225649
Si Si6 0.222443 0.847028 0.088150
O O1 0.659359 0.550028 0.037890
O O2 0.674443 0.764069 0.175660
O O3 0.611252 0.060124 0.053270
O O4 0.495493 0.669944 0.072947
O O5 0.312568 0.852343 0.054031
O O6 0.058103 0.278528 0.135623
O O7 0.188194 0.537047 0.084296
O O8 0.129605 0.052508 0.038556
O O9 0.000000 0.500000 0.000000
O O10 0.136708 0.329311 0.734966
O O11 0.263733 0.068964 0.679040
O O12 0.187628 0.838392 0.775409
O O13 0.000000 0.338003 0.250000
#
# Coordination Sequence:
#
# PCOD8119957 Si02
#       6
#     4   4   4   4   4   4
#     4  10  21  37  57  83 112 142 182 228 274 329
#     4  10  21  37  57  83 112 142 181 228 275 329
#     4  10  21  36  54  79 110 143 182 227 271 322
#     4  10  21  37  56  80 110 144 183 226 273 327
#     4  10  21  36  54  79 109 142 183 227 270 323
#     4  10  21  37  56  80 111 145 183 226 272 326
#
# _framework density 20.206906
#
# number of rings (size 3 to 8) (size 9 to 14) (size 15 to 20)
#    0.000    2.000    0.000    3.000    0.000    4.667 
#    0.000    0.000    0.000   12.000    0.000    0.000 
#    0.000    0.000    0.000    0.000    0.000    0.000 
#
# Total GULP energy -297552.254897 kJ/mol
# GULP energy per Si atom -12398.010621 kJ/mol
# Density = 2.016091 g / cm^3
# Si number density = 20.206906 Si / 1000 Ang^3
#
#
#
# Elastic Constant Matrix: (Units=GPa)
#
#
# Indices 1 2 3 4 5 6 
#
# 1 100.0886 14.9581 48.4951 0.0000 -17.0150 0.0000
# 2 14.9581 92.9476 15.3785 0.0000 -3.9743 0.0000
# 3 48.4951 15.3785 98.3592 0.0000 9.1666 0.0000
# 4 0.0000 0.0000 0.0000 30.3694 0.0000 3.2407
# 5 -17.0150 -3.9743 9.1666 0.0000 25.5378 0.0000
# 6 0.0000 0.0000 0.0000 3.2407 0.0000 30.9006
#
#
#
# Elastic Compliance Matrix: (Units=1/GPa)
#
#
# Indices 1 2 3 4 5 6 
#
# 1 0.017448 -0.000519 -0.009930 0.000000 0.015109 0.000000
# 2 -0.000519 0.011206 -0.001683 0.000000 0.002002 0.000000
# 3 -0.009930 -0.001683 0.016519 0.000000 -0.012807 0.000000
# 4 0.000000 0.000000 0.000000 0.033301 0.000000 -0.003492
# 5 0.015109 0.002002 -0.012807 0.000000 0.054133 0.000000
# 6 0.000000 0.000000 0.000000 -0.003492 0.000000 0.032728
#
#
# Mechanical properties :
#
#
# Convention : Reuss Voigt Hill
#
# Bulk Modulus (GPa) = 47.82202 49.89543 48.85872
# Shear Modulus (GPa) = 25.43647 31.53247 28.48447
#
# Velocity S-wave (km/s) = 3.55181 3.95458 3.75859
# Velocity P-wave (km/s) = 6.36695 6.75259 6.56260
#
# Compressibility (1/GPa) = 0.02091087
#
# Stress axis : x y z
#
# Youngs Moduli (GPa) = 57.31230 89.23536 60.53569
#
# Poissons Ratio (x) = 0.04632 0.60109
# Poissons Ratio (y) = 0.02975 0.10187
# Poissons Ratio (z) = 0.56909 0.15016
#
# Static dielectric constant tensor:
#      x y z
#    x 3.447050 0.000000 -0.004900 
#    y 0.000000 3.992990 0.000000 
#    z -0.004900 0.000000 3.576680 
# 
# 
# High freq. dielectric constant tensor:
#      x y z
#    x 1.771280 0.000000 -0.002210 
#    y 0.000000 1.812900 0.000000 
#    z -0.002210 0.000000 1.776690 
# 
# From -- ./inp_files/65447.got.cif
#   From: 2010.06.25/outbox.cif.g09.slc.cpg/sg13_33_cif.got.tgz:65447.got - 2010.06.28 04:50:58.
