data_PCOD8119461
_publ_section_title
;
Structure prediction by ZEFSAII (Michael W. Deem and Ramdas Pophale) SiO2 
 PCOD8119461
Probable space group: P 2/C
;
_chemical_formula_sum "Si O2"
_cell_formula_units_Z 22
_cell_length_a 9.185801
_cell_length_b 7.088857
_cell_length_c 18.034504
_cell_angle_alpha 90.000000
_cell_angle_beta 127.887137
_cell_angle_gamma 90.000000
_cell_volume 926.822608
_symmetry_space_group_name_H-M "P 2/C"
_symmetry_group_IT_number 13
_symmetry_cell_setting 'monoclinic'
loop_
_space_group_symop_operation_xyz
x,y,z
-x,y,1/2-z
-x,-y,-z
x,-y,1/2+z
loop_
_atom_site_type_symbol
_atom_site_label
_atom_site_fract_x
_atom_site_fract_y
_atom_site_fract_z
Si Si1 0.681207 0.933695 0.096720
Si Si2 0.938225 0.184859 0.087005
Si Si3 0.096190 0.591394 0.357927
Si Si4 0.131364 0.655351 0.079347
Si Si5 0.651640 0.121411 0.244385
Si Si6 0.500000 0.475416 0.250000
O O1 0.856704 0.026623 0.113661
O O2 0.673528 0.994969 0.179269
O O3 0.714161 0.708781 0.097200
O O4 0.500000 0.000000 0.000000
O O5 0.868315 0.385097 0.098087
O O6 0.156345 0.152604 0.153180
O O7 0.864066 0.172279 0.978462
O O8 0.000000 0.564898 0.250000
O O9 0.963735 0.711198 0.372589
O O10 0.340983 0.596829 0.161697
O O11 0.000000 0.500000 0.000000
O O12 0.500000 0.017083 0.250000
O O13 0.579471 0.337502 0.209000
#
# Coordination Sequence:
#
# PCOD8119461 Si02
#       6
#     4   4   4   4   4   2
#     4  12  29  44  66 111 141 189 245 295 364 435
#     4  11  24  47  77  98 146 190 235 303 373 418
#     4  11  23  43  71  97 141 180 239 292 359 432
#     4  10  21  41  68 110 132 188 239 293 360 436
#     4  10  21  44  76  99 143 195 235 292 372 435
#     4  10  20  38  78 104 144 184 254 284 372 438
#
# _framework density 23.737013000000001
#
# number of rings (size 3 to 8) (size 9 to 14) (size 15 to 20)
#    0.545    0.727    3.636    2.727    7.636    2.909 
#    3.273    0.000    0.000    1.091    0.000    0.000 
#    0.000    0.000    0.000    0.000    0.000    0.000 
#
# Total GULP energy -272583.739445 kJ/mol
# GULP energy per Si atom -12390.169975 kJ/mol
# Density = 2.368299 g / cm^3
# Si number density = 23.737013 Si / 1000 Ang^3
#
#
#
# Elastic Constant Matrix: (Units=GPa)
#
#
# Indices 1 2 3 4 5 6 
#
# 1 91.2244 25.7170 34.9079 0.0000 2.2567 0.0000
# 2 25.7170 65.9301 23.0216 0.0000 6.3726 0.0000
# 3 34.9079 23.0216 127.2367 0.0000 10.0993 0.0000
# 4 0.0000 0.0000 0.0000 11.2142 0.0000 15.7100
# 5 2.2567 6.3726 10.0993 0.0000 60.3882 0.0000
# 6 0.0000 0.0000 0.0000 15.7100 0.0000 16.3145
#
#
#
# Elastic Compliance Matrix: (Units=1/GPa)
#
#
# Indices 1 2 3 4 5 6 
#
# 1 0.013247 -0.004193 -0.002910 0.000000 0.000434 0.000000
# 2 -0.004193 0.017609 -0.001926 0.000000 -0.001379 0.000000
# 3 -0.002910 -0.001926 0.009102 0.000000 -0.001210 0.000000
# 4 0.000000 0.000000 0.000000 -0.255516 0.000000 0.246049
# 5 0.000434 -0.001379 -0.001210 0.000000 0.016891 0.000000
# 6 0.000000 0.000000 0.000000 0.246049 0.000000 -0.175637
#
#
# Mechanical properties :
#
#
# Convention : Reuss Voigt Hill
#
# Bulk Modulus (GPa) = 45.66290 50.18713 47.92501
# Shear Modulus (GPa) = -14.32891 30.96635 8.31872
#
# Velocity S-wave (km/s) = -2.45960 3.61579 1.87407
# Velocity P-wave (km/s) = 3.34852 6.21456 4.99166
#
# Compressibility (1/GPa) = 0.02189962
#
# Stress axis : x y z
#
# Youngs Moduli (GPa) = 75.48956 56.78905 109.86156
#
# Poissons Ratio (x) = 0.23811 0.31971
# Poissons Ratio (y) = 0.31652 0.21162
# Poissons Ratio (z) = 0.21969 0.10939
#
# Static dielectric constant tensor:
#      x y z
#    x 4.783890 0.000000 -0.338660 
#    y 0.000000 4.465330 0.000000 
#    z -0.338660 0.000000 4.488040 
# 
# 
# High freq. dielectric constant tensor:
#      x y z
#    x 1.951050 0.000000 -0.004160 
#    y 0.000000 1.934640 0.000000 
#    z -0.004160 0.000000 1.940720 
# 
# From -- ./inp_files/63947.got.cif
#   From: 2010.06.25/outbox.cif.g09.slc.cpg/sg13_32_cif.got.tgz:63947.got - 2010.06.28 04:50:58.
