data_PCOD8119427
_publ_section_title
;
Structure prediction by ZEFSAII (Michael W. Deem and Ramdas Pophale) SiO2 
 PCOD8119427
Probable space group: P 2/C
;
_chemical_formula_sum "Si O2"
_cell_formula_units_Z 24
_cell_length_a 19.295400
_cell_length_b 12.402668
_cell_length_c 8.880483
_cell_angle_alpha 90.000000
_cell_angle_beta 35.253241
_cell_angle_gamma 90.000000
_cell_volume 1226.663184
_symmetry_space_group_name_H-M "P 2/C"
_symmetry_group_IT_number 13
_symmetry_cell_setting 'monoclinic'
loop_
_space_group_symop_operation_xyz
x,y,z
-x,y,1/2-z
-x,-y,-z
x,-y,1/2+z
loop_
_atom_site_type_symbol
_atom_site_label
_atom_site_fract_x
_atom_site_fract_y
_atom_site_fract_z
Si Si1 0.480947 0.841378 0.111643
Si Si2 0.089519 0.534492 0.711146
Si Si3 0.268232 0.134734 0.474359
Si Si4 0.136406 0.699092 0.043843
Si Si5 0.250568 0.725536 0.531889
Si Si6 0.729830 0.923622 0.181743
O O1 0.500000 0.881253 0.250000
O O2 0.396850 0.731831 0.260621
O O3 0.405365 0.930621 0.150402
O O4 0.603640 0.818944 0.807043
O O5 0.155561 0.428548 0.530461
O O6 0.195514 0.614258 0.570177
O O7 0.000000 0.589945 0.750000
O O8 0.000000 0.500000 0.000000
O O9 0.176344 0.235168 0.621924
O O10 0.272808 0.092858 0.635832
O O11 0.216394 0.039971 0.457517
O O12 0.000000 0.725957 0.250000
O O13 0.218079 0.741830 0.763117
O O14 0.197442 0.825338 0.526833
#
# Coordination Sequence:
#
# PCOD8119427 Si02
#       6
#     4   4   4   4   4   4
#     4  10  20  38  66  87 128 160 205 256 296 378
#     4  11  22  40  67  89 120 165 209 258 304 375
#     4  12  21  42  61  96 126 168 203 255 317 360
#     4  11  23  40  65  90 124 164 211 253 306 379
#     4  10  22  40  60  96 119 157 217 249 312 353
#     4  10  24  36  67  94 125 164 210 252 308 381
#
# _framework density 19.565273999999999
#
# number of rings (size 3 to 8) (size 9 to 14) (size 15 to 20)
#    1.000    0.333    5.000    3.000    2.333    0.000 
#    0.000    5.000    0.000    0.000    0.000    0.000 
#    0.000    0.000    0.000    0.000    0.000    0.000 
#
# Total GULP energy -297385.183667 kJ/mol
# GULP energy per Si atom -12391.049319 kJ/mol
# Density = 1.952074 g / cm^3
# Si number density = 19.565274 Si / 1000 Ang^3
#
#
#
# Elastic Constant Matrix: (Units=GPa)
#
#
# Indices 1 2 3 4 5 6 
#
# 1 108.3982 42.8387 17.5308 0.0000 21.4507 0.0000
# 2 42.8387 96.8463 37.5645 0.0000 -3.8531 0.0000
# 3 17.5308 37.5645 74.7098 0.0000 19.2189 0.0000
# 4 0.0000 0.0000 0.0000 25.4091 0.0000 0.0044
# 5 21.4507 -3.8531 19.2189 0.0000 31.5507 0.0000
# 6 0.0000 0.0000 0.0000 0.0044 0.0000 42.1224
#
#
#
# Elastic Compliance Matrix: (Units=1/GPa)
#
#
# Indices 1 2 3 4 5 6 
#
# 1 0.014720 -0.008827 0.004549 0.000000 -0.013857 0.000000
# 2 -0.008827 0.019359 -0.011638 0.000000 0.015455 0.000000
# 3 0.004549 -0.011638 0.022923 0.000000 -0.018477 0.000000
# 4 0.000000 0.000000 0.000000 0.039356 0.000000 -0.000004
# 5 -0.013857 0.015455 -0.018477 0.000000 0.054259 0.000000
# 6 0.000000 0.000000 0.000000 -0.000004 0.000000 0.023740
#
#
# Mechanical properties :
#
#
# Convention : Reuss Voigt Hill
#
# Bulk Modulus (GPa) = 39.73150 52.86913 46.30032
# Shear Modulus (GPa) = 23.30134 31.95113 27.62623
#
# Velocity S-wave (km/s) = 3.45476 4.04549 3.76174
# Velocity P-wave (km/s) = 6.02205 6.99299 6.52560
#
# Compressibility (1/GPa) = 0.02516895
#
# Stress axis : x y z
#
# Youngs Moduli (GPa) = 67.93466 51.65484 43.62456
#
# Poissons Ratio (x) = 0.45595 -0.19843
# Poissons Ratio (y) = 0.59965 0.50772
# Poissons Ratio (z) = -0.30901 0.60118
#
# Static dielectric constant tensor:
#      x y z
#    x 3.655650 0.000000 0.155470 
#    y 0.000000 3.659600 0.000000 
#    z 0.155470 0.000000 3.444830 
# 
# 
# High freq. dielectric constant tensor:
#      x y z
#    x 1.768540 0.000000 0.017970 
#    y 0.000000 1.752660 0.000000 
#    z 0.017970 0.000000 1.752180 
# 
# From -- ./inp_files/23178.got.cif
#   From: 2010.06.25/outbox.cif.g09.slc.cpg/sg13_12_cif.got.tgz:23178.got - 2010.06.28 04:50:58.
