data_PCOD8119060
_publ_section_title
;
Structure prediction by ZEFSAII (Michael W. Deem and Ramdas Pophale) SiO2 
 PCOD8119060
Probable space group: P 2/C
;
_chemical_formula_sum "Si O2"
_cell_formula_units_Z 22
_cell_length_a 24.032884
_cell_length_b 8.120813
_cell_length_c 14.974785
_cell_angle_alpha 90.000000
_cell_angle_beta 159.465954
_cell_angle_gamma 90.000000
_cell_volume 1025.134598
_symmetry_space_group_name_H-M "P 2/C"
_symmetry_group_IT_number 13
_symmetry_cell_setting 'monoclinic'
loop_
_space_group_symop_operation_xyz
x,y,z
-x,y,1/2-z
-x,-y,-z
x,-y,1/2+z
loop_
_atom_site_type_symbol
_atom_site_label
_atom_site_fract_x
_atom_site_fract_y
_atom_site_fract_z
Si Si1 0.102408 0.722407 0.507120
Si Si2 0.563879 0.353004 0.938773
Si Si3 0.311677 0.207485 0.693831
Si Si4 0.513555 0.266390 0.370244
Si Si5 0.000000 0.577124 0.750000
Si Si6 0.203435 0.138783 0.971465
O O1 0.155336 0.807103 0.496279
O O2 0.039542 0.536471 0.395029
O O3 0.258792 0.719685 0.801327
O O4 0.957535 0.833609 0.330664
O O5 0.500000 0.285612 0.750000
O O6 0.457964 0.295700 0.863348
O O7 0.577604 0.549106 0.962262
O O8 0.152752 0.314297 0.455585
O O9 0.271450 0.045007 0.576783
O O10 0.371923 0.169765 0.886528
O O11 0.500000 0.186690 0.250000
O O12 0.334470 0.266209 0.135298
#
# Coordination Sequence:
#
# PCOD8119060 Si02
#       6
#     4   4   4   4   2   4
#     4  10  20  41  64  90 125 162 211 257 309 362
#     4  11  23  41  66  95 122 167 211 258 304 369
#     4  12  22  42  64  94 126 165 211 253 313 373
#     4  11  23  41  64  95 126 166 210 252 311 372
#     4  10  20  36  68  88 118 172 208 256 300 364
#     4  10  22  39  64  89 127 165 200 260 316 360
#
# _framework density 21.460595999999999
#
# number of rings (size 3 to 8) (size 9 to 14) (size 15 to 20)
#    0.000    1.455    3.636    4.364    0.000    0.727 
#    3.273    3.636    0.000    0.000    0.000    0.000 
#    0.000    0.000    0.000    0.000    0.000    0.000 
#
# Total GULP energy -272554.674254 kJ/mol
# GULP energy per Si atom -12388.848830 kJ/mol
# Density = 2.141175 g / cm^3
# Si number density = 21.460596 Si / 1000 Ang^3
#
#
#
# Elastic Constant Matrix: (Units=GPa)
#
#
# Indices 1 2 3 4 5 6 
#
# 1 45.9371 6.4367 44.3998 0.0000 -9.7448 0.0000
# 2 6.4367 60.1010 40.1320 0.0000 -1.1182 0.0000
# 3 44.3998 40.1320 205.8311 0.0000 3.8247 0.0000
# 4 0.0000 0.0000 0.0000 21.1640 0.0000 -0.8395
# 5 -9.7448 -1.1182 3.8247 0.0000 32.1182 0.0000
# 6 0.0000 0.0000 0.0000 -0.8395 0.0000 -20.2433
#
#
#
# Elastic Compliance Matrix: (Units=1/GPa)
#
#
# Indices 1 2 3 4 5 6 
#
# 1 0.030563 0.001661 -0.007106 0.000000 0.010177 0.000000
# 2 0.001661 0.019259 -0.004144 0.000000 0.001668 0.000000
# 3 -0.007106 -0.004144 0.007258 0.000000 -0.003164 0.000000
# 4 0.000000 0.000000 0.000000 0.047172 0.000000 -0.001956
# 5 0.010177 0.001668 -0.003164 0.000000 0.034658 0.000000
# 6 0.000000 0.000000 0.000000 -0.001956 0.000000 -0.049318
#
#
# Mechanical properties :
#
#
# Convention : Reuss Voigt Hill
#
# Bulk Modulus (GPa) = 26.38397 54.86735 40.62566
# Shear Modulus (GPa) = 41.18464 21.33448 31.25956
#
# Velocity S-wave (km/s) = 4.38549 3.15639 3.82069
# Velocity P-wave (km/s) = 6.16151 6.23745 6.19959
#
# Compressibility (1/GPa) = 0.03790180
#
# Stress axis : x y z
#
# Youngs Moduli (GPa) = 32.71940 51.92334 137.77987
#
# Poissons Ratio (x) = -0.08624 0.97902
# Poissons Ratio (y) = -0.05434 0.57100
# Poissons Ratio (z) = 0.23249 0.21519
#
# Static dielectric constant tensor:
#      x y z
#    x 3.850210 0.000000 0.359160 
#    y 0.000000 3.872400 0.000000 
#    z 0.359160 0.000000 6.299480 
# 
# 
# High freq. dielectric constant tensor:
#      x y z
#    x 1.812500 0.000000 0.014390 
#    y 0.000000 1.832040 0.000000 
#    z 0.014390 0.000000 1.871780 
# 
# From -- ./inp_files/58739.got.cif
#   From: 2010.06.25/outbox.cif.g09.slc.cpg/sg13_30_cif.got.tgz:58739.got - 2010.06.28 04:50:58.
