data_PCOD8119692
_publ_section_title
;
Structure prediction by ZEFSAII (Michael W. Deem and Ramdas Pophale) SiO2 
 PCOD8119692
Probable space group: P 2/C
;
_chemical_formula_sum "Si O2"
_cell_formula_units_Z 24
_cell_length_a 28.550175
_cell_length_b 9.047123
_cell_length_c 8.900500
_cell_angle_alpha 90.000000
_cell_angle_beta 150.349127
_cell_angle_gamma 90.000000
_cell_volume 1137.332918
_symmetry_space_group_name_H-M "P 2/C"
_symmetry_group_IT_number 13
_symmetry_cell_setting 'monoclinic'
loop_
_space_group_symop_operation_xyz
x,y,z
-x,y,1/2-z
-x,-y,-z
x,-y,1/2+z
loop_
_atom_site_type_symbol
_atom_site_label
_atom_site_fract_x
_atom_site_fract_y
_atom_site_fract_z
Si Si1 0.132383 0.400435 0.874519
Si Si2 0.221911 0.857723 0.780130
Si Si3 0.785532 0.287719 0.923082
Si Si4 0.628970 0.901001 0.860335
Si Si5 0.063744 0.913675 0.794385
Si Si6 0.000000 0.525406 0.750000
Si Si7 0.500000 0.984527 0.250000
O O1 0.065484 0.376197 0.542867
O O2 0.067635 0.418856 0.841769
O O3 0.194265 0.253212 0.067988
O O4 0.204652 0.536187 0.051434
O O5 0.139760 0.976197 0.579448
O O6 0.240234 0.768935 0.983614
O O7 0.316240 0.942146 0.992429
O O8 0.701085 0.236267 0.577207
O O9 0.886326 0.224681 0.147703
O O10 0.569240 0.879558 0.540903
O O11 0.558926 0.906817 0.806454
O O12 0.000000 0.848690 0.750000
O O13 0.000000 0.000000 0.500000
#
# Coordination Sequence:
#
# PCOD8119692 Si02
#       7
#     4   4   4   4   4   2   2
#     4  11  24  39  61  79 127 175 212 260 296 351
#     4  11  23  42  58  89 125 164 202 265 298 365
#     4  11  23  41  58  90 124 162 207 258 303 365
#     4  10  22  41  70  96 122 150 199 247 328 372
#     4  11  24  36  58  82 120 163 209 262 306 339
#     4  10  24  36  52  86 112 172 234 244 280 346
#     4  10  20  40  72 102 114 150 190 256 308 412
#
# _framework density 21.102001000000001
#
# number of rings (size 3 to 8) (size 9 to 14) (size 15 to 20)
#    0.000    1.333    5.000    0.000    7.000    1.333 
#    0.000    0.000    0.000    6.000    0.000    0.000 
#    0.000    0.000    0.000    0.000    0.000    0.000 
#
# Total GULP energy -297707.937812 kJ/mol
# GULP energy per Si atom -12404.497409 kJ/mol
# Density = 2.105397 g / cm^3
# Si number density = 21.102001 Si / 1000 Ang^3
#
#
#
# Elastic Constant Matrix: (Units=GPa)
#
#
# Indices 1 2 3 4 5 6 
#
# 1 96.9373 17.9476 36.7103 0.0000 -2.7527 0.0000
# 2 17.9476 93.5642 35.7631 0.0000 5.2367 0.0000
# 3 36.7103 35.7631 144.1775 0.0000 -8.4349 0.0000
# 4 0.0000 0.0000 0.0000 28.2563 0.0000 -6.3732
# 5 -2.7527 5.2367 -8.4349 0.0000 33.8402 0.0000
# 6 0.0000 0.0000 0.0000 -6.3732 0.0000 14.0205
#
#
#
# Elastic Compliance Matrix: (Units=1/GPa)
#
#
# Indices 1 2 3 4 5 6 
#
# 1 0.011546 -0.001247 -0.002602 0.000000 0.000484 0.000000
# 2 -0.001247 0.012171 -0.002859 0.000000 -0.002698 0.000000
# 3 -0.002602 -0.002859 0.008444 0.000000 0.002336 0.000000
# 4 0.000000 0.000000 0.000000 0.039433 0.000000 0.017925
# 5 0.000484 -0.002698 0.002336 0.000000 0.030590 0.000000
# 6 0.000000 0.000000 0.000000 0.017925 0.000000 0.079472
#
#
# Mechanical properties :
#
#
# Convention : Reuss Voigt Hill
#
# Bulk Modulus (GPa) = 53.35021 57.28009 55.31515
# Shear Modulus (GPa) = 24.83587 31.50728 28.17158
#
# Velocity S-wave (km/s) = 3.43438 3.86825 3.65776
# Velocity P-wave (km/s) = 6.40809 6.86691 6.64146
#
# Compressibility (1/GPa) = 0.01874407
#
# Stress axis : x y z
#
# Youngs Moduli (GPa) = 86.60974 82.16282 118.42263
#
# Poissons Ratio (x) = 0.10247 0.30816
# Poissons Ratio (y) = 0.10802 0.33860
# Poissons Ratio (z) = 0.22537 0.23492
#
# Static dielectric constant tensor:
#      x y z
#    x 3.932480 0.000000 -0.105350 
#    y 0.000000 3.593960 0.000000 
#    z -0.105350 0.000000 4.117440 
# 
# 
# High freq. dielectric constant tensor:
#      x y z
#    x 1.831160 0.000000 -0.015330 
#    y 0.000000 1.805020 0.000000 
#    z -0.015330 0.000000 1.833590 
# 
# From -- ./inp_files/18070.got.cif
#   From: 2010.06.25/outbox.cif.g09.slc.cpg/sg13_10_cif.got.tgz:18070.got - 2010.06.28 04:50:58.
