data_PCOD8119743
_publ_section_title
;
Structure prediction by ZEFSAII (Michael W. Deem and Ramdas Pophale) SiO2 
 PCOD8119743
Probable space group: P 2/C
;
_chemical_formula_sum "Si O2"
_cell_formula_units_Z 28
_cell_length_a 8.056973
_cell_length_b 14.900981
_cell_length_c 11.343933
_cell_angle_alpha 90.000000
_cell_angle_beta 59.919649
_cell_angle_gamma 90.000000
_cell_volume 1178.497997
_symmetry_space_group_name_H-M "P 2/C"
_symmetry_group_IT_number 13
_symmetry_cell_setting 'monoclinic'
loop_
_space_group_symop_operation_xyz
x,y,z
-x,y,1/2-z
-x,-y,-z
x,-y,1/2+z
loop_
_atom_site_type_symbol
_atom_site_label
_atom_site_fract_x
_atom_site_fract_y
_atom_site_fract_z
Si Si1 0.284810 0.543594 0.210194
Si Si2 0.274122 0.530273 0.470216
Si Si3 0.898287 0.288242 0.402679
Si Si4 0.614239 0.865857 0.026909
Si Si5 0.283023 0.249524 0.700266
Si Si6 0.084808 0.204949 0.540075
Si Si7 0.634406 0.943329 0.594689
O O1 0.190874 0.502476 0.367343
O O2 0.500761 0.507749 0.118880
O O3 0.284470 0.648396 0.239969
O O4 0.181981 0.520883 0.119508
O O5 0.249410 0.636348 0.501327
O O6 0.791453 0.193076 0.416204
O O7 0.000000 0.323907 0.250000
O O8 0.068261 0.272672 0.436298
O O9 0.486285 0.797906 0.150659
O O10 0.687980 0.951033 0.075785
O O11 0.480389 0.909150 0.976714
O O12 0.228787 0.250017 0.581484
O O13 0.128723 0.192329 0.830322
O O14 0.163675 0.108830 0.469428
O O15 0.500000 0.917787 0.750000
#
# Coordination Sequence:
#
# PCOD8119743 Si02
#       7
#     4   4   4   4   4   4   4
#     4  10  20  41  69  96 131 171 229 277 330 405
#     4  10  22  39  66  99 129 171 227 281 333 395
#     4  12  24  41  61  94 131 174 218 276 336 397
#     4  10  23  41  65  92 124 174 222 264 326 404
#     4  10  20  42  68  90 127 174 220 264 332 401
#     4  10  23  39  62  97 129 166 216 273 329 388
#     4  10  22  42  62  94 130 170 216 268 327 395
#
# _framework density 23.759058
#
# number of rings (size 3 to 8) (size 9 to 14) (size 15 to 20)
#    0.000    1.714    2.857    0.857    2.000    1.714 
#   10.286    1.429    0.000    0.000    0.000    0.000 
#    0.000    0.000    0.000    0.000    0.000    0.000 
#
# Total GULP energy -346972.064082 kJ/mol
# GULP energy per Si atom -12391.859432 kJ/mol
# Density = 2.370498 g / cm^3
# Si number density = 23.759058 Si / 1000 Ang^3
#
#
#
# Elastic Constant Matrix: (Units=GPa)
#
#
# Indices 1 2 3 4 5 6 
#
# 1 27.4285 4.4328 31.4334 0.0000 12.7875 0.0000
# 2 4.4328 103.4444 46.7365 0.0000 7.8643 0.0000
# 3 31.4334 46.7365 167.0980 0.0000 27.3569 0.0000
# 4 0.0000 0.0000 0.0000 34.7490 0.0000 4.0835
# 5 12.7875 7.8643 27.3569 0.0000 35.6173 0.0000
# 6 0.0000 0.0000 0.0000 4.0835 0.0000 24.5229
#
#
#
# Elastic Compliance Matrix: (Units=1/GPa)
#
#
# Indices 1 2 3 4 5 6 
#
# 1 0.051480 0.002513 -0.008316 0.000000 -0.012650 0.000000
# 2 0.002513 0.011188 -0.003489 0.000000 -0.000693 0.000000
# 3 -0.008316 -0.003489 0.009047 0.000000 -0.003193 0.000000
# 4 0.000000 0.000000 0.000000 0.029352 0.000000 -0.004888
# 5 -0.012650 -0.000693 -0.003193 0.000000 0.035224 0.000000
# 6 0.000000 0.000000 0.000000 -0.004888 0.000000 0.041592
#
#
# Mechanical properties :
#
#
# Convention : Reuss Voigt Hill
#
# Bulk Modulus (GPa) = 18.82088 51.46404 35.14246
# Shear Modulus (GPa) = 23.34514 33.33571 28.34043
#
# Velocity S-wave (km/s) = 3.13801 3.74983 3.45748
# Velocity P-wave (km/s) = 4.59002 6.36051 5.54637
#
# Compressibility (1/GPa) = 0.05313248
#
# Stress axis : x y z
#
# Youngs Moduli (GPa) = 19.42500 89.38025 110.52970
#
# Poissons Ratio (x) = -0.22460 0.91915
# Poissons Ratio (y) = -0.04881 0.38558
# Poissons Ratio (z) = 0.16154 0.31180
#
# Static dielectric constant tensor:
#      x y z
#    x 4.364540 0.000000 0.284360 
#    y 0.000000 4.216160 0.000000 
#    z 0.284360 0.000000 4.747260 
# 
# 
# High freq. dielectric constant tensor:
#      x y z
#    x 1.936340 0.000000 0.017040 
#    y 0.000000 1.928360 0.000000 
#    z 0.017040 0.000000 1.953510 
# 
# From -- ./inp_files/30303.got.cif
#   From: 2010.06.25/outbox.cif.g09.slc.cpg/sg13_16_cif.got.tgz:30303.got - 2010.06.28 04:50:58.
