data_PCOD8119242
_publ_section_title
;
Structure prediction by ZEFSAII (Michael W. Deem and Ramdas Pophale) SiO2 
 PCOD8119242
Probable space group: P 2/C
;
_chemical_formula_sum "Si O2"
_cell_formula_units_Z 22
_cell_length_a 5.260011
_cell_length_b 26.482563
_cell_length_c 9.173596
_cell_angle_alpha 90.000000
_cell_angle_beta 57.088166
_cell_angle_gamma 90.000000
_cell_volume 1072.780668
_symmetry_space_group_name_H-M "P 2/C"
_symmetry_group_IT_number 13
_symmetry_cell_setting 'monoclinic'
loop_
_space_group_symop_operation_xyz
x,y,z
-x,y,1/2-z
-x,-y,-z
x,-y,1/2+z
loop_
_atom_site_type_symbol
_atom_site_label
_atom_site_fract_x
_atom_site_fract_y
_atom_site_fract_z
Si Si1 0.650670 0.245784 0.356931
Si Si2 0.361532 0.045155 0.634831
Si Si3 0.642140 0.670682 0.362223
Si Si4 0.647298 0.129142 0.359465
Si Si5 0.500000 0.487883 0.250000
Si Si6 0.288754 0.433342 0.578500
O O1 0.500000 0.257698 0.250000
O O2 0.487528 0.279613 0.525338
O O3 0.608997 0.187540 0.413738
O O4 0.000000 0.261045 0.250000
O O5 0.500000 0.040242 0.750000
O O6 0.463285 0.098521 0.537244
O O7 0.000000 0.041492 0.750000
O O8 0.500000 0.000000 0.500000
O O9 0.500000 0.666401 0.250000
O O10 0.517426 0.618470 0.481668
O O11 0.000000 0.678483 0.250000
O O12 0.500000 0.116811 0.250000
O O13 0.000000 0.113170 0.250000
O O14 0.263622 0.453050 0.417964
O O15 0.646001 0.520437 0.331391
O O16 0.000000 0.410473 0.750000
#
# Coordination Sequence:
#
# PCOD8119242 Si02
#       6
#     4   4   4   4   2   4
#     4  10  22  40  63  90 119 158 202 245 303 365
#     4  12  24  39  61  90 124 164 208 251 305 361
#     4  11  23  40  60  87 122 154 195 250 302 357
#     4  10  21  40  62  87 122 158 201 254 301 357
#     4  10  20  38  58  82 112 154 200 240 310 360
#     4  10  21  37  57  83 116 151 199 247 304 361
#
# _framework density 20.507453000000002
#
# number of rings (size 3 to 8) (size 9 to 14) (size 15 to 20)
#    0.000    1.455    0.909    4.364    1.273    1.455 
#    0.000    0.909    0.000    0.000    0.000    0.000 
#    0.000    0.000    0.000    0.000    0.000    0.000 
#
# Total GULP energy -272541.214447 kJ/mol
# GULP energy per Si atom -12388.237020 kJ/mol
# Density = 2.046078 g / cm^3
# Si number density = 20.507453 Si / 1000 Ang^3
#
#
#
# Elastic Constant Matrix: (Units=GPa)
#
#
# Indices 1 2 3 4 5 6 
#
# 1 159.0394 44.4714 57.8969 0.0000 -2.8829 0.0000
# 2 44.4714 116.6053 75.0662 0.0000 1.0699 0.0000
# 3 57.8969 75.0662 128.5139 0.0000 2.5797 0.0000
# 4 0.0000 0.0000 0.0000 11.3092 0.0000 1.6564
# 5 -2.8829 1.0699 2.5797 0.0000 36.6451 0.0000
# 6 0.0000 0.0000 0.0000 1.6564 0.0000 34.0392
#
#
#
# Elastic Compliance Matrix: (Units=1/GPa)
#
#
# Indices 1 2 3 4 5 6 
#
# 1 0.007636 -0.001113 -0.002807 0.000000 0.000831 0.000000
# 2 -0.001113 0.013907 -0.007623 0.000000 0.000043 0.000000
# 3 -0.002807 -0.007623 0.013517 0.000000 -0.000950 0.000000
# 4 0.000000 0.000000 0.000000 0.089058 0.000000 -0.004334
# 5 0.000831 0.000043 -0.000950 0.000000 0.027420 0.000000
# 6 0.000000 0.000000 0.000000 -0.004334 0.000000 0.029589
#
#
# Mechanical properties :
#
#
# Convention : Reuss Voigt Hill
#
# Bulk Modulus (GPa) = 83.50351 84.33642 83.91996
# Shear Modulus (GPa) = 24.01497 31.51365 27.76431
#
# Velocity S-wave (km/s) = 3.42575 3.92432 3.68348
# Velocity P-wave (km/s) = 7.51364 7.85797 7.68773
#
# Compressibility (1/GPa) = 0.01197554
#
# Stress axis : x y z
#
# Youngs Moduli (GPa) = 130.96322 71.90453 73.97948
#
# Poissons Ratio (x) = 0.08003 0.20763
# Poissons Ratio (y) = 0.14577 0.56393
# Poissons Ratio (z) = 0.36755 0.54812
#
# Static dielectric constant tensor:
#      x y z
#    x 3.827640 0.000000 -0.056880 
#    y 0.000000 4.072050 0.000000 
#    z -0.056880 0.000000 4.322440 
# 
# 
# High freq. dielectric constant tensor:
#      x y z
#    x 1.806110 0.000000 0.005440 
#    y 0.000000 1.827370 0.000000 
#    z 0.005440 0.000000 1.799680 
# 
# From -- ./inp_files/10285.got.cif
#   From: 2010.06.25/outbox.cif.g09.slc.cpg/sg13_6_cif.got.tgz:10285.got - 2010.06.28 04:50:58.
