data_PCOD8119654
_publ_section_title
;
Structure prediction by ZEFSAII (Michael W. Deem and Ramdas Pophale) SiO2 
 PCOD8119654
Probable space group: P 2/C
;
_chemical_formula_sum "Si O2"
_cell_formula_units_Z 24
_cell_length_a 7.702779
_cell_length_b 9.492168
_cell_length_c 15.857413
_cell_angle_alpha 90.000000
_cell_angle_beta 97.333582
_cell_angle_gamma 90.000000
_cell_volume 1149.947369
_symmetry_space_group_name_H-M "P 2/C"
_symmetry_group_IT_number 13
_symmetry_cell_setting 'monoclinic'
loop_
_space_group_symop_operation_xyz
x,y,z
-x,y,1/2-z
-x,-y,-z
x,-y,1/2+z
loop_
_atom_site_type_symbol
_atom_site_label
_atom_site_fract_x
_atom_site_fract_y
_atom_site_fract_z
Si Si1 0.837488 0.744484 0.296608
Si Si2 0.202658 0.940512 0.745418
Si Si3 0.041294 0.666351 0.010795
Si Si4 0.315916 0.267453 0.386662
Si Si5 0.305403 0.462159 0.242330
Si Si6 0.282684 0.737380 0.603155
O O1 0.693065 0.630093 0.260411
O O2 0.000000 0.704632 0.250000
O O3 0.897284 0.722936 0.395563
O O4 0.758562 0.895228 0.267370
O O5 0.300049 0.880382 0.834452
O O6 0.274171 0.870288 0.664782
O O7 0.000000 0.911867 0.750000
O O8 0.860377 0.750350 0.979890
O O9 0.199547 0.723018 0.962493
O O10 0.000000 0.500000 0.000000
O O11 0.233969 0.394412 0.324345
O O12 0.522142 0.283659 0.423353
O O13 0.500000 0.400190 0.250000
O O14 0.214362 0.398458 0.153086
#
# Coordination Sequence:
#
# PCOD8119654 Si02
#       6
#     4   4   4   4   4   4
#     4  11  24  40  60  94 127 165 211 261 322 375
#     4  10  20  40  66  89 125 171 209 255 314 382
#     4  12  23  40  69  95 129 168 209 268 319 369
#     4  10  22  41  69  91 123 168 217 255 310 384
#     4   9  19  37  60  90 124 162 208 258 310 378
#     4  10  21  40  66  96 122 167 215 254 317 382
#
# _framework density 20.870521
#
# number of rings (size 3 to 8) (size 9 to 14) (size 15 to 20)
#    0.000    1.667    3.333    2.500    0.000    2.667 
#    3.000    0.833    0.000    0.000    0.000    0.000 
#    0.000    0.000    0.000    0.000    0.000    0.000 
#
# Total GULP energy -297386.185878 kJ/mol
# GULP energy per Si atom -12391.091078 kJ/mol
# Density = 2.082302 g / cm^3
# Si number density = 20.870521 Si / 1000 Ang^3
#
#
#
# Elastic Constant Matrix: (Units=GPa)
#
#
# Indices 1 2 3 4 5 6 
#
# 1 100.7823 34.6250 42.2316 0.0000 -8.3225 0.0000
# 2 34.6250 126.2320 48.6992 0.0000 2.0967 0.0000
# 3 42.2316 48.6992 131.8056 0.0000 -3.5744 0.0000
# 4 0.0000 0.0000 0.0000 19.6817 0.0000 -0.4364
# 5 -8.3225 2.0967 -3.5744 0.0000 14.6272 0.0000
# 6 0.0000 0.0000 0.0000 -0.4364 0.0000 27.3020
#
#
#
# Elastic Compliance Matrix: (Units=1/GPa)
#
#
# Indices 1 2 3 4 5 6 
#
# 1 0.012545 -0.002418 -0.002943 0.000000 0.006765 0.000000
# 2 -0.002418 0.009774 -0.002931 0.000000 -0.003493 0.000000
# 3 -0.002943 -0.002931 0.009643 0.000000 0.001102 0.000000
# 4 0.000000 0.000000 0.000000 0.050827 0.000000 0.000812
# 5 0.006765 -0.003493 0.001102 0.000000 0.072985 0.000000
# 6 0.000000 0.000000 0.000000 0.000812 0.000000 0.036640
#
#
# Mechanical properties :
#
#
# Convention : Reuss Voigt Hill
#
# Bulk Modulus (GPa) = 65.02922 67.77017 66.39970
# Shear Modulus (GPa) = 23.35101 27.87312 25.61206
#
# Velocity S-wave (km/s) = 3.34855 3.65845 3.50693
# Velocity P-wave (km/s) = 6.79533 7.09844 6.94854
#
# Compressibility (1/GPa) = 0.01537770
#
# Stress axis : x y z
#
# Youngs Moduli (GPa) = 79.71384 102.31138 103.70579
#
# Poissons Ratio (x) = 0.24741 0.30516
# Poissons Ratio (y) = 0.19276 0.30399
# Poissons Ratio (z) = 0.23456 0.29990
#
# Static dielectric constant tensor:
#      x y z
#    x 3.737050 0.000000 -0.008290 
#    y 0.000000 3.718850 0.000000 
#    z -0.008290 0.000000 3.731420 
# 
# 
# High freq. dielectric constant tensor:
#      x y z
#    x 1.821730 0.000000 -0.004280 
#    y 0.000000 1.811840 0.000000 
#    z -0.004280 0.000000 1.810080 
# 
# From -- ./inp_files/46042.got.cif
#   From: 2010.06.25/outbox.cif.g09.slc.cpg/sg13_24_cif.got.tgz:46042.got - 2010.06.28 04:50:58.
