data_PCOD8119112
_publ_section_title
;
Structure prediction by ZEFSAII (Michael W. Deem and Ramdas Pophale) SiO2 
 PCOD8119112
Probable space group: P 2/C
;
_chemical_formula_sum "Si O2"
_cell_formula_units_Z 26
_cell_length_a 18.782255
_cell_length_b 6.644255
_cell_length_c 28.174914
_cell_angle_alpha 90.000000
_cell_angle_beta 159.503907
_cell_angle_gamma 90.000000
_cell_volume 1231.126566
_symmetry_space_group_name_H-M "P 2/C"
_symmetry_group_IT_number 13
_symmetry_cell_setting 'monoclinic'
loop_
_space_group_symop_operation_xyz
x,y,z
-x,y,1/2-z
-x,-y,-z
x,-y,1/2+z
loop_
_atom_site_type_symbol
_atom_site_label
_atom_site_fract_x
_atom_site_fract_y
_atom_site_fract_z
Si Si1 0.000000 0.498918 0.750000
Si Si2 0.303428 0.608598 0.101443
Si Si3 0.572904 0.055086 0.893409
Si Si4 0.773771 0.806343 0.177071
Si Si5 0.800681 0.034501 0.902984
Si Si6 0.876730 0.213435 0.541380
Si Si7 0.356154 0.810781 0.961394
O O1 0.922546 0.358301 0.744869
O O2 0.801658 0.641012 0.618452
O O3 0.500000 0.508938 0.250000
O O4 0.352871 0.746684 0.087372
O O5 0.202287 0.736962 0.080512
O O6 0.145999 0.450058 0.981786
O O7 0.374213 0.975789 0.742936
O O8 0.530745 0.101023 0.921991
O O9 0.736065 0.872866 0.995885
O O10 0.890107 0.841395 0.299945
O O11 0.766172 0.013856 0.142693
O O12 0.542239 0.730442 0.043742
O O13 0.788926 0.889134 0.939939
O O14 0.000000 0.000000 0.000000
#
# Coordination Sequence:
#
# PCOD8119112 Si02
#       7
#     2   4   4   4   4   4   4
#     4  12  22  42  66  90 122 160 206 256 310 370
#     4   9  19  35  57  84 115 152 195 242 296 355
#     4  10  20  37  60  84 115 157 200 244 301 361
#     4  11  25  41  63  94 123 162 209 252 313 374
#     4  10  21  36  55  85 119 154 197 246 301 360
#     4  11  20  37  60  85 117 155 199 245 297 359
#     4  11  24  43  64  90 126 161 203 260 310 368
#
# _framework density 21.118867999999999
#
# number of rings (size 3 to 8) (size 9 to 14) (size 15 to 20)
#    0.000    1.538    0.000    6.923    0.000    1.846 
#    0.000    4.615    0.000    0.000    0.000    0.000 
#    0.000    0.000    0.000    0.000    0.000    0.000 
#
# Total GULP energy -322140.031344 kJ/mol
# GULP energy per Si atom -12390.001206 kJ/mol
# Density = 2.107080 g / cm^3
# Si number density = 21.118868 Si / 1000 Ang^3
#
#
#
# Elastic Constant Matrix: (Units=GPa)
#
#
# Indices 1 2 3 4 5 6 
#
# 1 86.4442 28.2408 45.3293 0.0000 15.0944 0.0000
# 2 28.2408 89.5069 56.8599 0.0000 7.9166 0.0000
# 3 45.3293 56.8599 145.2149 0.0000 0.1106 0.0000
# 4 0.0000 0.0000 0.0000 33.3668 0.0000 2.1357
# 5 15.0944 7.9166 0.1106 0.0000 42.9043 0.0000
# 6 0.0000 0.0000 0.0000 2.1357 0.0000 23.5120
#
#
#
# Elastic Compliance Matrix: (Units=1/GPa)
#
#
# Indices 1 2 3 4 5 6 
#
# 1 0.015128 -0.001777 -0.004023 0.000000 -0.004984 0.000000
# 2 -0.001777 0.015407 -0.005476 0.000000 -0.002204 0.000000
# 3 -0.004023 -0.005476 0.010285 0.000000 0.002399 0.000000
# 4 0.000000 0.000000 0.000000 0.030145 0.000000 -0.002738
# 5 -0.004984 -0.002204 0.002399 0.000000 0.025462 0.000000
# 6 0.000000 0.000000 0.000000 -0.002738 0.000000 0.042780
#
#
# Mechanical properties :
#
#
# Convention : Reuss Voigt Hill
#
# Bulk Modulus (GPa) = 54.74147 64.66956 59.70552
# Shear Modulus (GPa) = 29.78889 32.67236 31.23062
#
# Velocity S-wave (km/s) = 3.75978 3.93755 3.84969
# Velocity P-wave (km/s) = 6.69514 7.16663 6.93489
#
# Compressibility (1/GPa) = 0.01826769
#
# Stress axis : x y z
#
# Youngs Moduli (GPa) = 66.10058 64.90691 97.23344
#
# Poissons Ratio (x) = 0.11533 0.39116
# Poissons Ratio (y) = 0.11745 0.53247
# Poissons Ratio (z) = 0.26591 0.35545
#
# Static dielectric constant tensor:
#      x y z
#    x 3.701520 0.000000 0.049050 
#    y 0.000000 3.755780 0.000000 
#    z 0.049050 0.000000 3.697330 
# 
# 
# High freq. dielectric constant tensor:
#      x y z
#    x 1.827580 0.000000 -0.005890 
#    y 0.000000 1.818130 0.000000 
#    z -0.005890 0.000000 1.839430 
# 
# From -- ./inp_files/97465.got.cif
#   From: 2010.06.25/outbox.cif.g09.slc.cpg/sg13_49_cif.got.tgz:97465.got - 2010.06.28 04:50:58.
