data_PCOD8119917
_publ_section_title
;
Structure prediction by ZEFSAII (Michael W. Deem and Ramdas Pophale) SiO2 
 PCOD8119917
Probable space group: P 2/C
;
_chemical_formula_sum "Si O2"
_cell_formula_units_Z 24
_cell_length_a 6.396430
_cell_length_b 12.297548
_cell_length_c 16.122949
_cell_angle_alpha 90.000000
_cell_angle_beta 72.506182
_cell_angle_gamma 90.000000
_cell_volume 1209.580931
_symmetry_space_group_name_H-M "P 2/C"
_symmetry_group_IT_number 13
_symmetry_cell_setting 'monoclinic'
loop_
_space_group_symop_operation_xyz
x,y,z
-x,y,1/2-z
-x,-y,-z
x,-y,1/2+z
loop_
_atom_site_type_symbol
_atom_site_label
_atom_site_fract_x
_atom_site_fract_y
_atom_site_fract_z
Si Si1 0.943007 0.949672 0.663649
Si Si2 0.297603 0.576328 0.610647
Si Si3 0.911375 0.278881 0.112855
Si Si4 0.500000 0.637985 0.750000
Si Si5 0.812190 0.841568 0.336666
Si Si6 0.500000 0.945277 0.250000
Si Si7 0.721803 0.353337 0.968928
O O1 0.983723 0.847803 0.597503
O O2 0.000000 0.911753 0.750000
O O3 0.688632 0.981187 0.687139
O O4 0.097979 0.052963 0.622935
O O5 0.403182 0.560444 0.689274
O O6 0.207538 0.461449 0.588427
O O7 0.471690 0.631538 0.527688
O O8 0.093069 0.656234 0.642298
O O9 0.684368 0.283351 0.190340
O O10 0.886706 0.333023 0.025479
O O11 0.594969 0.870356 0.311612
O O12 0.740546 0.748772 0.407187
O O13 0.000000 0.802184 0.250000
#
# Coordination Sequence:
#
# PCOD8119917 Si02
#       7
#     4   4   4   2   4   2   4
#     4   9  18  33  55  83 110 142 185 228 274 330
#     4  10  22  39  57  81 115 149 185 232 279 326
#     4  11  21  37  60  84 115 146 181 231 281 331
#     4  10  21  35  58  88 106 143 193 224 276 336
#     4   9  20  36  56  82 109 147 191 228 274 330
#     4   8  17  35  56  80 114 145 181 230 276 328
#     4  10  23  39  55  83 116 147 187 230 278 333
#
# _framework density 19.841583
#
# number of rings (size 3 to 8) (size 9 to 14) (size 15 to 20)
#    0.000    2.667    0.000    2.500    0.000    9.333 
#    0.000    1.667    0.000    0.000    0.000    0.000 
#    0.000    0.000    0.000    0.000    0.000    0.000 
#
# Total GULP energy -297570.274252 kJ/mol
# GULP energy per Si atom -12398.761427 kJ/mol
# Density = 1.979642 g / cm^3
# Si number density = 19.841583 Si / 1000 Ang^3
#
#
#
# Elastic Constant Matrix: (Units=GPa)
#
#
# Indices 1 2 3 4 5 6 
#
# 1 127.9179 60.2101 39.1910 0.0000 10.9536 0.0000
# 2 60.2101 161.2353 63.7328 0.0000 12.5258 0.0000
# 3 39.1910 63.7328 78.6359 0.0000 16.5764 0.0000
# 4 0.0000 0.0000 0.0000 35.3379 0.0000 1.6366
# 5 10.9536 12.5258 16.5764 0.0000 21.1398 0.0000
# 6 0.0000 0.0000 0.0000 1.6366 0.0000 24.4623
#
#
#
# Elastic Compliance Matrix: (Units=1/GPa)
#
#
# Indices 1 2 3 4 5 6 
#
# 1 0.009949 -0.002596 -0.002506 0.000000 -0.001652 0.000000
# 2 -0.002596 0.009807 -0.006844 0.000000 0.000901 0.000000
# 3 -0.002506 -0.006844 0.022025 0.000000 -0.011917 0.000000
# 4 0.000000 0.000000 0.000000 0.028386 0.000000 -0.001899
# 5 -0.001652 0.000901 -0.011917 0.000000 0.056970 0.000000
# 6 0.000000 0.000000 0.000000 -0.001899 0.000000 0.041006
#
#
# Mechanical properties :
#
#
# Convention : Reuss Voigt Hill
#
# Bulk Modulus (GPa) = 55.90487 77.11742 66.51114
# Shear Modulus (GPa) = 25.25260 29.83168 27.54214
#
# Velocity S-wave (km/s) = 3.57138 3.88170 3.72977
# Velocity P-wave (km/s) = 6.72630 7.68382 7.22095
#
# Compressibility (1/GPa) = 0.01788753
#
# Stress axis : x y z
#
# Youngs Moduli (GPa) = 100.51498 101.96673 45.40277
#
# Poissons Ratio (x) = 0.26474 0.11377
# Poissons Ratio (y) = 0.26097 0.31076
# Poissons Ratio (z) = 0.25188 0.69791
#
# Static dielectric constant tensor:
#      x y z
#    x 3.813130 0.000000 0.117260 
#    y 0.000000 3.495230 0.000000 
#    z 0.117260 0.000000 3.416520 
# 
# 
# High freq. dielectric constant tensor:
#      x y z
#    x 1.787250 0.000000 0.006950 
#    y 0.000000 1.770010 0.000000 
#    z 0.006950 0.000000 1.753820 
# 
# From -- ./inp_files/61067.got.cif
#   From: 2010.06.25/outbox.cif.g09.slc.cpg/sg13_31_cif.got.tgz:61067.got - 2010.06.28 04:50:58.
