data_PCOD8119767
_publ_section_title
;
Structure prediction by ZEFSAII (Michael W. Deem and Ramdas Pophale) SiO2 
 PCOD8119767
Probable space group: P 2/C
;
_chemical_formula_sum "Si O2"
_cell_formula_units_Z 28
_cell_length_a 6.963075
_cell_length_b 18.579627
_cell_length_c 11.372594
_cell_angle_alpha 90.000000
_cell_angle_beta 61.889253
_cell_angle_gamma 90.000000
_cell_volume 1297.732384
_symmetry_space_group_name_H-M "P 2/C"
_symmetry_group_IT_number 13
_symmetry_cell_setting 'monoclinic'
loop_
_space_group_symop_operation_xyz
x,y,z
-x,y,1/2-z
-x,-y,-z
x,-y,1/2+z
loop_
_atom_site_type_symbol
_atom_site_label
_atom_site_fract_x
_atom_site_fract_y
_atom_site_fract_z
Si Si1 0.952798 0.095313 0.630179
Si Si2 0.103674 0.441762 0.387047
Si Si3 0.069082 0.766838 0.493224
Si Si4 0.687570 0.363548 0.505692
Si Si5 0.361024 0.311588 0.404215
Si Si6 0.000000 0.161268 0.250000
Si Si7 0.252424 0.944330 0.837675
Si Si8 0.500000 0.468461 0.750000
O O1 0.168688 0.077862 0.491353
O O2 0.000000 0.113591 0.750000
O O3 0.839733 0.166722 0.609550
O O4 0.792599 0.028037 0.671352
O O5 0.225813 0.384205 0.431625
O O6 0.297257 0.482209 0.259144
O O7 0.000000 0.500000 0.500000
O O8 0.898173 0.402411 0.379115
O O9 0.217504 0.696434 0.431474
O O10 0.097521 0.786383 0.622829
O O11 0.816345 0.752282 0.527367
O O12 0.527622 0.323272 0.462769
O O13 0.560135 0.421433 0.619888
O O14 0.500000 0.291453 0.250000
O O15 0.833341 0.107006 0.239025
O O16 0.500000 0.930516 0.750000
#
# Coordination Sequence:
#
# PCOD8119767 Si02
#       8
#     4   4   4   4   4   2   4   2
#     4  10  22  43  63  98 138 165 216 274 330 391
#     4   9  20  40  60  92 121 157 212 263 322 377
#     4  10  23  40  61  90 131 172 214 268 324 386
#     4  10  23  41  61  89 129 164 214 268 313 392
#     4  11  22  41  62  92 124 168 221 259 319 390
#     4  10  20  42  66  92 130 168 222 274 314 376
#     4  10  22  42  68  97 129 173 221 271 322 390
#     4  10  20  42  64  92 124 166 212 258 334 386
#
# _framework density 21.576098000000002
#
# number of rings (size 3 to 8) (size 9 to 14) (size 15 to 20)
#    0.000    2.000    1.429    0.857    0.000   10.286 
#    6.429    5.000    0.000    0.000    0.000    0.000 
#    0.000    0.000    0.000    0.000    0.000    0.000 
#
# Total GULP energy -346901.966733 kJ/mol
# GULP energy per Si atom -12389.355955 kJ/mol
# Density = 2.152699 g / cm^3
# Si number density = 21.576098 Si / 1000 Ang^3
#
#
#
# Elastic Constant Matrix: (Units=GPa)
#
#
# Indices 1 2 3 4 5 6 
#
# 1 114.6492 28.3473 42.1486 0.0000 -4.8104 0.0000
# 2 28.3473 107.2561 14.7517 0.0000 -4.3188 0.0000
# 3 42.1486 14.7517 68.5604 0.0000 9.0983 0.0000
# 4 0.0000 0.0000 0.0000 14.4079 0.0000 12.5315
# 5 -4.8104 -4.3188 9.0983 0.0000 34.4660 0.0000
# 6 0.0000 0.0000 0.0000 12.5315 0.0000 -5.0373
#
#
#
# Elastic Compliance Matrix: (Units=1/GPa)
#
#
# Indices 1 2 3 4 5 6 
#
# 1 0.012111 -0.002038 -0.007459 0.000000 0.003404 0.000000
# 2 -0.002038 0.010061 -0.001079 0.000000 0.001261 0.000000
# 3 -0.007459 -0.001079 0.020269 0.000000 -0.006527 0.000000
# 4 0.000000 0.000000 0.000000 0.021938 0.000000 0.054576
# 5 0.003404 0.001261 -0.006527 0.000000 0.031370 0.000000
# 6 0.000000 0.000000 0.000000 0.054576 0.000000 -0.062748
#
#
# Mechanical properties :
#
#
# Convention : Reuss Voigt Hill
#
# Bulk Modulus (GPa) = 46.97080 51.21788 49.09434
# Shear Modulus (GPa) = 81.63208 22.44853 52.04031
#
# Velocity S-wave (km/s) = 6.15765 3.22908 4.91648
# Velocity P-wave (km/s) = 8.50721 6.13941 7.41839
#
# Compressibility (1/GPa) = 0.02128982
#
# Stress axis : x y z
#
# Youngs Moduli (GPa) = 82.56961 99.39032 49.33557
#
# Poissons Ratio (x) = 0.20256 0.36798
# Poissons Ratio (y) = 0.16828 0.05325
# Poissons Ratio (z) = 0.61586 0.10727
#
# Static dielectric constant tensor:
#      x y z
#    x 3.896500 0.000000 -0.479120 
#    y 0.000000 4.320380 0.000000 
#    z -0.479120 0.000000 3.340090 
# 
# 
# High freq. dielectric constant tensor:
#      x y z
#    x 1.842990 0.000000 -0.009900 
#    y 0.000000 1.875880 0.000000 
#    z -0.009900 0.000000 1.825260 
# 
# From -- ./inp_files/26719.got.cif
#   From: 2010.06.25/outbox.cif.g09.slc.cpg/sg13_14_cif.got.tgz:26719.got - 2010.06.28 04:50:58.
