data_PCOD8119280
_publ_section_title
;
Structure prediction by ZEFSAII (Michael W. Deem and Ramdas Pophale) SiO2 
 PCOD8119280
Probable space group: P 2/C
;
_chemical_formula_sum "Si O2"
_cell_formula_units_Z 28
_cell_length_a 15.930923
_cell_length_b 16.604060
_cell_length_c 9.655580
_cell_angle_alpha 90.000000
_cell_angle_beta 31.098900
_cell_angle_gamma 90.000000
_cell_volume 1319.222732
_symmetry_space_group_name_H-M "P 2/C"
_symmetry_group_IT_number 13
_symmetry_cell_setting 'monoclinic'
loop_
_space_group_symop_operation_xyz
x,y,z
-x,y,1/2-z
-x,-y,-z
x,-y,1/2+z
loop_
_atom_site_type_symbol
_atom_site_label
_atom_site_fract_x
_atom_site_fract_y
_atom_site_fract_z
Si Si1 0.381773 0.849306 0.548692
Si Si2 0.398380 0.905445 0.024927
Si Si3 0.459822 0.676973 0.464857
Si Si4 0.115635 0.029007 0.455070
Si Si5 0.125418 0.591090 0.278786
Si Si6 0.347328 0.276992 0.558762
Si Si7 0.198060 0.450486 0.368621
O O1 0.470544 0.901377 0.539611
O O2 0.352216 0.757779 0.643052
O O3 0.204529 0.888861 0.778838
O O4 0.500000 0.850043 0.250000
O O5 0.253863 0.961886 0.281998
O O6 0.500000 0.940041 0.750000
O O7 0.318517 0.818692 0.102333
O O8 0.621036 0.686890 0.332093
O O9 0.369601 0.594334 0.625343
O O10 0.500000 0.672215 0.250000
O O11 0.000000 0.000000 0.500000
O O12 0.000000 0.044088 0.750000
O O13 0.202053 0.539960 0.297673
O O14 0.929553 0.598280 0.550128
O O15 0.193711 0.681064 0.201306
O O16 0.159087 0.545263 0.086419
O O17 0.500000 0.300524 0.250000
#
# Coordination Sequence:
#
# PCOD8119280 Si02
#       7
#     4   4   4   4   4   4   4
#     4  10  21  41  62  83 120 163 199 238 300 361
#     4  10  21  39  63  84 118 162 197 238 300 362
#     4  10  22  38  59  88 116 152 200 248 291 344
#     4  12  24  38  60  94 123 150 200 252 293 348
#     4  10  22  39  60  84 120 157 195 237 296 358
#     4  10  20  38  60  87 114 150 205 246 285 346
#     4  10  22  40  58  85 120 158 193 237 298 357
#
# _framework density 21.224619000000001
#
# number of rings (size 3 to 8) (size 9 to 14) (size 15 to 20)
#    0.000    1.714    1.429    2.571    2.000    2.286 
#    2.571    0.000    0.000    0.000    0.000    0.000 
#    0.000    0.000    0.000    0.000    0.000    0.000 
#
# Total GULP energy -347011.482646 kJ/mol
# GULP energy per Si atom -12393.267237 kJ/mol
# Density = 2.117631 g / cm^3
# Si number density = 21.224619 Si / 1000 Ang^3
#
#
#
# Elastic Constant Matrix: (Units=GPa)
#
#
# Indices 1 2 3 4 5 6 
#
# 1 65.1810 10.1176 10.2365 0.0000 14.8585 0.0000
# 2 10.1176 64.6031 11.4149 0.0000 -14.8710 0.0000
# 3 10.2365 11.4149 76.6056 0.0000 4.3792 0.0000
# 4 0.0000 0.0000 0.0000 27.2983 0.0000 -7.7349
# 5 14.8585 -14.8710 4.3792 0.0000 35.4011 0.0000
# 6 0.0000 0.0000 0.0000 -7.7349 0.0000 28.5566
#
#
#
# Elastic Compliance Matrix: (Units=1/GPa)
#
#
# Indices 1 2 3 4 5 6 
#
# 1 0.018499 -0.004916 -0.001186 0.000000 -0.009683 0.000000
# 2 -0.004916 0.019149 -0.002794 0.000000 0.010453 0.000000
# 3 -0.001186 -0.002794 0.013765 0.000000 -0.002379 0.000000
# 4 0.000000 0.000000 0.000000 0.039677 0.000000 0.010747
# 5 -0.009683 0.010453 -0.002379 0.000000 0.036997 0.000000
# 6 0.000000 0.000000 0.000000 0.010747 0.000000 0.037929
#
#
# Mechanical properties :
#
#
# Convention : Reuss Voigt Hill
#
# Bulk Modulus (GPa) = 29.74437 29.99195 29.86816
# Shear Modulus (GPa) = 25.63912 29.89259 27.76586
#
# Velocity S-wave (km/s) = 3.47938 3.75693 3.62082
# Velocity P-wave (km/s) = 5.49418 5.74289 5.61991
#
# Compressibility (1/GPa) = 0.03361981
#
# Stress axis : x y z
#
# Youngs Moduli (GPa) = 54.05840 52.22215 72.65002
#
# Poissons Ratio (x) = 0.25675 0.08615
# Poissons Ratio (y) = 0.26577 0.20298
# Poissons Ratio (z) = 0.06410 0.14591
#
# Static dielectric constant tensor:
#      x y z
#    x 4.076920 0.000000 0.184920 
#    y 0.000000 4.044530 0.000000 
#    z 0.184920 0.000000 3.193090 
# 
# 
# High freq. dielectric constant tensor:
#      x y z
#    x 1.844930 0.000000 0.013680 
#    y 0.000000 1.832600 0.000000 
#    z 0.013680 0.000000 1.816280 
# 
# From -- ./inp_files/20083.got.cif
#   From: 2010.06.25/outbox.cif.g09.slc.cpg/sg13_11_cif.got.tgz:20083.got - 2010.06.28 04:50:58.
