data_PCOD8119950
_publ_section_title
;
Structure prediction by ZEFSAII (Michael W. Deem and Ramdas Pophale) SiO2 
 PCOD8119950
Probable space group: P 2/C
;
_chemical_formula_sum "Si O2"
_cell_formula_units_Z 24
_cell_length_a 20.256390
_cell_length_b 4.876112
_cell_length_c 13.095031
_cell_angle_alpha 90.000000
_cell_angle_beta 118.379298
_cell_angle_gamma 90.000000
_cell_volume 1137.984285
_symmetry_space_group_name_H-M "P 2/C"
_symmetry_group_IT_number 13
_symmetry_cell_setting 'monoclinic'
loop_
_space_group_symop_operation_xyz
x,y,z
-x,y,1/2-z
-x,-y,-z
x,-y,1/2+z
loop_
_atom_site_type_symbol
_atom_site_label
_atom_site_fract_x
_atom_site_fract_y
_atom_site_fract_z
Si Si1 0.514035 0.208494 0.143184
Si Si2 0.233684 0.811228 0.273389
Si Si3 0.873950 0.729483 0.481410
Si Si4 0.057040 0.247051 0.055133
Si Si5 0.407314 0.287161 0.887771
Si Si6 0.839559 0.292794 0.189645
O O1 0.500000 0.285573 0.250000
O O2 0.573117 0.407519 0.132146
O O3 0.551399 0.909819 0.163085
O O4 0.435517 0.222221 0.023611
O O5 0.318640 0.730862 0.318515
O O6 0.187151 0.600697 0.309617
O O7 0.229730 0.099208 0.329284
O O8 0.194395 0.852239 0.134266
O O9 0.876685 0.403663 0.459791
O O10 0.860377 0.766863 0.589382
O O11 0.948635 0.932986 0.503883
O O12 0.084963 0.214944 0.192005
O O13 0.000000 0.500000 0.000000
#
# Coordination Sequence:
#
# PCOD8119950 Si02
#       6
#     4   4   4   4   4   4
#     4  10  21  36  54  78 110 144 184 230 272 324
#     4  10  21  36  56  81 111 143 182 228 273 326
#     4  10  21  37  57  82 111 142 180 224 270 323
#     4  10  21  38  57  81 111 142 179 222 267 322
#     4  10  21  36  54  80 109 143 185 227 274 326
#     4  10  21  37  56  82 111 142 181 225 271 325
#
# _framework density 21.089922000000001
#
# number of rings (size 3 to 8) (size 9 to 14) (size 15 to 20)
#    0.000    2.000    0.000    3.000    0.000    3.333 
#    0.000    1.667    0.000    0.000    0.000    0.000 
#    0.000    0.000    0.000    0.000    0.000    0.000 
#
# Total GULP energy -297472.623596 kJ/mol
# GULP energy per Si atom -12394.692650 kJ/mol
# Density = 2.104192 g / cm^3
# Si number density = 21.089922 Si / 1000 Ang^3
#
#
#
# Elastic Constant Matrix: (Units=GPa)
#
#
# Indices 1 2 3 4 5 6 
#
# 1 77.2986 21.7717 65.3242 0.0000 0.3752 0.0000
# 2 21.7717 108.7119 42.0247 0.0000 0.2074 0.0000
# 3 65.3242 42.0247 135.4660 0.0000 -22.6019 0.0000
# 4 0.0000 0.0000 0.0000 24.8977 0.0000 2.0505
# 5 0.3752 0.2074 -22.6019 0.0000 36.5177 0.0000
# 6 0.0000 0.0000 0.0000 2.0505 0.0000 21.7886
#
#
#
# Elastic Compliance Matrix: (Units=1/GPa)
#
#
# Indices 1 2 3 4 5 6 
#
# 1 0.023863 0.000248 -0.012964 0.000000 -0.008270 0.000000
# 2 0.000248 0.010631 -0.003823 0.000000 -0.002429 0.000000
# 3 -0.012964 -0.003823 0.016555 0.000000 0.010401 0.000000
# 4 0.000000 0.000000 0.000000 0.040478 0.000000 -0.003809
# 5 -0.008270 -0.002429 0.010401 0.000000 0.033920 0.000000
# 6 0.000000 0.000000 0.000000 -0.003809 0.000000 0.046254
#
#
# Mechanical properties :
#
#
# Convention : Reuss Voigt Hill
#
# Bulk Modulus (GPa) = 55.64413 64.41308 60.02861
# Shear Modulus (GPa) = 23.72258 29.46452 26.59355
#
# Velocity S-wave (km/s) = 3.35749 3.74182 3.55485
# Velocity P-wave (km/s) = 6.43986 7.01974 6.73604
#
# Compressibility (1/GPa) = 0.01797135
#
# Stress axis : x y z
#
# Youngs Moduli (GPa) = 41.90624 94.06052 60.40544
#
# Poissons Ratio (x) = -0.02335 0.78309
# Poissons Ratio (y) = -0.01040 0.23094
# Poissons Ratio (z) = 0.54327 0.35961
#
# Static dielectric constant tensor:
#      x y z
#    x 3.011440 0.000000 -0.286430 
#    y 0.000000 -2.840160 0.000000 
#    z -0.286430 0.000000 3.466360 
# 
# 
# High freq. dielectric constant tensor:
#      x y z
#    x 1.816300 0.000000 0.006110 
#    y 0.000000 1.860270 0.000000 
#    z 0.006110 0.000000 1.819580 
# 
# From -- ./inp_files/39899.got.cif
#   From: 2010.06.25/outbox.cif.g09.slc.cpg/sg13_20_cif.got.tgz:39899.got - 2010.06.28 04:50:58.
