data_PCOD8119027
_publ_section_title
;
Structure prediction by ZEFSAII (Michael W. Deem and Ramdas Pophale) SiO2 
 PCOD8119027
Probable space group: P 2/C
;
_chemical_formula_sum "Si O2"
_cell_formula_units_Z 24
_cell_length_a 9.748783
_cell_length_b 13.754638
_cell_length_c 16.154960
_cell_angle_alpha 90.000000
_cell_angle_beta 30.591529
_cell_angle_gamma 90.000000
_cell_volume 1102.427362
_symmetry_space_group_name_H-M "P 2/C"
_symmetry_group_IT_number 13
_symmetry_cell_setting 'monoclinic'
loop_
_space_group_symop_operation_xyz
x,y,z
-x,y,1/2-z
-x,-y,-z
x,-y,1/2+z
loop_
_atom_site_type_symbol
_atom_site_label
_atom_site_fract_x
_atom_site_fract_y
_atom_site_fract_z
Si Si1 0.907045 0.190424 0.890766
Si Si2 0.734864 0.500000 0.692074
Si Si3 0.592586 0.294127 0.296704
Si Si4 0.092955 0.809577 0.609234
Si Si5 0.763765 0.000000 0.058786
Si Si6 0.592585 0.294127 0.796704
O O1 0.162060 0.220419 0.814388
O O2 0.000000 0.170673 0.750000
O O3 0.671204 0.271968 0.011096
O O4 0.771787 0.093718 0.996321
O O5 0.500000 0.500002 0.750000
O O6 0.705097 0.598145 0.761753
O O7 0.705092 0.401856 0.761756
O O8 0.000000 0.500000 0.500000
O O9 0.500000 0.283911 0.250000
O O10 0.837941 0.220419 0.185612
O O11 0.228212 0.906283 0.503680
O O12 0.328797 0.728033 0.488904
O O13 0.000000 0.829327 0.750000
O O14 0.500000 0.000000 0.250000
O O15 0.000000 0.000000 0.000000
O O16 0.500000 0.283911 0.750000
#
# Coordination Sequence:
#
# PCOD8119027 Si02
#       6
#     4   4   4   4   4   4
#     4  12  25  42  62  93 130 162 197 255 318 367
#     4  10  20  36  63  94 121 158 211 262 297 344
#     4  11  22  41  66  92 122 165 213 253 298 364
#     4  12  25  42  62  93 130 162 197 255 318 367
#     4  12  25  42  67  92 117 160 213 254 297 366
#     4  11  22  41  66  92 122 165 213 253 298 364
#
# _framework density 21.770140000000001
#
# number of rings (size 3 to 8) (size 9 to 14) (size 15 to 20)
#    0.000    0.667    0.000   11.500    0.000    0.000 
#    0.000   10.000    0.000    0.000    0.000    0.000 
#    0.000    0.000    0.000    0.000    0.000    0.000 
#
# Total GULP energy -297632.301316 kJ/mol
# GULP energy per Si atom -12401.345888 kJ/mol
# Density = 2.172059 g / cm^3
# Si number density = 21.770140 Si / 1000 Ang^3
#
#
#
# Elastic Constant Matrix: (Units=GPa)
#
#
# Indices 1 2 3 4 5 6 
#
# 1 79.9649 56.4366 59.2962 0.0000 -11.6792 0.0000
# 2 56.4366 145.4432 89.6695 0.0000 10.9717 0.0000
# 3 59.2962 89.6695 211.8307 0.0000 -6.7847 0.0000
# 4 0.0000 0.0000 0.0000 40.5915 0.0000 -9.7166
# 5 -11.6792 10.9717 -6.7847 0.0000 46.7226 0.0000
# 6 0.0000 0.0000 0.0000 -9.7166 0.0000 13.3157
#
#
#
# Elastic Compliance Matrix: (Units=1/GPa)
#
#
# Indices 1 2 3 4 5 6 
#
# 1 0.020015 -0.006631 -0.002597 0.000000 0.006183 0.000000
# 2 -0.006631 0.011872 -0.003327 0.000000 -0.004929 0.000000
# 3 -0.002597 -0.003327 0.006892 0.000000 0.001133 0.000000
# 4 0.000000 0.000000 0.000000 0.029850 0.000000 0.021782
# 5 0.006183 -0.004929 0.001133 0.000000 0.024270 0.000000
# 6 0.000000 0.000000 0.000000 0.021782 0.000000 0.090994
#
#
# Mechanical properties :
#
#
# Convention : Reuss Voigt Hill
#
# Bulk Modulus (GPa) = 73.16708 94.22706 83.69707
# Shear Modulus (GPa) = 23.41258 35.58172 29.49715
#
# Velocity S-wave (km/s) = 3.28295 4.04719 3.68494
# Velocity P-wave (km/s) = 6.93197 8.07566 7.52558
#
# Compressibility (1/GPa) = 0.01366735
#
# Stress axis : x y z
#
# Youngs Moduli (GPa) = 49.96273 84.23395 145.08677
#
# Poissons Ratio (x) = 0.55860 0.37685
# Poissons Ratio (y) = 0.33133 0.48269
# Poissons Ratio (z) = 0.12977 0.28024
#
# Static dielectric constant tensor:
#      x y z
#    x 3.732520 0.000000 -0.211250 
#    y 0.000000 4.507490 0.000000 
#    z -0.211250 0.000000 4.062280 
# 
# 
# High freq. dielectric constant tensor:
#      x y z
#    x 1.841880 0.000000 -0.023540 
#    y 0.000000 1.869540 0.000000 
#    z -0.023540 0.000000 1.873120 
# 
# From -- ./inp_files/66566.got.cif
#   From: 2010.06.25/outbox.cif.g09.slc.cpg/sg13_34_cif.got.tgz:66566.got - 2010.06.28 04:50:58.
