data_PCOD8119102
_publ_section_title
;
Structure prediction by ZEFSAII (Michael W. Deem and Ramdas Pophale) SiO2 
 PCOD8119102
Probable space group: P 2/C
;
_chemical_formula_sum "Si O2"
_cell_formula_units_Z 32
_cell_length_a 8.702658
_cell_length_b 11.338107
_cell_length_c 30.633299
_cell_angle_alpha 90.000000
_cell_angle_beta 30.458330
_cell_angle_gamma 90.000000
_cell_volume 1532.210570
_symmetry_space_group_name_H-M "P 2/C"
_symmetry_group_IT_number 13
_symmetry_cell_setting 'monoclinic'
loop_
_space_group_symop_operation_xyz
x,y,z
-x,y,1/2-z
-x,-y,-z
x,-y,1/2+z
loop_
_atom_site_type_symbol
_atom_site_label
_atom_site_fract_x
_atom_site_fract_y
_atom_site_fract_z
Si Si1 0.367962 0.873671 0.041052
Si Si2 0.143807 0.791646 0.449929
Si Si3 0.684567 0.924861 0.350385
Si Si4 0.824210 0.432373 0.505437
Si Si5 0.809890 0.252744 0.655840
Si Si6 0.530859 0.182118 0.410801
Si Si7 0.792426 0.428955 0.340015
Si Si8 0.857195 0.512528 0.662092
O O1 0.384279 0.847269 0.088686
O O2 0.017198 0.860736 0.114174
O O3 0.530319 0.792326 0.963990
O O4 0.500000 0.000000 0.000000
O O5 0.390677 0.897786 0.392444
O O6 0.184369 0.705825 0.481147
O O7 0.218571 0.716291 0.388296
O O8 0.802063 0.839899 0.528578
O O9 0.000000 0.884913 0.250000
O O10 0.716433 0.063757 0.353712
O O11 0.487348 0.483853 0.583475
O O12 0.000000 0.500000 0.500000
O O13 0.998506 0.439708 0.417402
O O14 0.500000 0.205962 0.750000
O O15 0.921245 0.372560 0.652062
O O16 0.680010 0.298133 0.353587
O O17 0.000000 0.478529 0.250000
O O18 0.991805 0.420293 0.334656
O O19 0.500000 0.538521 0.750000
#
# Coordination Sequence:
#
# PCOD8119102 Si02
#       8
#     4   4   4   4   4   4   4   4
#     4   9  20  38  60  86 119 162 214 261 311 387
#     4  11  23  37  66  91 125 168 215 263 320 397
#     4  11  23  39  63  94 125 163 220 278 324 385
#     4  12  22  42  64  95 135 172 214 265 327 396
#     4  10  20  37  59  88 128 165 201 259 328 376
#     4  10  22  44  63  87 127 176 214 264 330 388
#     4  12  26  41  68  97 133 176 219 269 335 399
#     4  11  25  42  64  96 134 170 217 273 328 402
#
# _framework density 20.884858999999999
#
# number of rings (size 3 to 8) (size 9 to 14) (size 15 to 20)
#    0.000    1.250    2.500    3.375    5.250    0.500 
#    0.000    0.000    0.000    3.000    0.000    0.000 
#    0.000    0.000    0.000    0.000    0.000    0.000 
#
# Total GULP energy -396539.075892 kJ/mol
# GULP energy per Si atom -12391.846122 kJ/mol
# Density = 2.083732 g / cm^3
# Si number density = 20.884859 Si / 1000 Ang^3
#
#
#
# Elastic Constant Matrix: (Units=GPa)
#
#
# Indices 1 2 3 4 5 6 
#
# 1 111.4284 23.2412 51.0637 0.0000 -1.9049 0.0000
# 2 23.2412 66.5276 28.2719 0.0000 -7.5936 0.0000
# 3 51.0637 28.2719 138.2937 0.0000 -0.2337 0.0000
# 4 0.0000 0.0000 0.0000 13.8654 0.0000 -5.9667
# 5 -1.9049 -7.5936 -0.2337 0.0000 33.2356 0.0000
# 6 0.0000 0.0000 0.0000 -5.9667 0.0000 17.8515
#
#
#
# Elastic Compliance Matrix: (Units=1/GPa)
#
#
# Indices 1 2 3 4 5 6 
#
# 1 0.011127 -0.002335 -0.003631 0.000000 0.000079 0.000000
# 2 -0.002335 0.017429 -0.002694 0.000000 0.003829 0.000000
# 3 -0.003631 -0.002694 0.009121 0.000000 -0.000760 0.000000
# 4 0.000000 0.000000 0.000000 0.084238 0.000000 0.028156
# 5 0.000079 0.003829 -0.000760 0.000000 0.030962 0.000000
# 6 0.000000 0.000000 0.000000 0.028156 0.000000 0.065429
#
#
# Mechanical properties :
#
#
# Convention : Reuss Voigt Hill
#
# Bulk Modulus (GPa) = 49.12496 57.93372 53.52934
# Shear Modulus (GPa) = 20.62600 27.23536 23.93068
#
# Velocity S-wave (km/s) = 3.14603 3.61511 3.38870
# Velocity P-wave (km/s) = 6.06379 6.72497 6.40292
#
# Compressibility (1/GPa) = 0.02035625
#
# Stress axis : x y z
#
# Youngs Moduli (GPa) = 89.87398 57.37484 109.63437
#
# Poissons Ratio (x) = 0.13397 0.39807
# Poissons Ratio (y) = 0.20986 0.29540
# Poissons Ratio (z) = 0.32633 0.15459
#
# Static dielectric constant tensor:
#      x y z
#    x 3.912990 0.000000 0.140270 
#    y 0.000000 3.566550 0.000000 
#    z 0.140270 0.000000 3.953350 
# 
# 
# High freq. dielectric constant tensor:
#      x y z
#    x 1.821040 0.000000 0.004980 
#    y 0.000000 1.800350 0.000000 
#    z 0.004980 0.000000 1.831000 
# 
# From -- ./inp_files/96135.got.cif
#   From: 2010.06.25/outbox.cif.g09.slc.cpg/sg13_49_cif.got.tgz:96135.got - 2010.06.28 04:50:58.
