data_PCOD8119626
_publ_section_title
;
Structure prediction by ZEFSAII (Michael W. Deem and Ramdas Pophale) SiO2 
 PCOD8119626
Probable space group: P 2/C
;
_chemical_formula_sum "Si O2"
_cell_formula_units_Z 22
_cell_length_a 5.472831
_cell_length_b 10.275233
_cell_length_c 16.203433
_cell_angle_alpha 90.000000
_cell_angle_beta 86.742866
_cell_angle_gamma 90.000000
_cell_volume 909.721856
_symmetry_space_group_name_H-M "P 2/C"
_symmetry_group_IT_number 13
_symmetry_cell_setting 'monoclinic'
loop_
_space_group_symop_operation_xyz
x,y,z
-x,y,1/2-z
-x,-y,-z
x,-y,1/2+z
loop_
_atom_site_type_symbol
_atom_site_label
_atom_site_fract_x
_atom_site_fract_y
_atom_site_fract_z
Si Si1 0.664285 0.742664 0.891004
Si Si2 0.376514 0.981037 0.834490
Si Si3 0.892342 0.134098 0.538138
Si Si4 0.036080 0.661914 0.153652
Si Si5 0.532272 0.487527 0.653933
Si Si6 0.000000 0.187092 0.250000
O O1 0.544331 0.881627 0.879998
O O2 0.471474 0.623728 0.897885
O O3 0.831406 0.716029 0.806602
O O4 0.817219 0.758921 0.971788
O O5 0.500000 0.039703 0.750000
O O6 0.131731 0.905229 0.813714
O O7 0.336494 0.097890 0.898859
O O8 0.073430 0.208470 0.597467
O O9 0.000000 0.000000 0.500000
O O10 0.790908 0.582766 0.129623
O O11 0.000000 0.701295 0.250000
O O12 0.288736 0.588433 0.130397
O O13 0.500000 0.519550 0.750000
#
# Coordination Sequence:
#
# PCOD8119626 Si02
#       6
#     4   4   4   4   4   2
#     4  11  24  40  72 105 141 186 240 305 367 428
#     4  10  23  41  68 100 139 191 243 292 360 436
#     4  12  26  45  70 106 149 188 241 307 362 434
#     4  10  26  46  73 104 142 195 239 295 367 436
#     4  10  23  46  73 105 142 189 246 300 359 439
#     4  10  20  40  64 102 132 188 238 288 362 428
#
# _framework density 24.183216000000002
#
# number of rings (size 3 to 8) (size 9 to 14) (size 15 to 20)
#    0.000    1.455    1.818    2.182    7.636    6.545 
#    0.000    0.000    0.000    0.000    0.000    0.000 
#    0.000    0.000    0.000    0.000    0.000    0.000 
#
# Total GULP energy -272683.322629 kJ/mol
# GULP energy per Si atom -12394.696483 kJ/mol
# Density = 2.412817 g / cm^3
# Si number density = 24.183216 Si / 1000 Ang^3
#
#
#
# Elastic Constant Matrix: (Units=GPa)
#
#
# Indices 1 2 3 4 5 6 
#
# 1 121.7937 33.5657 32.7366 0.0000 7.3842 0.0000
# 2 33.5657 104.9029 68.9846 0.0000 -0.3114 0.0000
# 3 32.7366 68.9846 99.6841 0.0000 17.0676 0.0000
# 4 0.0000 0.0000 0.0000 36.8919 0.0000 2.1671
# 5 7.3842 -0.3114 17.0676 0.0000 18.2868 0.0000
# 6 0.0000 0.0000 0.0000 2.1671 0.0000 13.5555
#
#
#
# Elastic Compliance Matrix: (Units=1/GPa)
#
#
# Indices 1 2 3 4 5 6 
#
# 1 0.009289 -0.002403 -0.000879 0.000000 -0.002972 0.000000
# 2 -0.002403 0.021631 -0.017150 0.000000 0.017345 0.000000
# 3 -0.000879 -0.017150 0.026396 0.000000 -0.024573 0.000000
# 4 0.000000 0.000000 0.000000 0.027363 0.000000 -0.004375
# 5 -0.002972 0.017345 -0.024573 0.000000 0.079115 0.000000
# 6 0.000000 0.000000 0.000000 -0.004375 0.000000 0.074470
#
#
# Mechanical properties :
#
#
# Convention : Reuss Voigt Hill
#
# Bulk Modulus (GPa) = 60.78109 66.32829 63.55469
# Shear Modulus (GPa) = 17.56780 26.48645 22.02712
#
# Velocity S-wave (km/s) = 2.69819 3.31303 3.02129
# Velocity P-wave (km/s) = 5.90721 6.49014 6.20552
#
# Compressibility (1/GPa) = 0.01645248
#
# Stress axis : x y z
#
# Youngs Moduli (GPa) = 107.65082 46.23006 37.88474
#
# Poissons Ratio (x) = 0.11111 0.03329
# Poissons Ratio (y) = 0.25872 0.64972
# Poissons Ratio (z) = 0.09458 0.79284
#
# Static dielectric constant tensor:
#      x y z
#    x 4.521090 0.000000 0.059860 
#    y 0.000000 4.142490 0.000000 
#    z 0.059860 0.000000 4.518600 
# 
# 
# High freq. dielectric constant tensor:
#      x y z
#    x 1.958040 0.000000 0.010390 
#    y 0.000000 1.952200 0.000000 
#    z 0.010390 0.000000 1.966400 
# 
# From -- ./inp_files/43696.got.cif
#   From: 2010.06.25/outbox.cif.g09.slc.cpg/sg13_22_cif.got.tgz:43696.got - 2010.06.28 04:50:58.
