data_PCOD8119774
_publ_section_title
;
Structure prediction by ZEFSAII (Michael W. Deem and Ramdas Pophale) SiO2 
 PCOD8119774
Probable space group: P 2/C
;
_chemical_formula_sum "Si O2"
_cell_formula_units_Z 30
_cell_length_a 11.205628
_cell_length_b 9.090544
_cell_length_c 16.380304
_cell_angle_alpha 90.000000
_cell_angle_beta 122.863617
_cell_angle_gamma 90.000000
_cell_volume 1401.551374
_symmetry_space_group_name_H-M "P 2/C"
_symmetry_group_IT_number 13
_symmetry_cell_setting 'monoclinic'
loop_
_space_group_symop_operation_xyz
x,y,z
-x,y,1/2-z
-x,-y,-z
x,-y,1/2+z
loop_
_atom_site_type_symbol
_atom_site_label
_atom_site_fract_x
_atom_site_fract_y
_atom_site_fract_z
Si Si1 0.163864 0.394754 0.621124
Si Si2 0.373566 0.434659 0.897540
Si Si3 0.593980 0.721772 0.387218
Si Si4 0.500000 0.011692 0.750000
Si Si5 0.156089 0.772604 0.276906
Si Si6 0.234967 0.918321 0.739958
Si Si7 0.973446 0.297461 0.413884
Si Si8 0.222287 0.709787 0.884951
O O1 0.322331 0.378427 0.645854
O O2 0.145013 0.358469 0.708149
O O3 0.125262 0.565125 0.600683
O O4 0.071308 0.282117 0.530392
O O5 0.445973 0.368128 0.843090
O O6 0.268810 0.295500 0.886678
O O7 0.267277 0.571239 0.845441
O O8 0.500000 0.500000 0.000000
O O9 0.572810 0.885300 0.345084
O O10 0.666487 0.741261 0.501976
O O11 0.387472 0.903841 0.752467
O O12 0.000000 0.812150 0.250000
O O13 0.213339 0.910240 0.247754
O O14 0.119473 0.848843 0.635168
O O15 0.223884 0.847023 0.825089
O O16 0.068179 0.321247 0.367352
#
# Coordination Sequence:
#
# PCOD8119774 Si02
#       8
#     4   4   4   2   4   4   4   4
#     4  10  21  40  69  93 128 173 216 274 336 391
#     4  10  21  40  67  95 126 170 223 276 331 390
#     4  10  20  42  66  91 131 168 218 277 334 392
#     4  12  24  44  60  90 132 178 220 272 336 410
#     4  12  23  39  64  96 130 177 224 271 333 407
#     4  12  25  42  63  94 135 178 218 269 341 404
#     4  10  22  41  64  99 132 164 217 277 335 396
#     4  10  22  40  66  96 129 168 215 281 331 395
#
# _framework density 21.404852999999999
#
# number of rings (size 3 to 8) (size 9 to 14) (size 15 to 20)
#    0.000    1.333    2.667    2.800    0.000    3.200 
#    2.400    1.333    0.000    0.000    0.000    0.000 
#    0.000    0.000    0.000    0.000    0.000    0.000 
#
# Total GULP energy -371646.792196 kJ/mol
# GULP energy per Si atom -12388.226407 kJ/mol
# Density = 2.135613 g / cm^3
# Si number density = 21.404853 Si / 1000 Ang^3
#
#
#
# Elastic Constant Matrix: (Units=GPa)
#
#
# Indices 1 2 3 4 5 6 
#
# 1 135.6316 20.2663 20.1193 0.0000 11.2893 0.0000
# 2 20.2663 82.6734 29.9613 0.0000 12.8213 0.0000
# 3 20.1193 29.9613 74.7742 0.0000 -2.7119 0.0000
# 4 0.0000 0.0000 0.0000 35.9417 0.0000 3.4581
# 5 11.2893 12.8213 -2.7119 0.0000 28.7395 0.0000
# 6 0.0000 0.0000 0.0000 3.4581 0.0000 46.7159
#
#
#
# Elastic Compliance Matrix: (Units=1/GPa)
#
#
# Indices 1 2 3 4 5 6 
#
# 1 0.008030 -0.000800 -0.001948 0.000000 -0.002981 0.000000
# 2 -0.000800 0.015726 -0.006351 0.000000 -0.007301 0.000000
# 3 -0.001948 -0.006351 0.016630 0.000000 0.005168 0.000000
# 4 0.000000 0.000000 0.000000 0.028022 0.000000 -0.002074
# 5 -0.002981 -0.007301 0.005168 0.000000 0.039711 0.000000
# 6 0.000000 0.000000 0.000000 -0.002074 0.000000 0.021560
#
#
# Mechanical properties :
#
#
# Convention : Reuss Voigt Hill
#
# Bulk Modulus (GPa) = 45.07029 48.19700 46.63364
# Shear Modulus (GPa) = 32.20176 37.12823 34.66499
#
# Velocity S-wave (km/s) = 3.88289 4.16934 4.02866
# Velocity P-wave (km/s) = 6.41905 6.76340 6.59347
#
# Compressibility (1/GPa) = 0.02218757
#
# Stress axis : x y z
#
# Youngs Moduli (GPa) = 124.53991 63.59061 60.13302
#
# Poissons Ratio (x) = 0.05088 0.11714
# Poissons Ratio (y) = 0.09964 0.38188
# Poissons Ratio (z) = 0.24261 0.40384
#
# Static dielectric constant tensor:
#      x y z
#    x 4.225380 0.000000 0.218520 
#    y 0.000000 3.759960 0.000000 
#    z 0.218520 0.000000 3.935240 
# 
# 
# High freq. dielectric constant tensor:
#      x y z
#    x 1.858030 0.000000 0.012970 
#    y 0.000000 1.828930 0.000000 
#    z 0.012970 0.000000 1.838580 
# 
# From -- ./inp_files/66323.got.cif
#   From: 2010.06.25/outbox.cif.g09.slc.cpg/sg13_34_cif.got.tgz:66323.got - 2010.06.28 04:50:58.
