data_PCOD8119252
_publ_section_title
;
Structure prediction by ZEFSAII (Michael W. Deem and Ramdas Pophale) SiO2 
 PCOD8119252
Probable space group: P 2/C
;
_chemical_formula_sum "Si O2"
_cell_formula_units_Z 32
_cell_length_a 11.397279
_cell_length_b 8.468986
_cell_length_c 30.172696
_cell_angle_alpha 90.000000
_cell_angle_beta 31.176739
_cell_angle_gamma 90.000000
_cell_volume 1507.675408
_symmetry_space_group_name_H-M "P 2/C"
_symmetry_group_IT_number 13
_symmetry_cell_setting 'monoclinic'
loop_
_space_group_symop_operation_xyz
x,y,z
-x,y,1/2-z
-x,-y,-z
x,-y,1/2+z
loop_
_atom_site_type_symbol
_atom_site_label
_atom_site_fract_x
_atom_site_fract_y
_atom_site_fract_z
Si Si1 0.410598 0.173670 0.587931
Si Si2 0.165441 0.609208 0.546704
Si Si3 0.909540 0.284232 0.885258
Si Si4 0.715774 0.731144 0.654129
Si Si5 0.403077 0.572246 0.895400
Si Si6 0.585993 0.135954 0.056264
Si Si7 0.613782 0.730349 0.305300
Si Si8 0.737385 0.021356 0.594844
O O1 0.644218 0.265012 0.499686
O O2 0.218693 0.235546 0.617626
O O3 0.329237 0.211959 0.663701
O O4 0.436408 0.981052 0.573449
O O5 0.130279 0.471855 0.594477
O O6 0.228523 0.534568 0.479125
O O7 0.933650 0.704215 0.614154
O O8 0.172746 0.236688 0.795583
O O9 0.817825 0.183926 0.956533
O O10 0.500000 0.663230 0.750000
O O11 0.739195 0.653884 0.597843
O O12 0.678909 0.917385 0.656839
O O13 0.523930 0.700247 0.889670
O O14 0.592142 0.459581 0.813238
O O15 0.621630 0.029423 0.087091
O O16 0.380212 0.806427 0.360315
O O17 0.000000 0.000000 0.500000
#
# Coordination Sequence:
#
# PCOD8119252 Si02
#       8
#     4   4   4   4   4   4   4   4
#     4  10  20  38  59  81 115 158 193 236 299 360
#     4  10  21  36  58  83 113 154 195 233 289 364
#     4  11  21  36  58  87 116 148 197 253 292 344
#     4  11  21  35  55  82 114 145 185 243 294 344
#     4   9  19  37  57  81 113 150 189 234 295 361
#     4   9  20  36  58  83 111 150 193 233 288 359
#     4  10  21  36  58  85 114 149 196 250 298 350
#     4  10  21  38  57  78 110 152 189 230 293 358
#
# _framework density 21.224727999999999
#
# number of rings (size 3 to 8) (size 9 to 14) (size 15 to 20)
#    0.000    2.000    0.000    4.500    0.000    4.000 
#    0.000    3.125    0.000   12.000    0.000    0.000 
#    0.000    0.000    0.000    0.000    0.000    0.000 
#
# Total GULP energy -396476.577143 kJ/mol
# GULP energy per Si atom -12389.893036 kJ/mol
# Density = 2.117642 g / cm^3
# Si number density = 21.224728 Si / 1000 Ang^3
#
#
#
# Elastic Constant Matrix: (Units=GPa)
#
#
# Indices 1 2 3 4 5 6 
#
# 1 56.9126 35.2340 16.7143 0.0000 -13.0984 0.0000
# 2 35.2340 135.0925 38.4186 0.0000 -4.9251 0.0000
# 3 16.7143 38.4186 91.4629 0.0000 -13.0186 0.0000
# 4 0.0000 0.0000 0.0000 22.5841 0.0000 -1.3904
# 5 -13.0984 -4.9251 -13.0186 0.0000 23.2422 0.0000
# 6 0.0000 0.0000 0.0000 -1.3904 0.0000 28.3805
#
#
#
# Elastic Compliance Matrix: (Units=1/GPa)
#
#
# Indices 1 2 3 4 5 6 
#
# 1 0.024002 -0.005748 -0.000239 0.000000 0.012175 0.000000
# 2 -0.005748 0.009784 -0.003505 0.000000 -0.003129 0.000000
# 3 -0.000239 -0.003505 0.013392 0.000000 0.006624 0.000000
# 4 0.000000 0.000000 0.000000 0.044413 0.000000 0.002176
# 5 0.012175 -0.003129 0.006624 0.000000 0.052934 0.000000
# 6 0.000000 0.000000 0.000000 0.002176 0.000000 0.035342
#
#
# Mechanical properties :
#
#
# Convention : Reuss Voigt Hill
#
# Bulk Modulus (GPa) = 35.46808 51.57798 43.52303
# Shear Modulus (GPa) = 24.00986 27.71476 25.86231
#
# Velocity S-wave (km/s) = 3.36701 3.61747 3.49449
# Velocity P-wave (km/s) = 5.64471 6.46543 6.06896
#
# Compressibility (1/GPa) = 0.02819437
#
# Stress axis : x y z
#
# Youngs Moduli (GPa) = 41.66397 102.20598 74.67127
#
# Poissons Ratio (x) = 0.58750 0.01783
# Poissons Ratio (y) = 0.23949 0.26171
# Poissons Ratio (z) = 0.00995 0.35821
#
# Static dielectric constant tensor:
#      x y z
#    x 3.472330 0.000000 0.162300 
#    y 0.000000 4.281720 0.000000 
#    z 0.162300 0.000000 3.738830 
# 
# 
# High freq. dielectric constant tensor:
#      x y z
#    x 1.812240 0.000000 0.015350 
#    y 0.000000 1.845030 0.000000 
#    z 0.015350 0.000000 1.822230 
# 
# From -- ./inp_files/96696.got.cif
#   From: 2010.06.25/outbox.cif.g09.slc.cpg/sg13_49_cif.got.tgz:96696.got - 2010.06.28 04:50:58.
