data_PCOD8119833
_publ_section_title
;
Structure prediction by ZEFSAII (Michael W. Deem and Ramdas Pophale) SiO2 
 PCOD8119833
Probable space group: P 2/C
;
_chemical_formula_sum "Si O2"
_cell_formula_units_Z 30
_cell_length_a 14.690131
_cell_length_b 9.163670
_cell_length_c 11.146117
_cell_angle_alpha 90.000000
_cell_angle_beta 93.187349
_cell_angle_gamma 90.000000
_cell_volume 1498.119172
_symmetry_space_group_name_H-M "P 2/C"
_symmetry_group_IT_number 13
_symmetry_cell_setting 'monoclinic'
loop_
_space_group_symop_operation_xyz
x,y,z
-x,y,1/2-z
-x,-y,-z
x,-y,1/2+z
loop_
_atom_site_type_symbol
_atom_site_label
_atom_site_fract_x
_atom_site_fract_y
_atom_site_fract_z
Si Si1 0.257337 0.560414 0.682569
Si Si2 0.400434 0.682631 0.263950
Si Si3 0.217770 0.251471 0.401248
Si Si4 0.318492 0.911647 0.106389
Si Si5 0.317465 0.209722 0.990219
Si Si6 0.180802 0.055462 0.804859
Si Si7 0.000000 0.793769 0.250000
Si Si8 0.084108 0.415652 0.563263
O O1 0.321742 0.419531 0.702575
O O2 0.263979 0.641819 0.809231
O O3 0.291383 0.662571 0.578526
O O4 0.153477 0.515935 0.644982
O O5 0.500000 0.611960 0.250000
O O6 0.396378 0.837062 0.192722
O O7 0.389735 0.718099 0.404333
O O8 0.297656 0.194701 0.493736
O O9 0.138455 0.337889 0.461557
O O10 0.175189 0.114741 0.330907
O O11 0.225596 0.925650 0.177196
O O12 0.356175 0.069528 0.066032
O O13 0.231762 0.152039 0.908242
O O14 0.077727 0.103862 0.806660
O O15 0.041423 0.700498 0.147516
O O16 0.000000 0.500000 0.500000
#
# Coordination Sequence:
#
# PCOD8119833 Si02
#       8
#     4   4   4   4   4   4   2   4
#     4  12  23  43  66  95 131 173 211 261 326 385
#     4  11  25  43  68  99 128 162 207 265 326 391
#     4  11  22  40  66  90 122 174 209 265 318 376
#     4  10  20  46  66  91 124 168 213 262 321 379
#     4  10  22  42  68  92 123 169 212 259 317 384
#     4  10  21  39  66  88 125 165 222 261 320 369
#     4  12  22  38  56  90 130 168 212 276 308 368
#     4  12  24  38  59  90 131 172 217 259 314 375
#
# _framework density 20.025107999999999
#
# number of rings (size 3 to 8) (size 9 to 14) (size 15 to 20)
#    0.000    1.067    4.000    3.200    0.000    2.667 
#    0.000    0.667    0.000    0.000    0.000    0.000 
#    0.000    0.000    0.000    0.000    0.000    0.000 
#
# Total GULP energy -372020.366859 kJ/mol
# GULP energy per Si atom -12400.678895 kJ/mol
# Density = 1.997953 g / cm^3
# Si number density = 20.025108 Si / 1000 Ang^3
#
#
#
# Elastic Constant Matrix: (Units=GPa)
#
#
# Indices 1 2 3 4 5 6 
#
# 1 60.0435 20.8930 25.3347 0.0000 -9.3313 0.0000
# 2 20.8930 91.6369 41.3982 0.0000 -7.2893 0.0000
# 3 25.3347 41.3982 103.7860 0.0000 -12.7616 0.0000
# 4 0.0000 0.0000 0.0000 59.5936 0.0000 1.0615
# 5 -9.3313 -7.2893 -12.7616 0.0000 23.0585 0.0000
# 6 0.0000 0.0000 0.0000 1.0615 0.0000 21.6732
#
#
#
# Elastic Compliance Matrix: (Units=1/GPa)
#
#
# Indices 1 2 3 4 5 6 
#
# 1 0.019730 -0.002674 -0.003081 0.000000 0.005434 0.000000
# 2 -0.002674 0.013714 -0.004740 0.000000 0.000630 0.000000
# 3 -0.003081 -0.004740 0.012812 0.000000 0.004346 0.000000
# 4 0.000000 0.000000 0.000000 0.016795 0.000000 -0.000823
# 5 0.005434 0.000630 0.004346 0.000000 0.048171 0.000000
# 6 0.000000 0.000000 0.000000 -0.000823 0.000000 0.046180
#
#
# Mechanical properties :
#
#
# Convention : Reuss Voigt Hill
#
# Bulk Modulus (GPa) = 39.58043 47.85758 43.71900
# Shear Modulus (GPa) = 26.76457 32.05445 29.40951
#
# Velocity S-wave (km/s) = 3.65985 4.00523 3.83643
# Velocity P-wave (km/s) = 6.13740 6.73349 6.44234
#
# Compressibility (1/GPa) = 0.02526501
#
# Stress axis : x y z
#
# Youngs Moduli (GPa) = 50.68519 72.91954 78.04946
#
# Poissons Ratio (x) = 0.19499 0.24050
# Poissons Ratio (y) = 0.13553 0.36995
# Poissons Ratio (z) = 0.15618 0.34564
#
# Static dielectric constant tensor:
#      x y z
#    x 3.271530 0.000000 -0.116350 
#    y 0.000000 3.826760 0.000000 
#    z -0.116350 0.000000 3.841170 
# 
# 
# High freq. dielectric constant tensor:
#      x y z
#    x 1.757150 0.000000 -0.005970 
#    y 0.000000 1.797620 0.000000 
#    z -0.005970 0.000000 1.801590 
# 
# From -- ./inp_files/36219.got.cif
#   From: 2010.06.25/outbox.cif.g09.slc.cpg/sg13_19_cif.got.tgz:36219.got - 2010.06.28 04:50:58.
