data_PCOD8119351
_publ_section_title
;
Structure prediction by ZEFSAII (Michael W. Deem and Ramdas Pophale) SiO2 
 PCOD8119351
Probable space group: P 2/C
;
_chemical_formula_sum "Si O2"
_cell_formula_units_Z 32
_cell_length_a 16.706015
_cell_length_b 19.463048
_cell_length_c 16.420986
_cell_angle_alpha 90.000000
_cell_angle_beta 162.446550
_cell_angle_gamma 90.000000
_cell_volume 1610.303076
_symmetry_space_group_name_H-M "P 2/C"
_symmetry_group_IT_number 13
_symmetry_cell_setting 'monoclinic'
loop_
_space_group_symop_operation_xyz
x,y,z
-x,y,1/2-z
-x,-y,-z
x,-y,1/2+z
loop_
_atom_site_type_symbol
_atom_site_label
_atom_site_fract_x
_atom_site_fract_y
_atom_site_fract_z
Si Si1 0.975995 0.472537 0.566728
Si Si2 0.520456 0.394713 0.366712
Si Si3 0.493920 0.751050 0.918569
Si Si4 0.959470 0.789521 0.479759
Si Si5 0.494085 0.102267 0.148256
Si Si6 0.986079 0.935482 0.427922
Si Si7 0.238994 0.404629 0.539288
Si Si8 0.239808 0.746049 0.044153
O O1 0.750994 0.415465 0.352893
O O2 0.874394 0.540937 0.509700
O O3 0.000000 0.500000 0.500000
O O4 0.241172 0.440814 0.864479
O O5 0.500000 0.406202 0.250000
O O6 0.535917 0.314266 0.400983
O O7 0.490550 0.816970 0.856803
O O8 0.238444 0.751410 0.730899
O O9 0.749091 0.748965 0.222300
O O10 0.971958 0.869150 0.470883
O O11 0.862355 0.789648 0.478544
O O12 0.500000 0.093284 0.250000
O O13 0.747893 0.061764 0.364861
O O14 0.248916 0.064820 0.866346
O O15 0.000000 0.000000 0.500000
O O16 0.500000 0.437064 0.750000
O O17 0.316755 0.330492 0.652970
O O18 0.000000 0.385351 0.250000
O O19 0.500000 0.776991 0.250000
O O20 0.000000 0.746475 0.750000
#
# Coordination Sequence:
#
# PCOD8119351 Si02
#       8
#     4   4   4   4   4   4   4   4
#     4  12  26  41  58  87 117 154 197 244 299 360
#     4  12  25  42  63  87 120 154 192 248 305 362
#     4  10  22  37  63  91 117 157 195 246 304 358
#     4  10  21  39  61  87 124 155 194 251 296 349
#     4  10  20  38  62  91 125 159 206 249 292 356
#     4  10  21  38  61  90 125 168 202 240 297 358
#     4  10  21  38  59  77 106 150 191 237 292 351
#     4  10  21  37  59  85 109 150 199 247 294 346
#
# _framework density 19.872035
#
# number of rings (size 3 to 8) (size 9 to 14) (size 15 to 20)
#    0.000    1.500    0.000    5.250    3.500    0.000 
#    0.000    5.625    0.000    0.000    0.000    0.000 
#    0.000    0.000    0.000    0.000    0.000    0.000 
#
# Total GULP energy -396610.147723 kJ/mol
# GULP energy per Si atom -12394.067116 kJ/mol
# Density = 1.982681 g / cm^3
# Si number density = 19.872035 Si / 1000 Ang^3
#
#
#
# Elastic Constant Matrix: (Units=GPa)
#
#
# Indices 1 2 3 4 5 6 
#
# 1 175.0191 74.0744 74.0746 0.0000 8.9847 0.0000
# 2 74.0744 75.9785 53.6690 0.0000 -8.9434 0.0000
# 3 74.0746 53.6690 133.8379 0.0000 21.5201 0.0000
# 4 0.0000 0.0000 0.0000 32.4834 0.0000 -5.4264
# 5 8.9847 -8.9434 21.5201 0.0000 31.6072 0.0000
# 6 0.0000 0.0000 0.0000 -5.4264 0.0000 38.3756
#
#
#
# Elastic Compliance Matrix: (Units=1/GPa)
#
#
# Indices 1 2 3 4 5 6 
#
# 1 0.010858 -0.010623 -0.000865 0.000000 -0.005504 0.000000
# 2 -0.010623 0.033389 -0.010684 0.000000 0.019741 0.000000
# 3 -0.000865 -0.010684 0.014240 0.000000 -0.012473 0.000000
# 4 0.000000 0.000000 0.000000 0.031530 0.000000 0.004458
# 5 -0.005504 0.019741 -0.012473 0.000000 0.047281 0.000000
# 6 0.000000 0.000000 0.000000 0.004458 0.000000 0.026689
#
#
# Mechanical properties :
#
#
# Convention : Reuss Voigt Hill
#
# Bulk Modulus (GPa) = 70.70177 87.60794 79.15485
# Shear Modulus (GPa) = 23.46923 32.69441 28.08182
#
# Velocity S-wave (km/s) = 3.44032 4.06057 3.76324
# Velocity P-wave (km/s) = 7.17195 8.13425 7.66821
#
# Compressibility (1/GPa) = 0.01414392
#
# Stress axis : x y z
#
# Youngs Moduli (GPa) = 92.09512 29.95001 70.22413
#
# Poissons Ratio (x) = 0.31816 0.06074
# Poissons Ratio (y) = 0.97834 0.75026
# Poissons Ratio (z) = 0.07965 0.31998
#
# Static dielectric constant tensor:
#      x y z
#    x 3.118430 0.000000 0.208260 
#    y 0.000000 2.371780 0.000000 
#    z 0.208260 0.000000 3.906080 
# 
# 
# High freq. dielectric constant tensor:
#      x y z
#    x 1.779680 0.000000 0.008800 
#    y 0.000000 1.770260 0.000000 
#    z 0.008800 0.000000 1.795650 
# 
# From -- ./inp_files/53996.got.cif
#   From: 2010.06.25/outbox.cif.g09.slc.cpg/sg13_27_cif.got.tgz:53996.got - 2010.06.28 04:50:58.
