data_PCOD8119173
_publ_section_title
;
Structure prediction by ZEFSAII (Michael W. Deem and Ramdas Pophale) SiO2 
 PCOD8119173
Probable space group: P 2/C
;
_chemical_formula_sum "Si O2"
_cell_formula_units_Z 32
_cell_length_a 20.817279
_cell_length_b 5.018019
_cell_length_c 35.534814
_cell_angle_alpha 90.000000
_cell_angle_beta 24.316748
_cell_angle_gamma 90.000000
_cell_volume 1528.538396
_symmetry_space_group_name_H-M "P 2/C"
_symmetry_group_IT_number 13
_symmetry_cell_setting 'monoclinic'
loop_
_space_group_symop_operation_xyz
x,y,z
-x,y,1/2-z
-x,-y,-z
x,-y,1/2+z
loop_
_atom_site_type_symbol
_atom_site_label
_atom_site_fract_x
_atom_site_fract_y
_atom_site_fract_z
Si Si1 0.387481 0.665732 0.841063
Si Si2 0.109550 0.752339 0.937189
Si Si3 0.033474 0.065661 0.189336
Si Si4 0.642682 0.715157 0.307126
Si Si5 0.666115 0.959927 0.012183
Si Si6 0.649302 0.786605 0.753162
Si Si7 0.059731 0.577418 0.305802
Si Si8 0.753114 0.536561 0.509204
O O1 0.500000 0.511520 0.750000
O O2 0.246738 0.805385 0.894265
O O3 0.507008 0.861426 0.800198
O O4 0.296327 0.494866 0.921056
O O5 0.189698 0.721015 0.853837
O O6 0.000000 0.500000 0.000000
O O7 0.000000 0.000000 0.000000
O O8 0.000000 0.138369 0.250000
O O9 0.959206 0.288240 0.202192
O O10 0.221621 0.031885 0.084181
O O11 0.953749 0.788481 0.220751
O O12 0.500263 0.826328 0.408958
O O13 0.591856 0.476757 0.306418
O O14 0.771972 0.601191 0.265660
O O15 0.696067 0.965494 0.253921
O O16 0.747276 0.763102 0.998151
O O17 0.645586 0.248455 0.043389
O O18 0.931283 0.634698 0.407048
#
# Coordination Sequence:
#
# PCOD8119173 Si02
#       8
#     4   4   4   4   4   4   4   4
#     4  10  22  41  60  84 118 159 204 249 304 359
#     4  11  26  43  58  86 118 154 209 256 313 355
#     4  10  21  42  63  91 123 159 196 233 291 361
#     4  12  21  40  59  92 122 148 206 245 298 349
#     4  10  20  37  63  85 117 154 194 233 287 357
#     4  11  24  39  61  83 118 166 193 256 301 357
#     4  10  23  36  63  91 121 155 194 250 293 342
#     4  10  20  38  56  86 111 156 200 237 290 354
#
# _framework density 20.935034000000002
#
# number of rings (size 3 to 8) (size 9 to 14) (size 15 to 20)
#    0.000    1.500    2.500    1.875    3.500    2.000 
#    0.000    6.875    0.000    0.000    0.000    0.000 
#    0.000    0.000    0.000    0.000    0.000    0.000 
#
# Total GULP energy -396443.784533 kJ/mol
# GULP energy per Si atom -12388.868267 kJ/mol
# Density = 2.088738 g / cm^3
# Si number density = 20.935034 Si / 1000 Ang^3
#
#
#
# Elastic Constant Matrix: (Units=GPa)
#
#
# Indices 1 2 3 4 5 6 
#
# 1 76.4451 6.9343 57.9059 0.0000 -1.3068 0.0000
# 2 6.9343 89.7409 25.8668 0.0000 2.9621 0.0000
# 3 57.9059 25.8668 140.1966 0.0000 8.4463 0.0000
# 4 0.0000 0.0000 0.0000 29.1339 0.0000 -1.0007
# 5 -1.3068 2.9621 8.4463 0.0000 43.4115 0.0000
# 6 0.0000 0.0000 0.0000 -1.0007 0.0000 19.2260
#
#
#
# Elastic Compliance Matrix: (Units=1/GPa)
#
#
# Indices 1 2 3 4 5 6 
#
# 1 0.019290 0.000816 -0.008246 0.000000 0.002129 0.000000
# 2 0.000816 0.011810 -0.002498 0.000000 -0.000295 0.000000
# 3 -0.008246 -0.002498 0.011135 0.000000 -0.002244 0.000000
# 4 0.000000 0.000000 0.000000 0.034386 0.000000 0.001790
# 5 0.002129 -0.000295 -0.002244 0.000000 0.023556 0.000000
# 6 0.000000 0.000000 0.000000 0.001790 0.000000 0.052106
#
#
# Mechanical properties :
#
#
# Convention : Reuss Voigt Hill
#
# Bulk Modulus (GPa) = 44.68665 54.19962 49.44313
# Shear Modulus (GPa) = 27.83971 32.73265 30.28618
#
# Velocity S-wave (km/s) = 3.65062 3.95845 3.80764
# Velocity P-wave (km/s) = 6.25788 6.84383 6.55740
#
# Compressibility (1/GPa) = 0.02237805
#
# Stress axis : x y z
#
# Youngs Moduli (GPa) = 51.84005 84.67417 89.80699
#
# Poissons Ratio (x) = -0.06910 0.74058
# Poissons Ratio (y) = -0.04231 0.22436
# Poissons Ratio (z) = 0.42749 0.21154
#
# Static dielectric constant tensor:
#      x y z
#    x 3.469580 0.000000 -0.003350 
#    y 0.000000 3.650890 0.000000 
#    z -0.003350 0.000000 4.281910 
# 
# 
# High freq. dielectric constant tensor:
#      x y z
#    x 1.786800 0.000000 -0.007330 
#    y 0.000000 1.815630 0.000000 
#    z -0.007330 0.000000 1.846750 
# 
# From -- ./inp_files/97234.got.cif
#   From: 2010.06.25/outbox.cif.g09.slc.cpg/sg13_49_cif.got.tgz:97234.got - 2010.06.28 04:50:58.
