data_PCOD8119689
_publ_section_title
;
Structure prediction by ZEFSAII (Michael W. Deem and Ramdas Pophale) SiO2 
 PCOD8119689
Probable space group: P 2/C
;
_chemical_formula_sum "Si O2"
_cell_formula_units_Z 32
_cell_length_a 13.605091
_cell_length_b 9.202485
_cell_length_c 21.614096
_cell_angle_alpha 90.000000
_cell_angle_beta 35.984765
_cell_angle_gamma 90.000000
_cell_volume 1590.022766
_symmetry_space_group_name_H-M "P 2/C"
_symmetry_group_IT_number 13
_symmetry_cell_setting 'monoclinic'
loop_
_space_group_symop_operation_xyz
x,y,z
-x,y,1/2-z
-x,-y,-z
x,-y,1/2+z
loop_
_atom_site_type_symbol
_atom_site_label
_atom_site_fract_x
_atom_site_fract_y
_atom_site_fract_z
Si Si1 0.003574 0.305108 0.060415
Si Si2 0.132139 0.715724 0.235767
Si Si3 0.807444 0.596553 0.838066
Si Si4 0.038618 0.637612 0.054182
Si Si5 0.427748 0.419837 0.354667
Si Si6 0.568040 0.068586 0.902654
Si Si7 0.669811 0.696603 0.032969
Si Si8 0.683853 0.220433 0.291921
O O1 0.969068 0.473926 0.093147
O O2 0.841823 0.218111 0.165622
O O3 0.167725 0.247633 0.012188
O O4 0.026440 0.284308 0.975117
O O5 0.218704 0.559404 0.180753
O O6 0.273512 0.835544 0.160426
O O7 0.000000 0.750911 0.250000
O O8 0.036680 0.724302 0.349784
O O9 0.733126 0.724846 0.834803
O O10 0.000000 0.631408 0.750000
O O11 0.719489 0.596899 0.949251
O O12 0.238586 0.636939 0.953591
O O13 0.500000 0.404699 0.250000
O O14 0.440027 0.589293 0.368186
O O15 0.534441 0.321211 0.345520
O O16 0.430365 0.162286 0.936690
O O17 0.620507 0.943771 0.828258
O O18 0.500000 0.000000 0.000000
#
# Coordination Sequence:
#
# PCOD8119689 Si02
#       8
#     4   4   4   4   4   4   4   4
#     4  10  20  40  70  97 127 169 217 281 331 409
#     4  11  24  42  67  96 130 171 223 284 335 395
#     4  11  20  38  68  99 123 163 225 282 337 384
#     4  10  21  40  69 103 123 162 225 276 346 388
#     4  11  23  41  72 103 130 166 217 287 339 391
#     4  12  29  42  59  98 139 184 222 269 336 405
#     4  11  24  40  67 100 131 171 224 277 336 390
#     4  12  23  42  65  93 138 174 218 269 341 401
#
# _framework density 20.125498
#
# number of rings (size 3 to 8) (size 9 to 14) (size 15 to 20)
#    0.000    1.000    5.000    3.000    3.500    2.500 
#    0.000    2.500    0.000    0.000    0.000    0.000 
#    0.000    0.000    0.000    0.000    0.000    0.000 
#
# Total GULP energy -396964.280237 kJ/mol
# GULP energy per Si atom -12405.133757 kJ/mol
# Density = 2.007969 g / cm^3
# Si number density = 20.125498 Si / 1000 Ang^3
#
#
#
# Elastic Constant Matrix: (Units=GPa)
#
#
# Indices 1 2 3 4 5 6 
#
# 1 113.5625 59.7756 57.1132 0.0000 4.3827 0.0000
# 2 59.7756 101.3492 60.3944 0.0000 -17.9626 0.0000
# 3 57.1132 60.3944 128.4251 0.0000 4.3903 0.0000
# 4 0.0000 0.0000 0.0000 17.8359 0.0000 7.5221
# 5 4.3827 -17.9626 4.3903 0.0000 30.9111 0.0000
# 6 0.0000 0.0000 0.0000 7.5221 0.0000 -4.4434
#
#
#
# Elastic Compliance Matrix: (Units=1/GPa)
#
#
# Indices 1 2 3 4 5 6 
#
# 1 0.014683 -0.008456 -0.002326 0.000000 -0.006665 0.000000
# 2 -0.008456 0.021561 -0.006882 0.000000 0.014706 0.000000
# 3 -0.002326 -0.006882 0.012242 0.000000 -0.005408 0.000000
# 4 0.000000 0.000000 0.000000 0.032712 0.000000 0.055377
# 5 -0.006665 0.014706 -0.005408 0.000000 0.042610 0.000000
# 6 0.000000 0.000000 0.000000 0.055377 0.000000 -0.131307
#
#
# Mechanical properties :
#
#
# Convention : Reuss Voigt Hill
#
# Bulk Modulus (GPa) = 75.98622 77.54480 76.76551
# Shear Modulus (GPa) = 155.20281 19.93093 87.56687
#
# Velocity S-wave (km/s) = 8.79118 3.15037 6.60340
# Velocity P-wave (km/s) = 11.86949 7.20051 9.81662
#
# Compressibility (1/GPa) = 0.01316028
#
# Stress axis : x y z
#
# Youngs Moduli (GPa) = 68.10414 46.37917 81.68458
#
# Poissons Ratio (x) = 0.39217 0.18998
# Poissons Ratio (y) = 0.57586 0.56215
# Poissons Ratio (z) = 0.15839 0.31918
#
# Static dielectric constant tensor:
#      x y z
#    x 3.839510 0.000000 0.023860 
#    y 0.000000 3.468070 0.000000 
#    z 0.023860 0.000000 3.756530 
# 
# 
# High freq. dielectric constant tensor:
#      x y z
#    x 1.804460 0.000000 0.001000 
#    y 0.000000 1.758780 0.000000 
#    z 0.001000 0.000000 1.797600 
# 
# From -- ./inp_files/87392.got.cif
#   From: 2010.06.25/outbox.cif.g09.slc.cpg/sg13_44_cif.got.tgz:87392.got - 2010.06.28 04:50:58.
