data_PCOD8119113
_publ_section_title
;
Structure prediction by ZEFSAII (Michael W. Deem and Ramdas Pophale) SiO2 
 PCOD8119113
Probable space group: P 2/C
;
_chemical_formula_sum "Si O2"
_cell_formula_units_Z 24
_cell_length_a 18.752309
_cell_length_b 7.641944
_cell_length_c 11.179715
_cell_angle_alpha 90.000000
_cell_angle_beta 41.128507
_cell_angle_gamma 90.000000
_cell_volume 1053.780729
_symmetry_space_group_name_H-M "P 2/C"
_symmetry_group_IT_number 13
_symmetry_cell_setting 'monoclinic'
loop_
_space_group_symop_operation_xyz
x,y,z
-x,y,1/2-z
-x,-y,-z
x,-y,1/2+z
loop_
_atom_site_type_symbol
_atom_site_label
_atom_site_fract_x
_atom_site_fract_y
_atom_site_fract_z
Si Si1 0.606216 0.095502 0.039887
Si Si2 0.179332 0.889289 0.071529
Si Si3 0.686035 0.599093 0.301774
Si Si4 0.198982 0.267784 0.064631
Si Si5 0.698718 0.220747 0.307836
Si Si6 0.896983 0.572939 0.198783
O O1 0.500000 0.060838 0.250000
O O2 0.708092 0.097634 0.999379
O O3 0.599434 0.283458 0.983068
O O4 0.616532 0.942845 0.925450
O O5 0.092600 0.764202 0.249846
O O6 0.133556 0.087940 0.117283
O O7 0.204950 0.817555 0.907338
O O8 0.638567 0.401982 0.344499
O O9 0.799935 0.587138 0.227226
O O10 0.706442 0.694782 0.150151
O O11 0.250125 0.251737 0.129180
O O12 0.121594 0.436800 0.168509
O O13 0.000000 0.500000 0.000000
#
# Coordination Sequence:
#
# PCOD8119113 Si02
#       6
#     4   4   4   4   4   4
#     4  10  22  38  60  89 118 155 206 252 294 353
#     4  10  20  39  62  82 120 161 195 245 304 352
#     4  10  20  39  62  82 121 159 194 245 305 351
#     4  10  20  37  61  85 118 159 194 238 303 357
#     4  10  20  37  60  84 117 161 195 236 302 355
#     4  10  22  38  62  88 114 154 205 246 294 356
#
# _framework density 22.775136
#
# number of rings (size 3 to 8) (size 9 to 14) (size 15 to 20)
#    0.000    2.000    3.333    0.000    0.000    2.667 
#    0.000    0.833    7.333    0.000    0.000    0.000 
#    0.000    0.000    0.000    0.000    0.000    0.000 
#
# Total GULP energy -297403.489001 kJ/mol
# GULP energy per Si atom -12391.812042 kJ/mol
# Density = 2.272330 g / cm^3
# Si number density = 22.775136 Si / 1000 Ang^3
#
#
#
# Elastic Constant Matrix: (Units=GPa)
#
#
# Indices 1 2 3 4 5 6 
#
# 1 22.2925 16.9789 17.5454 0.0000 16.3120 0.0000
# 2 16.9789 198.3689 59.9548 0.0000 13.2629 0.0000
# 3 17.5454 59.9548 140.2637 0.0000 16.2054 0.0000
# 4 0.0000 0.0000 0.0000 51.3011 0.0000 11.6390
# 5 16.3120 13.2629 16.2054 0.0000 35.5413 0.0000
# 6 0.0000 0.0000 0.0000 11.6390 0.0000 19.6643
#
#
#
# Elastic Compliance Matrix: (Units=1/GPa)
#
#
# Indices 1 2 3 4 5 6 
#
# 1 0.072631 -0.002875 -0.004359 0.000000 -0.030275 0.000000
# 2 -0.002875 0.005943 -0.002192 0.000000 0.000101 0.000000
# 3 -0.004359 -0.002192 0.008747 0.000000 -0.001170 0.000000
# 4 0.000000 0.000000 0.000000 0.022516 0.000000 -0.013327
# 5 -0.030275 0.000101 -0.001170 0.000000 0.042527 0.000000
# 6 0.000000 0.000000 0.000000 -0.013327 0.000000 0.058742
#
#
# Mechanical properties :
#
#
# Convention : Reuss Voigt Hill
#
# Bulk Modulus (GPa) = 14.60517 61.09814 37.85166
# Shear Modulus (GPa) = 19.77995 39.06440 29.42218
#
# Velocity S-wave (km/s) = 2.95021 4.14602 3.59814
# Velocity P-wave (km/s) = 4.24637 7.05721 5.82391
#
# Compressibility (1/GPa) = 0.06846889
#
# Stress axis : x y z
#
# Youngs Moduli (GPa) = 13.76816 168.26383 114.32627
#
# Poissons Ratio (x) = 0.48379 0.49830
# Poissons Ratio (y) = 0.03959 0.25065
# Poissons Ratio (z) = 0.06001 0.36890
#
# Static dielectric constant tensor:
#      x y z
#    x 3.660680 0.000000 0.440970 
#    y 0.000000 5.458830 0.000000 
#    z 0.440970 0.000000 4.004290 
# 
# 
# High freq. dielectric constant tensor:
#      x y z
#    x 1.857900 0.000000 0.041630 
#    y 0.000000 1.934230 0.000000 
#    z 0.041630 0.000000 1.889110 
# 
# From -- ./inp_files/41543.got.cif
#   From: 2010.06.25/outbox.cif.g09.slc.cpg/sg13_21_cif.got.tgz:41543.got - 2010.06.28 04:50:58.
