data_PCOD8119791
_publ_section_title
;
Structure prediction by ZEFSAII (Michael W. Deem and Ramdas Pophale) SiO2 
 PCOD8119791
Probable space group: P 2/C
;
_chemical_formula_sum "Si O2"
_cell_formula_units_Z 28
_cell_length_a 15.320728
_cell_length_b 8.991814
_cell_length_c 19.919361
_cell_angle_alpha 90.000000
_cell_angle_beta 30.609800
_cell_angle_gamma 90.000000
_cell_volume 1397.271556
_symmetry_space_group_name_H-M "P 2/C"
_symmetry_group_IT_number 13
_symmetry_cell_setting 'monoclinic'
loop_
_space_group_symop_operation_xyz
x,y,z
-x,y,1/2-z
-x,-y,-z
x,-y,1/2+z
loop_
_atom_site_type_symbol
_atom_site_label
_atom_site_fract_x
_atom_site_fract_y
_atom_site_fract_z
Si Si1 0.965651 0.996522 0.127768
Si Si2 0.689411 0.564690 0.363100
Si Si3 0.973553 0.753652 0.010190
Si Si4 0.000000 0.613746 0.250000
Si Si5 0.659982 0.900618 0.411787
Si Si6 0.245609 0.490085 0.329177
Si Si7 0.500000 0.652353 0.750000
Si Si8 0.236540 0.176519 0.513399
O O1 0.923369 0.871715 0.100247
O O2 0.825557 0.993426 0.279363
O O3 0.152268 0.968409 0.035775
O O4 0.966484 0.160967 0.096222
O O5 0.500000 0.500000 0.500000
O O6 0.662463 0.741271 0.373753
O O7 0.757492 0.495942 0.249113
O O8 0.837818 0.526269 0.321985
O O9 0.810366 0.648841 0.102798
O O10 0.122992 0.643036 0.935830
O O11 0.081039 0.713694 0.137279
O O12 0.653543 0.874277 0.495688
O O13 0.500000 0.000000 0.500000
O O14 0.431234 0.453323 0.236081
O O15 0.644393 0.753491 0.621705
#
# Coordination Sequence:
#
# PCOD8119791 Si02
#       8
#     4   4   4   2   4   4   2   4
#     4  11  20  43  65  95 123 177 216 271 338 405
#     4  11  23  42  68  98 133 174 227 283 337 406
#     4  10  23  37  69  89 130 167 218 266 334 400
#     4  10  20  42  68  94 128 188 216 270 342 418
#     4  11  24  41  66  93 129 170 223 281 335 399
#     4  11  22  44  60  99 130 172 219 276 331 403
#     4  12  26  38  70  98 134 178 226 270 344 412
#     4  11  21  42  66  95 128 176 223 269 331 419
#
# _framework density 20.039055000000001
#
# number of rings (size 3 to 8) (size 9 to 14) (size 15 to 20)
#    0.000    1.143    5.714    1.714    6.000    0.000 
#    2.571    0.000    0.000    0.000    0.000    0.000 
#    0.000    0.000    0.000    0.000    0.000    0.000 
#
# Total GULP energy -347087.752025 kJ/mol
# GULP energy per Si atom -12395.991144 kJ/mol
# Density = 1.999344 g / cm^3
# Si number density = 20.039055 Si / 1000 Ang^3
#
#
#
# Elastic Constant Matrix: (Units=GPa)
#
#
# Indices 1 2 3 4 5 6 
#
# 1 114.3352 35.0217 35.6900 0.0000 -14.7334 0.0000
# 2 35.0217 83.9266 35.1868 0.0000 -4.1658 0.0000
# 3 35.6900 35.1868 113.0979 0.0000 -3.4148 0.0000
# 4 0.0000 0.0000 0.0000 36.5308 0.0000 -1.8636
# 5 -14.7334 -4.1658 -3.4148 0.0000 39.8202 0.0000
# 6 0.0000 0.0000 0.0000 -1.8636 0.0000 31.5430
#
#
#
# Elastic Compliance Matrix: (Units=1/GPa)
#
#
# Indices 1 2 3 4 5 6 
#
# 1 0.010965 -0.003445 -0.002283 0.000000 0.003501 0.000000
# 2 -0.003445 0.014830 -0.003528 0.000000 -0.000026 0.000000
# 3 -0.002283 -0.003528 0.010651 0.000000 -0.000300 0.000000
# 4 0.000000 0.000000 0.000000 0.027457 0.000000 0.001622
# 5 0.003501 -0.000026 -0.000300 0.000000 0.026380 0.000000
# 6 0.000000 0.000000 0.000000 0.001622 0.000000 0.031799
#
#
# Mechanical properties :
#
#
# Convention : Reuss Voigt Hill
#
# Bulk Modulus (GPa) = 55.75481 58.12851 56.94166
# Shear Modulus (GPa) = 34.11325 35.27621 34.69473
#
# Velocity S-wave (km/s) = 4.13042 4.20023 4.16547
# Velocity P-wave (km/s) = 7.11552 7.25212 7.18414
#
# Compressibility (1/GPa) = 0.01793567
#
# Stress axis : x y z
#
# Youngs Moduli (GPa) = 91.19856 67.42912 93.89017
#
# Poissons Ratio (x) = 0.23228 0.21433
# Poissons Ratio (y) = 0.31416 0.33122
# Poissons Ratio (z) = 0.20819 0.23787
#
# Static dielectric constant tensor:
#      x y z
#    x 3.903600 0.000000 -0.211720 
#    y 0.000000 3.597010 0.000000 
#    z -0.211720 0.000000 3.933750 
# 
# 
# High freq. dielectric constant tensor:
#      x y z
#    x 1.783060 0.000000 0.003570 
#    y 0.000000 1.763860 0.000000 
#    z 0.003570 0.000000 1.793180 
# 
# From -- ./inp_files/79964.got.cif
#   From: 2010.06.25/outbox.cif.g09.slc.cpg/sg13_40_cif.got.tgz:79964.got - 2010.06.28 04:50:58.
