data_PCOD8119840
_publ_section_title
;
Structure prediction by ZEFSAII (Michael W. Deem and Ramdas Pophale) SiO2 
 PCOD8119840
Probable space group: P 2/C
;
_chemical_formula_sum "Si O2"
_cell_formula_units_Z 24
_cell_length_a 11.109434
_cell_length_b 11.555521
_cell_length_c 26.226576
_cell_angle_alpha 90.000000
_cell_angle_beta 158.883591
_cell_angle_gamma 90.000000
_cell_volume 1212.952812
_symmetry_space_group_name_H-M "P 2/C"
_symmetry_group_IT_number 13
_symmetry_cell_setting 'monoclinic'
loop_
_space_group_symop_operation_xyz
x,y,z
-x,y,1/2-z
-x,-y,-z
x,-y,1/2+z
loop_
_atom_site_type_symbol
_atom_site_label
_atom_site_fract_x
_atom_site_fract_y
_atom_site_fract_z
Si Si1 0.728973 0.130992 0.493394
Si Si2 0.763150 0.823016 0.391916
Si Si3 0.158153 0.255943 0.138513
Si Si4 0.532150 0.376646 0.456337
Si Si5 0.025672 0.579301 0.842186
Si Si6 0.701459 0.979983 0.750483
O O1 0.641505 0.247889 0.487105
O O2 0.392644 0.062797 0.343876
O O3 0.900023 0.152393 0.506074
O O4 0.963230 0.056297 0.623090
O O5 0.500000 0.757443 0.250000
O O6 0.862832 0.744249 0.479466
O O7 0.595369 0.943346 0.342913
O O8 0.500000 0.307547 0.250000
O O9 0.221285 0.125745 0.181584
O O10 0.034587 0.335466 0.135125
O O11 0.865878 0.453188 0.594628
O O12 0.326561 0.368872 0.427488
O O13 0.309737 0.432881 0.323592
#
# Coordination Sequence:
#
# PCOD8119840 Si02
#       6
#     4   4   4   4   4   4
#     4  11  20  36  59  90 122 160 200 244 290 366
#     4  10  21  31  55  91 121 160 197 238 294 361
#     4  12  20  36  60  88 120 158 195 241 309 358
#     4  10  22  44  64  87 115 157 214 245 302 357
#     4  10  23  42  68  83 115 163 199 258 301 352
#     4  11  20  32  59  88 124 162 192 236 301 359
#
# _framework density 19.786425000000001
#
# number of rings (size 3 to 8) (size 9 to 14) (size 15 to 20)
#    0.000    1.333    5.000    2.000    0.000    2.667 
#    0.000    6.667    3.667    0.000    0.000    0.000 
#    0.000    0.000    0.000    0.000    0.000    0.000 
#
# Total GULP energy -297588.515093 kJ/mol
# GULP energy per Si atom -12399.521462 kJ/mol
# Density = 1.974139 g / cm^3
# Si number density = 19.786425 Si / 1000 Ang^3
#
#
#
# Elastic Constant Matrix: (Units=GPa)
#
#
# Indices 1 2 3 4 5 6 
#
# 1 86.5976 64.9478 56.0321 0.0000 -16.3583 0.0000
# 2 64.9478 96.4795 64.2268 0.0000 -7.6440 0.0000
# 3 56.0321 64.2268 140.7488 0.0000 -21.1280 0.0000
# 4 0.0000 0.0000 0.0000 32.2529 0.0000 -4.3807
# 5 -16.3583 -7.6440 -21.1280 0.0000 22.3177 0.0000
# 6 0.0000 0.0000 0.0000 -4.3807 0.0000 35.7784
#
#
#
# Elastic Compliance Matrix: (Units=1/GPa)
#
#
# Indices 1 2 3 4 5 6 
#
# 1 0.027138 -0.016295 -0.001422 0.000000 0.012964 0.000000
# 2 -0.016295 0.024718 -0.006195 0.000000 -0.009342 0.000000
# 3 -0.001422 -0.006195 0.011683 0.000000 0.007896 0.000000
# 4 0.000000 0.000000 0.000000 0.031529 0.000000 0.003860
# 5 0.012964 -0.009342 0.007896 0.000000 0.058586 0.000000
# 6 0.000000 0.000000 0.000000 0.003860 0.000000 0.028423
#
#
# Mechanical properties :
#
#
# Convention : Reuss Voigt Hill
#
# Bulk Modulus (GPa) = 63.62976 77.13770 70.38373
# Shear Modulus (GPa) = 21.26420 27.31106 24.28763
#
# Velocity S-wave (km/s) = 3.28180 3.71926 3.50736
# Velocity P-wave (km/s) = 6.82557 7.58378 7.21464
#
# Compressibility (1/GPa) = 0.01571592
#
# Stress axis : x y z
#
# Youngs Moduli (GPa) = 36.84936 40.45657 85.59471
#
# Poissons Ratio (x) = 0.65923 0.12169
# Poissons Ratio (y) = 0.60045 0.53023
# Poissons Ratio (z) = 0.05239 0.25062
#
# Static dielectric constant tensor:
#      x y z
#    x 3.414790 0.000000 -0.157260 
#    y 0.000000 3.382620 0.000000 
#    z -0.157260 0.000000 4.141280 
# 
# 
# High freq. dielectric constant tensor:
#      x y z
#    x 1.750470 0.000000 -0.013090 
#    y 0.000000 1.749850 0.000000 
#    z -0.013090 0.000000 1.794880 
# 
# From -- ./inp_files/92413.got.cif
#   From: 2010.06.25/outbox.cif.g09.slc.cpg/sg13_47_cif.got.tgz:92413.got - 2010.06.28 04:50:58.
