data_PCOD8119305
_publ_section_title
;
Structure prediction by ZEFSAII (Michael W. Deem and Ramdas Pophale) SiO2 
 PCOD8119305
Probable space group: P 2/C
;
_chemical_formula_sum "Si O2"
_cell_formula_units_Z 20
_cell_length_a 8.517388
_cell_length_b 15.201127
_cell_length_c 7.523158
_cell_angle_alpha 90.000000
_cell_angle_beta 83.535807
_cell_angle_gamma 90.000000
_cell_volume 967.859953
_symmetry_space_group_name_H-M "P 2/C"
_symmetry_group_IT_number 13
_symmetry_cell_setting 'monoclinic'
loop_
_space_group_symop_operation_xyz
x,y,z
-x,y,1/2-z
-x,-y,-z
x,-y,1/2+z
loop_
_atom_site_type_symbol
_atom_site_label
_atom_site_fract_x
_atom_site_fract_y
_atom_site_fract_z
Si Si1 0.701369 0.908482 0.403308
Si Si2 0.172904 0.792971 0.804156
Si Si3 0.621017 0.447588 0.602028
Si Si4 0.183504 0.599080 0.734690
Si Si5 0.331548 0.100413 0.993939
O O1 0.805073 0.845815 0.515630
O O2 0.732713 0.880186 0.196012
O O3 0.519159 0.902431 0.476694
O O4 0.748625 0.010299 0.425379
O O5 0.204577 0.689938 0.840337
O O6 0.290760 0.822471 0.634479
O O7 0.000000 0.809069 0.750000
O O8 0.500000 0.394145 0.750000
O O9 0.500000 0.500000 0.500000
O O10 0.731139 0.517764 0.686445
O O11 0.737192 0.385803 0.471524
O O12 0.000000 0.574154 0.750000
#
# Coordination Sequence:
#
# PCOD8119305 Si02
#       5
#     4   4   4   4   4
#     4  10  20  38  62  84 116 156 207 250 298 353
#     4  11  24  39  58  88 124 158 197 246 297 359
#     4   9  19  37  62  89 113 145 195 246 293 350
#     4  10  21  40  61  86 122 161 193 237 307 371
#     4  10  20  38  61  85 112 160 205 249 299 350
#
# _framework density 20.664147
#
# number of rings (size 3 to 8) (size 9 to 14) (size 15 to 20)
#    0.000    2.000    2.000    1.200    0.000    6.400 
#   10.800    0.000    0.000    0.000    0.000    0.000 
#    0.000    0.000    0.000    0.000    0.000    0.000 
#
# Total GULP energy -247867.901084 kJ/mol
# GULP energy per Si atom -12393.395054 kJ/mol
# Density = 2.061711 g / cm^3
# Si number density = 20.664147 Si / 1000 Ang^3
#
#
#
# Elastic Constant Matrix: (Units=GPa)
#
#
# Indices 1 2 3 4 5 6 
#
# 1 77.9599 24.5438 30.4943 0.0000 -1.1985 0.0000
# 2 24.5438 63.3234 -2.5235 0.0000 13.4826 0.0000
# 3 30.4943 -2.5235 67.5590 0.0000 2.0405 0.0000
# 4 0.0000 0.0000 0.0000 15.6954 0.0000 -10.0687
# 5 -1.1985 13.4826 2.0405 0.0000 35.6605 0.0000
# 6 0.0000 0.0000 0.0000 -10.0687 0.0000 10.3070
#
#
#
# Elastic Compliance Matrix: (Units=1/GPa)
#
#
# Indices 1 2 3 4 5 6 
#
# 1 0.019237 -0.008776 -0.009146 0.000000 0.004488 0.000000
# 2 -0.008776 0.021226 0.005014 0.000000 -0.008607 0.000000
# 3 -0.009146 0.005014 0.019217 0.000000 -0.003303 0.000000
# 4 0.000000 0.000000 0.000000 0.170663 0.000000 0.166718
# 5 0.004488 -0.008607 -0.003303 0.000000 0.031636 0.000000
# 6 0.000000 0.000000 0.000000 0.166718 0.000000 0.259885
#
#
# Mechanical properties :
#
#
# Convention : Reuss Voigt Hill
#
# Bulk Modulus (GPa) = 29.53050 34.87463 32.20256
# Shear Modulus (GPa) = 8.94505 22.75442 15.84974
#
# Velocity S-wave (km/s) = 2.08283 3.32196 2.77251
# Velocity P-wave (km/s) = 4.48397 5.62383 5.08593
#
# Compressibility (1/GPa) = 0.03386330
#
# Stress axis : x y z
#
# Youngs Moduli (GPa) = 51.98415 47.11229 52.03654
#
# Poissons Ratio (x) = 0.41346 0.47594
# Poissons Ratio (y) = 0.45622 -0.26091
# Poissons Ratio (z) = 0.47546 -0.23622
#
# Static dielectric constant tensor:
#      x y z
#    x 3.791460 0.000000 -0.277340 
#    y 0.000000 3.538490 0.000000 
#    z -0.277340 0.000000 4.321010 
# 
# 
# High freq. dielectric constant tensor:
#      x y z
#    x 1.811940 0.000000 -0.002910 
#    y 0.000000 1.787050 0.000000 
#    z -0.002910 0.000000 1.819020 
# 
# From -- ./inp_files/12235.got.cif
#   From: 2010.06.25/outbox.cif.g09.slc.cpg/sg13_7_cif.got.tgz:12235.got - 2010.06.28 04:50:58.
