data_PCOD8119335
_publ_section_title
;
Structure prediction by ZEFSAII (Michael W. Deem and Ramdas Pophale) SiO2 
 PCOD8119335
Probable space group: P 2/C
;
_chemical_formula_sum "Si O2"
_cell_formula_units_Z 32
_cell_length_a 18.717395
_cell_length_b 14.186326
_cell_length_c 12.002542
_cell_angle_alpha 90.000000
_cell_angle_beta 150.570289
_cell_angle_gamma 90.000000
_cell_volume 1565.973331
_symmetry_space_group_name_H-M "P 2/C"
_symmetry_group_IT_number 13
_symmetry_cell_setting 'monoclinic'
loop_
_space_group_symop_operation_xyz
x,y,z
-x,y,1/2-z
-x,-y,-z
x,-y,1/2+z
loop_
_atom_site_type_symbol
_atom_site_label
_atom_site_fract_x
_atom_site_fract_y
_atom_site_fract_z
Si Si1 0.869947 0.630551 0.337633
Si Si2 0.675517 0.865056 0.596505
Si Si3 0.844431 0.754479 0.097921
Si Si4 0.323356 0.334052 0.711788
Si Si5 0.656862 0.333897 0.158693
Si Si6 0.837251 0.949704 0.003510
Si Si7 0.182936 0.428974 0.309113
Si Si8 0.353183 0.119501 0.695484
O O1 0.850155 0.722474 0.233540
O O2 0.761248 0.634818 0.293254
O O3 0.845119 0.540828 0.223014
O O4 0.032740 0.628942 0.606741
O O5 0.672807 0.752120 0.593422
O O6 0.685212 0.899098 0.484595
O O7 0.524311 0.896986 0.449849
O O8 0.816603 0.904852 0.852244
O O9 0.793071 0.864521 0.028100
O O10 0.000000 0.747362 0.250000
O O11 0.731924 0.688901 0.878244
O O12 0.273524 0.395441 0.538560
O O13 0.300832 0.222607 0.662359
O O14 0.491127 0.359560 0.959245
O O15 0.734084 0.417825 0.196553
O O16 0.000000 0.983789 0.250000
O O17 0.734397 0.039768 0.859539
#
# Coordination Sequence:
#
# PCOD8119335 Si02
#       8
#     4   4   4   4   4   4   4   4
#     4  11  26  40  64  94 124 164 204 263 312 364
#     4   9  19  38  61  85 114 169 208 237 306 372
#     4  10  21  42  64  84 128 172 209 243 315 382
#     4  11  24  41  63  97 124 153 210 268 310 350
#     4  10  20  41  67  87 119 168 208 248 301 384
#     4  10  22  35  57  93 121 160 207 251 303 365
#     4  11  23  42  64  88 124 165 210 247 313 384
#     4  10  20  38  62  86 122 159 205 256 303 362
#
# _framework density 20.434576
#
# number of rings (size 3 to 8) (size 9 to 14) (size 15 to 20)
#    0.000    1.750    2.500    1.125    1.750    3.500 
#    2.250    2.500    0.000    0.000    0.000    0.000 
#    0.000    0.000    0.000    0.000    0.000    0.000 
#
# Total GULP energy -396783.686108 kJ/mol
# GULP energy per Si atom -12399.490191 kJ/mol
# Density = 2.038807 g / cm^3
# Si number density = 20.434576 Si / 1000 Ang^3
#
#
#
# Elastic Constant Matrix: (Units=GPa)
#
#
# Indices 1 2 3 4 5 6 
#
# 1 78.1290 14.0407 21.6497 0.0000 11.4287 0.0000
# 2 14.0407 68.7220 20.8280 0.0000 -0.4447 0.0000
# 3 21.6497 20.8280 115.4296 0.0000 9.8529 0.0000
# 4 0.0000 0.0000 0.0000 23.1086 0.0000 0.2818
# 5 11.4287 -0.4447 9.8529 0.0000 25.7326 0.0000
# 6 0.0000 0.0000 0.0000 0.2818 0.0000 17.3903
#
#
#
# Elastic Compliance Matrix: (Units=1/GPa)
#
#
# Indices 1 2 3 4 5 6 
#
# 1 0.014595 -0.002477 -0.001792 0.000000 -0.005839 0.000000
# 2 -0.002477 0.015861 -0.002600 0.000000 0.002369 0.000000
# 3 -0.001792 -0.002600 0.009722 0.000000 -0.002972 0.000000
# 4 0.000000 0.000000 0.000000 0.043283 0.000000 -0.000701
# 5 -0.005839 0.002369 -0.002972 0.000000 0.042633 0.000000
# 6 0.000000 0.000000 0.000000 -0.000701 0.000000 0.057515
#
#
# Mechanical properties :
#
#
# Convention : Reuss Voigt Hill
#
# Bulk Modulus (GPa) = 37.81987 41.70195 39.76091
# Shear Modulus (GPa) = 24.25319 26.96378 25.60849
#
# Velocity S-wave (km/s) = 3.44884 3.63646 3.54389
# Velocity P-wave (km/s) = 5.86577 6.17119 6.02042
#
# Compressibility (1/GPa) = 0.02644112
#
# Stress axis : x y z
#
# Youngs Moduli (GPa) = 68.51608 63.04935 102.85801
#
# Poissons Ratio (x) = 0.15615 0.18434
# Poissons Ratio (y) = 0.16969 0.26739
# Poissons Ratio (z) = 0.12279 0.16390
#
# Static dielectric constant tensor:
#      x y z
#    x 3.333360 0.000000 0.043250 
#    y 0.000000 3.692490 0.000000 
#    z 0.043250 0.000000 3.861370 
# 
# 
# High freq. dielectric constant tensor:
#      x y z
#    x 1.775520 0.000000 -0.003550 
#    y 0.000000 1.799820 0.000000 
#    z -0.003550 0.000000 1.815630 
# 
# From -- ./inp_files/39484.got.cif
#   From: 2010.06.25/outbox.cif.g09.slc.cpg/sg13_20_cif.got.tgz:39484.got - 2010.06.28 04:50:58.
