data_PCOD8119413
_publ_section_title
;
Structure prediction by ZEFSAII (Michael W. Deem and Ramdas Pophale) SiO2 
 PCOD8119413
Probable space group: P 2/C
;
_chemical_formula_sum "Si O2"
_cell_formula_units_Z 24
_cell_length_a 8.924882
_cell_length_b 8.765396
_cell_length_c 30.247000
_cell_angle_alpha 90.000000
_cell_angle_beta 29.764570
_cell_angle_gamma 90.000000
_cell_volume 1174.683059
_symmetry_space_group_name_H-M "P 2/C"
_symmetry_group_IT_number 13
_symmetry_cell_setting 'monoclinic'
loop_
_space_group_symop_operation_xyz
x,y,z
-x,y,1/2-z
-x,-y,-z
x,-y,1/2+z
loop_
_atom_site_type_symbol
_atom_site_label
_atom_site_fract_x
_atom_site_fract_y
_atom_site_fract_z
Si Si1 0.141295 0.382361 0.497526
Si Si2 0.500000 0.709164 0.750000
Si Si3 0.945439 0.555982 0.147772
Si Si4 0.745552 0.956063 0.626286
Si Si5 0.731996 0.161621 0.554954
Si Si6 0.294943 0.560385 0.144381
Si Si7 0.500000 0.799323 0.250000
O O1 0.501803 0.409094 0.399944
O O2 0.000000 0.500000 0.500000
O O3 0.050090 0.412406 0.571315
O O4 0.013056 0.220979 0.514072
O O5 0.211027 0.608934 0.811173
O O6 0.554931 0.812916 0.692725
O O7 0.709069 0.685476 0.225534
O O8 0.219893 0.561577 0.111640
O O9 0.097071 0.902846 0.532223
O O10 0.600498 0.019606 0.617233
O O11 0.729933 0.097571 0.663731
O O12 0.478694 0.284564 0.608168
O O13 0.000000 0.549428 0.250000
#
# Coordination Sequence:
#
# PCOD8119413 Si02
#       7
#     4   2   4   4   4   4   2
#     4  10  21  38  63  92 125 166 213 257 321 377
#     4  10  22  34  66  98 124 162 212 272 316 382
#     4  11  22  39  65  95 132 161 216 269 322 372
#     4  10  20  38  65  88 125 164 216 251 315 392
#     4  10  21  40  65  88 125 174 210 256 324 393
#     4  11  24  37  64  96 129 162 215 273 319 370
#     4  10  20  38  66  96 114 172 216 258 310 386
#
# _framework density 20.431042000000001
#
# number of rings (size 3 to 8) (size 9 to 14) (size 15 to 20)
#    0.000    1.667    1.667    3.500    9.333    0.000 
#    0.000    0.833   25.667    0.000    0.000    0.000 
#    0.000    0.000    0.000    0.000    0.000    0.000 
#
# Total GULP energy -297336.563696 kJ/mol
# GULP energy per Si atom -12389.023487 kJ/mol
# Density = 2.038454 g / cm^3
# Si number density = 20.431042 Si / 1000 Ang^3
#
#
#
# Elastic Constant Matrix: (Units=GPa)
#
#
# Indices 1 2 3 4 5 6 
#
# 1 115.4371 39.6512 48.8076 0.0000 -2.9373 0.0000
# 2 39.6512 113.7804 57.5321 0.0000 0.2625 0.0000
# 3 48.8076 57.5321 130.0741 0.0000 4.7563 0.0000
# 4 0.0000 0.0000 0.0000 38.1819 0.0000 1.9732
# 5 -2.9373 0.2625 4.7563 0.0000 36.3010 0.0000
# 6 0.0000 0.0000 0.0000 1.9732 0.0000 22.7845
#
#
#
# Elastic Compliance Matrix: (Units=1/GPa)
#
#
# Indices 1 2 3 4 5 6 
#
# 1 0.010764 -0.002174 -0.003125 0.000000 0.001296 0.000000
# 2 -0.002174 0.011772 -0.004403 0.000000 0.000316 0.000000
# 3 -0.003125 -0.004403 0.010868 0.000000 -0.001645 0.000000
# 4 0.000000 0.000000 0.000000 0.026308 0.000000 -0.002278
# 5 0.001296 0.000316 -0.001645 0.000000 0.027866 0.000000
# 6 0.000000 0.000000 0.000000 -0.002278 0.000000 0.044087
#
#
# Mechanical properties :
#
#
# Convention : Reuss Voigt Hill
#
# Bulk Modulus (GPa) = 71.42417 72.36372 71.89395
# Shear Modulus (GPa) = 32.10624 33.67352 32.88988
#
# Velocity S-wave (km/s) = 3.96845 4.06415 4.01658
# Velocity P-wave (km/s) = 7.48549 7.58410 7.53496
#
# Compressibility (1/GPa) = 0.01400086
#
# Stress axis : x y z
#
# Youngs Moduli (GPa) = 92.90599 84.94843 92.01527
#
# Poissons Ratio (x) = 0.18468 0.28751
# Poissons Ratio (y) = 0.20198 0.40510
# Poissons Ratio (z) = 0.29030 0.37399
#
# Static dielectric constant tensor:
#      x y z
#    x 3.738610 0.000000 0.015010 
#    y 0.000000 4.167270 0.000000 
#    z 0.015010 0.000000 4.184220 
# 
# 
# High freq. dielectric constant tensor:
#      x y z
#    x 1.769640 0.000000 0.023190 
#    y 0.000000 1.810760 0.000000 
#    z 0.023190 0.000000 1.811540 
# 
# From -- ./inp_files/68328.got.cif
#   From: 2010.06.25/outbox.cif.g09.slc.cpg/sg13_35_cif.got.tgz:68328.got - 2010.06.28 04:50:58.
