data_PCOD8119300
_publ_section_title
;
Structure prediction by ZEFSAII (Michael W. Deem and Ramdas Pophale) SiO2 
 PCOD8119300
Probable space group: P 2/C
;
_chemical_formula_sum "Si O2"
_cell_formula_units_Z 28
_cell_length_a 7.884372
_cell_length_b 17.714011
_cell_length_c 18.879643
_cell_angle_alpha 90.000000
_cell_angle_beta 146.639890
_cell_angle_gamma 90.000000
_cell_volume 1449.976693
_symmetry_space_group_name_H-M "P 2/C"
_symmetry_group_IT_number 13
_symmetry_cell_setting 'monoclinic'
loop_
_space_group_symop_operation_xyz
x,y,z
-x,y,1/2-z
-x,-y,-z
x,-y,1/2+z
loop_
_atom_site_type_symbol
_atom_site_label
_atom_site_fract_x
_atom_site_fract_y
_atom_site_fract_z
Si Si1 0.196618 0.160545 0.499702
Si Si2 0.197846 0.160545 0.000310
Si Si3 0.987201 0.322612 0.397985
Si Si4 0.395267 0.322612 0.102018
Si Si5 0.300503 0.567919 0.900252
Si Si6 0.307979 0.080763 0.249993
Si Si7 0.812496 0.918128 0.250006
O O1 0.545161 0.134706 0.627189
O O2 0.029948 0.141277 0.514977
O O3 0.197168 0.249592 0.484246
O O4 0.035616 0.114546 0.378982
O O5 0.260201 0.249592 0.015759
O O6 0.519733 0.114549 0.121038
O O7 0.036477 0.134700 0.872833
O O8 0.707513 0.297071 0.250002
O O9 0.850416 0.353617 0.425208
O O10 0.192483 0.385535 0.431378
O O11 0.466978 0.385534 0.068625
O O12 0.000000 0.541502 0.750000
O O13 0.500000 0.500000 0.000000
O O14 0.500000 0.110977 0.250000
O O15 0.310423 0.990073 0.249994
O O16 0.000000 0.952594 0.250000
#
# Coordination Sequence:
#
# PCOD8119300 Si02
#       7
#     4   4   4   4   4   4   4
#     4  10  20  38  61  82 108 150 201 246 292 345
#     4  10  20  38  61  82 108 150 201 246 292 345
#     4   9  18  37  64  90 114 151 200 239 281 346
#     4   9  18  37  64  90 114 151 200 239 281 346
#     4  10  22  40  62  92 121 155 184 228 287 347
#     4  10  20  38  62  80 104 149 202 250 293 346
#     4  12  26  36  46  82 124 157 188 244 299 346
#
# _framework density 19.310655000000001
#
# number of rings (size 3 to 8) (size 9 to 14) (size 15 to 20)
#    0.000    2.000    1.429    2.143    2.000    5.143 
#    2.571    0.000    0.000    0.000    0.000    0.000 
#    0.000    0.000    0.000    0.000    0.000    0.000 
#
# Total GULP energy -347195.916517 kJ/mol
# GULP energy per Si atom -12399.854161 kJ/mol
# Density = 1.926670 g / cm^3
# Si number density = 19.310655 Si / 1000 Ang^3
#
#
#
# Elastic Constant Matrix: (Units=GPa)
#
#
# Indices 1 2 3 4 5 6 
#
# 1 90.9648 51.7667 40.5227 0.0000 0.2580 0.0000
# 2 51.7667 114.9028 67.0579 0.0000 -0.1299 0.0000
# 3 40.5227 67.0579 143.7153 0.0000 -0.7170 0.0000
# 4 0.0000 0.0000 0.0000 35.6875 0.0000 -0.1349
# 5 0.2580 -0.1299 -0.7170 0.0000 9.3087 0.0000
# 6 0.0000 0.0000 0.0000 -0.1349 0.0000 19.3896
#
#
#
# Elastic Compliance Matrix: (Units=1/GPa)
#
#
# Indices 1 2 3 4 5 6 
#
# 1 0.015013 -0.005898 -0.001484 0.000000 -0.000613 0.000000
# 2 -0.005898 0.014278 -0.004999 0.000000 -0.000022 0.000000
# 3 -0.001484 -0.004999 0.009713 0.000000 0.000719 0.000000
# 4 0.000000 0.000000 0.000000 0.028022 0.000000 0.000195
# 5 -0.000613 -0.000022 0.000719 0.000000 0.107499 0.000000
# 6 0.000000 0.000000 0.000000 0.000195 0.000000 0.051575
#
#
# Mechanical properties :
#
#
# Convention : Reuss Voigt Hill
#
# Bulk Modulus (GPa) = 70.22125 74.25304 72.23714
# Shear Modulus (GPa) = 19.56115 25.55953 22.56034
#
# Velocity S-wave (km/s) = 3.18617 3.64207 3.42173
# Velocity P-wave (km/s) = 7.06955 7.49811 7.28698
#
# Compressibility (1/GPa) = 0.01424070
#
# Stress axis : x y z
#
# Youngs Moduli (GPa) = 66.61041 70.03896 102.95694
#
# Poissons Ratio (x) = 0.41311 0.15279
# Poissons Ratio (y) = 0.39288 0.51469
# Poissons Ratio (z) = 0.09885 0.35013
#
# Static dielectric constant tensor:
#      x y z
#    x 3.600590 0.000000 0.000440 
#    y 0.000000 3.223050 0.000000 
#    z 0.000440 0.000000 3.543940 
# 
# 
# High freq. dielectric constant tensor:
#      x y z
#    x 1.752950 0.000000 0.000030 
#    y 0.000000 1.735930 0.000000 
#    z 0.000030 0.000000 1.748900 
# 
# From -- ./inp_files/76717.got.cif
#   From: 2010.06.25/outbox.cif.g09.slc.cpg/sg13_39_cif.got.tgz:76717.got - 2010.06.28 04:50:58.
