data_PCOD8119816
_publ_section_title
;
Structure prediction by ZEFSAII (Michael W. Deem and Ramdas Pophale) SiO2 
 PCOD8119816
Probable space group: P 2/C
;
_chemical_formula_sum "Si O2"
_cell_formula_units_Z 32
_cell_length_a 9.186730
_cell_length_b 15.228084
_cell_length_c 23.523880
_cell_angle_alpha 90.000000
_cell_angle_beta 29.069949
_cell_angle_gamma 90.000000
_cell_volume 1598.974506
_symmetry_space_group_name_H-M "P 2/C"
_symmetry_group_IT_number 13
_symmetry_cell_setting 'monoclinic'
loop_
_space_group_symop_operation_xyz
x,y,z
-x,y,1/2-z
-x,-y,-z
x,-y,1/2+z
loop_
_atom_site_type_symbol
_atom_site_label
_atom_site_fract_x
_atom_site_fract_y
_atom_site_fract_z
Si Si1 0.265061 0.062538 0.451538
Si Si2 0.807053 0.826919 0.766039
Si Si3 0.381144 0.382680 0.995989
Si Si4 0.269450 0.061888 0.049170
Si Si5 0.622029 0.102652 0.647347
Si Si6 0.705531 0.341717 0.234861
Si Si7 0.648819 0.562278 0.869452
Si Si8 0.645847 0.794858 0.362981
O O1 0.495635 0.134986 0.396986
O O2 0.984062 0.114954 0.521056
O O3 0.139217 0.993468 0.540915
O O4 0.440796 0.999779 0.346652
O O5 0.743265 0.761361 0.736167
O O6 0.000000 0.778263 0.750000
O O7 0.993560 0.911771 0.682700
O O8 0.479839 0.470251 0.929890
O O9 0.562487 0.305833 0.902924
O O10 0.449125 0.382212 0.040911
O O11 0.026292 0.378784 0.107748
O O12 0.452106 0.149455 0.973016
O O13 0.500000 0.000000 0.000000
O O14 0.500000 0.125905 0.750000
O O15 0.454567 0.173318 0.665002
O O16 0.500000 0.354622 0.250000
O O17 0.564150 0.387985 0.339483
O O18 0.000000 0.543423 0.750000
O O19 0.000000 0.810057 0.250000
#
# Coordination Sequence:
#
# PCOD8119816 Si02
#       8
#     4   4   4   4   4   4   4   4
#     4  10  23  37  63  83 120 170 215 259 323 369
#     4  12  23  38  64  92 125 166 222 266 310 373
#     4  10  20  43  67  95 125 159 210 258 319 382
#     4  11  23  37  60  91 123 163 213 273 312 362
#     4  10  23  42  57  84 124 167 210 262 317 384
#     4  11  25  40  63  97 133 167 205 263 324 385
#     4   9  20  41  72  95 123 160 205 256 319 387
#     4  11  25  39  62  89 123 162 211 262 315 377
#
# _framework density 20.012829
#
# number of rings (size 3 to 8) (size 9 to 14) (size 15 to 20)
#    0.000    1.500    2.500    2.250    7.000    2.000 
#    0.000    0.625    0.000    0.000    0.000    0.000 
#    0.000    0.000    0.000    0.000    0.000    0.000 
#
# Total GULP energy -396667.317352 kJ/mol
# GULP energy per Si atom -12395.853667 kJ/mol
# Density = 1.996728 g / cm^3
# Si number density = 20.012829 Si / 1000 Ang^3
#
#
#
# Elastic Constant Matrix: (Units=GPa)
#
#
# Indices 1 2 3 4 5 6 
#
# 1 148.7257 54.2283 51.7833 0.0000 -6.0825 0.0000
# 2 54.2283 91.7034 35.7233 0.0000 -5.2953 0.0000
# 3 51.7833 35.7233 75.4969 0.0000 -0.6980 0.0000
# 4 0.0000 0.0000 0.0000 27.3293 0.0000 3.1013
# 5 -6.0825 -5.2953 -0.6980 0.0000 31.1373 0.0000
# 6 0.0000 0.0000 0.0000 3.1013 0.0000 20.5293
#
#
#
# Elastic Compliance Matrix: (Units=1/GPa)
#
#
# Indices 1 2 3 4 5 6 
#
# 1 0.009904 -0.003858 -0.004957 0.000000 0.001167 0.000000
# 2 -0.003858 0.015015 -0.004443 0.000000 0.001700 0.000000
# 3 -0.004957 -0.004443 0.018736 0.000000 -0.001304 0.000000
# 4 0.000000 0.000000 0.000000 0.037229 0.000000 -0.005624
# 5 0.001167 0.001700 -0.001304 0.000000 0.032604 0.000000
# 6 0.000000 0.000000 0.000000 -0.005624 0.000000 0.049560
#
#
# Mechanical properties :
#
#
# Convention : Reuss Voigt Hill
#
# Bulk Modulus (GPa) = 58.34556 66.59954 62.47255
# Shear Modulus (GPa) = 25.60465 27.41192 26.50828
#
# Velocity S-wave (km/s) = 3.58077 3.70498 3.64341
# Velocity P-wave (km/s) = 6.80538 7.18702 6.99880
#
# Compressibility (1/GPa) = 0.01713926
#
# Stress axis : x y z
#
# Youngs Moduli (GPa) = 100.96647 66.59912 53.37457
#
# Poissons Ratio (x) = 0.25697 0.26457
# Poissons Ratio (y) = 0.38958 0.23712
# Poissons Ratio (z) = 0.50047 0.29587
#
# Static dielectric constant tensor:
#      x y z
#    x 4.043960 0.000000 0.332280 
#    y 0.000000 3.460280 0.000000 
#    z 0.332280 0.000000 3.928050 
# 
# 
# High freq. dielectric constant tensor:
#      x y z
#    x 1.782970 0.000000 0.000640 
#    y 0.000000 1.771220 0.000000 
#    z 0.000640 0.000000 1.785310 
# 
# From -- ./inp_files/85335.got.cif
#   From: 2010.06.25/outbox.cif.g09.slc.cpg/sg13_43_cif.got.tgz:85335.got - 2010.06.28 04:50:58.
