data_PCOD8119428
_publ_section_title
;
Structure prediction by ZEFSAII (Michael W. Deem and Ramdas Pophale) SiO2 
 PCOD8119428
Probable space group: P 2/C
;
_chemical_formula_sum "Si O2"
_cell_formula_units_Z 24
_cell_length_a 8.856119
_cell_length_b 11.576303
_cell_length_c 23.966272
_cell_angle_alpha 90.000000
_cell_angle_beta 27.946563
_cell_angle_gamma 90.000000
_cell_volume 1151.490784
_symmetry_space_group_name_H-M "P 2/C"
_symmetry_group_IT_number 13
_symmetry_cell_setting 'monoclinic'
loop_
_space_group_symop_operation_xyz
x,y,z
-x,y,1/2-z
-x,-y,-z
x,-y,1/2+z
loop_
_atom_site_type_symbol
_atom_site_label
_atom_site_fract_x
_atom_site_fract_y
_atom_site_fract_z
Si Si1 0.386199 0.833389 0.482603
Si Si2 0.297507 0.342303 0.694490
Si Si3 0.164289 0.747069 0.069963
Si Si4 0.364024 0.401664 0.152635
Si Si5 0.678070 0.206024 0.249927
Si Si6 0.748374 0.944846 0.539674
O O1 0.437320 0.749695 0.412528
O O2 0.669703 0.819408 0.434607
O O3 0.057576 0.801307 0.620084
O O4 0.379624 0.964239 0.463527
O O5 0.458333 0.468820 0.640172
O O6 0.000000 0.342600 0.750000
O O7 0.167860 0.308923 0.798591
O O8 0.395517 0.642657 0.974305
O O9 0.083454 0.836740 0.046822
O O10 0.413549 0.326171 0.191602
O O11 0.000000 0.391698 0.250000
O O12 0.500000 0.197332 0.250000
O O13 0.564279 0.099190 0.325173
O O14 0.000000 0.000000 0.500000
#
# Coordination Sequence:
#
# PCOD8119428 Si02
#       6
#     4   4   4   4   4   4
#     4  11  22  40  63  89 122 160 205 250 302 363
#     4   9  22  37  63  95 122 157 200 254 307 357
#     4  10  22  41  62  94 124 156 204 253 303 364
#     4  10  20  38  66  91 119 160 202 250 308 358
#     4  11  23  40  61  88 123 162 205 251 303 362
#     4  11  24  40  61  87 121 163 200 251 307 359
#
# _framework density 20.842547
#
# number of rings (size 3 to 8) (size 9 to 14) (size 15 to 20)
#    0.000    1.667    3.333    0.500    4.667    2.000 
#    3.000    2.500    0.000    0.000    0.000    0.000 
#    0.000    0.000    0.000    0.000    0.000    0.000 
#
# Total GULP energy -297653.452971 kJ/mol
# GULP energy per Si atom -12402.227207 kJ/mol
# Density = 2.079511 g / cm^3
# Si number density = 20.842547 Si / 1000 Ang^3
#
#
#
# Elastic Constant Matrix: (Units=GPa)
#
#
# Indices 1 2 3 4 5 6 
#
# 1 55.0886 22.6116 13.4282 0.0000 17.4746 0.0000
# 2 22.6116 139.3654 61.1552 0.0000 18.9645 0.0000
# 3 13.4282 61.1552 134.9606 0.0000 30.0705 0.0000
# 4 0.0000 0.0000 0.0000 27.1465 0.0000 -3.7044
# 5 17.4746 18.9645 30.0705 0.0000 28.7678 0.0000
# 6 0.0000 0.0000 0.0000 -3.7044 0.0000 17.5584
#
#
#
# Elastic Compliance Matrix: (Units=1/GPa)
#
#
# Indices 1 2 3 4 5 6 
#
# 1 0.023413 -0.002763 0.002197 0.000000 -0.014697 0.000000
# 2 -0.002763 0.009387 -0.003877 0.000000 -0.000458 0.000000
# 3 0.002197 -0.003877 0.011310 0.000000 -0.010601 0.000000
# 4 0.000000 0.000000 0.000000 0.037929 0.000000 0.008002
# 5 -0.014697 -0.000458 -0.010601 0.000000 0.055071 0.000000
# 6 0.000000 0.000000 0.000000 0.008002 0.000000 0.058641
#
#
# Mechanical properties :
#
#
# Convention : Reuss Voigt Hill
#
# Bulk Modulus (GPa) = 28.38910 58.20052 43.29481
# Shear Modulus (GPa) = 23.10774 30.17584 26.64179
#
# Velocity S-wave (km/s) = 3.33330 3.80912 3.57913
# Velocity P-wave (km/s) = 5.33524 6.87971 6.15610
#
# Compressibility (1/GPa) = 0.03522478
#
# Stress axis : x y z
#
# Youngs Moduli (GPa) = 42.71105 106.52940 88.42066
#
# Poissons Ratio (x) = 0.29433 -0.19427
# Poissons Ratio (y) = 0.11800 0.34278
# Poissons Ratio (z) = -0.09384 0.41299
#
# Static dielectric constant tensor:
#      x y z
#    x 3.506890 0.000000 0.302340 
#    y 0.000000 4.076300 0.000000 
#    z 0.302340 0.000000 4.171310 
# 
# 
# High freq. dielectric constant tensor:
#      x y z
#    x 1.795480 0.000000 0.024410 
#    y 0.000000 1.826900 0.000000 
#    z 0.024410 0.000000 1.823150 
# 
# From -- ./inp_files/29333.got.cif
#   From: 2010.06.25/outbox.cif.g09.slc.cpg/sg13_15_cif.got.tgz:29333.got - 2010.06.28 04:50:58.
