data_PCOD8119382
_publ_section_title
;
Structure prediction by ZEFSAII (Michael W. Deem and Ramdas Pophale) SiO2 
 PCOD8119382
Probable space group: P 2/C
;
_chemical_formula_sum "Si O2"
_cell_formula_units_Z 22
_cell_length_a 11.496315
_cell_length_b 6.940361
_cell_length_c 21.404437
_cell_angle_alpha 90.000000
_cell_angle_beta 141.667406
_cell_angle_gamma 90.000000
_cell_volume 1059.239216
_symmetry_space_group_name_H-M "P 2/C"
_symmetry_group_IT_number 13
_symmetry_cell_setting 'monoclinic'
loop_
_space_group_symop_operation_xyz
x,y,z
-x,y,1/2-z
-x,-y,-z
x,-y,1/2+z
loop_
_atom_site_type_symbol
_atom_site_label
_atom_site_fract_x
_atom_site_fract_y
_atom_site_fract_z
Si Si1 0.595231 0.822684 0.890611
Si Si2 0.674975 0.536179 0.030276
Si Si3 0.705219 0.512067 0.346996
Si Si4 0.805994 0.215357 0.992081
Si Si5 0.000000 0.558298 0.750000
Si Si6 0.822572 0.735048 0.791489
O O1 0.680119 0.692538 0.871557
O O2 0.371366 0.851859 0.787806
O O3 0.684190 0.031330 0.924846
O O4 0.639155 0.727514 0.975729
O O5 0.861442 0.572761 0.150148
O O6 0.500000 0.500000 0.000000
O O7 0.698873 0.348322 0.997032
O O8 0.500000 0.606388 0.250000
O O9 0.833149 0.660599 0.439871
O O10 0.801100 0.468076 0.320496
O O11 0.008432 0.148556 0.103690
O O12 0.873579 0.692531 0.741342
#
# Coordination Sequence:
#
# PCOD8119382 Si02
#       6
#     4   4   4   4   2   4
#     4  10  21  40  60  90 120 153 200 252 298 351
#     4  10  20  40  61  84 120 160 196 246 296 355
#     4   9  20  38  63  87 119 158 197 245 305 353
#     4  10  22  38  61  91 116 158 202 244 304 353
#     4  10  20  38  64  88 118 162 200 238 302 356
#     4  10  20  39  62  87 125 159 198 249 295 362
#
# _framework density 20.769624
#
# number of rings (size 3 to 8) (size 9 to 14) (size 15 to 20)
#    0.000    2.182    1.818    0.545    0.000    3.636 
#    3.273    4.545    0.000    0.000    0.000    0.000 
#    0.000    0.000    0.000    0.000    0.000    0.000 
#
# Total GULP energy -272790.852471 kJ/mol
# GULP energy per Si atom -12399.584203 kJ/mol
# Density = 2.072235 g / cm^3
# Si number density = 20.769624 Si / 1000 Ang^3
#
#
#
# Elastic Constant Matrix: (Units=GPa)
#
#
# Indices 1 2 3 4 5 6 
#
# 1 97.3744 31.4740 26.9890 0.0000 -3.8561 0.0000
# 2 31.4740 95.7818 54.8449 0.0000 4.3254 0.0000
# 3 26.9890 54.8449 144.0753 0.0000 4.2458 0.0000
# 4 0.0000 0.0000 0.0000 25.4771 0.0000 6.9560
# 5 -3.8561 4.3254 4.2458 0.0000 35.2746 0.0000
# 6 0.0000 0.0000 0.0000 6.9560 0.0000 9.5439
#
#
#
# Elastic Compliance Matrix: (Units=1/GPa)
#
#
# Indices 1 2 3 4 5 6 
#
# 1 0.011699 -0.003376 -0.000959 0.000000 0.001808 0.000000
# 2 -0.003376 0.014362 -0.004789 0.000000 -0.001554 0.000000
# 3 -0.000959 -0.004789 0.008961 0.000000 -0.000596 0.000000
# 4 0.000000 0.000000 0.000000 0.049002 0.000000 -0.035715
# 5 0.001808 -0.001554 -0.000596 0.000000 0.028809 0.000000
# 6 0.000000 0.000000 0.000000 -0.035715 0.000000 0.130810
#
#
# Mechanical properties :
#
#
# Convention : Reuss Voigt Hill
#
# Bulk Modulus (GPa) = 59.62239 62.64971 61.13605
# Shear Modulus (GPa) = 18.69274 28.98736 23.84005
#
# Velocity S-wave (km/s) = 3.00326 3.73991 3.39164
# Velocity P-wave (km/s) = 6.38709 6.99134 6.69603
#
# Compressibility (1/GPa) = 0.01677222
#
# Stress axis : x y z
#
# Youngs Moduli (GPa) = 85.48090 69.62706 111.59320
#
# Poissons Ratio (x) = 0.23509 0.10707
# Poissons Ratio (y) = 0.28862 0.53442
# Poissons Ratio (z) = 0.08201 0.33344
#
# Static dielectric constant tensor:
#      x y z
#    x 3.916090 0.000000 -0.099570 
#    y 0.000000 3.264730 0.000000 
#    z -0.099570 0.000000 4.225750 
# 
# 
# High freq. dielectric constant tensor:
#      x y z
#    x 1.824810 0.000000 -0.002430 
#    y 0.000000 1.760800 0.000000 
#    z -0.002430 0.000000 1.842010 
# 
# From -- ./inp_files/85742.got.cif
#   From: 2010.06.25/outbox.cif.g09.slc.cpg/sg13_43_cif.got.tgz:85742.got - 2010.06.28 04:50:58.
