data_PCOD8119534
_publ_section_title
;
Structure prediction by ZEFSAII (Michael W. Deem and Ramdas Pophale) SiO2 
 PCOD8119534
Probable space group: P 2/C
;
_chemical_formula_sum "Si O2"
_cell_formula_units_Z 24
_cell_length_a 5.679831
_cell_length_b 7.771941
_cell_length_c 24.940606
_cell_angle_alpha 90.000000
_cell_angle_beta 112.119013
_cell_angle_gamma 90.000000
_cell_volume 1019.934323
_symmetry_space_group_name_H-M "P 2/C"
_symmetry_group_IT_number 13
_symmetry_cell_setting 'monoclinic'
loop_
_space_group_symop_operation_xyz
x,y,z
-x,y,1/2-z
-x,-y,-z
x,-y,1/2+z
loop_
_atom_site_type_symbol
_atom_site_label
_atom_site_fract_x
_atom_site_fract_y
_atom_site_fract_z
Si Si1 0.306888 0.605359 0.539444
Si Si2 0.556485 0.238685 0.965054
Si Si3 0.262394 0.736658 0.853535
Si Si4 0.019420 0.129702 0.429765
Si Si5 0.500000 0.719341 0.250000
Si Si6 0.440814 0.937058 0.138854
Si Si7 0.000000 0.483877 0.750000
O O1 0.254728 0.400551 0.532438
O O2 0.326093 0.691037 0.481978
O O3 0.579565 0.624915 0.591029
O O4 0.099440 0.695429 0.557849
O O5 0.425000 0.163843 0.899428
O O6 0.722962 0.095909 0.013459
O O7 0.059346 0.843666 0.869991
O O8 0.122825 0.606113 0.803678
O O9 0.429704 0.879708 0.836133
O O10 0.833207 0.965902 0.413812
O O11 0.424816 0.831049 0.191956
O O12 0.238123 0.619643 0.243546
#
# Coordination Sequence:
#
# PCOD8119534 Si02
#       7
#     4   4   4   4   2   4   2
#     4   9  20  40  64 102 141 187 239 294 367 439
#     4  10  20  39  65 101 142 186 238 301 362 443
#     4  10  25  43  72  99 144 189 242 301 373 442
#     4  10  22  39  67 104 139 191 232 297 378 439
#     4  12  32  52  78 112 144 198 254 314 366 438
#     4  11  26  43  70 103 148 181 249 303 378 424
#     4  12  30  52  80 104 146 200 258 300 376 442
#
# _framework density 23.530926000000001
#
# number of rings (size 3 to 8) (size 9 to 14) (size 15 to 20)
#    0.000    1.667    0.000    2.000   11.667    7.333 
#    0.000    0.000    0.000    0.000    0.000    0.000 
#    0.000    0.000    0.000    0.000    0.000    0.000 
#
# Total GULP energy -297360.319224 kJ/mol
# GULP energy per Si atom -12390.013301 kJ/mol
# Density = 2.347737 g / cm^3
# Si number density = 23.530926 Si / 1000 Ang^3
#
#
#
# Elastic Constant Matrix: (Units=GPa)
#
#
# Indices 1 2 3 4 5 6 
#
# 1 102.2570 38.4589 44.7728 0.0000 -2.7345 0.0000
# 2 38.4589 99.7958 63.7375 0.0000 5.3130 0.0000
# 3 44.7728 63.7375 146.9899 0.0000 -18.8072 0.0000
# 4 0.0000 0.0000 0.0000 38.9430 0.0000 13.6686
# 5 -2.7345 5.3130 -18.8072 0.0000 26.5553 0.0000
# 6 0.0000 0.0000 0.0000 13.6686 0.0000 6.8112
#
#
#
# Elastic Compliance Matrix: (Units=1/GPa)
#
#
# Indices 1 2 3 4 5 6 
#
# 1 0.011965 -0.003216 -0.002210 0.000000 0.000310 0.000000
# 2 -0.003216 0.016333 -0.007217 0.000000 -0.008710 0.000000
# 3 -0.002210 -0.007217 0.011834 0.000000 0.009598 0.000000
# 4 0.000000 0.000000 0.000000 0.086858 0.000000 -0.174305
# 5 0.000310 -0.008710 0.009598 0.000000 0.046229 0.000000
# 6 0.000000 0.000000 0.000000 -0.174305 0.000000 0.496610
#
#
# Mechanical properties :
#
#
# Convention : Reuss Voigt Hill
#
# Bulk Modulus (GPa) = 67.36258 71.44232 69.40245
# Shear Modulus (GPa) = 7.14221 27.93345 17.53783
#
# Velocity S-wave (km/s) = 1.74408 3.44916 2.73300
# Velocity P-wave (km/s) = 5.72234 6.80362 6.28627
#
# Compressibility (1/GPa) = 0.01484504
#
# Stress axis : x y z
#
# Youngs Moduli (GPa) = 83.57833 61.22587 84.50230
#
# Poissons Ratio (x) = 0.19689 0.18678
# Poissons Ratio (y) = 0.26876 0.60987
# Poissons Ratio (z) = 0.18474 0.44188
#
# Static dielectric constant tensor:
#      x y z
#    x 4.505210 0.000000 -0.190220 
#    y 0.000000 4.291750 0.000000 
#    z -0.190220 0.000000 4.405690 
# 
# 
# High freq. dielectric constant tensor:
#      x y z
#    x 1.936780 0.000000 -0.009140 
#    y 0.000000 1.935450 0.000000 
#    z -0.009140 0.000000 1.928820 
# 
# From -- ./inp_files/83331.got.cif
#   From: 2010.06.25/outbox.cif.g09.slc.cpg/sg13_42_cif.got.tgz:83331.got - 2010.06.28 04:50:58.
