data_PCOD8119583
_publ_section_title
;
Structure prediction by ZEFSAII (Michael W. Deem and Ramdas Pophale) SiO2 
 PCOD8119583
Probable space group: P 2/C
;
_chemical_formula_sum "Si O2"
_cell_formula_units_Z 28
_cell_length_a 28.220504
_cell_length_b 8.559275
_cell_length_c 9.858056
_cell_angle_alpha 90.000000
_cell_angle_beta 36.500404
_cell_angle_gamma 90.000000
_cell_volume 1416.396231
_symmetry_space_group_name_H-M "P 2/C"
_symmetry_group_IT_number 13
_symmetry_cell_setting 'monoclinic'
loop_
_space_group_symop_operation_xyz
x,y,z
-x,y,1/2-z
-x,-y,-z
x,-y,1/2+z
loop_
_atom_site_type_symbol
_atom_site_label
_atom_site_fract_x
_atom_site_fract_y
_atom_site_fract_z
Si Si1 0.963525 0.709362 0.970871
Si Si2 0.214505 0.846674 0.718118
Si Si3 0.364554 0.638343 0.398915
Si Si4 0.806631 0.135082 0.924759
Si Si5 0.660394 0.651364 0.737532
Si Si6 0.488683 0.852702 0.431004
Si Si7 0.064386 0.644710 0.991769
O O1 0.000000 0.783165 0.750000
O O2 0.036189 0.696642 0.908414
O O3 0.897151 0.823274 0.181976
O O4 0.924685 0.541543 0.027795
O O5 0.300188 0.768550 0.510996
O O6 0.148881 0.719511 0.828962
O O7 0.217982 0.987329 0.605821
O O8 0.198718 0.911309 0.905216
O O9 0.357266 0.585446 0.571902
O O10 0.350866 0.486942 0.341252
O O11 0.450691 0.713008 0.171189
O O12 0.749803 0.281663 0.022014
O O13 0.600287 0.791097 0.840191
O O14 0.500000 0.907612 0.250000
O O15 0.500000 0.000000 0.500000
O O16 0.000000 0.701044 0.250000
#
# Coordination Sequence:
#
# PCOD8119583 Si02
#       7
#     4   4   4   4   4   4   4
#     4  10  22  38  62  85 111 150 195 238 292 347
#     4  11  24  39  58  83 119 153 192 241 290 344
#     4  10  22  40  61  89 119 154 196 241 286 340
#     4  11  24  40  56  85 118 152 194 239 291 346
#     4  10  22  40  62  88 119 153 197 241 285 343
#     4  10  21  38  62  91 125 157 192 237 286 342
#     4  10  20  40  60  82 114 149 191 242 289 342
#
# _framework density 19.768477000000001
#
# number of rings (size 3 to 8) (size 9 to 14) (size 15 to 20)
#    0.000    1.714    1.429    2.143    2.000    3.429 
#    0.000    0.000    0.000    0.000    0.000    0.000 
#    0.000    0.000    0.000    0.000    0.000    0.000 
#
# Total GULP energy -347354.959633 kJ/mol
# GULP energy per Si atom -12405.534273 kJ/mol
# Density = 1.972348 g / cm^3
# Si number density = 19.768477 Si / 1000 Ang^3
#
#
#
# Elastic Constant Matrix: (Units=GPa)
#
#
# Indices 1 2 3 4 5 6 
#
# 1 109.9282 43.1145 32.8285 0.0000 17.8417 0.0000
# 2 43.1145 71.9016 21.0670 0.0000 25.7063 0.0000
# 3 32.8285 21.0670 72.2725 0.0000 9.0085 0.0000
# 4 0.0000 0.0000 0.0000 12.5431 0.0000 5.9971
# 5 17.8417 25.7063 9.0085 0.0000 34.6825 0.0000
# 6 0.0000 0.0000 0.0000 5.9971 0.0000 43.6604
#
#
#
# Elastic Compliance Matrix: (Units=1/GPa)
#
#
# Indices 1 2 3 4 5 6 
#
# 1 0.012862 -0.006210 -0.003907 0.000000 -0.000998 0.000000
# 2 -0.006210 0.023044 -0.002238 0.000000 -0.013304 0.000000
# 3 -0.003907 -0.002238 0.016335 0.000000 -0.000574 0.000000
# 4 0.000000 0.000000 0.000000 0.085329 0.000000 -0.011721
# 5 -0.000998 -0.013304 -0.000574 0.000000 0.039356 0.000000
# 6 0.000000 0.000000 0.000000 -0.011721 0.000000 0.024514
#
#
# Mechanical properties :
#
#
# Convention : Reuss Voigt Hill
#
# Bulk Modulus (GPa) = 36.32488 49.79138 43.05813
# Shear Modulus (GPa) = 21.24691 28.65000 24.94845
#
# Velocity S-wave (km/s) = 3.28195 3.81107 3.55636
# Velocity P-wave (km/s) = 5.72509 6.67889 6.22030
#
# Compressibility (1/GPa) = 0.02752934
#
# Stress axis : x y z
#
# Youngs Moduli (GPa) = 77.75124 43.39530 61.21713
#
# Poissons Ratio (x) = 0.26950 0.23920
# Poissons Ratio (y) = 0.48287 0.13700
# Poissons Ratio (z) = 0.30380 0.09712
#
# Static dielectric constant tensor:
#      x y z
#    x 3.683490 0.000000 -0.441040 
#    y 0.000000 3.357220 0.000000 
#    z -0.441040 0.000000 2.287590 
# 
# 
# High freq. dielectric constant tensor:
#      x y z
#    x 1.789860 0.000000 -0.001550 
#    y 0.000000 1.760000 0.000000 
#    z -0.001550 0.000000 1.777450 
# 
# From -- ./inp_files/23004.got.cif
#   From: 2010.06.25/outbox.cif.g09.slc.cpg/sg13_12_cif.got.tgz:23004.got - 2010.06.28 04:50:58.
