data_PCOD8119474
_publ_section_title
;
Structure prediction by ZEFSAII (Michael W. Deem and Ramdas Pophale) SiO2 
 PCOD8119474
Probable space group: P 2/C
;
_chemical_formula_sum "Si O2"
_cell_formula_units_Z 20
_cell_length_a 8.023877
_cell_length_b 9.696429
_cell_length_c 16.683249
_cell_angle_alpha 90.000000
_cell_angle_beta 49.512919
_cell_angle_gamma 90.000000
_cell_volume 987.201594
_symmetry_space_group_name_H-M "P 2/C"
_symmetry_group_IT_number 13
_symmetry_cell_setting 'monoclinic'
loop_
_space_group_symop_operation_xyz
x,y,z
-x,y,1/2-z
-x,-y,-z
x,-y,1/2+z
loop_
_atom_site_type_symbol
_atom_site_label
_atom_site_fract_x
_atom_site_fract_y
_atom_site_fract_z
Si Si1 0.805896 0.795302 0.250949
Si Si2 0.480545 0.571056 0.350424
Si Si3 0.625406 0.725878 0.628573
Si Si4 0.443880 0.007034 0.925186
Si Si5 0.119242 0.212486 0.960017
O O1 0.705932 0.645702 0.308188
O O2 0.619419 0.910466 0.317607
O O3 0.887664 0.801848 0.134146
O O4 0.000000 0.832028 0.250000
O O5 0.500000 0.559449 0.250000
O O6 0.437604 0.417336 0.397941
O O7 0.277617 0.665371 0.439305
O O8 0.500000 0.734756 0.750000
O O9 0.883062 0.742554 0.565773
O O10 0.543374 0.847294 0.598784
O O11 0.204453 0.071606 0.977280
O O12 0.500000 0.000000 0.000000
#
# Coordination Sequence:
#
# PCOD8119474 Si02
#       5
#     4   4   4   4   4
#     4  10  20  39  62  83 112 154 193 228 285 361
#     4   8  18  36  59  85 111 143 188 234 287 348
#     4  11  21  36  58  87 114 144 189 244 288 328
#     4  11  23  38  57  85 115 150 193 236 284 343
#     4  10  20  39  60  80 114 157 187 226 288 354
#
# _framework density 20.259287
#
# number of rings (size 3 to 8) (size 9 to 14) (size 15 to 20)
#    0.000    2.000    0.000    5.400    0.000    1.600 
#    0.000   16.000    0.000    0.000    0.000    0.000 
#    0.000    0.000    0.000    0.000    0.000    0.000 
#
# Total GULP energy -247917.102768 kJ/mol
# GULP energy per Si atom -12395.855138 kJ/mol
# Density = 2.021318 g / cm^3
# Si number density = 20.259287 Si / 1000 Ang^3
#
#
#
# Elastic Constant Matrix: (Units=GPa)
#
#
# Indices 1 2 3 4 5 6 
#
# 1 90.3593 22.6466 31.2006 0.0000 -2.6295 0.0000
# 2 22.6466 128.9830 20.1132 0.0000 6.2075 0.0000
# 3 31.2006 20.1132 102.5082 0.0000 -12.1780 0.0000
# 4 0.0000 0.0000 0.0000 17.1680 0.0000 -0.3597
# 5 -2.6295 6.2075 -12.1780 0.0000 31.9664 0.0000
# 6 0.0000 0.0000 0.0000 -0.3597 0.0000 18.3159
#
#
#
# Elastic Compliance Matrix: (Units=1/GPa)
#
#
# Indices 1 2 3 4 5 6 
#
# 1 0.012710 -0.001681 -0.003536 0.000000 0.000025 0.000000
# 2 -0.001681 0.008378 -0.001405 0.000000 -0.002301 0.000000
# 3 -0.003536 -0.001405 0.011632 0.000000 0.004413 0.000000
# 4 0.000000 0.000000 0.000000 0.058272 0.000000 0.001144
# 5 0.000025 -0.002301 0.004413 0.000000 0.033413 0.000000
# 6 0.000000 0.000000 0.000000 0.001144 0.000000 0.054620
#
#
# Mechanical properties :
#
#
# Convention : Reuss Voigt Hill
#
# Bulk Modulus (GPa) = 51.34916 52.19681 51.77298
# Shear Modulus (GPa) = 25.15584 30.01604 27.58594
#
# Velocity S-wave (km/s) = 3.52759 3.85332 3.69405
# Velocity P-wave (km/s) = 6.48019 6.75409 6.61856
#
# Compressibility (1/GPa) = 0.01947451
#
# Stress axis : x y z
#
# Youngs Moduli (GPa) = 78.67873 119.35934 85.97328
#
# Poissons Ratio (x) = 0.20070 0.30397
# Poissons Ratio (y) = 0.13229 0.12083
# Poissons Ratio (z) = 0.27818 0.16775
#
# Static dielectric constant tensor:
#      x y z
#    x 4.043580 0.000000 -0.118520 
#    y 0.000000 4.734720 0.000000 
#    z -0.118520 0.000000 3.638950 
# 
# 
# High freq. dielectric constant tensor:
#      x y z
#    x 1.778150 0.000000 -0.016440 
#    y 0.000000 1.808070 0.000000 
#    z -0.016440 0.000000 1.787320 
# 
# From -- ./inp_files/63176.got.cif
#   From: 2010.06.25/outbox.cif.g09.slc.cpg/sg13_32_cif.got.tgz:63176.got - 2010.06.28 04:50:58.
