data_PCOD8119341
_publ_section_title
;
Structure prediction by ZEFSAII (Michael W. Deem and Ramdas Pophale) SiO2 
 PCOD8119341
Probable space group: P 2/C
;
_chemical_formula_sum "Si O2"
_cell_formula_units_Z 24
_cell_length_a 21.939610
_cell_length_b 8.110555
_cell_length_c 11.402804
_cell_angle_alpha 90.000000
_cell_angle_beta 147.022051
_cell_angle_gamma 90.000000
_cell_volume 1104.440729
_symmetry_space_group_name_H-M "P 2/C"
_symmetry_group_IT_number 13
_symmetry_cell_setting 'monoclinic'
loop_
_space_group_symop_operation_xyz
x,y,z
-x,y,1/2-z
-x,-y,-z
x,-y,1/2+z
loop_
_atom_site_type_symbol
_atom_site_label
_atom_site_fract_x
_atom_site_fract_y
_atom_site_fract_z
Si Si1 0.146883 0.102354 0.750084
Si Si2 0.308416 0.124806 0.386081
Si Si3 0.709319 0.675254 0.417487
Si Si4 0.943127 0.189965 0.278946
Si Si5 0.445844 0.128876 0.998226
Si Si6 0.666399 0.297029 0.325043
O O1 0.040222 0.205225 0.533368
O O2 0.190186 0.966346 0.724068
O O3 0.109833 0.994367 0.803382
O O4 0.242108 0.231052 0.936810
O O5 0.339535 0.255342 0.538209
O O6 0.309081 0.220078 0.263353
O O7 0.400308 0.976085 0.535744
O O8 0.844419 0.677803 0.639465
O O9 0.669889 0.492354 0.327534
O O10 0.662344 0.786987 0.236334
O O11 0.000000 0.231782 0.250000
O O12 0.544072 0.259297 0.183351
O O13 0.500000 0.000000 0.000000
#
# Coordination Sequence:
#
# PCOD8119341 Si02
#       6
#     4   4   4   4   4   4
#     4  10  21  38  63  89 118 166 216 247 300 369
#     4  10  21  41  64  87 123 167 210 252 298 372
#     4  11  24  40  61  96 128 158 205 259 319 361
#     4  10  20  38  62  87 122 166 212 253 295 368
#     4  10  21  40  63  86 118 162 208 246 296 375
#     4  11  24  40  61  95 128 155 201 263 318 362
#
# _framework density 21.730456
#
# number of rings (size 3 to 8) (size 9 to 14) (size 15 to 20)
#    0.000    1.667    0.000    6.500    0.000    9.333 
#    0.000    7.500    0.000    0.000    0.000    0.000 
#    0.000    0.000    0.000    0.000    0.000    0.000 
#
# Total GULP energy -297461.231938 kJ/mol
# GULP energy per Si atom -12394.217997 kJ/mol
# Density = 2.168100 g / cm^3
# Si number density = 21.730456 Si / 1000 Ang^3
#
#
#
# Elastic Constant Matrix: (Units=GPa)
#
#
# Indices 1 2 3 4 5 6 
#
# 1 110.5470 50.2340 33.0572 0.0000 9.2460 0.0000
# 2 50.2340 124.1269 50.6688 0.0000 2.9577 0.0000
# 3 33.0572 50.6688 119.7015 0.0000 21.7628 0.0000
# 4 0.0000 0.0000 0.0000 32.9552 0.0000 -0.8028
# 5 9.2460 2.9577 21.7628 0.0000 25.7337 0.0000
# 6 0.0000 0.0000 0.0000 -0.8028 0.0000 26.7238
#
#
#
# Elastic Compliance Matrix: (Units=1/GPa)
#
#
# Indices 1 2 3 4 5 6 
#
# 1 0.011462 -0.004223 -0.000848 0.000000 -0.002916 0.000000
# 2 -0.004223 0.011469 -0.004401 0.000000 0.003921 0.000000
# 3 -0.000848 -0.004401 0.012176 0.000000 -0.009487 0.000000
# 4 0.000000 0.000000 0.000000 0.030366 0.000000 0.000912
# 5 -0.002916 0.003921 -0.009487 0.000000 0.047480 0.000000
# 6 0.000000 0.000000 0.000000 0.000912 0.000000 0.037447
#
#
# Mechanical properties :
#
#
# Convention : Reuss Voigt Hill
#
# Bulk Modulus (GPa) = 61.87076 69.14393 65.50735
# Shear Modulus (GPa) = 28.61523 31.77689 30.19606
#
# Velocity S-wave (km/s) = 3.63275 3.82818 3.73174
# Velocity P-wave (km/s) = 6.79187 7.17133 6.98418
#
# Compressibility (1/GPa) = 0.01616272
#
# Stress axis : x y z
#
# Youngs Moduli (GPa) = 87.24140 87.19473 82.12913
#
# Poissons Ratio (x) = 0.36825 0.06961
# Poissons Ratio (y) = 0.36845 0.36146
# Poissons Ratio (z) = 0.07395 0.38376
#
# Static dielectric constant tensor:
#      x y z
#    x 4.367440 0.000000 0.467980 
#    y 0.000000 3.764300 0.000000 
#    z 0.467980 0.000000 4.273060 
# 
# 
# High freq. dielectric constant tensor:
#      x y z
#    x 1.859920 0.000000 0.014610 
#    y 0.000000 1.835290 0.000000 
#    z 0.014610 0.000000 1.860820 
# 
# From -- ./inp_files/41631.got.cif
#   From: 2010.06.25/outbox.cif.g09.slc.cpg/sg13_21_cif.got.tgz:41631.got - 2010.06.28 04:50:58.
