data_PCOD8119686
_publ_section_title
;
Structure prediction by ZEFSAII (Michael W. Deem and Ramdas Pophale) SiO2 
 PCOD8119686
Probable space group: P 2/C
;
_chemical_formula_sum "Si O2"
_cell_formula_units_Z 24
_cell_length_a 17.228233
_cell_length_b 8.781990
_cell_length_c 13.657786
_cell_angle_alpha 90.000000
_cell_angle_beta 26.716656
_cell_angle_gamma 90.000000
_cell_volume 929.008507
_symmetry_space_group_name_H-M "P 2/C"
_symmetry_group_IT_number 13
_symmetry_cell_setting 'monoclinic'
loop_
_space_group_symop_operation_xyz
x,y,z
-x,y,1/2-z
-x,-y,-z
x,-y,1/2+z
loop_
_atom_site_type_symbol
_atom_site_label
_atom_site_fract_x
_atom_site_fract_y
_atom_site_fract_z
Si Si1 0.884642 0.432196 0.046547
Si Si2 0.615237 0.490477 0.992818
Si Si3 0.290736 0.931383 0.347129
Si Si4 0.742938 0.609212 0.039638
Si Si5 0.016195 0.908047 0.382063
Si Si6 0.616604 0.863203 0.481718
O O1 0.686146 0.450125 0.308524
O O2 0.892331 0.530580 0.937696
O O3 0.941553 0.260876 0.971313
O O4 0.000000 0.500000 0.000000
O O5 0.574045 0.312418 0.047176
O O6 0.759292 0.539330 0.912441
O O7 0.444125 0.580545 0.205643
O O8 0.250702 0.792320 0.465664
O O9 0.329102 0.880100 0.192556
O O10 0.107527 0.018672 0.560061
O O11 0.452269 0.035881 0.198970
O O12 0.222255 0.907376 0.127501
O O13 0.000000 0.000000 0.500000
#
# Coordination Sequence:
#
# PCOD8119686 Si02
#       6
#     4   4   4   4   4   4
#     4  12  22  42  72  97 138 181 230 287 344 422
#     4  11  24  43  68 102 138 179 237 286 346 423
#     4  10  21  39  70 101 134 178 229 286 353 424
#     4  11  25  43  67 103 134 184 235 285 353 413
#     4  10  21  38  66 101 130 176 230 278 354 411
#     4  10  20  40  69 102 131 178 228 287 355 417
#
# _framework density 25.833994000000001
#
# number of rings (size 3 to 8) (size 9 to 14) (size 15 to 20)
#    0.000    1.333    3.333    2.500    7.000    0.667 
#    0.000    6.667    3.667    0.000    0.000    0.000 
#    0.000    0.000    0.000    0.000    0.000    0.000 
#
# Total GULP energy -297513.704300 kJ/mol
# GULP energy per Si atom -12396.404346 kJ/mol
# Density = 2.577519 g / cm^3
# Si number density = 25.833994 Si / 1000 Ang^3
#
#
#
# Elastic Constant Matrix: (Units=GPa)
#
#
# Indices 1 2 3 4 5 6 
#
# 1 116.4267 60.6174 10.3906 0.0000 -20.9887 0.0000
# 2 60.6174 227.3041 32.5398 0.0000 -24.3049 0.0000
# 3 10.3906 32.5398 68.6276 0.0000 -13.8599 0.0000
# 4 0.0000 0.0000 0.0000 22.8491 0.0000 -21.1773
# 5 -20.9887 -24.3049 -13.8599 0.0000 41.6839 0.0000
# 6 0.0000 0.0000 0.0000 -21.1773 0.0000 47.3970
#
#
#
# Elastic Compliance Matrix: (Units=1/GPa)
#
#
# Indices 1 2 3 4 5 6 
#
# 1 0.010548 -0.002437 0.000369 0.000000 0.004013 0.000000
# 2 -0.002437 0.005470 -0.001960 0.000000 0.001311 0.000000
# 3 0.000369 -0.001960 0.016349 0.000000 0.004479 0.000000
# 4 0.000000 0.000000 0.000000 0.074700 0.000000 0.033376
# 5 0.004013 0.001311 0.004479 0.000000 0.028264 0.000000
# 6 0.000000 0.000000 0.000000 0.033376 0.000000 0.036011
#
#
# Mechanical properties :
#
#
# Convention : Reuss Voigt Hill
#
# Bulk Modulus (GPa) = 41.13197 68.82824 54.98011
# Shear Modulus (GPa) = 26.66631 42.97339 34.81985
#
# Velocity S-wave (km/s) = 3.21630 4.08296 3.67526
# Velocity P-wave (km/s) = 5.45426 6.99484 6.27203
#
# Compressibility (1/GPa) = 0.02431199
#
# Stress axis : x y z
#
# Youngs Moduli (GPa) = 94.80189 182.81730 61.16421
#
# Poissons Ratio (x) = 0.44547 -0.02256
# Poissons Ratio (y) = 0.23100 0.11988
# Poissons Ratio (z) = -0.03496 0.35831
#
# Static dielectric constant tensor:
#      x y z
#    x 5.478150 0.000000 -0.217620 
#    y 0.000000 4.510970 0.000000 
#    z -0.217620 0.000000 5.047880 
# 
# 
# High freq. dielectric constant tensor:
#      x y z
#    x 2.050320 0.000000 -0.019060 
#    y 0.000000 2.034910 0.000000 
#    z -0.019060 0.000000 2.045740 
# 
# From -- ./inp_files/55194.got.cif
#   From: 2010.06.25/outbox.cif.g09.slc.cpg/sg13_28_cif.got.tgz:55194.got - 2010.06.28 04:50:58.
