data_PCOD8119992
_publ_section_title
;
Structure prediction by ZEFSAII (Michael W. Deem and Ramdas Pophale) SiO2 
 PCOD8119992
Probable space group: P 2/C
;
_chemical_formula_sum "Si O2"
_cell_formula_units_Z 28
_cell_length_a 7.880320
_cell_length_b 10.707648
_cell_length_c 24.143213
_cell_angle_alpha 90.000000
_cell_angle_beta 138.646400
_cell_angle_gamma 90.000000
_cell_volume 1345.984511
_symmetry_space_group_name_H-M "P 2/C"
_symmetry_group_IT_number 13
_symmetry_cell_setting 'monoclinic'
loop_
_space_group_symop_operation_xyz
x,y,z
-x,y,1/2-z
-x,-y,-z
x,-y,1/2+z
loop_
_atom_site_type_symbol
_atom_site_label
_atom_site_fract_x
_atom_site_fract_y
_atom_site_fract_z
Si Si1 0.485973 0.121503 0.068909
Si Si2 0.221373 0.632399 0.658872
Si Si3 0.509066 0.149278 0.945027
Si Si4 0.992098 0.220367 0.491783
Si Si5 0.833639 0.348276 0.156793
Si Si6 0.718051 0.398118 0.660085
Si Si7 0.338008 0.634389 0.161169
O O1 0.211818 0.124110 0.032706
O O2 0.665610 0.231217 0.135959
O O3 0.600780 0.982000 0.106764
O O4 0.461185 0.148379 0.998156
O O5 0.500000 0.676477 0.750000
O O6 0.166317 0.678131 0.582913
O O7 0.192477 0.482451 0.653622
O O8 0.000854 0.689074 0.644537
O O9 0.365118 0.270655 0.889214
O O10 0.808661 0.153251 0.000711
O O11 0.137606 0.277441 0.580866
O O12 0.684469 0.481015 0.110839
O O13 0.000000 0.386958 0.250000
O O14 0.536422 0.427042 0.667264
O O15 0.000000 0.369444 0.750000
O O16 0.500000 0.705533 0.250000
#
# Coordination Sequence:
#
# PCOD8119992 Si02
#       7
#     4   4   4   4   4   4   4
#     4  11  23  41  65  86 128 164 208 257 314 364
#     4  11  21  37  59  92 131 159 207 260 312 378
#     4  10  24  42  60  93 121 168 208 256 309 376
#     4  11  22  40  64  89 122 169 208 261 310 371
#     4  11  22  38  64  94 122 163 209 256 318 372
#     4  10  21  38  62  91 123 158 206 259 314 368
#     4  10  21  36  57  91 128 161 206 254 315 374
#
# _framework density 20.802619
#
# number of rings (size 3 to 8) (size 9 to 14) (size 15 to 20)
#    0.000    1.429    1.429    6.000    4.000    2.286 
#    0.000    0.000    0.000    1.714    0.000    0.000 
#    0.000    0.000    0.000    0.000    0.000    0.000 
#
# Total GULP energy -346996.048121 kJ/mol
# GULP energy per Si atom -12392.716004 kJ/mol
# Density = 2.075527 g / cm^3
# Si number density = 20.802619 Si / 1000 Ang^3
#
#
#
# Elastic Constant Matrix: (Units=GPa)
#
#
# Indices 1 2 3 4 5 6 
#
# 1 89.0438 19.2274 7.6461 0.0000 3.5836 0.0000
# 2 19.2274 139.8969 36.5642 0.0000 2.0440 0.0000
# 3 7.6461 36.5642 81.5158 0.0000 -13.6521 0.0000
# 4 0.0000 0.0000 0.0000 -1.7330 0.0000 -10.0621
# 5 3.5836 2.0440 -13.6521 0.0000 33.1739 0.0000
# 6 0.0000 0.0000 0.0000 -10.0621 0.0000 -11.6483
#
#
#
# Elastic Compliance Matrix: (Units=1/GPa)
#
#
# Indices 1 2 3 4 5 6 
#
# 1 0.011652 -0.001393 -0.000713 0.000000 -0.001466 0.000000
# 2 -0.001393 0.008408 -0.003976 0.000000 -0.002004 0.000000
# 3 -0.000713 -0.003976 0.015221 0.000000 0.006586 0.000000
# 4 0.000000 0.000000 0.000000 0.143703 0.000000 -0.124134
# 5 -0.001466 -0.002004 0.006586 0.000000 0.033136 0.000000
# 6 0.000000 0.000000 0.000000 -0.124134 0.000000 0.021380
#
#
# Mechanical properties :
#
#
# Convention : Reuss Voigt Hill
#
# Bulk Modulus (GPa) = 43.26343 48.59243 45.92793
# Shear Modulus (GPa) = 19.73382 20.42643 20.08013
#
# Velocity S-wave (km/s) = 3.08331 3.13695 3.11025
# Velocity P-wave (km/s) = 5.78947 6.04402 5.91811
#
# Compressibility (1/GPa) = 0.02311421
#
# Stress axis : x y z
#
# Youngs Moduli (GPa) = 85.82508 118.93112 65.69799
#
# Poissons Ratio (x) = 0.16573 0.04687
# Poissons Ratio (y) = 0.11960 0.26125
# Poissons Ratio (z) = 0.06123 0.47292
#
# Static dielectric constant tensor:
#      x y z
#    x 4.029340 0.000000 0.038300 
#    y 0.000000 3.851480 0.000000 
#    z 0.038300 0.000000 3.696590 
# 
# 
# High freq. dielectric constant tensor:
#      x y z
#    x 1.834670 0.000000 -0.002210 
#    y 0.000000 1.808020 0.000000 
#    z -0.002210 0.000000 1.796020 
# 
# From -- ./inp_files/91470.got.cif
#   From: 2010.06.25/outbox.cif.g09.slc.cpg/sg13_46_cif.got.tgz:91470.got - 2010.06.28 04:50:58.
