data_PCOD8119393
_publ_section_title
;
Structure prediction by ZEFSAII (Michael W. Deem and Ramdas Pophale) SiO2 
 PCOD8119393
Probable space group: P 2/C
;
_chemical_formula_sum "Si O2"
_cell_formula_units_Z 20
_cell_length_a 8.851950
_cell_length_b 6.880070
_cell_length_c 19.063370
_cell_angle_alpha 90.000000
_cell_angle_beta 124.221848
_cell_angle_gamma 90.000000
_cell_volume 959.990014
_symmetry_space_group_name_H-M "P 2/C"
_symmetry_group_IT_number 13
_symmetry_cell_setting 'monoclinic'
loop_
_space_group_symop_operation_xyz
x,y,z
-x,y,1/2-z
-x,-y,-z
x,-y,1/2+z
loop_
_atom_site_type_symbol
_atom_site_label
_atom_site_fract_x
_atom_site_fract_y
_atom_site_fract_z
Si Si1 0.197051 0.597542 0.557484
Si Si2 0.411857 0.213279 0.620862
Si Si3 0.211079 0.948211 0.463470
Si Si4 0.799688 0.107728 0.698186
Si Si5 0.810337 0.936659 0.843807
O O1 0.345863 0.432005 0.602699
O O2 0.242590 0.730432 0.501429
O O3 0.000000 0.500000 0.500000
O O4 0.223015 0.721401 0.635607
O O5 0.631788 0.241059 0.678920
O O6 0.342228 0.090259 0.669634
O O7 0.346724 0.101343 0.534190
O O8 0.248450 0.971481 0.390902
O O9 0.002115 0.996690 0.427030
O O10 0.813837 0.933259 0.759690
O O11 0.000000 0.215415 0.750000
#
# Coordination Sequence:
#
# PCOD8119393 Si02
#       5
#     4   4   4   4   4
#     4  11  19  36  69  95 115 159 217 256 307 374
#     4  11  20  38  66  89 121 166 215 258 303 380
#     4  10  20  38  64  92 124 161 211 257 311 380
#     4  10  23  40  60  86 132 172 202 256 326 365
#     4  10  20  39  63  92 125 162 208 260 313 376
#
# _framework density 20.833549999999999
#
# number of rings (size 3 to 8) (size 9 to 14) (size 15 to 20)
#    0.000    1.600    4.000    2.400    0.000    0.800 
#    0.000   10.000    0.000    0.000    0.000    0.000 
#    0.000    0.000    0.000    0.000    0.000    0.000 
#
# Total GULP energy -247858.112709 kJ/mol
# GULP energy per Si atom -12392.905635 kJ/mol
# Density = 2.078613 g / cm^3
# Si number density = 20.833550 Si / 1000 Ang^3
#
#
#
# Elastic Constant Matrix: (Units=GPa)
#
#
# Indices 1 2 3 4 5 6 
#
# 1 138.7309 56.8108 67.1250 0.0000 21.9107 0.0000
# 2 56.8108 150.9738 56.0397 0.0000 1.1640 0.0000
# 3 67.1250 56.0397 109.8824 0.0000 -26.6001 0.0000
# 4 0.0000 0.0000 0.0000 -0.2974 0.0000 10.4449
# 5 21.9107 1.1640 -26.6001 0.0000 56.0908 0.0000
# 6 0.0000 0.0000 0.0000 10.4449 0.0000 19.3516
#
#
#
# Elastic Compliance Matrix: (Units=1/GPa)
#
#
# Indices 1 2 3 4 5 6 
#
# 1 0.014854 -0.001417 -0.011013 0.000000 -0.010996 0.000000
# 2 -0.001417 0.008608 -0.003879 0.000000 -0.001465 0.000000
# 3 -0.011013 -0.003879 0.021315 0.000000 0.014491 0.000000
# 4 0.000000 0.000000 0.000000 -0.168492 0.000000 0.090942
# 5 -0.010996 -0.001465 0.014491 0.000000 0.029026 0.000000
# 6 0.000000 0.000000 0.000000 0.090942 0.000000 0.002590
#
#
# Mechanical properties :
#
#
# Convention : Reuss Voigt Hill
#
# Bulk Modulus (GPa) = 82.24921 84.39311 83.32116
# Shear Modulus (GPa) = -90.20530 29.66975 -30.26778
#
# Velocity S-wave (km/s) = -6.58727 3.77786 -3.81575
# Velocity P-wave (km/s) = 4.27682 7.72178 4.54613
#
# Compressibility (1/GPa) = 0.01215817
#
# Stress axis : x y z
#
# Youngs Moduli (GPa) = 67.32351 116.17128 46.91613
#
# Poissons Ratio (x) = 0.16457 0.51669
# Poissons Ratio (y) = 0.09537 0.18200
# Poissons Ratio (z) = 0.74144 0.45066
#
# Static dielectric constant tensor:
#      x y z
#    x 4.011420 0.000000 0.068590 
#    y 0.000000 3.460660 0.000000 
#    z 0.068590 0.000000 3.950210 
# 
# 
# High freq. dielectric constant tensor:
#      x y z
#    x 1.828650 0.000000 0.003200 
#    y 0.000000 1.775000 0.000000 
#    z 0.003200 0.000000 1.834650 
# 
# From -- ./inp_files/74689.got.cif
#   From: 2010.06.25/outbox.cif.g09.slc.cpg/sg13_38_cif.got.tgz:74689.got - 2010.06.28 04:50:58.
