data_PCOD8119082
_publ_section_title
;
Structure prediction by ZEFSAII (Michael W. Deem and Ramdas Pophale) SiO2 
 PCOD8119082
Probable space group: P 2/C
;
_chemical_formula_sum "Si O2"
_cell_formula_units_Z 24
_cell_length_a 18.263787
_cell_length_b 8.390313
_cell_length_c 24.403577
_cell_angle_alpha 90.000000
_cell_angle_beta 19.015850
_cell_angle_gamma 90.000000
_cell_volume 1218.465284
_symmetry_space_group_name_H-M "P 2/C"
_symmetry_group_IT_number 13
_symmetry_cell_setting 'monoclinic'
loop_
_space_group_symop_operation_xyz
x,y,z
-x,y,1/2-z
-x,-y,-z
x,-y,1/2+z
loop_
_atom_site_type_symbol
_atom_site_label
_atom_site_fract_x
_atom_site_fract_y
_atom_site_fract_z
Si Si1 0.200556 0.162912 0.943615
Si Si2 0.661331 0.101152 0.448987
Si Si3 0.404329 0.694830 0.400902
Si Si4 0.000000 0.852185 0.250000
Si Si5 0.411834 0.676016 0.916373
Si Si6 0.309369 0.843333 0.693347
Si Si7 0.500000 0.123677 0.250000
O O1 0.354478 0.228364 0.785111
O O2 0.227496 0.279391 0.976867
O O3 0.279241 0.987634 0.907281
O O4 0.945069 0.156298 0.104525
O O5 0.694273 0.223515 0.475089
O O6 0.681586 0.197030 0.377785
O O7 0.851510 0.963822 0.315368
O O8 0.417760 0.017359 0.626744
O O9 0.425877 0.509263 0.395521
O O10 0.843345 0.737212 0.397119
O O11 0.554258 0.708993 0.870452
O O12 0.521546 0.768323 0.788191
#
# Coordination Sequence:
#
# PCOD8119082 Si02
#       7
#     4   4   4   2   4   4   2
#     4  10  20  38  61  83 110 154 196 231 274 333
#     4  10  20  37  58  83 113 149 193 235 274 334
#     4  10  22  38  57  83 118 151 184 228 289 344
#     4  10  20  38  60  80 110 154 196 224 274 344
#     4  11  23  38  57  87 117 146 185 237 289 336
#     4  10  21  36  58  85 112 144 194 241 276 324
#     4  10  20  38  62  80 110 154 196 226 270 344
#
# _framework density 19.696908000000001
#
# number of rings (size 3 to 8) (size 9 to 14) (size 15 to 20)
#    0.000    2.000    0.000    7.000    0.000    6.000 
#    0.000    5.000    0.000    0.000    0.000    0.000 
#    0.000    0.000    0.000    0.000    0.000    0.000 
#
# Total GULP energy -297641.091609 kJ/mol
# GULP energy per Si atom -12401.712150 kJ/mol
# Density = 1.965208 g / cm^3
# Si number density = 19.696908 Si / 1000 Ang^3
#
#
#
# Elastic Constant Matrix: (Units=GPa)
#
#
# Indices 1 2 3 4 5 6 
#
# 1 74.2505 15.9249 32.2510 0.0000 9.1870 0.0000
# 2 15.9249 90.9992 33.2227 0.0000 3.6674 0.0000
# 3 32.2510 33.2227 109.0187 0.0000 -20.0853 0.0000
# 4 0.0000 0.0000 0.0000 13.6327 0.0000 7.9064
# 5 9.1870 3.6674 -20.0853 0.0000 33.1780 0.0000
# 6 0.0000 0.0000 0.0000 7.9064 0.0000 24.7434
#
#
#
# Elastic Compliance Matrix: (Units=1/GPa)
#
#
# Indices 1 2 3 4 5 6 
#
# 1 0.017565 -0.000243 -0.006768 0.000000 -0.008935 0.000000
# 2 -0.000243 0.012886 -0.004620 0.000000 -0.004154 0.000000
# 3 -0.006768 -0.004620 0.014657 0.000000 0.011258 0.000000
# 4 0.000000 0.000000 0.000000 0.090039 0.000000 -0.028771
# 5 -0.008935 -0.004154 0.011258 0.000000 0.039889 0.000000
# 6 0.000000 0.000000 0.000000 -0.028771 0.000000 0.049608
#
#
# Mechanical properties :
#
#
# Convention : Reuss Voigt Hill
#
# Bulk Modulus (GPa) = 45.77671 48.56285 47.16978
# Shear Modulus (GPa) = 19.59324 27.16878 23.38101
#
# Velocity S-wave (km/s) = 3.15737 3.71798 3.44908
# Velocity P-wave (km/s) = 6.04838 6.56809 6.31358
#
# Compressibility (1/GPa) = 0.02184517
#
# Stress axis : x y z
#
# Youngs Moduli (GPa) = 56.93020 77.60433 68.22556
#
# Poissons Ratio (x) = 0.01884 0.46178
# Poissons Ratio (y) = 0.01382 0.31523
# Poissons Ratio (z) = 0.38533 0.35856
#
# Static dielectric constant tensor:
#      x y z
#    x 3.690780 0.000000 0.003650 
#    y 0.000000 3.405520 0.000000 
#    z 0.003650 0.000000 3.634940 
# 
# 
# High freq. dielectric constant tensor:
#      x y z
#    x 1.772060 0.000000 0.005110 
#    y 0.000000 1.751570 0.000000 
#    z 0.005110 0.000000 1.770360 
# 
# From -- ./inp_files/55404.got.cif
#   From: 2010.06.25/outbox.cif.g09.slc.cpg/sg13_28_cif.got.tgz:55404.got - 2010.06.28 04:50:58.
