data_PCOD8119459
_publ_section_title
;
Structure prediction by ZEFSAII (Michael W. Deem and Ramdas Pophale) SiO2 
 PCOD8119459
Probable space group: P 2/C
;
_chemical_formula_sum "Si O2"
_cell_formula_units_Z 22
_cell_length_a 25.768134
_cell_length_b 8.949209
_cell_length_c 8.633483
_cell_angle_alpha 90.000000
_cell_angle_beta 150.253036
_cell_angle_gamma 90.000000
_cell_volume 987.835428
_symmetry_space_group_name_H-M "P 2/C"
_symmetry_group_IT_number 13
_symmetry_cell_setting 'monoclinic'
loop_
_space_group_symop_operation_xyz
x,y,z
-x,y,1/2-z
-x,-y,-z
x,-y,1/2+z
loop_
_atom_site_type_symbol
_atom_site_label
_atom_site_fract_x
_atom_site_fract_y
_atom_site_fract_z
Si Si1 0.500000 0.981374 0.750000
Si Si2 0.156008 0.684825 0.915065
Si Si3 0.926019 0.194922 0.836170
Si Si4 0.216763 0.605497 0.731502
Si Si5 0.632935 0.849814 0.358508
Si Si6 0.833473 0.039557 0.893582
O O1 0.450004 0.872100 0.493160
O O2 0.413701 0.090149 0.601496
O O3 0.162851 0.632756 0.756899
O O4 0.034571 0.718386 0.638192
O O5 0.211733 0.569011 0.177262
O O6 0.212868 0.843241 0.098274
O O7 0.844121 0.316457 0.565392
O O8 0.884382 0.134774 0.890200
O O9 0.927113 0.058110 0.714427
O O10 0.335298 0.674115 0.043392
O O11 0.740095 0.935462 0.593964
#
# Coordination Sequence:
#
# PCOD8119459 Si02
#       6
#     2   4   4   4   4   4
#     4  10  20  38  72  98 118 144 208 266 328 394
#     4  12  24  39  59  86 125 175 215 251 296 367
#     4  11  23  39  59  91 126 171 216 256 297 356
#     4  11  24  41  60  86 129 167 213 258 311 368
#     4  10  21  40  65  96 120 156 198 266 326 375
#     4  11  22  39  63  91 131 164 211 261 310 361
#
# _framework density 22.270916
#
# number of rings (size 3 to 8) (size 9 to 14) (size 15 to 20)
#    0.000    1.091    0.000    8.727    0.000    4.364 
#    0.000    0.000    0.000   18.545    0.000    0.000 
#    0.000    0.000    0.000    0.000    0.000    0.000 
#
# Total GULP energy -272717.881318 kJ/mol
# GULP energy per Si atom -12396.267333 kJ/mol
# Density = 2.222023 g / cm^3
# Si number density = 22.270916 Si / 1000 Ang^3
#
#
#
# Elastic Constant Matrix: (Units=GPa)
#
#
# Indices 1 2 3 4 5 6 
#
# 1 85.3839 10.2589 24.6588 0.0000 4.2864 0.0000
# 2 10.2589 111.0969 40.9375 0.0000 5.8963 0.0000
# 3 24.6588 40.9375 91.4591 0.0000 -1.3696 0.0000
# 4 0.0000 0.0000 0.0000 39.4958 0.0000 -0.1017
# 5 4.2864 5.8963 -1.3696 0.0000 28.2922 0.0000
# 6 0.0000 0.0000 0.0000 -0.1017 0.0000 26.9222
#
#
#
# Elastic Compliance Matrix: (Units=1/GPa)
#
#
# Indices 1 2 3 4 5 6 
#
# 1 0.012832 0.000260 -0.003609 0.000000 -0.002173 0.000000
# 2 0.000260 0.010961 -0.005015 0.000000 -0.002567 0.000000
# 3 -0.003609 -0.005015 0.014186 0.000000 0.002279 0.000000
# 4 0.000000 0.000000 0.000000 0.025319 0.000000 0.000096
# 5 -0.002173 -0.002567 0.002279 0.000000 0.036320 0.000000
# 6 0.000000 0.000000 0.000000 0.000096 0.000000 0.037144
#
#
# Mechanical properties :
#
#
# Convention : Reuss Voigt Hill
#
# Bulk Modulus (GPa) = 47.05458 48.85003 47.95230
# Shear Modulus (GPa) = 31.13848 33.08102 32.10975
#
# Velocity S-wave (km/s) = 3.74326 3.85826 3.80120
# Velocity P-wave (km/s) = 6.31323 6.46763 6.39090
#
# Compressibility (1/GPa) = 0.02125192
#
# Stress axis : x y z
#
# Youngs Moduli (GPa) = 77.93132 91.23045 70.49405
#
# Poissons Ratio (x) = -0.02373 0.25439
# Poissons Ratio (y) = -0.02027 0.35352
# Poissons Ratio (z) = 0.28123 0.45751
#
# Static dielectric constant tensor:
#      x y z
#    x 3.970230 0.000000 -0.259750 
#    y 0.000000 4.459870 0.000000 
#    z -0.259750 0.000000 4.153960 
# 
# 
# High freq. dielectric constant tensor:
#      x y z
#    x 1.879940 0.000000 -0.027330 
#    y 0.000000 1.877520 0.000000 
#    z -0.027330 0.000000 1.871880 
# 
# From -- ./inp_files/18042.got.cif
#   From: 2010.06.25/outbox.cif.g09.slc.cpg/sg13_10_cif.got.tgz:18042.got - 2010.06.28 04:50:58.
