data_PCOD8119763
_publ_section_title
;
Structure prediction by ZEFSAII (Michael W. Deem and Ramdas Pophale) SiO2 
 PCOD8119763
Probable space group: P 2/C
;
_chemical_formula_sum "Si O2"
_cell_formula_units_Z 28
_cell_length_a 8.716915
_cell_length_b 5.413257
_cell_length_c 27.789985
_cell_angle_alpha 90.000000
_cell_angle_beta 66.420417
_cell_angle_gamma 90.000000
_cell_volume 1201.834775
_symmetry_space_group_name_H-M "P 2/C"
_symmetry_group_IT_number 13
_symmetry_cell_setting 'monoclinic'
loop_
_space_group_symop_operation_xyz
x,y,z
-x,y,1/2-z
-x,-y,-z
x,-y,1/2+z
loop_
_atom_site_type_symbol
_atom_site_label
_atom_site_fract_x
_atom_site_fract_y
_atom_site_fract_z
Si Si1 0.000000 0.091183 0.250000
Si Si2 0.965664 0.947086 0.427052
Si Si3 0.191857 0.311640 0.342332
Si Si4 0.699369 0.447963 0.312448
Si Si5 0.500000 0.365686 0.250000
Si Si6 0.243282 0.872499 0.466270
Si Si7 0.618383 0.610117 0.589613
Si Si8 0.962997 0.720940 0.333232
O O1 0.832217 0.239196 0.282763
O O2 0.949325 0.942544 0.207467
O O3 0.817258 0.103779 0.470505
O O4 0.075670 0.096269 0.375123
O O5 0.078563 0.824451 0.454303
O O6 0.896386 0.750870 0.396903
O O7 0.355779 0.202036 0.294051
O O8 0.259664 0.455530 0.380983
O O9 0.092368 0.491377 0.318200
O O10 0.591063 0.532800 0.279431
O O11 0.572731 0.354161 0.370012
O O12 0.799938 0.678151 0.320822
O O13 0.361447 0.630250 0.447952
O O14 0.331134 0.131019 0.441582
#
# Coordination Sequence:
#
# PCOD8119763 Si02
#       8
#     2   4   4   4   2   4   4   4
#     4  12  26  44  66  98 130 186 228 286 344 424
#     4  10  22  38  72 101 138 179 235 278 345 411
#     4  10  21  40  65  99 133 176 226 286 335 415
#     4  11  25  43  66  94 138 176 229 286 348 419
#     4  10  20  42  62  92 126 176 220 286 354 402
#     4  10  22  42  70 108 140 185 230 292 340 405
#     4  10  23  43  70 102 143 176 232 287 348 399
#     4  12  23  42  68  97 135 181 230 285 344 424
#
# _framework density 23.297709999999999
#
# number of rings (size 3 to 8) (size 9 to 14) (size 15 to 20)
#    0.000    1.429    1.429    3.857    4.000    1.714 
#    0.000    2.857    0.000    0.000    0.000    0.000 
#    0.000    0.000    0.000    0.000    0.000    0.000 
#
# Total GULP energy -346877.296507 kJ/mol
# GULP energy per Si atom -12388.474875 kJ/mol
# Density = 2.324468 g / cm^3
# Si number density = 23.297710 Si / 1000 Ang^3
#
#
#
# Elastic Constant Matrix: (Units=GPa)
#
#
# Indices 1 2 3 4 5 6 
#
# 1 99.2150 32.8046 56.0540 0.0000 -6.6824 0.0000
# 2 32.8046 65.8291 22.4877 0.0000 3.5678 0.0000
# 3 56.0540 22.4877 154.3368 0.0000 -7.2972 0.0000
# 4 0.0000 0.0000 0.0000 33.0371 0.0000 -2.3326
# 5 -6.6824 3.5678 -7.2972 0.0000 33.8049 0.0000
# 6 0.0000 0.0000 0.0000 -2.3326 0.0000 13.1287
#
#
#
# Elastic Compliance Matrix: (Units=1/GPa)
#
#
# Indices 1 2 3 4 5 6 
#
# 1 0.014681 -0.005974 -0.004339 0.000000 0.002596 0.000000
# 2 -0.005974 0.018583 -0.000694 0.000000 -0.003292 0.000000
# 3 -0.004339 -0.000694 0.008203 0.000000 0.000986 0.000000
# 4 0.000000 0.000000 0.000000 0.030654 0.000000 0.005446
# 5 0.002596 -0.003292 0.000986 0.000000 0.030655 0.000000
# 6 0.000000 0.000000 0.000000 0.005446 0.000000 0.077137
#
#
# Mechanical properties :
#
#
# Convention : Reuss Voigt Hill
#
# Bulk Modulus (GPa) = 51.40405 60.23041 55.81723
# Shear Modulus (GPa) = 23.99122 29.86310 26.92716
#
# Velocity S-wave (km/s) = 3.21248 3.58411 3.40337
# Velocity P-wave (km/s) = 5.98932 6.56022 6.28126
#
# Compressibility (1/GPa) = 0.01945372
#
# Stress axis : x y z
#
# Youngs Moduli (GPa) = 68.11735 53.81153 121.91001
#
# Poissons Ratio (x) = 0.32149 0.52892
# Poissons Ratio (y) = 0.40696 0.08455
# Poissons Ratio (z) = 0.29554 0.03732
#
# Static dielectric constant tensor:
#      x y z
#    x 4.270070 0.000000 0.099380 
#    y 0.000000 3.801240 0.000000 
#    z 0.099380 0.000000 4.612890 
# 
# 
# High freq. dielectric constant tensor:
#      x y z
#    x 1.910250 0.000000 0.002470 
#    y 0.000000 1.889030 0.000000 
#    z 0.002470 0.000000 1.948530 
# 
# From -- ./inp_files/90812.got.cif
#   From: 2010.06.25/outbox.cif.g09.slc.cpg/sg13_46_cif.got.tgz:90812.got - 2010.06.28 04:50:58.
