data_PCOD8119170
_publ_section_title
;
Structure prediction by ZEFSAII (Michael W. Deem and Ramdas Pophale) SiO2 
 PCOD8119170
Probable space group: P 2/C
;
_chemical_formula_sum "Si O2"
_cell_formula_units_Z 28
_cell_length_a 8.735301
_cell_length_b 7.806200
_cell_length_c 26.040795
_cell_angle_alpha 90.000000
_cell_angle_beta 133.811425
_cell_angle_gamma 90.000000
_cell_volume 1281.391005
_symmetry_space_group_name_H-M "P 2/C"
_symmetry_group_IT_number 13
_symmetry_cell_setting 'monoclinic'
loop_
_space_group_symop_operation_xyz
x,y,z
-x,y,1/2-z
-x,-y,-z
x,-y,1/2+z
loop_
_atom_site_type_symbol
_atom_site_label
_atom_site_fract_x
_atom_site_fract_y
_atom_site_fract_z
Si Si1 0.157870 0.356811 0.745750
Si Si2 0.592090 0.245527 0.826856
Si Si3 0.001059 0.250815 0.408054
Si Si4 0.144160 0.241537 0.238274
Si Si5 0.395376 0.117401 0.133032
Si Si6 0.018703 0.359650 0.905445
Si Si7 0.320801 0.953129 0.499944
O O1 0.392302 0.290376 0.816799
O O2 0.155279 0.558483 0.749126
O O3 0.000000 0.272287 0.750000
O O4 0.072551 0.300147 0.670665
O O5 0.500000 0.297686 0.750000
O O6 0.807071 0.347964 0.892143
O O7 0.661755 0.049899 0.847649
O O8 0.951939 0.190421 0.338866
O O9 0.792097 0.251124 0.396071
O O10 0.099733 0.443907 0.428831
O O11 0.166942 0.116202 0.469742
O O12 0.382434 0.179011 0.294370
O O13 0.000000 0.158723 0.250000
O O14 0.421284 0.078693 0.078886
O O15 0.204526 0.226429 0.960688
O O16 0.500000 0.000000 0.500000
#
# Coordination Sequence:
#
# PCOD8119170 Si02
#       7
#     4   4   4   4   4   4   4
#     4   9  20  37  64  98 127 163 216 267 324 385
#     4  10  20  37  62  96 125 159 214 266 321 384
#     4  11  23  45  70  93 128 172 219 266 322 390
#     4  10  21  40  65  98 129 166 215 269 324 383
#     4  12  24  40  65  97 128 172 215 271 326 385
#     4  10  23  43  67  91 129 173 211 269 325 384
#     4  12  28  46  61  95 133 169 221 268 326 399
#
# _framework density 21.851254000000001
#
# number of rings (size 3 to 8) (size 9 to 14) (size 15 to 20)
#    0.000    1.429    1.429    3.429    4.000    4.000 
#    2.571    0.000    0.000    0.000    0.000    0.000 
#    0.000    0.000    0.000    0.000    0.000    0.000 
#
# Total GULP energy -347065.083345 kJ/mol
# GULP energy per Si atom -12395.181548 kJ/mol
# Density = 2.180152 g / cm^3
# Si number density = 21.851254 Si / 1000 Ang^3
#
#
#
# Elastic Constant Matrix: (Units=GPa)
#
#
# Indices 1 2 3 4 5 6 
#
# 1 127.3750 -32.8893 23.2318 0.0000 23.0281 0.0000
# 2 -32.8893 211.6681 -33.9546 0.0000 -47.5408 0.0000
# 3 23.2318 -33.9546 74.8147 0.0000 24.9364 0.0000
# 4 0.0000 0.0000 0.0000 -18.9365 0.0000 -0.2077
# 5 23.0281 -47.5408 24.9364 0.0000 43.3791 0.0000
# 6 0.0000 0.0000 0.0000 -0.2077 0.0000 30.1230
#
#
#
# Elastic Compliance Matrix: (Units=1/GPa)
#
#
# Indices 1 2 3 4 5 6 
#
# 1 0.008832 0.000365 -0.001419 0.000000 -0.003473 0.000000
# 2 0.000365 0.006311 0.000631 0.000000 0.006360 0.000000
# 3 -0.001419 0.000631 0.016838 0.000000 -0.008234 0.000000
# 4 0.000000 0.000000 0.000000 -0.052804 0.000000 -0.000364
# 5 -0.003473 0.006360 -0.008234 0.000000 0.036599 0.000000
# 6 0.000000 0.000000 0.000000 -0.000364 0.000000 0.033195
#
#
# Mechanical properties :
#
#
# Convention : Reuss Voigt Hill
#
# Bulk Modulus (GPa) = 32.12035 36.29262 34.20649
# Shear Modulus (GPa) = 83.06236 41.41111 62.23674
#
# Velocity S-wave (km/s) = 6.17213 4.35804 5.34264
# Velocity P-wave (km/s) = 8.09475 6.47830 7.33121
#
# Compressibility (1/GPa) = 0.03113291
#
# Stress axis : x y z
#
# Youngs Moduli (GPa) = 113.22815 158.46168 59.38928
#
# Poissons Ratio (x) = -0.05777 0.08430
# Poissons Ratio (y) = -0.04128 -0.03748
# Poissons Ratio (z) = 0.16072 -0.10001
#
# Static dielectric constant tensor:
#      x y z
#    x 4.316100 0.000000 -0.011680 
#    y 0.000000 16.460630 0.000000 
#    z -0.011680 0.000000 3.740580 
# 
# 
# High freq. dielectric constant tensor:
#      x y z
#    x 1.868820 0.000000 0.007590 
#    y 0.000000 1.861470 0.000000 
#    z 0.007590 0.000000 1.848460 
# 
# From -- ./inp_files/91465.got.cif
#   From: 2010.06.25/outbox.cif.g09.slc.cpg/sg13_46_cif.got.tgz:91465.got - 2010.06.28 04:50:58.
