data_PCOD8119797
_publ_section_title
;
Structure prediction by ZEFSAII (Michael W. Deem and Ramdas Pophale) SiO2 
 PCOD8119797
Probable space group: P 2/C
;
_chemical_formula_sum "Si O2"
_cell_formula_units_Z 30
_cell_length_a 8.354107
_cell_length_b 13.873096
_cell_length_c 23.370613
_cell_angle_alpha 90.000000
_cell_angle_beta 147.657547
_cell_angle_gamma 90.000000
_cell_volume 1449.038263
_symmetry_space_group_name_H-M "P 2/C"
_symmetry_group_IT_number 13
_symmetry_cell_setting 'monoclinic'
loop_
_space_group_symop_operation_xyz
x,y,z
-x,y,1/2-z
-x,-y,-z
x,-y,1/2+z
loop_
_atom_site_type_symbol
_atom_site_label
_atom_site_fract_x
_atom_site_fract_y
_atom_site_fract_z
Si Si1 0.796991 0.463980 0.060252
Si Si2 0.338271 0.991785 0.585978
Si Si3 0.158896 0.166070 0.950528
Si Si4 0.688421 0.149237 0.633103
Si Si5 0.149342 0.360454 0.003377
Si Si6 0.415856 0.661624 0.096687
Si Si7 0.595476 0.472266 0.213424
Si Si8 0.500000 0.072135 0.750000
O O1 0.055872 0.441582 0.184114
O O2 0.500000 0.500000 0.000000
O O3 0.926945 0.541651 0.053662
O O4 0.721810 0.365115 0.006143
O O5 0.421895 0.077334 0.568115
O O6 0.527017 0.002530 0.702208
O O7 0.362504 0.892022 0.558195
O O8 0.000000 0.000000 0.500000
O O9 0.301421 0.153790 0.931602
O O10 0.802212 0.138299 0.844284
O O11 0.237605 0.277398 0.986205
O O12 0.635142 0.248827 0.652148
O O13 0.000000 0.106607 0.750000
O O14 0.403233 0.387138 0.126421
O O15 0.859630 0.313554 0.945515
O O16 0.590805 0.571855 0.176908
O O17 0.500000 0.486680 0.250000
#
# Coordination Sequence:
#
# PCOD8119797 Si02
#       8
#     4   4   4   4   4   4   4   2
#     4  11  23  39  62  91 135 176 224 288 338 396
#     4  10  22  44  69  98 132 174 214 281 341 408
#     4  11  24  42  66  99 141 171 225 285 342 411
#     4  12  25  41  69 102 134 173 226 284 345 401
#     4  11  23  40  65  98 130 179 230 277 343 407
#     4  11  23  37  62  98 127 175 234 279 337 398
#     4  11  21  42  64  92 134 184 228 279 333 401
#     4  10  20  42  70 100 130 176 228 272 344 420
#
# _framework density 20.703386999999999
#
# number of rings (size 3 to 8) (size 9 to 14) (size 15 to 20)
#    0.000    1.067    4.000    3.600    3.733    1.600 
#    2.400    1.333    2.933    0.000    0.000    0.000 
#    0.000    0.000    0.000    0.000    0.000    0.000 
#
# Total GULP energy -371827.798895 kJ/mol
# GULP energy per Si atom -12394.259963 kJ/mol
# Density = 2.065626 g / cm^3
# Si number density = 20.703387 Si / 1000 Ang^3
#
#
#
# Elastic Constant Matrix: (Units=GPa)
#
#
# Indices 1 2 3 4 5 6 
#
# 1 110.4392 13.5097 27.8047 0.0000 1.6695 0.0000
# 2 13.5097 60.6546 23.0472 0.0000 1.9371 0.0000
# 3 27.8047 23.0472 114.1706 0.0000 -0.2109 0.0000
# 4 0.0000 0.0000 0.0000 22.6117 0.0000 -4.2567
# 5 1.6695 1.9371 -0.2109 0.0000 35.0095 0.0000
# 6 0.0000 0.0000 0.0000 -4.2567 0.0000 38.1801
#
#
#
# Elastic Compliance Matrix: (Units=1/GPa)
#
#
# Indices 1 2 3 4 5 6 
#
# 1 0.009757 -0.001362 -0.002102 0.000000 -0.000403 0.000000
# 2 -0.001362 0.018082 -0.003320 0.000000 -0.000956 0.000000
# 3 -0.002102 -0.003320 0.009942 0.000000 0.000344 0.000000
# 4 0.000000 0.000000 0.000000 0.045173 0.000000 0.005036
# 5 -0.000403 -0.000956 0.000344 0.000000 0.028638 0.000000
# 6 0.000000 0.000000 0.000000 0.005036 0.000000 0.026753
#
#
# Mechanical properties :
#
#
# Convention : Reuss Voigt Hill
#
# Bulk Modulus (GPa) = 41.30071 45.99862 43.64966
# Shear Modulus (GPa) = 31.25329 33.88710 32.57019
#
# Velocity S-wave (km/s) = 3.88954 4.05012 3.97064
# Velocity P-wave (km/s) = 6.33746 6.64360 6.49233
#
# Compressibility (1/GPa) = 0.02421266
#
# Stress axis : x y z
#
# Youngs Moduli (GPa) = 102.49472 55.30293 100.58703
#
# Poissons Ratio (x) = 0.07530 0.21143
# Poissons Ratio (y) = 0.13955 0.33399
# Poissons Ratio (z) = 0.21544 0.18363
#
# Static dielectric constant tensor:
#      x y z
#    x 3.968270 0.000000 -0.174560 
#    y 0.000000 3.700010 0.000000 
#    z -0.174560 0.000000 3.871050 
# 
# 
# High freq. dielectric constant tensor:
#      x y z
#    x 1.829690 0.000000 -0.006990 
#    y 0.000000 1.788150 0.000000 
#    z -0.006990 0.000000 1.810540 
# 
# From -- ./inp_files/85300.got.cif
#   From: 2010.06.25/outbox.cif.g09.slc.cpg/sg13_43_cif.got.tgz:85300.got - 2010.06.28 04:50:58.
