data_PCOD8119683
_publ_section_title
;
Structure prediction by ZEFSAII (Michael W. Deem and Ramdas Pophale) SiO2 
 PCOD8119683
Probable space group: P 2/C
;
_chemical_formula_sum "Si O2"
_cell_formula_units_Z 20
_cell_length_a 18.245214
_cell_length_b 6.940036
_cell_length_c 14.207843
_cell_angle_alpha 90.000000
_cell_angle_beta 24.185892
_cell_angle_gamma 90.000000
_cell_volume 737.060493
_symmetry_space_group_name_H-M "P 2/C"
_symmetry_group_IT_number 13
_symmetry_cell_setting 'monoclinic'
loop_
_space_group_symop_operation_xyz
x,y,z
-x,y,1/2-z
-x,-y,-z
x,-y,1/2+z
loop_
_atom_site_type_symbol
_atom_site_label
_atom_site_fract_x
_atom_site_fract_y
_atom_site_fract_z
Si Si1 0.179446 0.194369 0.382189
Si Si2 0.755829 0.360761 0.716384
Si Si3 0.089202 0.889491 0.794358
Si Si4 0.341283 0.326881 0.871876
Si Si5 0.449795 0.736710 0.713151
O O1 0.171220 0.424304 0.386198
O O2 0.228074 0.105620 0.220923
O O3 0.333059 0.134201 0.278222
O O4 0.990691 0.099805 0.639341
O O5 0.643285 0.284096 0.757654
O O6 0.926467 0.228814 0.533094
O O7 0.624362 0.353305 0.959012
O O8 0.161322 0.777513 0.619272
O O9 0.500000 0.240828 0.750000
O O10 0.332253 0.558735 0.892585
O O11 0.500000 0.858655 0.750000
#
# Coordination Sequence:
#
# PCOD8119683 Si02
#       5
#     4   4   4   4   4
#     4  10  22  41  67  98 136 178 229 282 344 420
#     4  11  22  42  70 101 140 182 231 291 352 417
#     4  11  23  41  67 102 140 179 228 292 355 415
#     4  10  20  40  68  97 135 184 232 283 352 416
#     4  10  21  42  72 102 137 187 236 288 353 418
#
# _framework density 27.134816000000001
#
# number of rings (size 3 to 8) (size 9 to 14) (size 15 to 20)
#    0.000    1.600    0.000    7.200    0.000    0.800 
#    0.000   20.000    0.000    2.400    0.000    0.000 
#    0.000    0.000    0.000    0.000    0.000    0.000 
#
# Total GULP energy -247825.396631 kJ/mol
# GULP energy per Si atom -12391.269832 kJ/mol
# Density = 2.707306 g / cm^3
# Si number density = 27.134816 Si / 1000 Ang^3
#
#
#
# Elastic Constant Matrix: (Units=GPa)
#
#
# Indices 1 2 3 4 5 6 
#
# 1 217.9133 31.4218 56.7472 0.0000 9.7052 0.0000
# 2 31.4218 111.4447 55.2633 0.0000 -1.6772 0.0000
# 3 56.7472 55.2633 105.0245 0.0000 14.5170 0.0000
# 4 0.0000 0.0000 0.0000 23.5140 0.0000 8.2880
# 5 9.7052 -1.6772 14.5170 0.0000 41.7911 0.0000
# 6 0.0000 0.0000 0.0000 8.2880 0.0000 10.8810
#
#
#
# Elastic Compliance Matrix: (Units=1/GPa)
#
#
# Indices 1 2 3 4 5 6 
#
# 1 0.005344 -0.000133 -0.002779 0.000000 -0.000281 0.000000
# 2 -0.000133 0.012475 -0.006897 0.000000 0.002927 0.000000
# 3 -0.002779 -0.006897 0.015338 0.000000 -0.004959 0.000000
# 4 0.000000 0.000000 0.000000 0.058136 0.000000 -0.044282
# 5 -0.000281 0.002927 -0.004959 0.000000 0.025834 0.000000
# 6 0.000000 0.000000 0.000000 -0.044282 0.000000 0.125633
#
#
# Mechanical properties :
#
#
# Convention : Reuss Voigt Hill
#
# Bulk Modulus (GPa) = 73.85958 80.13858 76.99908
# Shear Modulus (GPa) = 18.73432 34.63391 26.68412
#
# Velocity S-wave (km/s) = 2.63043 3.57650 3.13931
# Velocity P-wave (km/s) = 6.04186 6.83028 6.44813
#
# Compressibility (1/GPa) = 0.01353920
#
# Stress axis : x y z
#
# Youngs Moduli (GPa) = 187.11457 80.16265 65.19950
#
# Poissons Ratio (x) = 0.01067 0.18117
# Poissons Ratio (y) = 0.02491 0.44967
# Poissons Ratio (z) = 0.51994 0.55286
#
# Static dielectric constant tensor:
#      x y z
#    x 5.900030 0.000000 -0.136190 
#    y 0.000000 4.751530 0.000000 
#    z -0.136190 0.000000 4.534100 
# 
# 
# High freq. dielectric constant tensor:
#      x y z
#    x 2.126770 0.000000 0.004890 
#    y 0.000000 2.084390 0.000000 
#    z 0.004890 0.000000 2.055370 
# 
# From -- ./inp_files/57137.got.cif
#   From: 2010.06.25/outbox.cif.g09.slc.cpg/sg13_29_cif.got.tgz:57137.got - 2010.06.28 04:50:58.
