data_PCOD8119159
_publ_section_title
;
Structure prediction by ZEFSAII (Michael W. Deem and Ramdas Pophale) SiO2 
 PCOD8119159
Probable space group: P 2/C
;
_chemical_formula_sum "Si O2"
_cell_formula_units_Z 24
_cell_length_a 17.549718
_cell_length_b 11.707667
_cell_length_c 11.822013
_cell_angle_alpha 90.000000
_cell_angle_beta 28.399105
_cell_angle_gamma 90.000000
_cell_volume 1155.269589
_symmetry_space_group_name_H-M "P 2/C"
_symmetry_group_IT_number 13
_symmetry_cell_setting 'monoclinic'
loop_
_space_group_symop_operation_xyz
x,y,z
-x,y,1/2-z
-x,-y,-z
x,-y,1/2+z
loop_
_atom_site_type_symbol
_atom_site_label
_atom_site_fract_x
_atom_site_fract_y
_atom_site_fract_z
Si Si1 0.809866 0.659952 0.982279
Si Si2 0.321291 0.059917 0.472859
Si Si3 0.846782 0.834085 0.750052
Si Si4 0.185309 0.196551 0.465357
Si Si5 0.836044 0.586115 0.396371
Si Si6 0.810542 0.261714 0.719417
O O1 0.756608 0.754209 0.959487
O O2 0.748086 0.536782 0.016137
O O3 0.000000 0.658959 0.750000
O O4 0.732362 0.689247 0.205919
O O5 0.281166 0.091254 0.395245
O O6 0.311346 0.174569 0.561828
O O7 0.192023 0.965943 0.677711
O O8 0.500000 0.009748 0.250000
O O9 0.788600 0.803720 0.701204
O O10 0.035612 0.814418 0.512962
O O11 0.262758 0.315537 0.408863
O O12 0.000000 0.190768 0.750000
O O13 0.859166 0.630674 0.236521
O O14 0.000000 0.570006 0.250000
#
# Coordination Sequence:
#
# PCOD8119159 Si02
#       6
#     4   4   4   4   4   4
#     4   9  21  30  57  93 122 146 193 246 292 346
#     4  11  25  40  60  85 117 159 202 249 295 346
#     4  11  21  37  59  86 118 156 198 241 292 354
#     4  10  20  37  62  87 115 157 194 240 299 352
#     4   9  16  32  56  89 121 147 190 239 298 342
#     4  10  20  38  59  88 123 156 193 244 297 349
#
# _framework density 20.774372
#
# number of rings (size 3 to 8) (size 9 to 14) (size 15 to 20)
#    0.000    2.000    5.000    0.500    4.667    3.333 
#    0.000    0.000    0.000    8.000    0.000    0.000 
#    0.000    0.000    0.000    0.000    0.000    0.000 
#
# Total GULP energy -297426.133798 kJ/mol
# GULP energy per Si atom -12392.755575 kJ/mol
# Density = 2.072709 g / cm^3
# Si number density = 20.774372 Si / 1000 Ang^3
#
#
#
# Elastic Constant Matrix: (Units=GPa)
#
#
# Indices 1 2 3 4 5 6 
#
# 1 125.6771 55.4964 39.3166 0.0000 46.7578 0.0000
# 2 55.4964 132.0278 27.4005 0.0000 21.9378 0.0000
# 3 39.3166 27.4005 39.7870 0.0000 14.7034 0.0000
# 4 0.0000 0.0000 0.0000 5.1226 0.0000 3.6057
# 5 46.7578 21.9378 14.7034 0.0000 39.5691 0.0000
# 6 0.0000 0.0000 0.0000 3.6057 0.0000 20.1224
#
#
#
# Elastic Compliance Matrix: (Units=1/GPa)
#
#
# Indices 1 2 3 4 5 6 
#
# 1 0.018635 -0.002950 -0.010258 0.000000 -0.016573 0.000000
# 2 -0.002950 0.009635 -0.003518 0.000000 -0.000549 0.000000
# 3 -0.010258 -0.003518 0.037665 0.000000 0.000076 0.000000
# 4 0.000000 0.000000 0.000000 0.223388 0.000000 -0.040029
# 5 -0.016573 -0.000549 0.000076 0.000000 0.045132 0.000000
# 6 0.000000 0.000000 0.000000 -0.040029 0.000000 0.056869
#
#
# Mechanical properties :
#
#
# Convention : Reuss Voigt Hill
#
# Bulk Modulus (GPa) = 30.78510 60.21322 45.49916
# Shear Modulus (GPa) = 11.47836 24.64806 18.06321
#
# Velocity S-wave (km/s) = 2.35314 3.44825 2.95192
# Velocity P-wave (km/s) = 4.71529 6.70083 5.79375
#
# Compressibility (1/GPa) = 0.03248324
#
# Stress axis : x y z
#
# Youngs Moduli (GPa) = 53.66377 103.78329 26.54984
#
# Poissons Ratio (x) = 0.30618 0.27235
# Poissons Ratio (y) = 0.15832 0.09339
# Poissons Ratio (z) = 0.55049 0.36507
#
# Static dielectric constant tensor:
#      x y z
#    x 3.895450 0.000000 0.485150 
#    y 0.000000 4.234390 0.000000 
#    z 0.485150 0.000000 3.305780 
# 
# 
# High freq. dielectric constant tensor:
#      x y z
#    x 1.810410 0.000000 0.036410 
#    y 0.000000 1.826450 0.000000 
#    z 0.036410 0.000000 1.757530 
# 
# From -- ./inp_files/39107.got.cif
#   From: 2010.06.25/outbox.cif.g09.slc.cpg/sg13_20_cif.got.tgz:39107.got - 2010.06.28 04:50:58.
