data_PCOD8119714
_publ_section_title
;
Structure prediction by ZEFSAII (Michael W. Deem and Ramdas Pophale) SiO2 
 PCOD8119714
Probable space group: P 2/C
;
_chemical_formula_sum "Si O2"
_cell_formula_units_Z 28
_cell_length_a 10.563496
_cell_length_b 16.757442
_cell_length_c 8.333065
_cell_angle_alpha 90.000000
_cell_angle_beta 60.498372
_cell_angle_gamma 90.000000
_cell_volume 1283.837215
_symmetry_space_group_name_H-M "P 2/C"
_symmetry_group_IT_number 13
_symmetry_cell_setting 'monoclinic'
loop_
_space_group_symop_operation_xyz
x,y,z
-x,y,1/2-z
-x,-y,-z
x,-y,1/2+z
loop_
_atom_site_type_symbol
_atom_site_label
_atom_site_fract_x
_atom_site_fract_y
_atom_site_fract_z
Si Si1 0.541674 0.690025 0.906574
Si Si2 0.840566 0.942900 0.776811
Si Si3 0.843952 0.110169 0.906146
Si Si4 0.841617 0.579770 0.312930
Si Si5 0.247896 0.258576 0.702531
Si Si6 0.652105 0.817351 0.061915
Si Si7 0.347630 0.466599 0.277726
O O1 0.500000 0.709621 0.750000
O O2 0.614203 0.602039 0.877155
O O3 0.397889 0.691557 0.105054
O O4 0.646260 0.757423 0.914404
O O5 0.839545 0.917469 0.592356
O O6 0.000000 0.926327 0.750000
O O7 0.800093 0.036341 0.818163
O O8 0.715058 0.899181 0.954294
O O9 0.745031 0.188307 0.936942
O O10 0.000000 0.141087 0.750000
O O11 0.872529 0.672383 0.245101
O O12 0.760476 0.532641 0.222161
O O13 0.736977 0.579659 0.530566
O O14 0.000000 0.541103 0.250000
O O15 0.230095 0.218502 0.887649
O O16 0.500000 0.833546 0.250000
O O17 0.500000 0.503239 0.250000
#
# Coordination Sequence:
#
# PCOD8119714 Si02
#       7
#     4   4   4   4   4   4   4
#     4  10  20  41  63  91 124 167 221 271 320 406
#     4  11  22  40  66  96 130 174 222 269 332 405
#     4  11  22  40  66  94 135 172 218 273 334 403
#     4  12  26  43  67  98 137 170 223 286 343 398
#     4  11  22  40  64  93 129 173 219 271 335 393
#     4  10  23  40  65  95 134 169 226 270 334 391
#     4  11  24  44  69  95 130 176 230 266 347 410
#
# _framework density 21.809619999999999
#
# number of rings (size 3 to 8) (size 9 to 14) (size 15 to 20)
#    0.000    1.143    2.857    5.571    2.000    0.571 
#    0.000    7.143    0.000    0.000    0.000    0.000 
#    0.000    0.000    0.000    0.000    0.000    0.000 
#
# Total GULP energy -347086.456031 kJ/mol
# GULP energy per Si atom -12395.944858 kJ/mol
# Density = 2.175998 g / cm^3
# Si number density = 21.809620 Si / 1000 Ang^3
#
#
#
# Elastic Constant Matrix: (Units=GPa)
#
#
# Indices 1 2 3 4 5 6 
#
# 1 112.2456 62.2016 28.3035 0.0000 4.5878 0.0000
# 2 62.2016 140.9207 33.1669 0.0000 15.2203 0.0000
# 3 28.3035 33.1669 90.4244 0.0000 8.6937 0.0000
# 4 0.0000 0.0000 0.0000 22.2477 0.0000 -4.3615
# 5 4.5878 15.2203 8.6937 0.0000 32.7674 0.0000
# 6 0.0000 0.0000 0.0000 -4.3615 0.0000 23.9421
#
#
#
# Elastic Compliance Matrix: (Units=1/GPa)
#
#
# Indices 1 2 3 4 5 6 
#
# 1 0.012159 -0.005003 -0.002084 0.000000 0.001174 0.000000
# 2 -0.005003 0.010109 -0.001804 0.000000 -0.003516 0.000000
# 3 -0.002084 -0.001804 0.012585 0.000000 -0.002210 0.000000
# 4 0.000000 0.000000 0.000000 0.046613 0.000000 0.008491
# 5 0.001174 -0.003516 -0.002210 0.000000 0.032573 0.000000
# 6 0.000000 0.000000 0.000000 0.008491 0.000000 0.043314
#
#
# Mechanical properties :
#
#
# Convention : Reuss Voigt Hill
#
# Bulk Modulus (GPa) = 58.57604 65.65941 62.11772
# Shear Modulus (GPa) = 27.65089 30.45269 29.05179
#
# Velocity S-wave (km/s) = 3.56452 3.74076 3.65370
# Velocity P-wave (km/s) = 6.62248 6.98776 6.80757
#
# Compressibility (1/GPa) = 0.01707183
#
# Stress axis : x y z
#
# Youngs Moduli (GPa) = 82.24295 98.92181 79.45874
#
# Poissons Ratio (x) = 0.49495 0.16556
# Poissons Ratio (y) = 0.41150 0.14332
# Poissons Ratio (z) = 0.17136 0.17843
#
# Static dielectric constant tensor:
#      x y z
#    x 3.997090 0.000000 0.132220 
#    y 0.000000 4.035370 0.000000 
#    z 0.132220 0.000000 3.879870 
# 
# 
# High freq. dielectric constant tensor:
#      x y z
#    x 1.850270 0.000000 0.009230 
#    y 0.000000 1.866290 0.000000 
#    z 0.009230 0.000000 1.854860 
# 
# From -- ./inp_files/16674.got.cif
#   From: 2010.06.25/outbox.cif.g09.slc.cpg/sg13_9_cif.got.tgz:16674.got - 2010.06.28 04:50:58.
