data_PCOD8119253
_publ_section_title
;
Structure prediction by ZEFSAII (Michael W. Deem and Ramdas Pophale) SiO2 
 PCOD8119253
Probable space group: P 2/C
;
_chemical_formula_sum "Si O2"
_cell_formula_units_Z 28
_cell_length_a 12.218481
_cell_length_b 13.664923
_cell_length_c 9.667786
_cell_angle_alpha 90.000000
_cell_angle_beta 116.229449
_cell_angle_gamma 90.000000
_cell_volume 1447.968268
_symmetry_space_group_name_H-M "P 2/C"
_symmetry_group_IT_number 13
_symmetry_cell_setting 'monoclinic'
loop_
_space_group_symop_operation_xyz
x,y,z
-x,y,1/2-z
-x,-y,-z
x,-y,1/2+z
loop_
_atom_site_type_symbol
_atom_site_label
_atom_site_fract_x
_atom_site_fract_y
_atom_site_fract_z
Si Si1 0.270834 0.165185 0.605665
Si Si2 0.084774 0.509415 0.920435
Si Si3 0.642288 0.204410 0.551720
Si Si4 0.205739 0.326030 0.068085
Si Si5 0.041246 0.275770 0.419915
Si Si6 0.637072 0.956586 0.843023
Si Si7 0.366917 0.778651 0.862145
O O1 0.345669 0.208007 0.776944
O O2 0.131052 0.198599 0.541777
O O3 0.329092 0.208136 0.499116
O O4 0.271214 0.047512 0.611322
O O5 0.117195 0.624416 0.923654
O O6 0.000000 0.470028 0.750000
O O7 0.201925 0.439539 0.014119
O O8 0.000000 0.500000 0.000000
O O9 0.748645 0.266628 0.539391
O O10 0.651430 0.092784 0.502150
O O11 0.510160 0.245979 0.432819
O O12 0.295796 0.311712 0.249791
O O13 0.070594 0.291553 0.037488
O O14 0.000000 0.230416 0.250000
O O15 0.500000 0.998177 0.750000
O O16 0.667077 0.877155 0.741251
#
# Coordination Sequence:
#
# PCOD8119253 Si02
#       7
#     4   4   4   4   4   4   4
#     4  12  21  33  60  84 118 143 194 241 275 328
#     4   9  20  36  62  85 107 144 194 231 272 328
#     4  10  22  35  59  90 109 147 195 236 278 331
#     4  10  20  38  60  82 117 148 185 230 280 342
#     4  10  21  39  58  87 110 150 185 228 290 337
#     4   9  19  37  58  81 109 152 198 231 274 333
#     4  10  20  38  59  82 116 152 189 229 287 334
#
# _framework density 19.337440000000001
#
# number of rings (size 3 to 8) (size 9 to 14) (size 15 to 20)
#    0.000    2.000    1.429    3.429    4.000    2.286 
#    0.000    2.857    0.000    6.857    0.000    0.000 
#    0.000    0.000    0.000    0.000    0.000    0.000 
#
# Total GULP energy -347066.732408 kJ/mol
# GULP energy per Si atom -12395.240443 kJ/mol
# Density = 1.929343 g / cm^3
# Si number density = 19.337440 Si / 1000 Ang^3
#
#
#
# Elastic Constant Matrix: (Units=GPa)
#
#
# Indices 1 2 3 4 5 6 
#
# 1 93.6340 45.3444 40.8251 0.0000 4.6743 0.0000
# 2 45.3444 94.2152 58.8850 0.0000 23.3634 0.0000
# 3 40.8251 58.8850 146.0841 0.0000 -5.0799 0.0000
# 4 0.0000 0.0000 0.0000 24.2357 0.0000 4.7340
# 5 4.6743 23.3634 -5.0799 0.0000 39.5377 0.0000
# 6 0.0000 0.0000 0.0000 4.7340 0.0000 23.3368
#
#
#
# Elastic Compliance Matrix: (Units=1/GPa)
#
#
# Indices 1 2 3 4 5 6 
#
# 1 0.014334 -0.006615 -0.001268 0.000000 0.002051 0.000000
# 2 -0.006615 0.021546 -0.007284 0.000000 -0.012886 0.000000
# 3 -0.001268 -0.007284 0.010337 0.000000 0.005782 0.000000
# 4 0.000000 0.000000 0.000000 0.042964 0.000000 -0.008715
# 5 0.002051 -0.012886 0.005782 0.000000 0.033407 0.000000
# 6 0.000000 0.000000 0.000000 -0.008715 0.000000 0.044619
#
#
# Mechanical properties :
#
#
# Convention : Reuss Voigt Hill
#
# Bulk Modulus (GPa) = 62.96371 69.33804 66.15087
# Shear Modulus (GPa) = 24.65066 30.01397 27.33232
#
# Velocity S-wave (km/s) = 3.57426 3.94397 3.76365
# Velocity P-wave (km/s) = 7.04734 7.52825 7.29176
#
# Compressibility (1/GPa) = 0.01588217
#
# Stress axis : x y z
#
# Youngs Moduli (GPa) = 69.76567 46.41304 96.73914
#
# Poissons Ratio (x) = 0.30701 0.12267
# Poissons Ratio (y) = 0.46148 0.70468
# Poissons Ratio (z) = 0.08847 0.33809
#
# Static dielectric constant tensor:
#      x y z
#    x 2.399760 0.000000 -1.737670 
#    y 0.000000 -3.432810 0.000000 
#    z -1.737670 0.000000 1.038090 
# 
# 
# High freq. dielectric constant tensor:
#      x y z
#    x 1.742020 0.000000 -0.015690 
#    y 0.000000 1.732330 0.000000 
#    z -0.015690 0.000000 1.766180 
# 
# From -- ./inp_files/16865.got.cif
#   From: 2010.06.25/outbox.cif.g09.slc.cpg/sg13_9_cif.got.tgz:16865.got - 2010.06.28 04:50:58.
