data_PCOD8119191
_publ_section_title
;
Structure prediction by ZEFSAII (Michael W. Deem and Ramdas Pophale) SiO2 
 PCOD8119191
Probable space group: P 2/C
;
_chemical_formula_sum "Si O2"
_cell_formula_units_Z 16
_cell_length_a 10.288263
_cell_length_b 16.830428
_cell_length_c 5.147470
_cell_angle_alpha 90.000000
_cell_angle_beta 106.723974
_cell_angle_gamma 90.000000
_cell_volume 853.613971
_symmetry_space_group_name_H-M "P 2/C"
_symmetry_group_IT_number 13
_symmetry_cell_setting 'monoclinic'
loop_
_space_group_symop_operation_xyz
x,y,z
-x,y,1/2-z
-x,-y,-z
x,-y,1/2+z
loop_
_atom_site_type_symbol
_atom_site_label
_atom_site_fract_x
_atom_site_fract_y
_atom_site_fract_z
Si Si1 0.500000 0.709359 0.750000
Si Si2 0.263902 0.777575 0.887028
Si Si3 0.000000 0.445719 0.750000
Si Si4 0.158066 0.950324 0.831260
Si Si5 0.773350 0.316047 0.614711
O O1 0.424415 0.764559 0.921263
O O2 0.383924 0.657375 0.535432
O O3 0.241795 0.870218 0.916130
O O4 0.178619 0.743628 0.589488
O O5 0.214076 0.729786 0.108542
O O6 0.864621 0.393573 0.673259
O O7 0.000000 0.500000 0.500000
O O8 0.000000 0.928766 0.750000
O O9 0.198756 0.989448 0.582374
#
# Coordination Sequence:
#
# PCOD8119191 Si02
#       5
#     2   4   2   4   4
#     4   8  22  38  64  90 116 158 222 242 284 360
#     4  10  20  37  64  87 116 164 214 250 285 360
#     4  12  26  44  64 100 128 148 190 250 312 368
#     4  10  21  35  53  86 128 162 202 258 312 350
#     4  10  22  39  66  88 120 158 199 249 295 364
#
# _framework density 18.743835000000001
#
# number of rings (size 3 to 8) (size 9 to 14) (size 15 to 20)
#    1.500    0.500    0.000    3.750    3.500    0.000 
#    0.000    2.500    0.000    0.000    0.000    0.000 
#    0.000    0.000    0.000    0.000    0.000    0.000 
#
# Total GULP energy -198280.645006 kJ/mol
# GULP energy per Si atom -12392.540313 kJ/mol
# Density = 1.870117 g / cm^3
# Si number density = 18.743835 Si / 1000 Ang^3
#
#
#
# Elastic Constant Matrix: (Units=GPa)
#
#
# Indices 1 2 3 4 5 6 
#
# 1 109.1906 75.0827 43.4121 0.0000 7.3664 0.0000
# 2 75.0827 120.0541 50.7764 0.0000 1.4868 0.0000
# 3 43.4121 50.7764 141.4833 0.0000 -15.4585 0.0000
# 4 0.0000 0.0000 0.0000 34.9147 0.0000 -1.3481
# 5 7.3664 1.4868 -15.4585 0.0000 18.7876 0.0000
# 6 0.0000 0.0000 0.0000 -1.3481 0.0000 8.7466
#
#
#
# Elastic Compliance Matrix: (Units=1/GPa)
#
#
# Indices 1 2 3 4 5 6 
#
# 1 0.017467 -0.009626 -0.002824 0.000000 -0.008411 0.000000
# 2 -0.009626 0.015412 -0.002526 0.000000 0.000476 0.000000
# 3 -0.002824 -0.002526 0.009871 0.000000 0.009429 0.000000
# 4 0.000000 0.000000 0.000000 0.028813 0.000000 0.004441
# 5 -0.008411 0.000476 0.009429 0.000000 0.064245 0.000000
# 6 0.000000 0.000000 0.000000 0.004441 0.000000 0.115014
#
#
# Mechanical properties :
#
#
# Convention : Reuss Voigt Hill
#
# Bulk Modulus (GPa) = 78.12615 78.80781 78.46698
# Shear Modulus (GPa) = 17.54144 25.92024 21.73084
#
# Velocity S-wave (km/s) = 3.06249 3.72273 3.40863
# Velocity P-wave (km/s) = 7.36726 7.78551 7.57927
#
# Compressibility (1/GPa) = 0.01279981
#
# Stress axis : x y z
#
# Youngs Moduli (GPa) = 57.24961 64.88541 101.30589
#
# Poissons Ratio (x) = 0.62456 0.28609
# Poissons Ratio (y) = 0.55106 0.25585
# Poissons Ratio (z) = 0.16168 0.16387
#
# Static dielectric constant tensor:
#      x y z
#    x 3.361270 0.000000 -0.085340 
#    y 0.000000 3.182870 0.000000 
#    z -0.085340 0.000000 3.636870 
# 
# 
# High freq. dielectric constant tensor:
#      x y z
#    x 1.719330 0.000000 -0.008210 
#    y 0.000000 1.706200 0.000000 
#    z -0.008210 0.000000 1.750130 
# 
# From -- ./inp_files/2981.got.cif
#   From: 2010.06.25/outbox.cif.g09.slc.cpg/sg13_2_cif.got.tgz:2981.got - 2010.06.28 04:50:58.
