data_PCOD8119219
_publ_section_title
;
Structure prediction by ZEFSAII (Michael W. Deem and Ramdas Pophale) SiO2 
 PCOD8119219
Probable space group: P 2/C
;
_chemical_formula_sum "Si O2"
_cell_formula_units_Z 32
_cell_length_a 16.164716
_cell_length_b 12.106488
_cell_length_c 11.046416
_cell_angle_alpha 90.000000
_cell_angle_beta 126.615927
_cell_angle_gamma 90.000000
_cell_volume 1735.141042
_symmetry_space_group_name_H-M "P 2/C"
_symmetry_group_IT_number 13
_symmetry_cell_setting 'monoclinic'
loop_
_space_group_symop_operation_xyz
x,y,z
-x,y,1/2-z
-x,-y,-z
x,-y,1/2+z
loop_
_atom_site_type_symbol
_atom_site_label
_atom_site_fract_x
_atom_site_fract_y
_atom_site_fract_z
Si Si1 0.124671 0.715559 0.011175
Si Si2 0.558228 0.380557 0.918224
Si Si3 0.232894 0.659391 0.334661
Si Si4 0.532566 0.636329 0.910924
Si Si5 0.879900 0.843654 0.121678
Si Si6 0.121459 0.912236 0.852500
Si Si7 0.795483 0.413159 0.132159
Si Si8 0.109261 0.752817 0.628703
O O1 0.210044 0.661063 0.172036
O O2 0.159588 0.838263 0.999281
O O3 0.122689 0.635272 0.892765
O O4 0.011846 0.724130 0.971602
O O5 0.500000 0.326016 0.750000
O O6 0.518620 0.505503 0.892672
O O7 0.532533 0.322580 0.026859
O O8 0.679764 0.375557 0.999427
O O9 0.351992 0.675436 0.464608
O O10 0.170327 0.763360 0.326488
O O11 0.192606 0.544775 0.355391
O O12 0.500000 0.686354 0.750000
O O13 0.000000 0.850082 0.250000
O O14 0.829491 0.965610 0.094679
O O15 0.856081 0.795157 0.970394
O O16 0.148389 0.849923 0.751859
O O17 0.000000 0.924028 0.750000
O O18 0.827808 0.360019 0.289337
#
# Coordination Sequence:
#
# PCOD8119219 Si02
#       8
#     4   4   4   4   4   4   4   4
#     4  10  20  38  52  77 111 144 179 215 262 311
#     4   9  17  33  54  74  98 138 185 222 262 312
#     4  11  23  33  53  80 112 142 178 215 263 331
#     4   9  19  33  51  75 105 135 173 230 273 303
#     4  11  22  34  54  82 105 141 186 219 260 311
#     4   8  19  35  57  73 100 139 180 234 261 287
#     4  10  22  34  54  78 112 147 173 212 267 327
#     4  10  21  37  52  77 113 145 177 215 263 314
#
# _framework density 18.442304
#
# number of rings (size 3 to 8) (size 9 to 14) (size 15 to 20)
#    0.000    2.250    1.250    1.875    5.250    5.000 
#    0.000    0.000    0.000    0.000    0.000   11.375 
#    0.000    0.000    0.000    0.000    0.000    0.000 
#
# Total GULP energy -396584.645538 kJ/mol
# GULP energy per Si atom -12393.270173 kJ/mol
# Density = 1.840033 g / cm^3
# Si number density = 18.442304 Si / 1000 Ang^3
#
#
#
# Elastic Constant Matrix: (Units=GPa)
#
#
# Indices 1 2 3 4 5 6 
#
# 1 43.2793 17.7837 13.9889 0.0000 -10.5579 0.0000
# 2 17.7837 88.2639 16.7284 0.0000 9.2054 0.0000
# 3 13.9889 16.7284 105.6863 0.0000 -5.0517 0.0000
# 4 0.0000 0.0000 0.0000 18.7643 0.0000 -4.3310
# 5 -10.5579 9.2054 -5.0517 0.0000 22.7780 0.0000
# 6 0.0000 0.0000 0.0000 -4.3310 0.0000 20.5514
#
#
#
# Elastic Compliance Matrix: (Units=1/GPa)
#
#
# Indices 1 2 3 4 5 6 
#
# 1 0.031075 -0.007641 -0.002090 0.000000 0.017028 0.000000
# 2 -0.007641 0.014198 -0.001697 0.000000 -0.009656 0.000000
# 3 -0.002090 -0.001697 0.010101 0.000000 0.001958 0.000000
# 4 0.000000 0.000000 0.000000 0.056018 0.000000 0.011805
# 5 0.017028 -0.009656 0.001958 0.000000 0.056131 0.000000
# 6 0.000000 0.000000 0.000000 0.011805 0.000000 0.051146
#
#
# Mechanical properties :
#
#
# Convention : Reuss Voigt Hill
#
# Bulk Modulus (GPa) = 30.75288 37.13683 33.94486
# Shear Modulus (GPa) = 19.81263 25.00063 22.40663
#
# Velocity S-wave (km/s) = 3.28121 3.68586 3.48941
# Velocity P-wave (km/s) = 5.57374 6.18826 5.88902
#
# Compressibility (1/GPa) = 0.03251728
#
# Stress axis : x y z
#
# Youngs Moduli (GPa) = 32.18036 70.43266 99.00186
#
# Poissons Ratio (x) = 0.53817 0.20689
# Poissons Ratio (y) = 0.24589 0.16805
# Poissons Ratio (z) = 0.06725 0.11956
#
# Static dielectric constant tensor:
#      x y z
#    x 3.299580 0.000000 -0.232140 
#    y 0.000000 3.462480 0.000000 
#    z -0.232140 0.000000 3.572790 
# 
# 
# High freq. dielectric constant tensor:
#      x y z
#    x 1.699820 0.000000 -0.018770 
#    y 0.000000 1.688130 0.000000 
#    z -0.018770 0.000000 1.723580 
# 
# From -- ./inp_files/39054.got.cif
#   From: 2010.06.25/outbox.cif.g09.slc.cpg/sg13_20_cif.got.tgz:39054.got - 2010.06.28 04:50:58.
