data_PCOD8119104
_publ_section_title
;
Structure prediction by ZEFSAII (Michael W. Deem and Ramdas Pophale) SiO2 
 PCOD8119104
Probable space group: P 2/C
;
_chemical_formula_sum "Si O2"
_cell_formula_units_Z 28
_cell_length_a 16.107796
_cell_length_b 8.066762
_cell_length_c 16.079901
_cell_angle_alpha 90.000000
_cell_angle_beta 39.479636
_cell_angle_gamma 90.000000
_cell_volume 1328.439998
_symmetry_space_group_name_H-M "P 2/C"
_symmetry_group_IT_number 13
_symmetry_cell_setting 'monoclinic'
loop_
_space_group_symop_operation_xyz
x,y,z
-x,y,1/2-z
-x,-y,-z
x,-y,1/2+z
loop_
_atom_site_type_symbol
_atom_site_label
_atom_site_fract_x
_atom_site_fract_y
_atom_site_fract_z
Si Si1 0.143093 0.079750 0.652001
Si Si2 0.279515 0.629411 0.117356
Si Si3 0.389358 0.319237 0.966225
Si Si4 0.065439 0.589122 0.870229
Si Si5 0.174948 0.227390 0.009807
Si Si6 0.751037 0.124837 0.285762
Si Si7 0.655101 0.176177 0.772650
O O1 0.168442 0.953182 0.557047
O O2 0.151748 0.992235 0.735896
O O3 0.000000 0.154085 0.750000
O O4 0.242344 0.235472 0.575181
O O5 0.148452 0.535074 0.248806
O O6 0.344963 0.718253 0.144098
O O7 0.393329 0.509792 0.993949
O O8 0.280951 0.330487 0.978665
O O9 0.523111 0.237499 0.827904
O O10 0.351329 0.203955 0.072407
O O11 0.161966 0.735613 0.828216
O O12 0.000000 0.500000 0.000000
O O13 0.960703 0.672405 0.888179
O O14 0.219881 0.213883 0.880046
O O15 0.665329 0.019828 0.285887
#
# Coordination Sequence:
#
# PCOD8119104 Si02
#       7
#     4   4   4   4   4   4   4
#     4  10  20  37  59  91 124 157 205 256 314 388
#     4  10  23  37  63  91 120 166 208 260 319 379
#     4  10  22  40  62  87 122 165 210 256 311 376
#     4  11  21  39  60  96 130 157 208 269 328 369
#     4  11  23  38  62  89 127 162 205 263 321 368
#     4   9  21  37  63  88 117 168 207 252 311 382
#     4  11  21  41  61  88 121 166 211 256 311 376
#
# _framework density 21.077354
#
# number of rings (size 3 to 8) (size 9 to 14) (size 15 to 20)
#    0.000    1.714    2.857    1.286    2.000    1.714 
#    0.000    0.000    0.000    5.143    0.000    0.000 
#    0.000    0.000    0.000    0.000    0.000    0.000 
#
# Total GULP energy -347049.774618 kJ/mol
# GULP energy per Si atom -12394.634808 kJ/mol
# Density = 2.102938 g / cm^3
# Si number density = 21.077354 Si / 1000 Ang^3
#
#
#
# Elastic Constant Matrix: (Units=GPa)
#
#
# Indices 1 2 3 4 5 6 
#
# 1 73.7869 37.2921 10.6597 0.0000 -13.1932 0.0000
# 2 37.2921 118.1047 20.8749 0.0000 -2.1148 0.0000
# 3 10.6597 20.8749 50.4049 0.0000 -4.5703 0.0000
# 4 0.0000 0.0000 0.0000 25.8050 0.0000 -0.9854
# 5 -13.1932 -2.1148 -4.5703 0.0000 26.7503 0.0000
# 6 0.0000 0.0000 0.0000 -0.9854 0.0000 32.8341
#
#
#
# Elastic Compliance Matrix: (Units=1/GPa)
#
#
# Indices 1 2 3 4 5 6 
#
# 1 0.017844 -0.005343 -0.000814 0.000000 0.008239 0.000000
# 2 -0.005343 0.010736 -0.003533 0.000000 -0.002390 0.000000
# 3 -0.000814 -0.003533 0.021750 0.000000 0.003035 0.000000
# 4 0.000000 0.000000 0.000000 0.038797 0.000000 0.001164
# 5 0.008239 -0.002390 0.003035 0.000000 0.041776 0.000000
# 6 0.000000 0.000000 0.000000 0.001164 0.000000 0.030491
#
#
# Mechanical properties :
#
#
# Convention : Reuss Voigt Hill
#
# Bulk Modulus (GPa) = 32.31029 42.21666 37.26348
# Shear Modulus (GPa) = 26.16590 28.64253 27.40421
#
# Velocity S-wave (km/s) = 3.52720 3.69036 3.60970
# Velocity P-wave (km/s) = 5.65251 6.18314 5.92377
#
# Compressibility (1/GPa) = 0.03094989
#
# Stress axis : x y z
#
# Youngs Moduli (GPa) = 56.04274 93.14696 45.97742
#
# Poissons Ratio (x) = 0.49767 0.03742
# Poissons Ratio (y) = 0.29943 0.16243
# Poissons Ratio (z) = 0.04561 0.32908
#
# Static dielectric constant tensor:
#      x y z
#    x 3.793560 0.000000 -0.102920 
#    y 0.000000 4.071870 0.000000 
#    z -0.102920 0.000000 3.644610 
# 
# 
# High freq. dielectric constant tensor:
#      x y z
#    x 1.824660 0.000000 -0.009250 
#    y 0.000000 1.833990 0.000000 
#    z -0.009250 0.000000 1.804790 
# 
# From -- ./inp_files/55271.got.cif
#   From: 2010.06.25/outbox.cif.g09.slc.cpg/sg13_28_cif.got.tgz:55271.got - 2010.06.28 04:50:58.
