data_PCOD8119623
_publ_section_title
;
Structure prediction by ZEFSAII (Michael W. Deem and Ramdas Pophale) SiO2 
 PCOD8119623
Probable space group: P 2/C
;
_chemical_formula_sum "Si O2"
_cell_formula_units_Z 24
_cell_length_a 13.391392
_cell_length_b 6.069244
_cell_length_c 14.411108
_cell_angle_alpha 90.000000
_cell_angle_beta 107.077430
_cell_angle_gamma 90.000000
_cell_volume 1119.629002
_symmetry_space_group_name_H-M "P 2/C"
_symmetry_group_IT_number 13
_symmetry_cell_setting 'monoclinic'
loop_
_space_group_symop_operation_xyz
x,y,z
-x,y,1/2-z
-x,-y,-z
x,-y,1/2+z
loop_
_atom_site_type_symbol
_atom_site_label
_atom_site_fract_x
_atom_site_fract_y
_atom_site_fract_z
Si Si1 0.100839 0.142916 0.010387
Si Si2 0.806765 0.327999 0.288755
Si Si3 0.282571 0.187348 0.508383
Si Si4 0.834233 0.429636 0.622358
Si Si5 0.305302 0.946558 0.338736
Si Si6 0.385083 0.355461 0.715594
O O1 0.118780 0.305173 0.102418
O O2 0.203998 0.995925 0.026965
O O3 0.079360 0.292423 0.912588
O O4 0.000000 0.000000 0.000000
O O5 0.875155 0.452392 0.227551
O O6 0.701160 0.462106 0.283187
O O7 0.778407 0.086193 0.243380
O O8 0.214455 0.396270 0.461662
O O9 0.365054 0.255337 0.608565
O O10 0.347203 0.098612 0.435395
O O11 0.745170 0.263001 0.627567
O O12 0.390010 0.848797 0.290336
O O13 0.500000 0.466272 0.750000
#
# Coordination Sequence:
#
# PCOD8119623 Si02
#       6
#     4   4   4   4   4   4
#     4  11  22  39  67  95 120 165 215 252 316 380
#     4  10  20  41  62  88 135 162 203 268 308 373
#     4  10  20  40  63  89 130 159 205 268 304 371
#     4   9  20  40  64  87 127 165 200 260 324 361
#     4   9  20  39  62  89 127 166 201 262 317 356
#     4  11  22  37  64  94 124 172 213 252 316 373
#
# _framework density 21.435672
#
# number of rings (size 3 to 8) (size 9 to 14) (size 15 to 20)
#    0.000    2.000    3.333    0.000    0.000    2.000 
#    0.000   16.667    0.000    0.000    0.000    0.000 
#    0.000    0.000    0.000    0.000    0.000    0.000 
#
# Total GULP energy -297396.739132 kJ/mol
# GULP energy per Si atom -12391.530797 kJ/mol
# Density = 2.138688 g / cm^3
# Si number density = 21.435672 Si / 1000 Ang^3
#
#
#
# Elastic Constant Matrix: (Units=GPa)
#
#
# Indices 1 2 3 4 5 6 
#
# 1 70.9513 21.3412 50.5260 0.0000 -1.7698 0.0000
# 2 21.3412 87.0567 43.4717 0.0000 -9.4982 0.0000
# 3 50.5260 43.4717 143.8357 0.0000 -18.9085 0.0000
# 4 0.0000 0.0000 0.0000 39.6545 0.0000 -7.5425
# 5 -1.7698 -9.4982 -18.9085 0.0000 20.9195 0.0000
# 6 0.0000 0.0000 0.0000 -7.5425 0.0000 29.8122
#
#
#
# Elastic Compliance Matrix: (Units=1/GPa)
#
#
# Indices 1 2 3 4 5 6 
#
# 1 0.019519 -0.001887 -0.007015 0.000000 -0.005546 0.000000
# 2 -0.001887 0.013855 -0.003085 0.000000 0.003342 0.000000
# 3 -0.007015 -0.003085 0.011447 0.000000 0.008353 0.000000
# 4 0.000000 0.000000 0.000000 0.026493 0.000000 0.006703
# 5 -0.005546 0.003342 0.008353 0.000000 0.056400 0.000000
# 6 0.000000 0.000000 0.000000 0.006703 0.000000 0.035239
#
#
# Mechanical properties :
#
#
# Convention : Reuss Voigt Hill
#
# Bulk Modulus (GPa) = 47.97086 59.16904 53.56995
# Shear Modulus (GPa) = 25.78961 30.51090 28.15025
#
# Velocity S-wave (km/s) = 3.47236 3.77685 3.62780
# Velocity P-wave (km/s) = 6.20515 6.83246 6.52635
#
# Compressibility (1/GPa) = 0.02084599
#
# Stress axis : x y z
#
# Youngs Moduli (GPa) = 51.23139 72.17867 87.35787
#
# Poissons Ratio (x) = 0.13620 0.61286
# Poissons Ratio (y) = 0.09667 0.26950
# Poissons Ratio (z) = 0.35941 0.22268
#
# Static dielectric constant tensor:
#      x y z
#    x 3.367880 0.000000 -0.558830 
#    y 0.000000 4.190010 0.000000 
#    z -0.558830 0.000000 4.412830 
# 
# 
# High freq. dielectric constant tensor:
#      x y z
#    x 1.789470 0.000000 -0.032930 
#    y 0.000000 1.859060 0.000000 
#    z -0.032930 0.000000 1.864020 
# 
# From -- ./inp_files/52185.got.cif
#   From: 2010.06.25/outbox.cif.g09.slc.cpg/sg13_27_cif.got.tgz:52185.got - 2010.06.28 04:50:58.
