data_PCOD8119405
_publ_section_title
;
Structure prediction by ZEFSAII (Michael W. Deem and Ramdas Pophale) SiO2 
 PCOD8119405
Probable space group: P 2/C
;
_chemical_formula_sum "Si O2"
_cell_formula_units_Z 14
_cell_length_a 12.437170
_cell_length_b 8.825396
_cell_length_c 10.749708
_cell_angle_alpha 90.000000
_cell_angle_beta 37.078953
_cell_angle_gamma 90.000000
_cell_volume 711.391222
_symmetry_space_group_name_H-M "P 2/C"
_symmetry_group_IT_number 13
_symmetry_cell_setting 'monoclinic'
loop_
_space_group_symop_operation_xyz
x,y,z
-x,y,1/2-z
-x,-y,-z
x,-y,1/2+z
loop_
_atom_site_type_symbol
_atom_site_label
_atom_site_fract_x
_atom_site_fract_y
_atom_site_fract_z
Si Si1 0.000000 0.926421 0.250000
Si Si2 0.305182 0.844942 0.406673
Si Si3 0.145524 0.290198 0.824141
Si Si4 0.139604 0.397656 0.226100
O O1 0.897326 0.828296 0.243556
O O2 0.849299 0.030558 0.450542
O O3 0.500000 0.917662 0.250000
O O4 0.297116 0.771586 0.276970
O O5 0.281601 0.718153 0.536303
O O6 0.227341 0.445642 0.691851
O O7 0.959839 0.317357 0.067525
O O8 0.000000 0.445748 0.250000
#
# Coordination Sequence:
#
# PCOD8119405 Si02
#       4
#     2   4   4   4
#     4  12  22  40  60  88 120 160 188 238 296 354
#     4  11  24  39  59  90 122 153 193 242 293 348
#     4  10  20  38  65  84 114 158 197 240 289 342
#     4   9  18  39  63  87 110 153 203 241 285 339
#
# _framework density 19.679746999999999
#
# number of rings (size 3 to 8) (size 9 to 14) (size 15 to 20)
#    0.000    1.714    5.714    0.857    0.000    2.286 
#    0.000    1.429    0.000    0.000    0.000    0.000 
#    0.000    0.000    0.000    0.000    0.000    0.000 
#
# Total GULP energy -173577.755461 kJ/mol
# GULP energy per Si atom -12398.411104 kJ/mol
# Density = 1.963495 g / cm^3
# Si number density = 19.679747 Si / 1000 Ang^3
#
#
#
# Elastic Constant Matrix: (Units=GPa)
#
#
# Indices 1 2 3 4 5 6 
#
# 1 57.3369 23.1630 15.8934 0.0000 -3.1049 0.0000
# 2 23.1630 80.6837 10.2628 0.0000 7.8884 0.0000
# 3 15.8934 10.2628 34.9431 0.0000 4.1245 0.0000
# 4 0.0000 0.0000 0.0000 2.6523 0.0000 7.3177
# 5 -3.1049 7.8884 4.1245 0.0000 38.1601 0.0000
# 6 0.0000 0.0000 0.0000 7.3177 0.0000 22.6890
#
#
#
# Elastic Compliance Matrix: (Units=1/GPa)
#
#
# Indices 1 2 3 4 5 6 
#
# 1 0.022452 -0.005688 -0.009011 0.000000 0.003977 0.000000
# 2 -0.005688 0.014515 -0.001284 0.000000 -0.003325 0.000000
# 3 -0.009011 -0.001284 0.033577 0.000000 -0.004097 0.000000
# 4 0.000000 0.000000 0.000000 3.422857 0.000000 -1.103942
# 5 0.003977 -0.003325 -0.004097 0.000000 0.027659 0.000000
# 6 0.000000 0.000000 0.000000 -1.103942 0.000000 0.400118
#
#
# Mechanical properties :
#
#
# Convention : Reuss Voigt Hill
#
# Bulk Modulus (GPa) = 25.92065 30.17801 28.04933
# Shear Modulus (GPa) = 1.26072 20.94325 11.10198
#
# Velocity S-wave (km/s) = 0.80125 3.26575 2.37772
# Velocity P-wave (km/s) = 3.74911 5.43949 4.67139
#
# Compressibility (1/GPa) = 0.03857927
#
# Stress axis : x y z
#
# Youngs Moduli (GPa) = 44.54010 68.89245 29.78242
#
# Poissons Ratio (x) = 0.39187 0.26836
# Poissons Ratio (y) = 0.25335 0.03823
# Poissons Ratio (z) = 0.40133 0.08843
#
# Static dielectric constant tensor:
#      x y z
#    x 3.511960 0.000000 0.434960 
#    y 0.000000 3.704660 0.000000 
#    z 0.434960 0.000000 3.550520 
# 
# 
# High freq. dielectric constant tensor:
#      x y z
#    x 1.761340 0.000000 0.029330 
#    y 0.000000 1.775540 0.000000 
#    z 0.029330 0.000000 1.745550 
# 
# From -- ./inp_files/10738.got.cif
#   From: 2010.06.25/outbox.cif.g09.slc.cpg/sg13_6_cif.got.tgz:10738.got - 2010.06.28 04:50:58.
