data_PCOD8119095
_publ_section_title
;
Structure prediction by ZEFSAII (Michael W. Deem and Ramdas Pophale) SiO2 
 PCOD8119095
Probable space group: P 2/C
;
_chemical_formula_sum "Si O2"
_cell_formula_units_Z 28
_cell_length_a 21.480780
_cell_length_b 11.877619
_cell_length_c 11.468262
_cell_angle_alpha 90.000000
_cell_angle_beta 149.414206
_cell_angle_gamma 90.000000
_cell_volume 1488.840019
_symmetry_space_group_name_H-M "P 2/C"
_symmetry_group_IT_number 13
_symmetry_cell_setting 'monoclinic'
loop_
_space_group_symop_operation_xyz
x,y,z
-x,y,1/2-z
-x,-y,-z
x,-y,1/2+z
loop_
_atom_site_type_symbol
_atom_site_label
_atom_site_fract_x
_atom_site_fract_y
_atom_site_fract_z
Si Si1 0.292977 0.418983 0.798659
Si Si2 0.786325 0.704862 0.547864
Si Si3 0.633069 0.661741 0.520890
Si Si4 0.384646 0.849143 0.818388
Si Si5 0.020342 0.566505 0.912082
Si Si6 0.633661 0.213290 0.459523
Si Si7 0.331316 0.898465 0.260663
O O1 0.294582 0.372416 0.669734
O O2 0.160556 0.398612 0.642784
O O3 0.343375 0.545135 0.873908
O O4 0.377858 0.343458 0.019367
O O5 0.741329 0.674283 0.603289
O O6 0.930148 0.675007 0.768462
O O7 0.760281 0.836706 0.478222
O O8 0.500000 0.662877 0.250000
O O9 0.648537 0.765403 0.632258
O O10 0.320207 0.799817 0.598047
O O11 0.319110 0.968101 0.734831
O O12 0.530761 0.859166 0.046198
O O13 0.000000 0.504913 0.750000
O O14 0.000000 0.500000 0.000000
O O15 0.500000 0.157158 0.250000
O O16 0.711973 0.142050 0.680114
#
# Coordination Sequence:
#
# PCOD8119095 Si02
#       7
#     4   4   4   4   4   4   4
#     4  10  22  37  56  80 116 153 184 234 288 351
#     4  10  21  38  56  82 113 152 195 235 286 344
#     4  12  23  32  54  87 120 149 188 234 289 344
#     4  10  21  32  57  81 112 150 190 233 285 339
#     4  10  20  37  59  83 108 152 193 237 284 341
#     4   9  19  35  52  78 109 146 182 225 289 346
#     4   9  19  37  54  79 112 149 194 237 277 343
#
# _framework density 18.806587
#
# number of rings (size 3 to 8) (size 9 to 14) (size 15 to 20)
#    0.000    2.000    2.857    0.429    4.000    1.143 
#    0.000    0.000    0.000    0.857    7.429    0.000 
#    0.000    0.000    0.000    0.000    0.000    0.000 
#
# Total GULP energy -346951.013517 kJ/mol
# GULP energy per Si atom -12391.107626 kJ/mol
# Density = 1.876378 g / cm^3
# Si number density = 18.806587 Si / 1000 Ang^3
#
#
#
# Elastic Constant Matrix: (Units=GPa)
#
#
# Indices 1 2 3 4 5 6 
#
# 1 111.8965 42.1376 19.0671 0.0000 -21.9451 0.0000
# 2 42.1376 142.9545 24.9201 0.0000 -17.3847 0.0000
# 3 19.0671 24.9201 40.0894 0.0000 -8.9222 0.0000
# 4 0.0000 0.0000 0.0000 26.3653 0.0000 -3.1568
# 5 -21.9451 -17.3847 -8.9222 0.0000 26.6074 0.0000
# 6 0.0000 0.0000 0.0000 -3.1568 0.0000 23.4434
#
#
#
# Elastic Compliance Matrix: (Units=1/GPa)
#
#
# Indices 1 2 3 4 5 6 
#
# 1 0.011600 -0.002074 -0.002594 0.000000 0.007342 0.000000
# 2 -0.002074 0.008583 -0.003762 0.000000 0.002636 0.000000
# 3 -0.002594 -0.003762 0.029711 0.000000 0.005366 0.000000
# 4 0.000000 0.000000 0.000000 0.038550 0.000000 0.005191
# 5 0.007342 0.002636 0.005366 0.000000 0.047161 0.000000
# 6 0.000000 0.000000 0.000000 0.005191 0.000000 0.043355
#
#
# Mechanical properties :
#
#
# Convention : Reuss Voigt Hill
#
# Bulk Modulus (GPa) = 30.27239 51.91001 41.09120
# Shear Modulus (GPa) = 24.17442 29.20427 26.68935
#
# Velocity S-wave (km/s) = 3.58917 3.94493 3.77125
# Velocity P-wave (km/s) = 5.77129 6.95787 6.39217
#
# Compressibility (1/GPa) = 0.03303340
#
# Stress axis : x y z
#
# Youngs Moduli (GPa) = 86.20808 116.50975 33.65804
#
# Poissons Ratio (x) = 0.24166 0.08730
# Poissons Ratio (y) = 0.17881 0.12663
# Poissons Ratio (z) = 0.22359 0.43833
#
# Static dielectric constant tensor:
#      x y z
#    x 3.632590 0.000000 -0.223340 
#    y 0.000000 3.390490 0.000000 
#    z -0.223340 0.000000 3.422850 
# 
# 
# High freq. dielectric constant tensor:
#      x y z
#    x 1.737480 0.000000 -0.021080 
#    y 0.000000 1.716700 0.000000 
#    z -0.021080 0.000000 1.711650 
# 
# From -- ./inp_files/40816.got.cif
#   From: 2010.06.25/outbox.cif.g09.slc.cpg/sg13_21_cif.got.tgz:40816.got - 2010.06.28 04:50:58.
