data_PCOD8119013
_publ_section_title
;
Structure prediction by ZEFSAII (Michael W. Deem and Ramdas Pophale) SiO2 
 PCOD8119013
Probable space group: P 2/C
;
_chemical_formula_sum "Si O2"
_cell_formula_units_Z 24
_cell_length_a 13.979953
_cell_length_b 8.321822
_cell_length_c 15.233647
_cell_angle_alpha 90.000000
_cell_angle_beta 40.264120
_cell_angle_gamma 90.000000
_cell_volume 1145.434541
_symmetry_space_group_name_H-M "P 2/C"
_symmetry_group_IT_number 13
_symmetry_cell_setting 'monoclinic'
loop_
_space_group_symop_operation_xyz
x,y,z
-x,y,1/2-z
-x,-y,-z
x,-y,1/2+z
loop_
_atom_site_type_symbol
_atom_site_label
_atom_site_fract_x
_atom_site_fract_y
_atom_site_fract_z
Si Si1 0.838459 0.920066 0.883445
Si Si2 0.885524 0.634874 0.978963
Si Si3 0.396963 0.513950 0.399284
Si Si4 0.367752 0.718526 0.584208
Si Si5 0.653402 0.783983 0.468954
Si Si6 0.183434 0.447905 0.777433
O O1 0.856892 0.813547 0.958904
O O2 0.775573 0.821109 0.844070
O O3 0.000000 0.989328 0.750000
O O4 0.726917 0.069730 0.970644
O O5 0.043100 0.555686 0.845771
O O6 0.773422 0.518571 0.008997
O O7 0.851746 0.640884 0.106663
O O8 0.500000 0.575530 0.250000
O O9 0.435061 0.629224 0.453003
O O10 0.418703 0.328970 0.407060
O O11 0.503046 0.832230 0.521451
O O12 0.316241 0.580351 0.690331
O O13 0.773332 0.688890 0.324131
#
# Coordination Sequence:
#
# PCOD8119013 Si02
#       6
#     4   4   4   4   4   4
#     4  11  23  40  58  88 128 162 196 244 313 370
#     4  10  21  38  63  89 120 159 202 256 296 358
#     4  10  20  36  62  91 123 154 212 250 296 346
#     4  10  20  39  64  89 122 161 204 249 305 354
#     4  11  23  36  63  90 124 160 201 247 306 369
#     4  10  20  39  65  92 117 157 211 254 302 348
#
# _framework density 20.952746000000001
#
# number of rings (size 3 to 8) (size 9 to 14) (size 15 to 20)
#    0.000    1.667    1.667    4.500    2.333    0.000 
#    0.000    9.167    0.000    0.000    0.000    0.000 
#    0.000    0.000    0.000    0.000    0.000    0.000 
#
# Total GULP energy -297327.821986 kJ/mol
# GULP energy per Si atom -12388.659249 kJ/mol
# Density = 2.090506 g / cm^3
# Si number density = 20.952746 Si / 1000 Ang^3
#
#
#
# Elastic Constant Matrix: (Units=GPa)
#
#
# Indices 1 2 3 4 5 6 
#
# 1 114.1380 52.6819 42.1480 0.0000 -20.5540 0.0000
# 2 52.6819 85.4537 13.4770 0.0000 -14.3990 0.0000
# 3 42.1480 13.4770 87.1138 0.0000 -14.5020 0.0000
# 4 0.0000 0.0000 0.0000 16.6780 0.0000 -6.0883
# 5 -20.5540 -14.3990 -14.5020 0.0000 26.6152 0.0000
# 6 0.0000 0.0000 0.0000 -6.0883 0.0000 42.6028
#
#
#
# Elastic Compliance Matrix: (Units=1/GPa)
#
#
# Indices 1 2 3 4 5 6 
#
# 1 0.015124 -0.007705 -0.005361 0.000000 0.004590 0.000000
# 2 -0.007705 0.016868 0.001811 0.000000 0.004162 0.000000
# 3 -0.005361 0.001811 0.014590 0.000000 0.004789 0.000000
# 4 0.000000 0.000000 0.000000 0.063259 0.000000 0.009040
# 5 0.004590 0.004162 0.004789 0.000000 0.045979 0.000000
# 6 0.000000 0.000000 0.000000 0.009040 0.000000 0.024765
#
#
# Mechanical properties :
#
#
# Convention : Reuss Voigt Hill
#
# Bulk Modulus (GPa) = 41.54161 55.92437 48.73299
# Shear Modulus (GPa) = 23.68334 29.07246 26.37790
#
# Velocity S-wave (km/s) = 3.36567 3.72899 3.55198
# Velocity P-wave (km/s) = 5.91380 6.72972 6.33491
#
# Compressibility (1/GPa) = 0.02407225
#
# Stress axis : x y z
#
# Youngs Moduli (GPa) = 66.12019 59.28388 68.53880
#
# Poissons Ratio (x) = 0.45678 0.36746
# Poissons Ratio (y) = 0.50945 -0.12414
# Poissons Ratio (z) = 0.35449 -0.10737
#
# Static dielectric constant tensor:
#      x y z
#    x 4.078550 0.000000 -0.101470 
#    y 0.000000 3.657490 0.000000 
#    z -0.101470 0.000000 3.830480 
# 
# 
# High freq. dielectric constant tensor:
#      x y z
#    x 1.837480 0.000000 -0.021550 
#    y 0.000000 1.799440 0.000000 
#    z -0.021550 0.000000 1.814990 
# 
# From -- ./inp_files/52865.got.cif
#   From: 2010.06.25/outbox.cif.g09.slc.cpg/sg13_27_cif.got.tgz:52865.got - 2010.06.28 04:50:58.
