data_PCOD8119594
_publ_section_title
;
Structure prediction by ZEFSAII (Michael W. Deem and Ramdas Pophale) SiO2 
 PCOD8119594
Probable space group: P 2/C
;
_chemical_formula_sum "Si O2"
_cell_formula_units_Z 32
_cell_length_a 12.209587
_cell_length_b 11.071504
_cell_length_c 23.284037
_cell_angle_alpha 90.000000
_cell_angle_beta 149.866219
_cell_angle_gamma 90.000000
_cell_volume 1580.110760
_symmetry_space_group_name_H-M "P 2/C"
_symmetry_group_IT_number 13
_symmetry_cell_setting 'monoclinic'
loop_
_space_group_symop_operation_xyz
x,y,z
-x,y,1/2-z
-x,-y,-z
x,-y,1/2+z
loop_
_atom_site_type_symbol
_atom_site_label
_atom_site_fract_x
_atom_site_fract_y
_atom_site_fract_z
Si Si1 0.547214 0.406152 0.831518
Si Si2 0.429945 0.948698 0.154897
Si Si3 0.970455 0.612523 0.170713
Si Si4 0.086023 0.656997 0.724188
Si Si5 0.441050 0.623874 0.586409
Si Si6 0.793070 0.204609 0.799606
Si Si7 0.205185 0.802628 0.561197
Si Si8 0.921499 0.759127 0.534604
O O1 0.500000 0.476507 0.750000
O O2 0.496252 0.491372 0.862316
O O3 0.379490 0.296148 0.751462
O O4 0.793330 0.355678 0.950000
O O5 0.500000 0.904735 0.250000
O O6 0.646746 0.913496 0.215054
O O7 0.378523 0.090214 0.131977
O O8 0.217982 0.881079 0.034372
O O9 0.061887 0.482246 0.193564
O O10 0.093300 0.728470 0.201340
O O11 0.000000 0.630957 0.250000
O O12 0.715491 0.615885 0.039467
O O13 0.342129 0.690656 0.837418
O O14 0.000000 0.681173 0.750000
O O15 0.964218 0.739546 0.621913
O O16 0.314348 0.687327 0.581312
O O17 0.973680 0.163644 0.927568
O O18 0.150260 0.773978 0.603222
#
# Coordination Sequence:
#
# PCOD8119594 Si02
#       8
#     4   4   4   4   4   4   4   4
#     4  11  20  35  59  93 132 169 202 247 341 404
#     4  11  23  39  64  94 121 172 218 255 320 391
#     4  10  22  41  66  90 126 175 218 263 316 389
#     4  11  25  41  62  94 132 170 215 268 318 383
#     4  11  25  38  61  98 130 164 214 269 323 389
#     4  10  20  40  60  89 130 163 211 266 322 381
#     4  11  24  38  61  96 130 165 215 265 322 386
#     4  11  22  40  62  92 129 171 204 267 321 385
#
# _framework density 20.251745
#
# number of rings (size 3 to 8) (size 9 to 14) (size 15 to 20)
#    0.000    1.250    5.000    1.125    3.500    4.500 
#    0.000    0.000    0.000   10.500    0.000    0.000 
#    0.000    0.000    0.000    0.000    0.000    0.000 
#
# Total GULP energy -396636.550875 kJ/mol
# GULP energy per Si atom -12394.892215 kJ/mol
# Density = 2.020565 g / cm^3
# Si number density = 20.251745 Si / 1000 Ang^3
#
#
#
# Elastic Constant Matrix: (Units=GPa)
#
#
# Indices 1 2 3 4 5 6 
#
# 1 75.9665 28.4552 53.1982 0.0000 2.0696 0.0000
# 2 28.4552 65.6415 37.5975 0.0000 -7.4986 0.0000
# 3 53.1982 37.5975 129.0786 0.0000 -4.7511 0.0000
# 4 0.0000 0.0000 0.0000 29.6822 0.0000 5.2918
# 5 2.0696 -7.4986 -4.7511 0.0000 37.0400 0.0000
# 6 0.0000 0.0000 0.0000 5.2918 0.0000 22.9118
#
#
#
# Elastic Compliance Matrix: (Units=1/GPa)
#
#
# Indices 1 2 3 4 5 6 
#
# 1 0.019944 -0.005064 -0.006856 0.000000 -0.003019 0.000000
# 2 -0.005064 0.019916 -0.003572 0.000000 0.003857 0.000000
# 3 -0.006856 -0.003572 0.011656 0.000000 0.001155 0.000000
# 4 0.000000 0.000000 0.000000 0.035137 0.000000 -0.008115
# 5 -0.003019 0.003857 0.001155 0.000000 0.028095 0.000000
# 6 0.000000 0.000000 0.000000 -0.008115 0.000000 0.045520
#
#
# Mechanical properties :
#
#
# Convention : Reuss Voigt Hill
#
# Bulk Modulus (GPa) = 48.70381 56.57650 52.64016
# Shear Modulus (GPa) = 25.24043 28.02250 26.63146
#
# Velocity S-wave (km/s) = 3.53417 3.72386 3.63026
# Velocity P-wave (km/s) = 6.38398 6.81812 6.60462
#
# Compressibility (1/GPa) = 0.02053228
#
# Stress axis : x y z
#
# Youngs Moduli (GPa) = 50.14133 50.21120 85.79460
#
# Poissons Ratio (x) = 0.25425 0.58819
# Poissons Ratio (y) = 0.25389 0.30647
# Poissons Ratio (z) = 0.34376 0.17936
#
# Static dielectric constant tensor:
#      x y z
#    x 3.601770 0.000000 0.223920 
#    y 0.000000 3.517550 0.000000 
#    z 0.223920 0.000000 3.898240 
# 
# 
# High freq. dielectric constant tensor:
#      x y z
#    x 1.772520 0.000000 0.014920 
#    y 0.000000 1.773300 0.000000 
#    z 0.014920 0.000000 1.806350 
# 
# From -- ./inp_files/78660.got.cif
#   From: 2010.06.25/outbox.cif.g09.slc.cpg/sg13_40_cif.got.tgz:78660.got - 2010.06.28 04:50:58.
