data_PCOD8119836
_publ_section_title
;
Structure prediction by ZEFSAII (Michael W. Deem and Ramdas Pophale) SiO2 
 PCOD8119836
Probable space group: P 2/C
;
_chemical_formula_sum "Si O2"
_cell_formula_units_Z 28
_cell_length_a 26.239263
_cell_length_b 8.480456
_cell_length_c 9.240929
_cell_angle_alpha 90.000000
_cell_angle_beta 38.384013
_cell_angle_gamma 90.000000
_cell_volume 1276.816466
_symmetry_space_group_name_H-M "P 2/C"
_symmetry_group_IT_number 13
_symmetry_cell_setting 'monoclinic'
loop_
_space_group_symop_operation_xyz
x,y,z
-x,y,1/2-z
-x,-y,-z
x,-y,1/2+z
loop_
_atom_site_type_symbol
_atom_site_label
_atom_site_fract_x
_atom_site_fract_y
_atom_site_fract_z
Si Si1 0.790498 0.202415 0.598082
Si Si2 0.500000 0.393218 0.750000
Si Si3 0.614390 0.321187 0.990202
Si Si4 0.887608 0.702718 0.318381
Si Si5 0.835810 0.020903 0.752260
Si Si6 0.000000 0.898420 0.250000
Si Si7 0.095811 0.551511 0.512172
Si Si8 0.495183 0.183824 0.036346
O O1 0.712547 0.318643 0.764926
O O2 0.806998 0.135923 0.400046
O O3 0.869108 0.296935 0.482045
O O4 0.776332 0.062114 0.748663
O O5 0.580636 0.502150 0.593035
O O6 0.519211 0.280121 0.575821
O O7 0.578481 0.249842 0.922000
O O8 0.583859 0.210348 0.187681
O O9 0.858573 0.607210 0.527641
O O10 0.971238 0.791471 0.178449
O O11 0.828488 0.838133 0.387398
O O12 0.895028 0.566781 0.180516
O O13 0.926846 0.004311 0.479545
O O14 0.000000 0.537029 0.750000
O O15 0.500000 0.000000 0.000000
#
# Coordination Sequence:
#
# PCOD8119836 Si02
#       8
#     4   2   4   4   4   2   4   4
#     4  11  26  43  65  99 137 175 225 286 343 401
#     4  10  20  46  74 102 136 184 214 266 332 418
#     4  10  22  42  64 100 141 176 217 268 335 402
#     4  11  24  39  65  90 120 173 226 290 341 406
#     4  11  25  44  66  92 133 177 231 289 344 410
#     4  12  22  42  72  92 120 182 242 284 354 410
#     4  11  24  42  61  93 130 171 229 279 341 409
#     4  10  21  42  74 103 132 173 223 264 324 402
#
# _framework density 21.929542999999999
#
# number of rings (size 3 to 8) (size 9 to 14) (size 15 to 20)
#    0.000    1.429    2.143    4.286    8.000    0.000 
#   10.286    0.000    0.000    0.000    0.000    0.000 
#    0.000    0.000    0.000    0.000    0.000    0.000 
#
# Total GULP energy -346953.772467 kJ/mol
# GULP energy per Si atom -12391.206160 kJ/mol
# Density = 2.187963 g / cm^3
# Si number density = 21.929543 Si / 1000 Ang^3
#
#
#
# Elastic Constant Matrix: (Units=GPa)
#
#
# Indices 1 2 3 4 5 6 
#
# 1 65.8231 19.3675 33.6986 0.0000 6.8128 0.0000
# 2 19.3675 112.1451 36.5448 0.0000 8.9767 0.0000
# 3 33.6986 36.5448 71.6360 0.0000 0.1552 0.0000
# 4 0.0000 0.0000 0.0000 30.7277 0.0000 20.6279
# 5 6.8128 8.9767 0.1552 0.0000 31.9494 0.0000
# 6 0.0000 0.0000 0.0000 20.6279 0.0000 45.5092
#
#
#
# Elastic Compliance Matrix: (Units=1/GPa)
#
#
# Indices 1 2 3 4 5 6 
#
# 1 0.020598 -0.000068 -0.009646 0.000000 -0.004326 0.000000
# 2 -0.000068 0.010986 -0.005566 0.000000 -0.003045 0.000000
# 3 -0.009646 -0.005566 0.021329 0.000000 0.003517 0.000000
# 4 0.000000 0.000000 0.000000 0.046778 0.000000 -0.021203
# 5 -0.004326 -0.003045 0.003517 0.000000 0.033061 0.000000
# 6 0.000000 0.000000 0.000000 -0.021203 0.000000 0.031584
#
#
# Mechanical properties :
#
#
# Convention : Reuss Voigt Hill
#
# Bulk Modulus (GPa) = 44.73455 47.64734 46.19095
# Shear Modulus (GPa) = 24.71010 32.30349 28.50679
#
# Velocity S-wave (km/s) = 3.36042 3.84221 3.60936
# Velocity P-wave (km/s) = 5.95819 6.43879 6.20315
#
# Compressibility (1/GPa) = 0.02235409
#
# Stress axis : x y z
#
# Youngs Moduli (GPa) = 48.54804 91.02218 46.88475
#
# Poissons Ratio (x) = 0.00617 0.45224
# Poissons Ratio (y) = 0.00329 0.26097
# Poissons Ratio (z) = 0.46828 0.50664
#
# Static dielectric constant tensor:
#      x y z
#    x 4.159090 0.000000 0.432970 
#    y 0.000000 4.124020 0.000000 
#    z 0.432970 0.000000 3.718660 
# 
# 
# High freq. dielectric constant tensor:
#      x y z
#    x 1.868320 0.000000 0.032580 
#    y 0.000000 1.874210 0.000000 
#    z 0.032580 0.000000 1.828420 
# 
# From -- ./inp_files/24568.got.cif
#   From: 2010.06.25/outbox.cif.g09.slc.cpg/sg13_13_cif.got.tgz:24568.got - 2010.06.28 04:50:58.
