data_PCOD8119098
_publ_section_title
;
Structure prediction by ZEFSAII (Michael W. Deem and Ramdas Pophale) SiO2 
 PCOD8119098
Probable space group: P 2/C
;
_chemical_formula_sum "Si O2"
_cell_formula_units_Z 24
_cell_length_a 8.398562
_cell_length_b 12.230086
_cell_length_c 11.840943
_cell_angle_alpha 90.000000
_cell_angle_beta 88.056984
_cell_angle_gamma 90.000000
_cell_volume 1215.544776
_symmetry_space_group_name_H-M "P 2/C"
_symmetry_group_IT_number 13
_symmetry_cell_setting 'monoclinic'
loop_
_space_group_symop_operation_xyz
x,y,z
-x,y,1/2-z
-x,-y,-z
x,-y,1/2+z
loop_
_atom_site_type_symbol
_atom_site_label
_atom_site_fract_x
_atom_site_fract_y
_atom_site_fract_z
Si Si1 0.054699 0.086301 0.358903
Si Si2 0.602522 0.442483 0.349267
Si Si3 0.547140 0.859916 0.379526
Si Si4 0.262211 0.953695 0.515568
Si Si5 0.336449 0.358961 0.514694
Si Si6 0.154999 0.676808 0.800343
O O1 0.130867 0.194702 0.305446
O O2 0.000000 0.015435 0.250000
O O3 0.895772 0.109013 0.436987
O O4 0.200580 0.031218 0.417715
O O5 0.500000 0.494768 0.250000
O O6 0.503500 0.384007 0.450037
O O7 0.703365 0.543852 0.396635
O O8 0.706022 0.346574 0.291790
O O9 0.500000 0.845646 0.250000
O O10 0.387772 0.868261 0.460302
O O11 0.649818 0.756061 0.419826
O O12 0.652842 0.969956 0.392139
O O13 0.194123 0.362086 0.426570
O O14 0.000000 0.617709 0.750000
#
# Coordination Sequence:
#
# PCOD8119098 Si02
#       6
#     4   4   4   4   4   4
#     4  10  20  37  59  84 122 158 187 237 290 351
#     4   9  20  38  61  88 114 152 194 245 295 345
#     4  11  22  37  58  88 115 156 198 242 288 349
#     4  10  22  38  57  87 122 154 195 241 287 345
#     4  10  20  38  60  84 119 152 195 246 293 343
#     4  10  21  36  60  88 115 155 197 238 293 351
#
# _framework density 19.744230999999999
#
# number of rings (size 3 to 8) (size 9 to 14) (size 15 to 20)
#    0.000    2.000    1.667    1.500    4.667    0.667 
#    0.000    0.000    3.667    0.000    0.000    0.000 
#    0.000    0.000    0.000    0.000    0.000    0.000 
#
# Total GULP energy -297413.876989 kJ/mol
# GULP energy per Si atom -12392.244875 kJ/mol
# Density = 1.969929 g / cm^3
# Si number density = 19.744231 Si / 1000 Ang^3
#
#
#
# Elastic Constant Matrix: (Units=GPa)
#
#
# Indices 1 2 3 4 5 6 
#
# 1 77.8820 26.2745 30.7938 0.0000 21.3646 0.0000
# 2 26.2745 81.7902 41.4184 0.0000 3.1339 0.0000
# 3 30.7938 41.4184 114.9320 0.0000 26.3216 0.0000
# 4 0.0000 0.0000 0.0000 29.2322 0.0000 -2.9882
# 5 21.3646 3.1339 26.3216 0.0000 37.7450 0.0000
# 6 0.0000 0.0000 0.0000 -2.9882 0.0000 20.5938
#
#
#
# Elastic Compliance Matrix: (Units=1/GPa)
#
#
# Indices 1 2 3 4 5 6 
#
# 1 0.017179 -0.004726 -0.000908 0.000000 -0.008699 0.000000
# 2 -0.004726 0.016546 -0.005944 0.000000 0.005446 0.000000
# 3 -0.000908 -0.005944 0.012918 0.000000 -0.008001 0.000000
# 4 0.000000 0.000000 0.000000 0.034724 0.000000 0.005039
# 5 -0.008699 0.005446 -0.008001 0.000000 0.036545 0.000000
# 6 0.000000 0.000000 0.000000 0.005039 0.000000 0.049289
#
#
# Mechanical properties :
#
#
# Convention : Reuss Voigt Hill
#
# Bulk Modulus (GPa) = 42.57285 52.39753 47.48519
# Shear Modulus (GPa) = 25.22886 29.25535 27.24210
#
# Velocity S-wave (km/s) = 3.57849 3.85348 3.71853
# Velocity P-wave (km/s) = 6.21957 6.81138 6.52219
#
# Compressibility (1/GPa) = 0.02348915
#
# Stress axis : x y z
#
# Youngs Moduli (GPa) = 58.20959 60.43857 77.40883
#
# Poissons Ratio (x) = 0.28562 0.07026
# Poissons Ratio (y) = 0.27508 0.46009
# Poissons Ratio (z) = 0.05284 0.35923
#
# Static dielectric constant tensor:
#      x y z
#    x 3.819260 0.000000 0.443840 
#    y 0.000000 3.377140 0.000000 
#    z 0.443840 0.000000 3.953350 
# 
# 
# High freq. dielectric constant tensor:
#      x y z
#    x 1.766820 0.000000 0.019670 
#    y 0.000000 1.746500 0.000000 
#    z 0.019670 0.000000 1.785830 
# 
# From -- ./inp_files/29461.got.cif
#   From: 2010.06.25/outbox.cif.g09.slc.cpg/sg13_15_cif.got.tgz:29461.got - 2010.06.28 04:50:58.
