data_PCOD8119756
_publ_section_title
;
Structure prediction by ZEFSAII (Michael W. Deem and Ramdas Pophale) SiO2 
 PCOD8119756
Probable space group: P 2/C
;
_chemical_formula_sum "Si O2"
_cell_formula_units_Z 28
_cell_length_a 13.555587
_cell_length_b 9.851603
_cell_length_c 18.467369
_cell_angle_alpha 90.000000
_cell_angle_beta 31.857317
_cell_angle_gamma 90.000000
_cell_volume 1301.680402
_symmetry_space_group_name_H-M "P 2/C"
_symmetry_group_IT_number 13
_symmetry_cell_setting 'monoclinic'
loop_
_space_group_symop_operation_xyz
x,y,z
-x,y,1/2-z
-x,-y,-z
x,-y,1/2+z
loop_
_atom_site_type_symbol
_atom_site_label
_atom_site_fract_x
_atom_site_fract_y
_atom_site_fract_z
Si Si1 0.044962 0.243145 0.093559
Si Si2 0.267277 0.250427 0.807936
Si Si3 0.368556 0.307898 0.987639
Si Si4 0.196967 0.412169 0.586019
Si Si5 0.577465 0.172709 0.990650
Si Si6 0.247560 0.991743 0.731883
Si Si7 0.963917 0.523272 0.105603
O O1 0.931391 0.105241 0.160133
O O2 0.909858 0.378025 0.177481
O O3 0.182676 0.268454 0.939745
O O4 0.170073 0.240958 0.088324
O O5 0.489267 0.276185 0.667462
O O6 0.193881 0.359985 0.792761
O O7 0.212161 0.099130 0.817433
O O8 0.445595 0.241613 0.012524
O O9 0.337540 0.467489 0.020417
O O10 0.303189 0.273644 0.535372
O O11 0.000000 0.421960 0.750000
O O12 0.150408 0.420496 0.529367
O O13 0.722975 0.068675 0.862915
O O14 0.436634 0.092644 0.131800
O O15 0.000000 0.500000 0.000000
#
# Coordination Sequence:
#
# PCOD8119756 Si02
#       7
#     4   4   4   4   4   4   4
#     4  10  21  38  67  89 123 166 219 260 325 395
#     4  10  20  42  60  92 124 167 208 268 327 385
#     4  10  22  36  63  94 122 161 208 267 319 387
#     4  11  22  38  65  98 122 170 217 268 328 387
#     4  10  23  41  57  91 134 163 212 262 329 380
#     4  10  22  40  61  89 127 174 211 267 324 387
#     4   9  21  40  65  93 126 164 219 268 325 389
#
# _framework density 21.510656000000001
#
# number of rings (size 3 to 8) (size 9 to 14) (size 15 to 20)
#    0.000    2.000    0.000    3.000    6.000    0.000 
#   18.000    0.000    6.286    0.000    0.000    0.000 
#    0.000    0.000    0.000    0.000    0.000    0.000 
#
# Total GULP energy -347033.447287 kJ/mol
# GULP energy per Si atom -12394.051689 kJ/mol
# Density = 2.146170 g / cm^3
# Si number density = 21.510656 Si / 1000 Ang^3
#
#
#
# Elastic Constant Matrix: (Units=GPa)
#
#
# Indices 1 2 3 4 5 6 
#
# 1 105.7424 53.8724 18.3559 0.0000 -10.3257 0.0000
# 2 53.8724 154.6698 40.6782 0.0000 -23.7838 0.0000
# 3 18.3559 40.6782 56.6011 0.0000 -10.2912 0.0000
# 4 0.0000 0.0000 0.0000 42.3001 0.0000 -10.6100
# 5 -10.3257 -23.7838 -10.2912 0.0000 21.9564 0.0000
# 6 0.0000 0.0000 0.0000 -10.6100 0.0000 31.2726
#
#
#
# Elastic Compliance Matrix: (Units=1/GPa)
#
#
# Indices 1 2 3 4 5 6 
#
# 1 0.011569 -0.003611 -0.000960 0.000000 0.001079 0.000000
# 2 -0.003611 0.010051 -0.004790 0.000000 0.006944 0.000000
# 3 -0.000960 -0.004790 0.022296 0.000000 0.004810 0.000000
# 4 0.000000 0.000000 0.000000 0.025840 0.000000 0.008767
# 5 0.001079 0.006944 0.004810 0.000000 0.055829 0.000000
# 6 0.000000 0.000000 0.000000 0.008767 0.000000 0.034951
#
#
# Mechanical properties :
#
#
# Convention : Reuss Voigt Hill
#
# Bulk Modulus (GPa) = 39.69344 60.31402 50.00373
# Shear Modulus (GPa) = 26.64478 32.71294 29.67886
#
# Velocity S-wave (km/s) = 3.52330 3.90395 3.71850
# Velocity P-wave (km/s) = 5.91984 6.95852 6.46009
#
# Compressibility (1/GPa) = 0.02519308
#
# Stress axis : x y z
#
# Youngs Moduli (GPa) = 86.44027 99.49727 44.85148
#
# Poissons Ratio (x) = 0.35928 0.04308
# Poissons Ratio (y) = 0.31213 0.21482
# Poissons Ratio (z) = 0.08302 0.47655
#
# Static dielectric constant tensor:
#      x y z
#    x 3.942910 0.000000 -0.177820 
#    y 0.000000 4.298640 0.000000 
#    z -0.177820 0.000000 3.889480 
# 
# 
# High freq. dielectric constant tensor:
#      x y z
#    x 1.834000 0.000000 -0.003960 
#    y 0.000000 1.860990 0.000000 
#    z -0.003960 0.000000 1.835430 
# 
# From -- ./inp_files/79929.got.cif
#   From: 2010.06.25/outbox.cif.g09.slc.cpg/sg13_40_cif.got.tgz:79929.got - 2010.06.28 04:50:58.
