data_PCOD8119350
_publ_section_title
;
Structure prediction by ZEFSAII (Michael W. Deem and Ramdas Pophale) SiO2 
 PCOD8119350
Probable space group: P 2/C
;
_chemical_formula_sum "Si O2"
_cell_formula_units_Z 30
_cell_length_a 9.250612
_cell_length_b 16.196830
_cell_length_c 9.741409
_cell_angle_alpha 90.000000
_cell_angle_beta 93.070168
_cell_angle_gamma 90.000000
_cell_volume 1457.466138
_symmetry_space_group_name_H-M "P 2/C"
_symmetry_group_IT_number 13
_symmetry_cell_setting 'monoclinic'
loop_
_space_group_symop_operation_xyz
x,y,z
-x,y,1/2-z
-x,-y,-z
x,-y,1/2+z
loop_
_atom_site_type_symbol
_atom_site_label
_atom_site_fract_x
_atom_site_fract_y
_atom_site_fract_z
Si Si1 0.332758 0.197143 0.210323
Si Si2 0.258432 0.914489 0.075995
Si Si3 0.282555 0.264116 0.488755
Si Si4 0.836070 0.958348 0.722670
Si Si5 0.140225 0.424865 0.576285
Si Si6 0.500000 0.149619 0.750000
Si Si7 0.618493 0.725542 0.065221
Si Si8 0.812895 0.565108 0.110690
O O1 0.500000 0.182364 0.250000
O O2 0.265397 0.257260 0.323056
O O3 0.262039 0.107292 0.203358
O O4 0.302111 0.238162 0.063238
O O5 0.429827 0.908640 0.127647
O O6 0.176122 0.953367 0.201899
O O7 0.215394 0.820119 0.046425
O O8 0.220589 0.967346 0.937475
O O9 0.187252 0.332484 0.553603
O O10 0.447975 0.285299 0.532661
O O11 0.000000 0.928018 0.750000
O O12 0.231449 0.482719 0.475283
O O13 0.174040 0.457914 0.729617
O O14 0.967510 0.416237 0.547601
O O15 0.372501 0.208826 0.808025
O O16 0.695699 0.638392 0.097101
#
# Coordination Sequence:
#
# PCOD8119350 Si02
#       8
#     4   4   4   4   4   2   4   4
#     4   9  21  39  63  89 121 159 205 256 307 367
#     4  10  23  40  63  89 124 165 205 256 311 364
#     4   9  20  42  60  87 124 157 198 255 303 357
#     4  11  24  42  60  91 128 161 208 259 311 371
#     4  10  22  40  59  86 126 155 200 244 299 364
#     4  10  22  40  64  94 124 164 208 262 308 370
#     4  10  20  38  62  90 118 156 204 245 303 367
#     4  10  22  38  60  90 117 160 200 245 296 361
#
# _framework density 20.583667999999999
#
# number of rings (size 3 to 8) (size 9 to 14) (size 15 to 20)
#    0.000    2.133    0.000    2.800    4.667    3.200 
#    4.800    0.000    0.000    0.000    0.000    0.000 
#    0.000    0.000    0.000    0.000    0.000    0.000 
#
# Total GULP energy -371717.844897 kJ/mol
# GULP energy per Si atom -12390.594830 kJ/mol
# Density = 2.053682 g / cm^3
# Si number density = 20.583668 Si / 1000 Ang^3
#
#
#
# Elastic Constant Matrix: (Units=GPa)
#
#
# Indices 1 2 3 4 5 6 
#
# 1 45.0670 36.0537 27.7230 0.0000 0.2984 0.0000
# 2 36.0537 89.6707 60.2514 0.0000 -3.8319 0.0000
# 3 27.7230 60.2514 138.1777 0.0000 2.0717 0.0000
# 4 0.0000 0.0000 0.0000 34.1565 0.0000 -16.1576
# 5 0.2984 -3.8319 2.0717 0.0000 24.0673 0.0000
# 6 0.0000 0.0000 0.0000 -16.1576 0.0000 24.4010
#
#
#
# Elastic Compliance Matrix: (Units=1/GPa)
#
#
# Indices 1 2 3 4 5 6 
#
# 1 0.032973 -0.012638 -0.001070 0.000000 -0.002329 0.000000
# 2 -0.012638 0.020853 -0.006618 0.000000 0.004046 0.000000
# 3 -0.001070 -0.006618 0.010366 0.000000 -0.001933 0.000000
# 4 0.000000 0.000000 0.000000 0.042630 0.000000 0.028229
# 5 -0.002329 0.004046 -0.001933 0.000000 0.042390 0.000000
# 6 0.000000 0.000000 0.000000 0.028229 0.000000 0.059674
#
#
# Mechanical properties :
#
#
# Convention : Reuss Voigt Hill
#
# Bulk Modulus (GPa) = 42.47927 57.88574 50.18251
# Shear Modulus (GPa) = 19.42615 26.45079 22.93847
#
# Velocity S-wave (km/s) = 3.07541 3.58863 3.34189
# Velocity P-wave (km/s) = 5.77001 6.73456 6.27086
#
# Compressibility (1/GPa) = 0.02354089
#
# Stress axis : x y z
#
# Youngs Moduli (GPa) = 30.32758 47.95509 96.46638
#
# Poissons Ratio (x) = 0.60607 0.10320
# Poissons Ratio (y) = 0.38329 0.63839
# Poissons Ratio (z) = 0.03244 0.31736
#
# Static dielectric constant tensor:
#      x y z
#    x 3.544000 0.000000 0.037510 
#    y 0.000000 3.661880 0.000000 
#    z 0.037510 0.000000 4.157000 
# 
# 
# High freq. dielectric constant tensor:
#      x y z
#    x 1.783790 0.000000 0.002430 
#    y 0.000000 1.797020 0.000000 
#    z 0.002430 0.000000 1.825580 
# 
# From -- ./inp_files/30136.got.cif
#   From: 2010.06.25/outbox.cif.g09.slc.cpg/sg13_16_cif.got.tgz:30136.got - 2010.06.28 04:50:58.
