data_PCOD8119345
_publ_section_title
;
Structure prediction by ZEFSAII (Michael W. Deem and Ramdas Pophale) SiO2 
 PCOD8119345
Probable space group: P 2/C
;
_chemical_formula_sum "Si O2"
_cell_formula_units_Z 26
_cell_length_a 24.229081
_cell_length_b 9.062074
_cell_length_c 8.694612
_cell_angle_alpha 90.000000
_cell_angle_beta 138.786313
_cell_angle_gamma 90.000000
_cell_volume 1257.806821
_symmetry_space_group_name_H-M "P 2/C"
_symmetry_group_IT_number 13
_symmetry_cell_setting 'monoclinic'
loop_
_space_group_symop_operation_xyz
x,y,z
-x,y,1/2-z
-x,-y,-z
x,-y,1/2+z
loop_
_atom_site_type_symbol
_atom_site_label
_atom_site_fract_x
_atom_site_fract_y
_atom_site_fract_z
Si Si1 0.199269 0.361693 0.574511
Si Si2 0.328689 0.603002 0.775671
Si Si3 0.057458 0.411393 0.735823
Si Si4 0.561672 0.454343 0.261138
Si Si5 0.809615 0.789351 0.121547
Si Si6 0.000000 0.024364 0.750000
Si Si7 0.881129 0.899259 0.744512
O O1 0.282201 0.443512 0.685912
O O2 0.127255 0.481159 0.453932
O O3 0.215984 0.273938 0.766480
O O4 0.173263 0.248354 0.385257
O O5 0.366139 0.630458 0.681462
O O6 0.261783 0.736733 0.651437
O O7 0.397987 0.593652 0.057456
O O8 0.099690 0.271383 0.740554
O O9 0.000000 0.347178 0.750000
O O10 0.000000 0.500000 0.500000
O O11 0.500000 0.363159 0.250000
O O12 0.500000 0.500000 0.000000
O O13 0.817046 0.965397 0.138954
O O14 0.944732 0.124170 0.519388
O O15 0.064270 0.918396 0.795163
#
# Coordination Sequence:
#
# PCOD8119345 Si02
#       7
#     4   4   4   4   4   2   4
#     4  11  23  40  55  81 116 154 195 249 299 339
#     4  10  20  38  62  89 124 148 179 241 285 349
#     4  11  24  36  56  76 108 148 197 252 311 346
#     4   9  18  34  62  99 123 143 179 219 283 353
#     4  11  23  39  55  82 115 152 200 245 297 346
#     4  10  24  36  52  74 104 148 208 274 284 330
#     4  11  24  39  57  76 109 159 210 249 308 336
#
# _framework density 20.670898999999999
#
# number of rings (size 3 to 8) (size 9 to 14) (size 15 to 20)
#    0.000    1.538    4.615    0.000    6.462    1.231 
#    0.000    0.000    0.000    0.000    0.000   21.538 
#    0.000    0.000    0.000    0.000    0.000    0.000 
#
# Total GULP energy -322172.537471 kJ/mol
# GULP energy per Si atom -12391.251441 kJ/mol
# Density = 2.062385 g / cm^3
# Si number density = 20.670899 Si / 1000 Ang^3
#
#
#
# Elastic Constant Matrix: (Units=GPa)
#
#
# Indices 1 2 3 4 5 6 
#
# 1 124.2288 20.4312 29.6671 0.0000 0.2940 0.0000
# 2 20.4312 81.6740 19.4061 0.0000 9.4361 0.0000
# 3 29.6671 19.4061 106.9388 0.0000 4.2999 0.0000
# 4 0.0000 0.0000 0.0000 21.9865 0.0000 -3.9283
# 5 0.2940 9.4361 4.2999 0.0000 29.0252 0.0000
# 6 0.0000 0.0000 0.0000 -3.9283 0.0000 9.7472
#
#
#
# Elastic Compliance Matrix: (Units=1/GPa)
#
#
# Indices 1 2 3 4 5 6 
#
# 1 0.008860 -0.001796 -0.002165 0.000000 0.000815 0.000000
# 2 -0.001796 0.013599 -0.001803 0.000000 -0.004136 0.000000
# 3 -0.002165 -0.001803 0.010316 0.000000 -0.000920 0.000000
# 4 0.000000 0.000000 0.000000 0.049012 0.000000 0.019752
# 5 0.000815 -0.004136 -0.000920 0.000000 0.035925 0.000000
# 6 0.000000 0.000000 0.000000 0.019752 0.000000 0.110554
#
#
# Mechanical properties :
#
#
# Convention : Reuss Voigt Hill
#
# Bulk Modulus (GPa) = 47.06560 50.20562 48.63561
# Shear Modulus (GPa) = 20.25297 28.37425 24.31361
#
# Velocity S-wave (km/s) = 3.13354 3.70897 3.43333
# Velocity P-wave (km/s) = 5.99254 6.53320 6.26870
#
# Compressibility (1/GPa) = 0.02124694
#
# Stress axis : x y z
#
# Youngs Moduli (GPa) = 112.86528 73.53259 96.93732
#
# Poissons Ratio (x) = 0.13208 0.20985
# Poissons Ratio (y) = 0.20273 0.17480
# Poissons Ratio (z) = 0.24433 0.13260
#
# Static dielectric constant tensor:
#      x y z
#    x 0.287870 0.000000 -0.605540 
#    y 0.000000 3.454270 0.000000 
#    z -0.605540 0.000000 4.020990 
# 
# 
# High freq. dielectric constant tensor:
#      x y z
#    x 1.816800 0.000000 -0.008770 
#    y 0.000000 1.764870 0.000000 
#    z -0.008770 0.000000 1.824040 
# 
# From -- ./inp_files/24459.got.cif
#   From: 2010.06.25/outbox.cif.g09.slc.cpg/sg13_13_cif.got.tgz:24459.got - 2010.06.28 04:50:58.
