data_PCOD8119045
_publ_section_title
;
Structure prediction by ZEFSAII (Michael W. Deem and Ramdas Pophale) SiO2 
 PCOD8119045
Probable space group: P 2/C
;
_chemical_formula_sum "Si O2"
_cell_formula_units_Z 28
_cell_length_a 9.750556
_cell_length_b 14.895974
_cell_length_c 22.053286
_cell_angle_alpha 90.000000
_cell_angle_beta 25.132983
_cell_angle_gamma 90.000000
_cell_volume 1360.426168
_symmetry_space_group_name_H-M "P 2/C"
_symmetry_group_IT_number 13
_symmetry_cell_setting 'monoclinic'
loop_
_space_group_symop_operation_xyz
x,y,z
-x,y,1/2-z
-x,-y,-z
x,-y,1/2+z
loop_
_atom_site_type_symbol
_atom_site_label
_atom_site_fract_x
_atom_site_fract_y
_atom_site_fract_z
Si Si1 0.656844 0.706197 0.250035
Si Si2 0.395405 0.396150 0.958590
Si Si3 0.683143 0.860880 0.909683
Si Si4 0.794740 0.437822 0.274797
Si Si5 0.738792 0.084000 0.705220
Si Si6 0.653730 0.682169 0.477429
Si Si7 0.631255 0.017741 0.534513
O O1 0.500000 0.668218 0.250000
O O2 0.406962 0.686464 0.405530
O O3 0.748336 0.809003 0.202941
O O4 0.992818 0.660198 0.137143
O O5 0.541681 0.481757 0.864183
O O6 0.599983 0.374869 0.937504
O O7 0.022975 0.416549 0.125660
O O8 0.000000 0.821397 0.750000
O O9 0.577509 0.953221 0.923104
O O10 0.401528 0.786530 0.017472
O O11 0.751619 0.891260 0.951827
O O12 0.600466 0.347149 0.369200
O O13 0.000000 0.469268 0.250000
O O14 0.500000 0.048294 0.750000
O O15 0.626454 0.048451 0.813953
O O16 0.080124 0.039633 0.551993
#
# Coordination Sequence:
#
# PCOD8119045 Si02
#       7
#     4   4   4   4   4   4   4
#     4  11  24  41  60  88 123 159 204 251 300 359
#     4  11  21  39  64  93 121 158 201 246 300 361
#     4  11  21  35  60  87 122 148 191 256 300 349
#     4  10  20  36  64  95 124 154 199 249 300 359
#     4  11  23  41  60  83 120 164 203 246 299 364
#     4  11  21  38  63  89 121 160 200 247 303 357
#     4  11  22  38  58  87 116 152 203 247 301 351
#
# _framework density 20.581785
#
# number of rings (size 3 to 8) (size 9 to 14) (size 15 to 20)
#    0.000    1.143    2.857    6.429    0.000    0.000 
#    0.000    3.571    0.000    0.000    0.000    0.000 
#    0.000    0.000    0.000    0.000    0.000    0.000 
#
# Total GULP energy -347063.122550 kJ/mol
# GULP energy per Si atom -12395.111520 kJ/mol
# Density = 2.053494 g / cm^3
# Si number density = 20.581785 Si / 1000 Ang^3
#
#
#
# Elastic Constant Matrix: (Units=GPa)
#
#
# Indices 1 2 3 4 5 6 
#
# 1 79.9959 24.8588 32.4033 0.0000 -9.1612 0.0000
# 2 24.8588 54.6380 17.6392 0.0000 4.1121 0.0000
# 3 32.4033 17.6392 105.0701 0.0000 1.9765 0.0000
# 4 0.0000 0.0000 0.0000 34.7795 0.0000 2.0548
# 5 -9.1612 4.1121 1.9765 0.0000 17.1851 0.0000
# 6 0.0000 0.0000 0.0000 2.0548 0.0000 25.2960
#
#
#
# Elastic Compliance Matrix: (Units=1/GPa)
#
#
# Indices 1 2 3 4 5 6 
#
# 1 0.018089 -0.007675 -0.004516 0.000000 0.011999 0.000000
# 2 -0.007675 0.022925 -0.001304 0.000000 -0.009427 0.000000
# 3 -0.004516 -0.001304 0.011193 0.000000 -0.003383 0.000000
# 4 0.000000 0.000000 0.000000 0.028891 0.000000 -0.002347
# 5 0.011999 -0.009427 -0.003383 0.000000 0.067231 0.000000
# 6 0.000000 0.000000 0.000000 -0.002347 0.000000 0.039723
#
#
# Mechanical properties :
#
#
# Convention : Reuss Voigt Hill
#
# Bulk Modulus (GPa) = 39.65736 43.27853 41.46795
# Shear Modulus (GPa) = 22.37663 26.43896 24.40780
#
# Velocity S-wave (km/s) = 3.30086 3.58799 3.44742
# Velocity P-wave (km/s) = 5.81701 6.18370 6.00315
#
# Compressibility (1/GPa) = 0.02521600
#
# Stress axis : x y z
#
# Youngs Moduli (GPa) = 55.28214 43.62081 89.34381
#
# Poissons Ratio (x) = 0.33480 0.40346
# Poissons Ratio (y) = 0.42430 0.11653
# Poissons Ratio (z) = 0.24964 0.05689
#
# Static dielectric constant tensor:
#      x y z
#    x 3.714070 0.000000 0.144540 
#    y 0.000000 3.696330 0.000000 
#    z 0.144540 0.000000 3.955280 
# 
# 
# High freq. dielectric constant tensor:
#      x y z
#    x 1.774310 0.000000 0.003180 
#    y 0.000000 1.811160 0.000000 
#    z 0.003180 0.000000 1.812380 
# 
# From -- ./inp_files/76692.got.cif
#   From: 2010.06.25/outbox.cif.g09.slc.cpg/sg13_39_cif.got.tgz:76692.got - 2010.06.28 04:50:58.
