data_PCOD8119772
_publ_section_title
;
Structure prediction by ZEFSAII (Michael W. Deem and Ramdas Pophale) SiO2 
 PCOD8119772
Probable space group: P 2/C
;
_chemical_formula_sum "Si O2"
_cell_formula_units_Z 32
_cell_length_a 8.974260
_cell_length_b 11.060097
_cell_length_c 31.157418
_cell_angle_alpha 90.000000
_cell_angle_beta 151.303174
_cell_angle_gamma 90.000000
_cell_volume 1484.972818
_symmetry_space_group_name_H-M "P 2/C"
_symmetry_group_IT_number 13
_symmetry_cell_setting 'monoclinic'
loop_
_space_group_symop_operation_xyz
x,y,z
-x,y,1/2-z
-x,-y,-z
x,-y,1/2+z
loop_
_atom_site_type_symbol
_atom_site_label
_atom_site_fract_x
_atom_site_fract_y
_atom_site_fract_z
Si Si1 0.348635 0.958153 0.586152
Si Si2 0.763865 0.675710 0.369816
Si Si3 0.539176 0.419519 0.211751
Si Si4 0.588787 0.924467 0.225801
Si Si5 0.708364 0.330132 0.566173
Si Si6 0.193799 0.862472 0.341468
Si Si7 0.244523 0.593336 0.884083
Si Si8 0.693707 0.318953 0.430371
O O1 0.382592 0.820890 0.579938
O O2 0.478667 0.969866 0.666732
O O3 0.538014 0.042513 0.601284
O O4 0.000000 0.000000 0.500000
O O5 0.529682 0.563273 0.305604
O O6 0.558168 0.795014 0.324436
O O7 0.975848 0.695910 0.381035
O O8 0.971200 0.651599 0.464481
O O9 0.500000 0.369042 0.250000
O O10 0.302435 0.352772 0.119171
O O11 0.884226 0.381904 0.284327
O O12 0.500000 0.968195 0.250000
O O13 0.959514 0.921259 0.316369
O O14 0.658292 0.249960 0.596000
O O15 0.725502 0.464036 0.587444
O O16 0.410762 0.313515 0.459503
O O17 0.000000 0.822344 0.250000
O O18 0.426478 0.600461 0.885052
#
# Coordination Sequence:
#
# PCOD8119772 Si02
#       8
#     4   4   4   4   4   4   4   4
#     4  11  25  48  64  94 137 178 236 284 329 407
#     4  11  21  43  72 100 139 171 226 289 333 410
#     4  12  24  41  67 103 139 176 219 274 341 417
#     4  11  21  40  74 103 131 176 229 285 345 381
#     4  10  20  42  66 101 139 171 225 279 340 410
#     4  10  23  39  69 104 132 178 233 284 332 399
#     4  10  23  40  65  98 139 178 214 275 344 410
#     4  11  26  45  69  93 136 187 223 274 348 405
#
# _framework density 21.549216000000001
#
# number of rings (size 3 to 8) (size 9 to 14) (size 15 to 20)
#    0.000    1.250    3.750    1.875    0.000    7.500 
#    0.000    5.625    0.000    0.000    0.000    0.000 
#    0.000    0.000    0.000    0.000    0.000    0.000 
#
# Total GULP energy -396773.163515 kJ/mol
# GULP energy per Si atom -12399.161360 kJ/mol
# Density = 2.150017 g / cm^3
# Si number density = 21.549216 Si / 1000 Ang^3
#
#
#
# Elastic Constant Matrix: (Units=GPa)
#
#
# Indices 1 2 3 4 5 6 
#
# 1 104.9815 1.5193 35.5585 0.0000 0.0798 0.0000
# 2 1.5193 23.3718 5.9629 0.0000 2.7176 0.0000
# 3 35.5585 5.9629 95.7775 0.0000 5.1219 0.0000
# 4 0.0000 0.0000 0.0000 20.1453 0.0000 5.9959
# 5 0.0798 2.7176 5.1219 0.0000 45.2027 0.0000
# 6 0.0000 0.0000 0.0000 5.9959 0.0000 29.6837
#
#
#
# Elastic Compliance Matrix: (Units=1/GPa)
#
#
# Indices 1 2 3 4 5 6 
#
# 1 0.010906 0.000285 -0.004090 0.000000 0.000427 0.000000
# 2 0.000285 0.043728 -0.002704 0.000000 -0.002323 0.000000
# 3 -0.004090 -0.002704 0.012192 0.000000 -0.001212 0.000000
# 4 0.000000 0.000000 0.000000 0.052815 0.000000 -0.010668
# 5 0.000427 -0.002323 -0.001212 0.000000 0.022399 0.000000
# 6 0.000000 0.000000 0.000000 -0.010668 0.000000 0.035844
#
#
# Mechanical properties :
#
#
# Convention : Reuss Voigt Hill
#
# Bulk Modulus (GPa) = 18.58424 34.46803 26.52613
# Shear Modulus (GPa) = 23.94206 31.07900 27.51053
#
# Velocity S-wave (km/s) = 3.33684 3.80179 3.57688
# Velocity P-wave (km/s) = 4.84653 5.94149 5.42172
#
# Compressibility (1/GPa) = 0.05380904
#
# Stress axis : x y z
#
# Youngs Moduli (GPa) = 91.69048 22.86863 82.01873
#
# Poissons Ratio (x) = -0.00651 0.33543
# Poissons Ratio (y) = -0.02611 0.22177
# Poissons Ratio (z) = 0.37498 0.06183
#
# Static dielectric constant tensor:
#      x y z
#    x 3.940640 0.000000 0.037730 
#    y 0.000000 3.472010 0.000000 
#    z 0.037730 0.000000 4.284440 
# 
# 
# High freq. dielectric constant tensor:
#      x y z
#    x 1.851420 0.000000 -0.005390 
#    y 0.000000 1.824480 0.000000 
#    z -0.005390 0.000000 1.861560 
# 
# From -- ./inp_files/96165.got.cif
#   From: 2010.06.25/outbox.cif.g09.slc.cpg/sg13_49_cif.got.tgz:96165.got - 2010.06.28 04:50:58.
