data_PCOD8119189
_publ_section_title
;
Structure prediction by ZEFSAII (Michael W. Deem and Ramdas Pophale) SiO2 
 PCOD8119189
Probable space group: P 2/C
;
_chemical_formula_sum "Si O2"
_cell_formula_units_Z 20
_cell_length_a 20.913486
_cell_length_b 7.569356
_cell_length_c 9.214406
_cell_angle_alpha 90.000000
_cell_angle_beta 40.503527
_cell_angle_gamma 90.000000
_cell_volume 947.389182
_symmetry_space_group_name_H-M "P 2/C"
_symmetry_group_IT_number 13
_symmetry_cell_setting 'monoclinic'
loop_
_space_group_symop_operation_xyz
x,y,z
-x,y,1/2-z
-x,-y,-z
x,-y,1/2+z
loop_
_atom_site_type_symbol
_atom_site_label
_atom_site_fract_x
_atom_site_fract_y
_atom_site_fract_z
Si Si1 0.928257 0.448109 0.997886
Si Si2 0.594576 0.713905 0.160119
Si Si3 0.803646 0.794740 0.151262
Si Si4 0.198392 0.129737 0.170920
Si Si5 0.406913 0.351283 0.499682
O O1 0.863445 0.615730 0.065749
O O2 0.855770 0.290291 0.158865
O O3 0.000000 0.380338 0.750000
O O4 0.000000 0.500000 0.000000
O O5 0.500000 0.811587 0.250000
O O6 0.572788 0.647423 0.361958
O O7 0.685338 0.847956 0.000138
O O8 0.615493 0.547575 0.019331
O O9 0.687770 0.765879 0.372469
O O10 0.838439 0.941773 0.205769
O O11 0.827135 0.871974 0.953363
O O12 0.500000 0.272364 0.250000
#
# Coordination Sequence:
#
# PCOD8119189 Si02
#       5
#     4   4   4   4   4
#     4  12  26  48  71  95 130 172 220 274 336 391
#     4  10  20  37  63  96 131 173 216 259 320 384
#     4  11  26  44  68 101 133 172 221 266 330 390
#     4  11  26  44  68 100 134 173 217 272 325 392
#     4  10  20  37  63  96 132 172 215 261 318 387
#
# _framework density 21.110651000000001
#
# number of rings (size 3 to 8) (size 9 to 14) (size 15 to 20)
#    0.000    1.200    4.000    2.400    2.800    5.600 
#    0.000    4.000    0.000    0.000    0.000    0.000 
#    0.000    0.000    0.000    0.000    0.000    0.000 
#
# Total GULP energy -247977.912652 kJ/mol
# GULP energy per Si atom -12398.895633 kJ/mol
# Density = 2.106260 g / cm^3
# Si number density = 21.110651 Si / 1000 Ang^3
#
#
#
# Elastic Constant Matrix: (Units=GPa)
#
#
# Indices 1 2 3 4 5 6 
#
# 1 74.9734 -8.5668 22.9004 0.0000 3.4650 0.0000
# 2 -8.5668 57.9529 22.3590 0.0000 -5.2005 0.0000
# 3 22.9004 22.3590 112.7683 0.0000 6.6539 0.0000
# 4 0.0000 0.0000 0.0000 12.9154 0.0000 16.2333
# 5 3.4650 -5.2005 6.6539 0.0000 31.0750 0.0000
# 6 0.0000 0.0000 0.0000 16.2333 0.0000 13.8331
#
#
#
# Elastic Compliance Matrix: (Units=1/GPa)
#
#
# Indices 1 2 3 4 5 6 
#
# 1 0.014902 0.003618 -0.003728 0.000000 -0.000258 0.000000
# 2 0.003618 0.020060 -0.004949 0.000000 0.004013 0.000000
# 3 -0.003728 -0.004949 0.010767 0.000000 -0.002718 0.000000
# 4 0.000000 0.000000 0.000000 -0.163011 0.000000 0.191295
# 5 -0.000258 0.004013 -0.002718 0.000000 0.033463 0.000000
# 6 0.000000 0.000000 0.000000 0.191295 0.000000 -0.152197
#
#
# Mechanical properties :
#
#
# Convention : Reuss Voigt Hill
#
# Bulk Modulus (GPa) = 28.08174 35.45328 31.76751
# Shear Modulus (GPa) = -23.36140 25.49816 1.06838
#
# Velocity S-wave (km/s) = -3.33019 3.47916 0.71217
# Velocity P-wave (km/s) = 1.20660 5.74194 3.96951
#
# Compressibility (1/GPa) = 0.03561033
#
# Stress axis : x y z
#
# Youngs Moduli (GPa) = 67.10391 49.85106 92.88067
#
# Poissons Ratio (x) = -0.18037 0.34630
# Poissons Ratio (y) = -0.24280 0.45966
# Poissons Ratio (z) = 0.25019 0.24671
#
# Static dielectric constant tensor:
#      x y z
#    x 4.027920 0.000000 -0.045670 
#    y 0.000000 3.602820 0.000000 
#    z -0.045670 0.000000 4.058930 
# 
# 
# High freq. dielectric constant tensor:
#      x y z
#    x 1.842200 0.000000 0.000400 
#    y 0.000000 1.814190 0.000000 
#    z 0.000400 0.000000 1.842640 
# 
# From -- ./inp_files/22659.got.cif
#   From: 2010.06.25/outbox.cif.g09.slc.cpg/sg13_12_cif.got.tgz:22659.got - 2010.06.28 04:50:58.
