data_PCOD8119863
_publ_section_title
;
Structure prediction by ZEFSAII (Michael W. Deem and Ramdas Pophale) SiO2 
 PCOD8119863
Probable space group: P 2/C
;
_chemical_formula_sum "Si O2"
_cell_formula_units_Z 22
_cell_length_a 11.108957
_cell_length_b 12.076910
_cell_length_c 9.081741
_cell_angle_alpha 90.000000
_cell_angle_beta 69.382150
_cell_angle_gamma 90.000000
_cell_volume 1140.383223
_symmetry_space_group_name_H-M "P 2/C"
_symmetry_group_IT_number 13
_symmetry_cell_setting 'monoclinic'
loop_
_space_group_symop_operation_xyz
x,y,z
-x,y,1/2-z
-x,-y,-z
x,-y,1/2+z
loop_
_atom_site_type_symbol
_atom_site_label
_atom_site_fract_x
_atom_site_fract_y
_atom_site_fract_z
Si Si1 0.327124 0.926472 0.077940
Si Si2 0.154853 0.362455 0.187880
Si Si3 0.879814 0.220060 0.705047
Si Si4 0.138971 0.456716 0.901051
Si Si5 0.866792 0.127547 0.381879
Si Si6 0.500000 0.973673 0.750000
O O1 0.246591 0.818869 0.154166
O O2 0.236115 0.031151 0.084472
O O3 0.419732 0.948127 0.175688
O O4 0.406910 0.899786 0.894050
O O5 0.211581 0.438327 0.294807
O O6 0.192328 0.233113 0.182603
O O7 0.000000 0.368373 0.250000
O O8 0.213712 0.415903 0.013670
O O9 0.873240 0.352812 0.703763
O O10 0.892821 0.163625 0.539002
O O11 0.000000 0.181158 0.750000
O O12 0.000000 0.500000 0.000000
O O13 0.000000 0.087860 0.250000
#
# Coordination Sequence:
#
# PCOD8119863 Si02
#       6
#     4   4   4   4   4   2
#     4  11  22  41  58  81 106 147 194 236 286 324
#     4   8  15  28  45  71 108 146 173 205 258 331
#     4  11  22  33  55  88 120 146 179 226 286 347
#     4   9  16  30  48  75 116 148 176 204 261 345
#     4  10  21  34  53  83 119 146 174 225 291 345
#     4  10  24  42  60  72 106 150 206 242 266 334
#
# _framework density 19.29176
#
# number of rings (size 3 to 8) (size 9 to 14) (size 15 to 20)
#    0.000    2.182    1.818    3.273    2.545    1.455 
#    0.000    0.000    0.000    0.000    0.000    7.636 
#    0.000    0.000    0.000    0.000    0.000    0.000 
#
# Total GULP energy -272622.602602 kJ/mol
# GULP energy per Si atom -12391.936482 kJ/mol
# Density = 1.924785 g / cm^3
# Si number density = 19.291760 Si / 1000 Ang^3
#
#
#
# Elastic Constant Matrix: (Units=GPa)
#
#
# Indices 1 2 3 4 5 6 
#
# 1 55.5874 26.8440 37.6554 0.0000 -6.4644 0.0000
# 2 26.8440 109.7391 46.8375 0.0000 -9.9309 0.0000
# 3 37.6554 46.8375 131.3642 0.0000 -16.0151 0.0000
# 4 0.0000 0.0000 0.0000 28.6995 0.0000 -0.2421
# 5 -6.4644 -9.9309 -16.0151 0.0000 28.3076 0.0000
# 6 0.0000 0.0000 0.0000 -0.2421 0.0000 0.7368
#
#
#
# Elastic Compliance Matrix: (Units=1/GPa)
#
#
# Indices 1 2 3 4 5 6 
#
# 1 0.023366 -0.003319 -0.005377 0.000000 0.001130 0.000000
# 2 -0.003319 0.011298 -0.002885 0.000000 0.001573 0.000000
# 3 -0.005377 -0.002885 0.010643 0.000000 0.003781 0.000000
# 4 0.000000 0.000000 0.000000 0.034941 0.000000 0.011481
# 5 0.001130 0.001573 0.003781 0.000000 0.038276 0.000000
# 6 0.000000 0.000000 0.000000 0.011481 0.000000 1.361063
#
#
# Mechanical properties :
#
#
# Convention : Reuss Voigt Hill
#
# Bulk Modulus (GPa) = 45.15444 57.70715 51.43080
# Shear Modulus (GPa) = 3.31097 23.90569 13.60833
#
# Velocity S-wave (km/s) = 1.31148 3.52400 2.65881
# Velocity P-wave (km/s) = 5.07447 6.82172 6.01191
#
# Compressibility (1/GPa) = 0.02214622
#
# Stress axis : x y z
#
# Youngs Moduli (GPa) = 42.79718 88.51029 93.95465
#
# Poissons Ratio (x) = 0.29373 0.50518
# Poissons Ratio (y) = 0.14203 0.27108
# Poissons Ratio (z) = 0.23012 0.25537
#
# Static dielectric constant tensor:
#      x y z
#    x 3.153680 0.000000 0.091580 
#    y 0.000000 3.783420 0.000000 
#    z 0.091580 0.000000 4.214170 
# 
# 
# High freq. dielectric constant tensor:
#      x y z
#    x 1.693800 0.000000 0.013510 
#    y 0.000000 1.749480 0.000000 
#    z 0.013510 0.000000 1.773080 
# 
# From -- ./inp_files/15778.got.cif
#   From: 2010.06.25/outbox.cif.g09.slc.cpg/sg13_8_cif.got.tgz:15778.got - 2010.06.28 04:50:58.
