data_PCOD8119009
_publ_section_title
;
Structure prediction by ZEFSAII (Michael W. Deem and Ramdas Pophale) SiO2 
 PCOD8119009
Probable space group: P 2/C
;
_chemical_formula_sum "Si O2"
_cell_formula_units_Z 22
_cell_length_a 10.941572
_cell_length_b 11.441908
_cell_length_c 13.009016
_cell_angle_alpha 90.000000
_cell_angle_beta 137.819037
_cell_angle_gamma 90.000000
_cell_volume 1093.583856
_symmetry_space_group_name_H-M "P 2/C"
_symmetry_group_IT_number 13
_symmetry_cell_setting 'monoclinic'
loop_
_space_group_symop_operation_xyz
x,y,z
-x,y,1/2-z
-x,-y,-z
x,-y,1/2+z
loop_
_atom_site_type_symbol
_atom_site_label
_atom_site_fract_x
_atom_site_fract_y
_atom_site_fract_z
Si Si1 0.000000 0.708046 0.750000
Si Si2 0.764872 0.442062 0.970040
Si Si3 0.200829 0.677392 0.413771
Si Si4 0.353340 0.142453 0.457868
Si Si5 0.582317 0.649390 0.154332
Si Si6 0.587952 0.093295 0.413264
O O1 0.945269 0.624817 0.620656
O O2 0.830090 0.786430 0.675639
O O3 0.598617 0.428153 0.946938
O O4 0.719968 0.387538 0.830996
O O5 0.801948 0.581569 0.995492
O O6 0.321695 0.628792 0.394656
O O7 0.275896 0.797644 0.506068
O O8 0.000000 0.703688 0.250000
O O9 0.510365 0.216048 0.616699
O O10 0.423442 0.111876 0.388974
O O11 0.304716 0.025152 0.490069
O O12 0.500000 0.073136 0.250000
#
# Coordination Sequence:
#
# PCOD8119009 Si02
#       6
#     2   4   4   4   4   4
#     4  10  20  36  62  88 114 146 198 246 270 340
#     4  10  20  38  59  86 112 155 194 232 282 337
#     4  11  23  39  54  89 124 146 192 237 289 342
#     4   9  21  42  61  87 113 148 202 235 283 344
#     4   9  21  38  63  80 115 158 191 233 283 343
#     4  10  23  40  62  83 117 157 187 239 291 345
#
# _framework density 20.117342000000001
#
# number of rings (size 3 to 8) (size 9 to 14) (size 15 to 20)
#    0.000    2.182    0.909    0.545    8.909    2.182 
#    0.000    0.909    0.000    0.000    0.000    0.000 
#    0.000    0.000    0.000    0.000    0.000    0.000 
#
# Total GULP energy -272698.374148 kJ/mol
# GULP energy per Si atom -12395.380643 kJ/mol
# Density = 2.007155 g / cm^3
# Si number density = 20.117342 Si / 1000 Ang^3
#
#
#
# Elastic Constant Matrix: (Units=GPa)
#
#
# Indices 1 2 3 4 5 6 
#
# 1 37.2699 23.5138 29.0270 0.0000 -0.6614 0.0000
# 2 23.5138 160.4011 71.6418 0.0000 -2.6930 0.0000
# 3 29.0270 71.6418 130.2999 0.0000 -1.1777 0.0000
# 4 0.0000 0.0000 0.0000 -14.2970 0.0000 0.1956
# 5 -0.6614 -2.6930 -1.1777 0.0000 25.3745 0.0000
# 6 0.0000 0.0000 0.0000 0.1956 0.0000 22.9643
#
#
#
# Elastic Compliance Matrix: (Units=1/GPa)
#
#
# Indices 1 2 3 4 5 6 
#
# 1 0.032972 -0.002052 -0.006214 0.000000 0.000353 0.000000
# 2 -0.002052 0.008403 -0.004157 0.000000 0.000645 0.000000
# 3 -0.006214 -0.004157 0.011344 0.000000 -0.000077 0.000000
# 4 0.000000 0.000000 0.000000 -0.069937 0.000000 0.000596
# 5 0.000353 0.000645 -0.000077 0.000000 0.039484 0.000000
# 6 0.000000 0.000000 0.000000 0.000596 0.000000 0.043541
#
#
# Mechanical properties :
#
#
# Convention : Reuss Voigt Hill
#
# Bulk Modulus (GPa) = 35.87768 64.03734 49.95751
# Shear Modulus (GPa) = 50.02878 20.39425 35.21152
#
# Velocity S-wave (km/s) = 4.99224 3.18742 4.18821
# Velocity P-wave (km/s) = 7.14863 6.74146 6.94803
#
# Compressibility (1/GPa) = 0.02787248
#
# Stress axis : x y z
#
# Youngs Moduli (GPa) = 30.32910 119.00882 88.15463
#
# Poissons Ratio (x) = 0.24424 0.54775
# Poissons Ratio (y) = 0.06224 0.36646
# Poissons Ratio (z) = 0.18845 0.49472
#
# Static dielectric constant tensor:
#      x y z
#    x 3.519350 0.000000 0.106520 
#    y 0.000000 3.930890 0.000000 
#    z 0.106520 0.000000 3.562510 
# 
# 
# High freq. dielectric constant tensor:
#      x y z
#    x 1.769650 0.000000 0.004990 
#    y 0.000000 1.800010 0.000000 
#    z 0.004990 0.000000 1.782800 
# 
# From -- ./inp_files/34066.got.cif
#   From: 2010.06.25/outbox.cif.g09.slc.cpg/sg13_18_cif.got.tgz:34066.got - 2010.06.28 04:50:58.
