data_PCOD8119779
_publ_section_title
;
Structure prediction by ZEFSAII (Michael W. Deem and Ramdas Pophale) SiO2 
 PCOD8119779
Probable space group: P 2/C
;
_chemical_formula_sum "Si O2"
_cell_formula_units_Z 20
_cell_length_a 14.045341
_cell_length_b 9.332703
_cell_length_c 22.172464
_cell_angle_alpha 90.000000
_cell_angle_beta 161.437703
_cell_angle_gamma 90.000000
_cell_volume 925.206891
_symmetry_space_group_name_H-M "P 2/C"
_symmetry_group_IT_number 13
_symmetry_cell_setting 'monoclinic'
loop_
_space_group_symop_operation_xyz
x,y,z
-x,y,1/2-z
-x,-y,-z
x,-y,1/2+z
loop_
_atom_site_type_symbol
_atom_site_label
_atom_site_fract_x
_atom_site_fract_y
_atom_site_fract_z
Si Si1 0.125789 0.345760 0.182435
Si Si2 0.618365 0.438652 0.386626
Si Si3 0.853348 0.070317 0.969199
Si Si4 0.445612 0.846942 0.496185
Si Si5 0.098398 0.838519 0.406086
O O1 0.361364 0.437650 0.283623
O O2 0.279187 0.264481 0.331885
O O3 0.873611 0.448426 0.059332
O O4 0.966990 0.232044 0.043015
O O5 0.500000 0.483553 0.250000
O O6 0.767577 0.282272 0.469723
O O7 0.500000 0.066360 0.750000
O O8 0.964963 0.982240 0.094601
O O9 0.000000 0.000000 0.000000
O O10 0.338557 0.878341 0.499594
O O11 0.197081 0.774920 0.303782
O O12 0.500000 0.000000 0.500000
#
# Coordination Sequence:
#
# PCOD8119779 Si02
#       5
#     4   4   4   4   4
#     4  11  24  42  66  96 134 180 223 272 337 397
#     4  11  23  43  63  96 138 176 218 275 334 405
#     4  12  24  41  68 102 133 174 230 280 337 401
#     4  10  20  42  66  94 130 172 231 281 329 395
#     4  10  22  39  67  94 133 175 220 284 338 390
#
# _framework density 21.616788
#
# number of rings (size 3 to 8) (size 9 to 14) (size 15 to 20)
#    0.000    1.200    2.000    5.400    0.000    2.400 
#    0.000    0.000    0.000    0.000    0.000    0.000 
#    0.000    0.000    0.000    0.000    0.000    0.000 
#
# Total GULP energy -248015.291122 kJ/mol
# GULP energy per Si atom -12400.764556 kJ/mol
# Density = 2.156759 g / cm^3
# Si number density = 21.616788 Si / 1000 Ang^3
#
#
#
# Elastic Constant Matrix: (Units=GPa)
#
#
# Indices 1 2 3 4 5 6 
#
# 1 80.1833 47.9533 59.7766 0.0000 3.0842 0.0000
# 2 47.9533 112.6617 59.1953 0.0000 14.8349 0.0000
# 3 59.7766 59.1953 137.1395 0.0000 9.5155 0.0000
# 4 0.0000 0.0000 0.0000 47.1793 0.0000 4.8480
# 5 3.0842 14.8349 9.5155 0.0000 34.4598 0.0000
# 6 0.0000 0.0000 0.0000 4.8480 0.0000 32.1067
#
#
#
# Elastic Compliance Matrix: (Units=1/GPa)
#
#
# Indices 1 2 3 4 5 6 
#
# 1 0.020811 -0.005591 -0.006826 0.000000 0.002429 0.000000
# 2 -0.005591 0.013449 -0.003060 0.000000 -0.004444 0.000000
# 3 -0.006826 -0.003060 0.011678 0.000000 -0.001297 0.000000
# 4 0.000000 0.000000 0.000000 0.021530 0.000000 -0.003251
# 5 0.002429 -0.004444 -0.001297 0.000000 0.031073 0.000000
# 6 0.000000 0.000000 0.000000 -0.003251 0.000000 0.031637
#
#
# Mechanical properties :
#
#
# Convention : Reuss Voigt Hill
#
# Bulk Modulus (GPa) = 66.74016 73.75944 70.24980
# Shear Modulus (GPa) = 30.09773 33.61977 31.85875
#
# Velocity S-wave (km/s) = 3.73544 3.94796 3.84317
# Velocity P-wave (km/s) = 7.03889 7.41467 7.22922
#
# Compressibility (1/GPa) = 0.01498348
#
# Stress axis : x y z
#
# Youngs Moduli (GPa) = 48.05246 74.35641 85.63195
#
# Poissons Ratio (x) = 0.41573 0.58454
# Poissons Ratio (y) = 0.26866 0.26200
# Poissons Ratio (z) = 0.32801 0.22750
#
# Static dielectric constant tensor:
#      x y z
#    x 3.723870 0.000000 -0.070160 
#    y 0.000000 3.973400 0.000000 
#    z -0.070160 0.000000 4.441500 
# 
# 
# High freq. dielectric constant tensor:
#      x y z
#    x 1.833270 0.000000 -0.003050 
#    y 0.000000 1.844970 0.000000 
#    z -0.003050 0.000000 1.874460 
# 
# From -- ./inp_files/38665.got.cif
#   From: 2010.06.25/outbox.cif.g09.slc.cpg/sg13_20_cif.got.tgz:38665.got - 2010.06.28 04:50:58.
