data_PCOD8119733
_publ_section_title
;
Structure prediction by ZEFSAII (Michael W. Deem and Ramdas Pophale) SiO2 
 PCOD8119733
Probable space group: P 2/C
;
_chemical_formula_sum "Si O2"
_cell_formula_units_Z 26
_cell_length_a 24.381766
_cell_length_b 8.793735
_cell_length_c 18.658975
_cell_angle_alpha 90.000000
_cell_angle_beta 161.090708
_cell_angle_gamma 90.000000
_cell_volume 1296.481365
_symmetry_space_group_name_H-M "P 2/C"
_symmetry_group_IT_number 13
_symmetry_cell_setting 'monoclinic'
loop_
_space_group_symop_operation_xyz
x,y,z
-x,y,1/2-z
-x,-y,-z
x,-y,1/2+z
loop_
_atom_site_type_symbol
_atom_site_label
_atom_site_fract_x
_atom_site_fract_y
_atom_site_fract_z
Si Si1 0.372453 0.557606 0.487903
Si Si2 0.117772 0.816584 0.167513
Si Si3 0.000000 0.112813 0.750000
Si Si4 0.763317 0.619985 0.952189
Si Si5 0.033863 0.082293 0.157215
Si Si6 0.164433 0.599338 0.837471
Si Si7 0.133142 0.414501 0.082347
O O1 0.276439 0.714480 0.383303
O O2 0.564657 0.604932 0.716554
O O3 0.341729 0.448499 0.518928
O O4 0.300578 0.471742 0.329448
O O5 0.146697 0.971750 0.247306
O O6 0.113664 0.851581 0.077006
O O7 0.939677 0.740011 0.972728
O O8 0.838880 0.218459 0.573181
O O9 0.046596 0.006163 0.874959
O O10 0.812049 0.612218 0.930433
O O11 0.852353 0.483919 0.106593
O O12 0.151490 0.219790 0.332045
O O13 0.014895 0.542725 0.598208
#
# Coordination Sequence:
#
# PCOD8119733 Si02
#       7
#     4   4   2   4   4   4   4
#     4  11  22  40  65  94 119 165 212 266 301 359
#     4  10  20  41  67  88 123 164 217 243 309 381
#     4  12  24  40  60  94 128 174 204 246 332 380
#     4  12  24  41  62  92 130 160 212 262 311 365
#     4  11  22  37  68  90 121 169 204 251 307 387
#     4  11  21  39  65  91 120 159 211 254 310 370
#     4  11  19  41  65  92 117 164 214 253 302 371
#
# _framework density 20.054279999999999
#
# number of rings (size 3 to 8) (size 9 to 14) (size 15 to 20)
#    0.000    0.923    6.154    2.769    2.154    0.000 
#    0.000    3.846    0.000    0.000    0.000    0.000 
#    0.000    0.000    0.000    0.000    0.000    0.000 
#
# Total GULP energy -322354.942592 kJ/mol
# GULP energy per Si atom -12398.267023 kJ/mol
# Density = 2.000864 g / cm^3
# Si number density = 20.054280 Si / 1000 Ang^3
#
#
#
# Elastic Constant Matrix: (Units=GPa)
#
#
# Indices 1 2 3 4 5 6 
#
# 1 104.2644 47.0078 31.3227 0.0000 -8.5559 0.0000
# 2 47.0078 147.8605 45.0055 0.0000 -1.6676 0.0000
# 3 31.3227 45.0055 92.8261 0.0000 16.2508 0.0000
# 4 0.0000 0.0000 0.0000 8.8836 0.0000 -8.3596
# 5 -8.5559 -1.6676 16.2508 0.0000 34.6982 0.0000
# 6 0.0000 0.0000 0.0000 -8.3596 0.0000 41.8176
#
#
#
# Elastic Compliance Matrix: (Units=1/GPa)
#
#
# Indices 1 2 3 4 5 6 
#
# 1 0.012298 -0.002757 -0.003617 0.000000 0.004594 0.000000
# 2 -0.002757 0.008736 -0.003551 0.000000 0.001403 0.000000
# 3 -0.003617 -0.003551 0.015143 0.000000 -0.008155 0.000000
# 4 0.000000 0.000000 0.000000 0.138648 0.000000 0.027717
# 5 0.004594 0.001403 -0.008155 0.000000 0.033839 0.000000
# 6 0.000000 0.000000 0.000000 0.027717 0.000000 0.029454
#
#
# Mechanical properties :
#
#
# Convention : Reuss Voigt Hill
#
# Bulk Modulus (GPa) = 61.25109 65.73590 63.49349
# Shear Modulus (GPa) = 18.98175 31.85421 25.41798
#
# Velocity S-wave (km/s) = 3.07989 3.98980 3.56400
# Velocity P-wave (km/s) = 6.57698 7.35356 6.97608
#
# Compressibility (1/GPa) = 0.01632624
#
# Stress axis : x y z
#
# Youngs Moduli (GPa) = 81.31679 114.46522 66.03824
#
# Poissons Ratio (x) = 0.31556 0.23888
# Poissons Ratio (y) = 0.22418 0.23451
# Poissons Ratio (z) = 0.29415 0.40648
#
# Static dielectric constant tensor:
#      x y z
#    x 3.739510 0.000000 -0.181950 
#    y 0.000000 3.834960 0.000000 
#    z -0.181950 0.000000 3.540720 
# 
# 
# High freq. dielectric constant tensor:
#      x y z
#    x 1.796260 0.000000 -0.025850 
#    y 0.000000 1.788500 0.000000 
#    z -0.025850 0.000000 1.752500 
# 
# From -- ./inp_files/71341.got.cif
#   From: 2010.06.25/outbox.cif.g09.slc.cpg/sg13_36_cif.got.tgz:71341.got - 2010.06.28 04:50:58.
