data_PCOD8119699
_publ_section_title
;
Structure prediction by ZEFSAII (Michael W. Deem and Ramdas Pophale) SiO2 
 PCOD8119699
Probable space group: P 2/C
;
_chemical_formula_sum "Si O2"
_cell_formula_units_Z 16
_cell_length_a 8.604867
_cell_length_b 9.182436
_cell_length_c 11.133648
_cell_angle_alpha 90.000000
_cell_angle_beta 101.406671
_cell_angle_gamma 90.000000
_cell_volume 862.334164
_symmetry_space_group_name_H-M "P 2/C"
_symmetry_group_IT_number 13
_symmetry_cell_setting 'monoclinic'
loop_
_space_group_symop_operation_xyz
x,y,z
-x,y,1/2-z
-x,-y,-z
x,-y,1/2+z
loop_
_atom_site_type_symbol
_atom_site_label
_atom_site_fract_x
_atom_site_fract_y
_atom_site_fract_z
Si Si1 0.500000 0.935907 0.250000
Si Si2 0.314145 0.602887 0.860998
Si Si3 0.000000 0.276715 0.250000
Si Si4 0.581902 0.706589 0.066951
Si Si5 0.281223 0.808726 0.651657
O O1 0.573011 0.840033 0.155847
O O2 0.639912 0.033474 0.326047
O O3 0.351275 0.432593 0.851517
O O4 0.370215 0.691291 0.751247
O O5 0.123661 0.624156 0.845751
O O6 0.407040 0.670353 0.988962
O O7 0.097333 0.179078 0.167585
O O8 0.705581 0.749741 0.981524
#
# Coordination Sequence:
#
# PCOD8119699 Si02
#       5
#     2   4   2   4   4
#     4  12  24  36  60  94 118 160 198 240 302 356
#     4   9  21  39  63  87 116 156 205 245 296 338
#     4   8  20  40  64  84 122 156 194 246 304 348
#     4  11  22  36  65  87 120 155 207 246 284 354
#     4  10  20  41  58  85 124 152 195 246 296 348
#
# _framework density 18.554290999999999
#
# number of rings (size 3 to 8) (size 9 to 14) (size 15 to 20)
#    1.500    0.500    2.500    0.750    7.000    1.000 
#    0.000    6.250    0.000    0.000    0.000    0.000 
#    0.000    0.000    0.000    0.000    0.000    0.000 
#
# Total GULP energy -198268.046028 kJ/mol
# GULP energy per Si atom -12391.752877 kJ/mol
# Density = 1.851206 g / cm^3
# Si number density = 18.554291 Si / 1000 Ang^3
#
#
#
# Elastic Constant Matrix: (Units=GPa)
#
#
# Indices 1 2 3 4 5 6 
#
# 1 109.6010 21.7115 10.1793 0.0000 -10.5020 0.0000
# 2 21.7115 116.5630 36.2290 0.0000 -18.8906 0.0000
# 3 10.1793 36.2290 67.9206 0.0000 -18.7511 0.0000
# 4 0.0000 0.0000 0.0000 22.0664 0.0000 -10.1741
# 5 -10.5020 -18.8906 -18.7511 0.0000 20.1457 0.0000
# 6 0.0000 0.0000 0.0000 -10.1741 0.0000 20.4364
#
#
#
# Elastic Compliance Matrix: (Units=1/GPa)
#
#
# Indices 1 2 3 4 5 6 
#
# 1 0.009744 -0.001241 0.000381 0.000000 0.004270 0.000000
# 2 -0.001241 0.011032 -0.004066 0.000000 0.005913 0.000000
# 3 0.000381 -0.004066 0.021314 0.000000 0.016224 0.000000
# 4 0.000000 0.000000 0.000000 0.058819 0.000000 0.029282
# 5 0.004270 0.005913 0.016224 0.000000 0.072510 0.000000
# 6 0.000000 0.000000 0.000000 0.029282 0.000000 0.063510
#
#
# Mechanical properties :
#
#
# Convention : Reuss Voigt Hill
#
# Bulk Modulus (GPa) = 31.02090 47.81380 39.41735
# Shear Modulus (GPa) = 19.41536 27.59403 23.50470
#
# Velocity S-wave (km/s) = 3.23833 3.86061 3.56308
# Velocity P-wave (km/s) = 5.54416 6.76003 6.18206
#
# Compressibility (1/GPa) = 0.03223633
#
# Stress axis : x y z
#
# Youngs Moduli (GPa) = 102.63080 90.64227 46.91760
#
# Poissons Ratio (x) = 0.11251 -0.01785
# Poissons Ratio (y) = 0.12739 0.19077
# Poissons Ratio (z) = -0.03905 0.36857
#
# Static dielectric constant tensor:
#      x y z
#    x 3.324170 0.000000 -0.001990 
#    y 0.000000 3.357630 0.000000 
#    z -0.001990 0.000000 3.228890 
# 
# 
# High freq. dielectric constant tensor:
#      x y z
#    x 1.714060 0.000000 -0.008810 
#    y 0.000000 1.716970 0.000000 
#    z -0.008810 0.000000 1.709200 
# 
# From -- ./inp_files/14456.got.cif
#   From: 2010.06.25/outbox.cif.g09.slc.cpg/sg13_8_cif.got.tgz:14456.got - 2010.06.28 04:50:58.
