data_PCOD8119827
_publ_section_title
;
Structure prediction by ZEFSAII (Michael W. Deem and Ramdas Pophale) SiO2 
 PCOD8119827
Probable space group: P 2/C
;
_chemical_formula_sum "Si O2"
_cell_formula_units_Z 24
_cell_length_a 13.621887
_cell_length_b 8.915328
_cell_length_c 15.238949
_cell_angle_alpha 90.000000
_cell_angle_beta 140.011435
_cell_angle_gamma 90.000000
_cell_volume 1189.306505
_symmetry_space_group_name_H-M "P 2/C"
_symmetry_group_IT_number 13
_symmetry_cell_setting 'monoclinic'
loop_
_space_group_symop_operation_xyz
x,y,z
-x,y,1/2-z
-x,-y,-z
x,-y,1/2+z
loop_
_atom_site_type_symbol
_atom_site_label
_atom_site_fract_x
_atom_site_fract_y
_atom_site_fract_z
Si Si1 0.399431 0.423751 0.359358
Si Si2 0.579173 0.914411 0.629678
Si Si3 0.500000 0.663682 0.750000
Si Si4 0.719683 0.116382 0.465909
Si Si5 0.839897 0.922883 0.402301
Si Si6 0.000000 0.262334 0.750000
Si Si7 0.097702 0.603632 0.130935
O O1 0.500000 0.500000 0.500000
O O2 0.369943 0.251059 0.364506
O O3 0.491158 0.439160 0.330246
O O4 0.243637 0.510523 0.254753
O O5 0.451118 0.909606 0.616367
O O6 0.726344 0.010291 0.753497
O O7 0.500000 0.000000 0.500000
O O8 0.331937 0.751853 0.637946
O O9 0.779705 0.966495 0.458500
O O10 0.846279 0.163994 0.625735
O O11 0.857332 0.747149 0.397031
O O12 0.000000 0.000000 0.500000
O O13 0.979007 0.355028 0.826839
O O14 0.000000 0.500000 0.000000
#
# Coordination Sequence:
#
# PCOD8119827 Si02
#       7
#     4   4   2   4   4   2   4
#     4  11  22  41  66  98 135 181 224 279 346 410
#     4  11  23  43  68 101 136 174 236 285 342 415
#     4  10  20  44  68  90 140 184 226 278 358 416
#     4  11  21  42  70  97 129 187 233 280 349 413
#     4  12  22  43  70  97 132 178 234 290 339 414
#     4  12  24  44  70  98 144 192 228 288 374 412
#     4  12  26  45  68 101 142 186 231 289 359 426
#
# _framework density 20.179828000000001
#
# number of rings (size 3 to 8) (size 9 to 14) (size 15 to 20)
#    0.000    0.667    5.000    6.000    0.000    0.000 
#    9.000    0.000    0.000    0.000    0.000    0.000 
#    0.000    0.000    0.000    0.000    0.000    0.000 
#
# Total GULP energy -297337.322641 kJ/mol
# GULP energy per Si atom -12389.055110 kJ/mol
# Density = 2.013390 g / cm^3
# Si number density = 20.179828 Si / 1000 Ang^3
#
#
#
# Elastic Constant Matrix: (Units=GPa)
#
#
# Indices 1 2 3 4 5 6 
#
# 1 86.1787 53.9797 42.8846 0.0000 0.5193 0.0000
# 2 53.9797 142.3132 70.6529 0.0000 -0.5346 0.0000
# 3 42.8846 70.6529 184.7929 0.0000 11.2755 0.0000
# 4 0.0000 0.0000 0.0000 49.7408 0.0000 -1.5821
# 5 0.5193 -0.5346 11.2755 0.0000 45.5687 0.0000
# 6 0.0000 0.0000 0.0000 -1.5821 0.0000 36.2802
#
#
#
# Elastic Compliance Matrix: (Units=1/GPa)
#
#
# Indices 1 2 3 4 5 6 
#
# 1 0.015632 -0.005088 -0.001694 0.000000 0.000181 0.000000
# 2 -0.005088 0.010369 -0.002837 0.000000 0.000882 0.000000
# 3 -0.001694 -0.002837 0.006996 0.000000 -0.001745 0.000000
# 4 0.000000 0.000000 0.000000 0.020132 0.000000 0.000878
# 5 0.000181 0.000882 -0.001745 0.000000 0.022385 0.000000
# 6 0.000000 0.000000 0.000000 0.000878 0.000000 0.027602
#
#
# Mechanical properties :
#
#
# Convention : Reuss Voigt Hill
#
# Bulk Modulus (GPa) = 72.67914 83.14660 77.91287
# Shear Modulus (GPa) = 39.38892 42.70244 41.04568
#
# Velocity S-wave (km/s) = 4.42282 4.60509 4.51488
# Velocity P-wave (km/s) = 7.88516 8.34075 8.11615
#
# Compressibility (1/GPa) = 0.01375911
#
# Stress axis : x y z
#
# Youngs Moduli (GPa) = 63.96981 96.44561 142.94369
#
# Poissons Ratio (x) = 0.49071 0.24208
# Poissons Ratio (y) = 0.32547 0.40558
# Poissons Ratio (z) = 0.10834 0.27365
#
# Static dielectric constant tensor:
#      x y z
#    x 6.869670 0.000000 -0.517200 
#    y 0.000000 3.385160 0.000000 
#    z -0.517200 0.000000 4.164540 
# 
# 
# High freq. dielectric constant tensor:
#      x y z
#    x 1.786880 0.000000 0.004580 
#    y 0.000000 1.777450 0.000000 
#    z 0.004580 0.000000 1.823710 
# 
# From -- ./inp_files/53231.got.cif
#   From: 2010.06.25/outbox.cif.g09.slc.cpg/sg13_27_cif.got.tgz:53231.got - 2010.06.28 04:50:58.
