data_PCOD8119171
_publ_section_title
;
Structure prediction by ZEFSAII (Michael W. Deem and Ramdas Pophale) SiO2 
 PCOD8119171
Probable space group: P 2/C
;
_chemical_formula_sum "Si O2"
_cell_formula_units_Z 20
_cell_length_a 18.471787
_cell_length_b 8.032635
_cell_length_c 18.337288
_cell_angle_alpha 90.000000
_cell_angle_beta 19.428619
_cell_angle_gamma 90.000000
_cell_volume 905.037081
_symmetry_space_group_name_H-M "P 2/C"
_symmetry_group_IT_number 13
_symmetry_cell_setting 'monoclinic'
loop_
_space_group_symop_operation_xyz
x,y,z
-x,y,1/2-z
-x,-y,-z
x,-y,1/2+z
loop_
_atom_site_type_symbol
_atom_site_label
_atom_site_fract_x
_atom_site_fract_y
_atom_site_fract_z
Si Si1 0.748654 0.617962 0.202994
Si Si2 0.634757 0.943877 0.691919
Si Si3 0.842657 0.748318 0.612078
Si Si4 0.056629 0.250495 0.119839
Si Si5 0.639098 0.861995 0.942072
O O1 0.717368 0.423845 0.251091
O O2 0.517437 0.702756 0.414739
O O3 0.873344 0.615737 0.006542
O O4 0.899313 0.716905 0.118947
O O5 0.500000 0.873282 0.750000
O O6 0.802694 0.807165 0.566299
O O7 0.758799 0.108486 0.547378
O O8 0.483106 0.980215 0.906835
O O9 0.747063 0.889332 0.759195
O O10 0.000000 0.340869 0.250000
O O11 0.831498 0.165983 0.314718
#
# Coordination Sequence:
#
# PCOD8119171 Si02
#       5
#     4   4   4   4   4
#     4   9  21  38  61  85 114 150 194 238 282 342
#     4  11  22  37  56  85 118 151 190 238 289 342
#     4  10  21  39  58  88 117 146 195 242 283 336
#     4  10  20  38  58  81 116 153 190 231 287 346
#     4  10  20  37  63  82 109 155 192 232 284 342
#
# _framework density 22.098541999999998
#
# number of rings (size 3 to 8) (size 9 to 14) (size 15 to 20)
#    0.000    2.000    2.000    1.200    0.000    8.800 
#    3.600    1.000    0.000    0.000    0.000    0.000 
#    0.000    0.000    0.000    0.000    0.000    0.000 
#
# Total GULP energy -247786.200676 kJ/mol
# GULP energy per Si atom -12389.310034 kJ/mol
# Density = 2.204824 g / cm^3
# Si number density = 22.098542 Si / 1000 Ang^3
#
#
#
# Elastic Constant Matrix: (Units=GPa)
#
#
# Indices 1 2 3 4 5 6 
#
# 1 146.1858 24.4124 17.4226 0.0000 -3.2726 0.0000
# 2 24.4124 36.5382 0.6411 0.0000 8.7578 0.0000
# 3 17.4226 0.6411 50.3917 0.0000 -3.0551 0.0000
# 4 0.0000 0.0000 0.0000 15.2475 0.0000 2.0842
# 5 -3.2726 8.7578 -3.0551 0.0000 21.6498 0.0000
# 6 0.0000 0.0000 0.0000 2.0842 0.0000 21.5431
#
#
#
# Elastic Compliance Matrix: (Units=1/GPa)
#
#
# Indices 1 2 3 4 5 6 
#
# 1 0.008278 -0.006310 -0.002573 0.000000 0.003441 0.000000
# 2 -0.006310 0.035183 0.000821 0.000000 -0.015070 0.000000
# 3 -0.002573 0.000821 0.020859 0.000000 0.002223 0.000000
# 4 0.000000 0.000000 0.000000 0.066463 0.000000 -0.006430
# 5 0.003441 -0.015070 0.002223 0.000000 0.053120 0.000000
# 6 0.000000 0.000000 0.000000 -0.006430 0.000000 0.047041
#
#
# Mechanical properties :
#
#
# Convention : Reuss Voigt Hill
#
# Bulk Modulus (GPa) = 20.74994 35.34088 28.04541
# Shear Modulus (GPa) = 19.00178 24.39741 21.69960
#
# Velocity S-wave (km/s) = 2.93553 3.32630 3.13700
# Velocity P-wave (km/s) = 4.57164 5.54792 5.08327
#
# Compressibility (1/GPa) = 0.04819290
#
# Stress axis : x y z
#
# Youngs Moduli (GPa) = 120.80008 28.42316 47.94206
#
# Poissons Ratio (x) = 0.17936 0.12337
# Poissons Ratio (y) = 0.76231 -0.03934
# Poissons Ratio (z) = 0.31084 -0.02332
#
# Static dielectric constant tensor:
#      x y z
#    x 4.171380 0.000000 -0.041960 
#    y 0.000000 3.473740 0.000000 
#    z -0.041960 0.000000 4.086200 
# 
# 
# High freq. dielectric constant tensor:
#      x y z
#    x 1.882520 0.000000 -0.012360 
#    y 0.000000 1.826920 0.000000 
#    z -0.012360 0.000000 1.875920 
# 
# From -- ./inp_files/60580.got.cif
#   From: 2010.06.25/outbox.cif.g09.slc.cpg/sg13_31_cif.got.tgz:60580.got - 2010.06.28 04:50:58.
