data_PCOD8119260
_publ_section_title
;
Structure prediction by ZEFSAII (Michael W. Deem and Ramdas Pophale) SiO2 
 PCOD8119260
Probable space group: P 2/C
;
_chemical_formula_sum "Si O2"
_cell_formula_units_Z 20
_cell_length_a 22.363702
_cell_length_b 6.302914
_cell_length_c 14.014150
_cell_angle_alpha 90.000000
_cell_angle_beta 31.529401
_cell_angle_gamma 90.000000
_cell_volume 1033.000186
_symmetry_space_group_name_H-M "P 2/C"
_symmetry_group_IT_number 13
_symmetry_cell_setting 'monoclinic'
loop_
_space_group_symop_operation_xyz
x,y,z
-x,y,1/2-z
-x,-y,-z
x,-y,1/2+z
loop_
_atom_site_type_symbol
_atom_site_label
_atom_site_fract_x
_atom_site_fract_y
_atom_site_fract_z
Si Si1 0.172963 0.729031 0.637135
Si Si2 0.315530 0.970527 0.580232
Si Si3 0.500000 0.666525 0.250000
Si Si4 0.244388 0.028085 0.388602
Si Si5 0.681818 0.350256 0.064761
Si Si6 0.000000 0.925810 0.750000
O O1 0.200754 0.855988 0.696897
O O2 0.199327 0.480043 0.613560
O O3 0.042942 0.773766 0.779461
O O4 0.260267 0.825530 0.437220
O O5 0.423378 0.814315 0.422210
O O6 0.300139 0.022590 0.711890
O O7 0.337097 0.191798 0.497573
O O8 0.578131 0.516796 0.210320
O O9 0.308170 0.229535 0.348218
O O10 0.106169 0.069764 0.568932
#
# Coordination Sequence:
#
# PCOD8119260 Si02
#       6
#     4   4   2   4   4   2
#     4   8  19  36  54  86 121 143 195 230 270 349
#     4  10  20  38  59  87 114 154 191 239 281 344
#     4  10  22  38  60  84 120 146 196 234 290 338
#     4   9  20  37  61  86 119 148 193 231 286 342
#     4  10  20  39  59  83 118 154 185 244 283 336
#     4   8  18  40  56  86 122 148 186 238 278 338
#
# _framework density 19.361082
#
# number of rings (size 3 to 8) (size 9 to 14) (size 15 to 20)
#    1.200    1.600    0.000    0.600    0.000    5.600 
#    0.000   15.000    0.000    0.000    0.000    0.000 
#    0.000    0.000    0.000    0.000    0.000    0.000 
#
# Total GULP energy -247771.988468 kJ/mol
# GULP energy per Si atom -12388.599423 kJ/mol
# Density = 1.931702 g / cm^3
# Si number density = 19.361082 Si / 1000 Ang^3
#
#
#
# Elastic Constant Matrix: (Units=GPa)
#
#
# Indices 1 2 3 4 5 6 
#
# 1 85.5951 45.1431 35.4247 0.0000 2.8934 0.0000
# 2 45.1431 107.4615 30.8821 0.0000 -1.2101 0.0000
# 3 35.4247 30.8821 74.0604 0.0000 -1.0863 0.0000
# 4 0.0000 0.0000 0.0000 18.6603 0.0000 -7.8510
# 5 2.8934 -1.2101 -1.0863 0.0000 38.0163 0.0000
# 6 0.0000 0.0000 0.0000 -7.8510 0.0000 20.4434
#
#
#
# Elastic Compliance Matrix: (Units=1/GPa)
#
#
# Indices 1 2 3 4 5 6 
#
# 1 0.017080 -0.005498 -0.005902 0.000000 -0.001644 0.000000
# 2 -0.005498 0.012344 -0.002507 0.000000 0.000740 0.000000
# 3 -0.005902 -0.002507 0.017383 0.000000 0.000866 0.000000
# 4 0.000000 0.000000 0.000000 0.063917 0.000000 0.024547
# 5 -0.001644 0.000740 0.000866 0.000000 0.026478 0.000000
# 6 0.000000 0.000000 0.000000 0.024547 0.000000 0.058342
#
#
# Mechanical properties :
#
#
# Convention : Reuss Voigt Hill
#
# Bulk Modulus (GPa) = 52.64375 54.44631 53.54503
# Shear Modulus (GPa) = 21.76858 25.80182 23.78520
#
# Velocity S-wave (km/s) = 3.35677 3.65453 3.50881
# Velocity P-wave (km/s) = 6.50180 6.78159 6.64317
#
# Compressibility (1/GPa) = 0.01899561
#
# Stress axis : x y z
#
# Youngs Moduli (GPa) = 58.54644 81.01178 57.52653
#
# Poissons Ratio (x) = 0.44539 0.33950
# Poissons Ratio (y) = 0.32188 0.14420
# Poissons Ratio (z) = 0.34552 0.20307
#
# Static dielectric constant tensor:
#      x y z
#    x 3.599250 0.000000 -0.256460 
#    y 0.000000 3.527020 0.000000 
#    z -0.256460 0.000000 3.077350 
# 
# 
# High freq. dielectric constant tensor:
#      x y z
#    x 1.763830 0.000000 -0.019260 
#    y 0.000000 1.752100 0.000000 
#    z -0.019260 0.000000 1.710570 
# 
# From -- ./inp_files/41058.got.cif
#   From: 2010.06.25/outbox.cif.g09.slc.cpg/sg13_21_cif.got.tgz:41058.got - 2010.06.28 04:50:58.
