data_PCOD8119671
_publ_section_title
;
Structure prediction by ZEFSAII (Michael W. Deem and Ramdas Pophale) SiO2 
 PCOD8119671
Probable space group: P 2/C
;
_chemical_formula_sum "Si O2"
_cell_formula_units_Z 20
_cell_length_a 18.948259
_cell_length_b 7.527776
_cell_length_c 9.613505
_cell_angle_alpha 90.000000
_cell_angle_beta 41.980618
_cell_angle_gamma 90.000000
_cell_volume 917.202928
_symmetry_space_group_name_H-M "P 2/C"
_symmetry_group_IT_number 13
_symmetry_cell_setting 'monoclinic'
loop_
_space_group_symop_operation_xyz
x,y,z
-x,y,1/2-z
-x,-y,-z
x,-y,1/2+z
loop_
_atom_site_type_symbol
_atom_site_label
_atom_site_fract_x
_atom_site_fract_y
_atom_site_fract_z
Si Si1 0.429772 0.295345 0.716523
Si Si2 0.925441 0.517596 0.238680
Si Si3 0.214657 0.162153 0.643476
Si Si4 0.426065 0.691381 0.732711
Si Si5 0.203692 0.169952 0.991506
O O1 0.500000 0.275219 0.750000
O O2 0.390526 0.495170 0.733136
O O3 0.505516 0.213606 0.486824
O O4 0.320585 0.189596 0.884254
O O5 0.835026 0.654354 0.332927
O O6 0.873150 0.332303 0.361289
O O7 0.000000 0.593267 0.250000
O O8 0.000000 0.500000 0.000000
O O9 0.335044 0.176534 0.415716
O O10 0.158972 0.000723 0.641506
O O11 0.205869 0.135842 0.822428
O O12 0.500000 0.643554 0.750000
#
# Coordination Sequence:
#
# PCOD8119671 Si02
#       5
#     4   4   4   4   4
#     4  10  22  38  70 104 143 191 238 283 345 419
#     4  12  28  52  79 102 138 187 240 306 369 418
#     4  12  28  46  74 108 148 185 241 293 355 434
#     4  10  20  40  68 101 143 192 234 282 343 421
#     4  12  28  47  72 111 145 188 239 292 358 429
#
# _framework density 21.805423999999999
#
# number of rings (size 3 to 8) (size 9 to 14) (size 15 to 20)
#    0.000    0.800    6.000    0.000    5.600    3.200 
#    0.000    0.000    0.000    0.000    0.000    0.000 
#    0.000    0.000    0.000    0.000    0.000    0.000 
#
# Total GULP energy -247933.430219 kJ/mol
# GULP energy per Si atom -12396.671511 kJ/mol
# Density = 2.175579 g / cm^3
# Si number density = 21.805424 Si / 1000 Ang^3
#
#
#
# Elastic Constant Matrix: (Units=GPa)
#
#
# Indices 1 2 3 4 5 6 
#
# 1 98.6551 17.4992 39.5410 0.0000 16.8154 0.0000
# 2 17.4992 90.5980 27.7280 0.0000 4.0589 0.0000
# 3 39.5410 27.7280 146.4645 0.0000 19.5724 0.0000
# 4 0.0000 0.0000 0.0000 17.8611 0.0000 11.7583
# 5 16.8154 4.0589 19.5724 0.0000 37.7346 0.0000
# 6 0.0000 0.0000 0.0000 11.7583 0.0000 24.6911
#
#
#
# Elastic Compliance Matrix: (Units=1/GPa)
#
#
# Indices 1 2 3 4 5 6 
#
# 1 0.012042 -0.001396 -0.002460 0.000000 -0.003940 0.000000
# 2 -0.001396 0.011879 -0.001917 0.000000 0.000339 0.000000
# 3 -0.002460 -0.001917 0.008253 0.000000 -0.002978 0.000000
# 4 0.000000 0.000000 0.000000 0.081555 0.000000 -0.038838
# 5 -0.003940 0.000339 -0.002978 0.000000 0.029765 0.000000
# 6 0.000000 0.000000 0.000000 -0.038838 0.000000 0.058996
#
#
# Mechanical properties :
#
#
# Convention : Reuss Voigt Hill
#
# Bulk Modulus (GPa) = 48.48252 56.13932 52.31092
# Shear Modulus (GPa) = 22.63349 32.78733 27.71041
#
# Velocity S-wave (km/s) = 3.22526 3.88188 3.56870
# Velocity P-wave (km/s) = 6.01266 6.77447 6.40490
#
# Compressibility (1/GPa) = 0.02062599
#
# Stress axis : x y z
#
# Youngs Moduli (GPa) = 83.04598 84.18164 121.17338
#
# Poissons Ratio (x) = 0.11756 0.29809
# Poissons Ratio (y) = 0.11597 0.23231
# Poissons Ratio (z) = 0.20429 0.16139
#
# Static dielectric constant tensor:
#      x y z
#    x 3.827810 0.000000 0.025860 
#    y 0.000000 4.074590 0.000000 
#    z 0.025860 0.000000 3.975050 
# 
# 
# High freq. dielectric constant tensor:
#      x y z
#    x 1.858590 0.000000 0.006990 
#    y 0.000000 1.856910 0.000000 
#    z 0.006990 0.000000 1.870020 
# 
# From -- ./inp_files/21049.got.cif
#   From: 2010.06.25/outbox.cif.g09.slc.cpg/sg13_11_cif.got.tgz:21049.got - 2010.06.28 04:50:58.
