data_PCOD8119844
_publ_section_title
;
Structure prediction by ZEFSAII (Michael W. Deem and Ramdas Pophale) SiO2 
 PCOD8119844
Probable space group: P 2/C
;
_chemical_formula_sum "Si O2"
_cell_formula_units_Z 28
_cell_length_a 9.434663
_cell_length_b 15.933687
_cell_length_c 19.131561
_cell_angle_alpha 90.000000
_cell_angle_beta 149.962368
_cell_angle_gamma 90.000000
_cell_volume 1439.649499
_symmetry_space_group_name_H-M "P 2/C"
_symmetry_group_IT_number 13
_symmetry_cell_setting 'monoclinic'
loop_
_space_group_symop_operation_xyz
x,y,z
-x,y,1/2-z
-x,-y,-z
x,-y,1/2+z
loop_
_atom_site_type_symbol
_atom_site_label
_atom_site_fract_x
_atom_site_fract_y
_atom_site_fract_z
Si Si1 0.885363 0.194318 0.593343
Si Si2 0.125300 0.424937 0.225570
Si Si3 0.521548 0.555449 0.439695
Si Si4 0.810488 0.017453 0.603869
Si Si5 0.407319 0.253219 0.892698
Si Si6 0.971732 0.163777 0.154790
Si Si7 0.459066 0.732593 0.812796
O O1 0.840564 0.094171 0.561652
O O2 0.697843 0.213832 0.580706
O O3 0.766051 0.246981 0.476891
O O4 0.211689 0.221262 0.744862
O O5 0.329547 0.505578 0.301654
O O6 0.308578 0.343739 0.287696
O O7 0.000000 0.414166 0.250000
O O8 0.852115 0.436389 0.058045
O O9 0.500000 0.500000 0.500000
O O10 0.386030 0.646758 0.390788
O O11 0.000000 0.044763 0.750000
O O12 0.500000 0.000000 0.500000
O O13 0.918610 0.933048 0.612983
O O14 0.727703 0.222730 0.017958
O O15 0.000000 0.176793 0.250000
O O16 0.261980 0.186316 0.239721
O O17 0.500000 0.709628 0.750000
#
# Coordination Sequence:
#
# PCOD8119844 Si02
#       7
#     4   4   4   4   4   4   4
#     4  11  21  34  58  93 125 152 194 251 310 354
#     4  10  21  38  62  88 115 148 200 254 302 354
#     4  10  21  32  57  92 117 143 191 249 307 357
#     4  11  18  33  56  97 124 147 192 256 305 347
#     4  11  20  34  61  92 121 149 193 254 310 348
#     4  11  20  37  65  90 121 158 201 252 299 359
#     4  12  25  42  60  84 122 170 209 243 298 368
#
# _framework density 19.449178
#
# number of rings (size 3 to 8) (size 9 to 14) (size 15 to 20)
#    0.000    1.143    5.714    3.000    8.000    0.000 
#    0.000    2.143    0.000    0.000    0.000    0.000 
#    0.000    0.000    0.000    0.000    0.000    0.000 
#
# Total GULP energy -347147.982829 kJ/mol
# GULP energy per Si atom -12398.142244 kJ/mol
# Density = 1.940491 g / cm^3
# Si number density = 19.449178 Si / 1000 Ang^3
#
#
#
# Elastic Constant Matrix: (Units=GPa)
#
#
# Indices 1 2 3 4 5 6 
#
# 1 38.8930 17.2697 24.6959 0.0000 -4.3741 0.0000
# 2 17.2697 162.5958 46.1463 0.0000 3.6701 0.0000
# 3 24.6959 46.1463 138.9837 0.0000 0.0653 0.0000
# 4 0.0000 0.0000 0.0000 38.9331 0.0000 4.1652
# 5 -4.3741 3.6701 0.0653 0.0000 16.7436 0.0000
# 6 0.0000 0.0000 0.0000 4.1652 0.0000 4.4284
#
#
#
# Elastic Compliance Matrix: (Units=1/GPa)
#
#
# Indices 1 2 3 4 5 6 
#
# 1 0.030609 -0.002095 -0.004747 0.000000 0.008474 0.000000
# 2 -0.002095 0.006970 -0.001941 0.000000 -0.002068 0.000000
# 3 -0.004747 -0.001941 0.008684 0.000000 -0.000849 0.000000
# 4 0.000000 0.000000 0.000000 0.028559 0.000000 -0.026861
# 5 0.008474 -0.002068 -0.000849 0.000000 0.062395 0.000000
# 6 0.000000 0.000000 0.000000 -0.026861 0.000000 0.251082
#
#
# Mechanical properties :
#
#
# Convention : Reuss Voigt Hill
#
# Bulk Modulus (GPa) = 34.84776 57.41071 46.12923
# Shear Modulus (GPa) = 12.03570 28.84504 20.44037
#
# Velocity S-wave (km/s) = 2.49032 3.85528 3.24537
# Velocity P-wave (km/s) = 5.12105 7.02851 6.14919
#
# Compressibility (1/GPa) = 0.02869625
#
# Stress axis : x y z
#
# Youngs Moduli (GPa) = 32.66981 143.46562 115.16056
#
# Poissons Ratio (x) = 0.30056 0.54670
# Poissons Ratio (y) = 0.06844 0.22354
# Poissons Ratio (z) = 0.15509 0.27848
#
# Static dielectric constant tensor:
#      x y z
#    x 2.863310 0.000000 0.130780 
#    y 0.000000 3.885750 0.000000 
#    z 0.130780 0.000000 4.486130 
# 
# 
# High freq. dielectric constant tensor:
#      x y z
#    x 1.669780 0.000000 0.014090 
#    y 0.000000 1.780890 0.000000 
#    z 0.014090 0.000000 1.786340 
# 
# From -- ./inp_files/76763.got.cif
#   From: 2010.06.25/outbox.cif.g09.slc.cpg/sg13_39_cif.got.tgz:76763.got - 2010.06.28 04:50:58.
