data_PCOD8119162
_publ_section_title
;
Structure prediction by ZEFSAII (Michael W. Deem and Ramdas Pophale) SiO2 
 PCOD8119162
Probable space group: P 2/C
;
_chemical_formula_sum "Si O2"
_cell_formula_units_Z 30
_cell_length_a 12.400020
_cell_length_b 11.714180
_cell_length_c 13.271582
_cell_angle_alpha 90.000000
_cell_angle_beta 130.400389
_cell_angle_gamma 90.000000
_cell_volume 1468.068156
_symmetry_space_group_name_H-M "P 2/C"
_symmetry_group_IT_number 13
_symmetry_cell_setting 'monoclinic'
loop_
_space_group_symop_operation_xyz
x,y,z
-x,y,1/2-z
-x,-y,-z
x,-y,1/2+z
loop_
_atom_site_type_symbol
_atom_site_label
_atom_site_fract_x
_atom_site_fract_y
_atom_site_fract_z
Si Si1 0.705064 0.625893 0.004495
Si Si2 0.259887 0.991853 0.592153
Si Si3 0.802250 0.777207 0.378677
Si Si4 0.550191 0.771449 0.079233
Si Si5 0.477203 0.062310 0.375980
Si Si6 0.059504 0.206823 0.889576
Si Si7 0.633009 0.616510 0.403558
Si Si8 0.500000 0.732298 0.750000
O O1 0.694266 0.489238 0.005499
O O2 0.635858 0.654050 0.853866
O O3 0.622710 0.683214 0.047126
O O4 0.863115 0.675852 0.096116
O O5 0.390098 0.003488 0.593159
O O6 0.323579 0.980253 0.744998
O O7 0.163131 0.884251 0.504573
O O8 0.169717 0.109038 0.536463
O O9 0.660762 0.804060 0.231209
O O10 0.768524 0.665835 0.425024
O O11 0.936891 0.754426 0.390857
O O12 0.413327 0.712146 0.043941
O O13 0.504978 0.902297 0.011921
O O14 0.477865 0.192889 0.335796
O O15 0.000000 0.151133 0.750000
O O16 0.500000 0.584817 0.250000
#
# Coordination Sequence:
#
# PCOD8119162 Si02
#       8
#     4   4   4   4   4   4   4   2
#     4  11  18  38  65  87 113 155 205 246 297 359
#     4  10  20  37  62  87 121 155 201 248 301 355
#     4  11  24  39  56  91 126 162 189 243 312 361
#     4  10  20  38  60  94 122 147 206 253 301 354
#     4   9  17  34  61  91 113 152 198 253 298 351
#     4  12  22  41  63  86 119 164 213 240 285 369
#     4  10  23  37  60  92 126 155 189 258 314 348
#     4   8  14  30  56  90 106 134 198 242 292 336
#
# _framework density 20.435017999999999
#
# number of rings (size 3 to 8) (size 9 to 14) (size 15 to 20)
#    0.000    1.867    6.000    0.800    5.600    1.067 
#    2.400    0.000    2.933    0.000    0.000    0.000 
#    0.000    0.000    0.000    0.000    0.000    0.000 
#
# Total GULP energy -371734.639711 kJ/mol
# GULP energy per Si atom -12391.154657 kJ/mol
# Density = 2.038851 g / cm^3
# Si number density = 20.435018 Si / 1000 Ang^3
#
#
#
# Elastic Constant Matrix: (Units=GPa)
#
#
# Indices 1 2 3 4 5 6 
#
# 1 125.4035 37.8242 18.9740 0.0000 4.8110 0.0000
# 2 37.8242 114.0696 14.3951 0.0000 1.6563 0.0000
# 3 18.9740 14.3951 47.8401 0.0000 4.1765 0.0000
# 4 0.0000 0.0000 0.0000 12.9119 0.0000 1.7727
# 5 4.8110 1.6563 4.1765 0.0000 24.3076 0.0000
# 6 0.0000 0.0000 0.0000 1.7727 0.0000 6.3212
#
#
#
# Elastic Compliance Matrix: (Units=1/GPa)
#
#
# Indices 1 2 3 4 5 6 
#
# 1 0.009251 -0.002703 -0.002753 0.000000 -0.001174 0.000000
# 2 -0.002703 0.009903 -0.001924 0.000000 0.000191 0.000000
# 3 -0.002753 -0.001924 0.022858 0.000000 -0.003251 0.000000
# 4 0.000000 0.000000 0.000000 0.080549 0.000000 -0.022590
# 5 -0.001174 0.000191 -0.003251 0.000000 0.041917 0.000000
# 6 0.000000 0.000000 0.000000 -0.022590 0.000000 0.164533
#
#
# Mechanical properties :
#
#
# Convention : Reuss Voigt Hill
#
# Bulk Modulus (GPa) = 36.69666 47.74441 42.22053
# Shear Modulus (GPa) = 14.17004 23.11613 18.64308
#
# Velocity S-wave (km/s) = 2.63614 3.36698 3.02372
# Velocity P-wave (km/s) = 5.22134 6.20727 5.73553
#
# Compressibility (1/GPa) = 0.02725044
#
# Stress axis : x y z
#
# Youngs Moduli (GPa) = 108.09438 100.97986 43.74867
#
# Poissons Ratio (x) = 0.27296 0.12045
# Poissons Ratio (y) = 0.29219 0.08419
# Poissons Ratio (z) = 0.29762 0.19432
#
# Static dielectric constant tensor:
#      x y z
#    x 3.703740 0.000000 -0.285400 
#    y 0.000000 3.831080 0.000000 
#    z -0.285400 0.000000 3.994450 
# 
# 
# High freq. dielectric constant tensor:
#      x y z
#    x 1.785650 0.000000 -0.014290 
#    y 0.000000 1.812630 0.000000 
#    z -0.014290 0.000000 1.787030 
# 
# From -- ./inp_files/51213.got.cif
#   From: 2010.06.25/outbox.cif.g09.slc.cpg/sg13_26_cif.got.tgz:51213.got - 2010.06.28 04:50:58.
