data_PCOD8119302
_publ_section_title
;
Structure prediction by ZEFSAII (Michael W. Deem and Ramdas Pophale) SiO2 
 PCOD8119302
Probable space group: P 2/C
;
_chemical_formula_sum "Si O2"
_cell_formula_units_Z 20
_cell_length_a 9.734561
_cell_length_b 8.880452
_cell_length_c 25.904821
_cell_angle_alpha 90.000000
_cell_angle_beta 153.665631
_cell_angle_gamma 90.000000
_cell_volume 993.418537
_symmetry_space_group_name_H-M "P 2/C"
_symmetry_group_IT_number 13
_symmetry_cell_setting 'monoclinic'
loop_
_space_group_symop_operation_xyz
x,y,z
-x,y,1/2-z
-x,-y,-z
x,-y,1/2+z
loop_
_atom_site_type_symbol
_atom_site_label
_atom_site_fract_x
_atom_site_fract_y
_atom_site_fract_z
Si Si1 0.176891 0.875533 0.990923
Si Si2 0.668114 0.330784 0.614564
Si Si3 0.828824 0.431276 0.561779
Si Si4 0.840416 0.209412 0.478746
Si Si5 0.290346 0.311401 0.226704
O O1 0.514833 0.820294 0.086304
O O2 0.184414 0.053637 0.998957
O O3 0.086287 0.798909 0.015106
O O4 0.924076 0.829139 0.862826
O O5 0.700543 0.321473 0.563333
O O6 0.450807 0.471314 0.556286
O O7 0.000000 0.356692 0.750000
O O8 0.967264 0.332669 0.561756
O O9 0.084697 0.543563 0.672433
O O10 0.497671 0.255212 0.344099
O O11 0.500000 0.364498 0.250000
#
# Coordination Sequence:
#
# PCOD8119302 Si02
#       5
#     4   4   4   4   4
#     4   9  21  38  57  83 114 147 187 228 277 337
#     4  10  21  37  53  80 117 148 185 231 276 332
#     4  10  21  35  57  83 111 149 190 229 278 334
#     4  10  20  38  61  83 112 147 186 236 279 323
#     4   9  19  36  57  84 114 145 187 236 280 325
#
# _framework density 20.132501000000001
#
# number of rings (size 3 to 8) (size 9 to 14) (size 15 to 20)
#    0.000    2.400    0.000    1.200    0.000   11.200 
#    0.000   10.000    0.000    0.000    0.000    0.000 
#    0.000    0.000    0.000    0.000    0.000    0.000 
#
# Total GULP energy -247994.127488 kJ/mol
# GULP energy per Si atom -12399.706374 kJ/mol
# Density = 2.008668 g / cm^3
# Si number density = 20.132501 Si / 1000 Ang^3
#
#
#
# Elastic Constant Matrix: (Units=GPa)
#
#
# Indices 1 2 3 4 5 6 
#
# 1 65.2677 45.5387 24.7534 0.0000 3.0855 0.0000
# 2 45.5387 100.4333 49.6502 0.0000 -6.7107 0.0000
# 3 24.7534 49.6502 86.3231 0.0000 12.4328 0.0000
# 4 0.0000 0.0000 0.0000 17.7664 0.0000 -1.3624
# 5 3.0855 -6.7107 12.4328 0.0000 29.4679 0.0000
# 6 0.0000 0.0000 0.0000 -1.3624 0.0000 36.8236
#
#
#
# Elastic Compliance Matrix: (Units=1/GPa)
#
#
# Indices 1 2 3 4 5 6 
#
# 1 0.023093 -0.011047 0.000471 0.000000 -0.005132 0.000000
# 2 -0.011047 0.020684 -0.010194 0.000000 0.010168 0.000000
# 3 0.000471 -0.010194 0.018796 0.000000 -0.010301 0.000000
# 4 0.000000 0.000000 0.000000 0.056446 0.000000 0.002088
# 5 -0.005132 0.010168 -0.010301 0.000000 0.041134 0.000000
# 6 0.000000 0.000000 0.000000 0.002088 0.000000 0.027234
#
#
# Mechanical properties :
#
#
# Convention : Reuss Voigt Hill
#
# Bulk Modulus (GPa) = 47.54108 54.65652 51.09880
# Shear Modulus (GPa) = 21.19200 25.61705 23.40452
#
# Velocity S-wave (km/s) = 3.24794 3.57097 3.41328
# Velocity P-wave (km/s) = 6.14254 6.64905 6.40081
#
# Compressibility (1/GPa) = 0.02103444
#
# Stress axis : x y z
#
# Youngs Moduli (GPa) = 43.30312 48.34561 53.20247
#
# Poissons Ratio (x) = 0.53405 -0.02505
# Poissons Ratio (y) = 0.47835 0.54233
# Poissons Ratio (z) = -0.02039 0.49283
#
# Static dielectric constant tensor:
#      x y z
#    x 3.754790 0.000000 0.120570 
#    y 0.000000 3.507160 0.000000 
#    z 0.120570 0.000000 3.619690 
# 
# 
# High freq. dielectric constant tensor:
#      x y z
#    x 1.787080 0.000000 0.003590 
#    y 0.000000 1.775020 0.000000 
#    z 0.003590 0.000000 1.781530 
# 
# From -- ./inp_files/28251.got.cif
#   From: 2010.06.25/outbox.cif.g09.slc.cpg/sg13_15_cif.got.tgz:28251.got - 2010.06.28 04:50:58.
