data_PCOD8119986
_publ_section_title
;
Structure prediction by ZEFSAII (Michael W. Deem and Ramdas Pophale) SiO2 
 PCOD8119986
Probable space group: P 2/C
;
_chemical_formula_sum "Si O2"
_cell_formula_units_Z 28
_cell_length_a 13.537519
_cell_length_b 7.488383
_cell_length_c 13.266907
_cell_angle_alpha 90.000000
_cell_angle_beta 107.125380
_cell_angle_gamma 90.000000
_cell_volume 1285.290908
_symmetry_space_group_name_H-M "P 2/C"
_symmetry_group_IT_number 13
_symmetry_cell_setting 'monoclinic'
loop_
_space_group_symop_operation_xyz
x,y,z
-x,y,1/2-z
-x,-y,-z
x,-y,1/2+z
loop_
_atom_site_type_symbol
_atom_site_label
_atom_site_fract_x
_atom_site_fract_y
_atom_site_fract_z
Si Si1 0.260730 0.680819 0.249030
Si Si2 0.250389 0.219143 0.041718
Si Si3 0.287061 0.815266 0.049510
Si Si4 0.378136 0.502664 0.466298
Si Si5 0.086755 0.226659 0.387079
Si Si6 0.099273 0.832495 0.331234
Si Si7 0.864328 0.349738 0.312881
O O1 0.323687 0.764121 0.173728
O O2 0.337331 0.572627 0.346044
O O3 0.198170 0.840090 0.285679
O O4 0.172678 0.550230 0.179158
O O5 0.213679 0.223398 0.146703
O O6 0.301174 0.026236 0.032238
O O7 0.336241 0.368875 0.043126
O O8 0.146466 0.263662 0.944606
O O9 0.347083 0.701600 0.982930
O O10 0.164643 0.769631 0.004315
O O11 0.500000 0.500000 0.500000
O O12 0.144731 0.313360 0.308834
O O13 0.982349 0.328315 0.385478
O O14 0.056919 0.025712 0.348244
O O15 0.000000 0.731139 0.250000
#
# Coordination Sequence:
#
# PCOD8119986 Si02
#       7
#     4   4   4   4   4   4   4
#     4  11  24  39  65  92 127 169 218 269 317 386
#     4  10  24  41  65  96 130 169 219 262 319 390
#     4  11  23  42  67  95 129 169 210 264 324 377
#     4  11  25  48  69  91 125 163 220 277 336 380
#     4  10  22  36  59  92 136 175 206 253 306 381
#     4  10  21  36  56  91 130 177 211 253 307 370
#     4  11  20  37  59  92 132 170 215 247 308 381
#
# _framework density 21.784949999999998
#
# number of rings (size 3 to 8) (size 9 to 14) (size 15 to 20)
#    0.000    1.429    4.286    0.857    4.000    2.857 
#    0.000    0.000    3.143    0.000    0.000    0.000 
#    0.000    0.000    0.000    0.000    0.000    0.000 
#
# Total GULP energy -347019.847126 kJ/mol
# GULP energy per Si atom -12393.565969 kJ/mol
# Density = 2.173537 g / cm^3
# Si number density = 21.784950 Si / 1000 Ang^3
#
#
#
# Elastic Constant Matrix: (Units=GPa)
#
#
# Indices 1 2 3 4 5 6 
#
# 1 109.0866 42.6366 40.7020 0.0000 9.8773 0.0000
# 2 42.6366 86.3450 20.6616 0.0000 3.5759 0.0000
# 3 40.7020 20.6616 79.9817 0.0000 -7.1945 0.0000
# 4 0.0000 0.0000 0.0000 26.0249 0.0000 -4.6342
# 5 9.8773 3.5759 -7.1945 0.0000 28.5818 0.0000
# 6 0.0000 0.0000 0.0000 -4.6342 0.0000 22.8876
#
#
#
# Elastic Compliance Matrix: (Units=1/GPa)
#
#
# Indices 1 2 3 4 5 6 
#
# 1 0.014097 -0.005200 -0.006354 0.000000 -0.005821 0.000000
# 2 -0.005200 0.014426 -0.001106 0.000000 -0.000286 0.000000
# 3 -0.006354 -0.001106 0.016608 0.000000 0.006515 0.000000
# 4 0.000000 0.000000 0.000000 0.039862 0.000000 0.008071
# 5 -0.005821 -0.000286 0.006515 0.000000 0.038675 0.000000
# 6 0.000000 0.000000 0.000000 0.008071 0.000000 0.045326
#
#
# Mechanical properties :
#
#
# Convention : Reuss Voigt Hill
#
# Bulk Modulus (GPa) = 50.47764 53.71263 52.09513
# Shear Modulus (GPa) = 24.88583 26.92640 25.90612
#
# Velocity S-wave (km/s) = 3.38352 3.51951 3.45218
# Velocity P-wave (km/s) = 6.20366 6.42069 6.31311
#
# Compressibility (1/GPa) = 0.01981075
#
# Stress axis : x y z
#
# Youngs Moduli (GPa) = 70.93596 69.32163 60.21062
#
# Poissons Ratio (x) = 0.36044 0.38260
# Poissons Ratio (y) = 0.36883 0.06661
# Poissons Ratio (z) = 0.45075 0.07669
#
# Static dielectric constant tensor:
#      x y z
#    x 3.588560 0.000000 -0.089590 
#    y 0.000000 3.917210 0.000000 
#    z -0.089590 0.000000 4.069580 
# 
# 
# High freq. dielectric constant tensor:
#      x y z
#    x 1.822600 0.000000 -0.011060 
#    y 0.000000 1.855730 0.000000 
#    z -0.011060 0.000000 1.858430 
# 
# From -- ./inp_files/50101.got.cif
#   From: 2010.06.25/outbox.cif.g09.slc.cpg/sg13_26_cif.got.tgz:50101.got - 2010.06.28 04:50:58.
