data_PCOD8119195
_publ_section_title
;
Structure prediction by ZEFSAII (Michael W. Deem and Ramdas Pophale) SiO2 
 PCOD8119195
Probable space group: P 2/C
;
_chemical_formula_sum "Si O2"
_cell_formula_units_Z 28
_cell_length_a 26.899508
_cell_length_b 9.869326
_cell_length_c 27.515703
_cell_angle_alpha 90.000000
_cell_angle_beta 169.409690
_cell_angle_gamma 90.000000
_cell_volume 1342.526203
_symmetry_space_group_name_H-M "P 2/C"
_symmetry_group_IT_number 13
_symmetry_cell_setting 'monoclinic'
loop_
_space_group_symop_operation_xyz
x,y,z
-x,y,1/2-z
-x,-y,-z
x,-y,1/2+z
loop_
_atom_site_type_symbol
_atom_site_label
_atom_site_fract_x
_atom_site_fract_y
_atom_site_fract_z
Si Si1 0.132244 0.113295 0.740856
Si Si2 0.710691 0.929404 0.753371
Si Si3 0.959833 0.906295 0.765957
Si Si4 0.672264 0.570231 0.270195
Si Si5 0.540899 0.271685 0.734496
Si Si6 0.176556 0.779327 0.161049
Si Si7 0.813950 0.608308 0.236552
O O1 0.084006 0.274626 0.703057
O O2 0.916958 0.048320 0.497069
O O3 0.130529 0.035347 0.789820
O O4 0.428926 0.118751 0.002736
O O5 0.672786 0.074355 0.689608
O O6 0.852986 0.815234 0.854987
O O7 0.735756 0.788815 0.552884
O O8 0.000000 0.960126 0.750000
O O9 0.236973 0.846601 0.053119
O O10 0.627663 0.602319 0.284277
O O11 0.726405 0.714226 0.296069
O O12 0.935862 0.486324 0.512635
O O13 0.421845 0.485515 0.009992
O O14 0.500000 0.327073 0.750000
O O15 0.272501 0.679039 0.295891
#
# Coordination Sequence:
#
# PCOD8119195 Si02
#       7
#     4   4   4   4   4   4   4
#     4  11  21  40  56  83 119 149 190 236 287 348
#     4  10  23  36  60  84 112 153 189 243 297 331
#     4  10  20  37  64  90 110 139 184 247 301 335
#     4  12  23  39  59  82 115 161 192 229 285 335
#     4  10  22  40  63  90 113 140 191 245 289 340
#     4  10  22  39  58  85 116 150 199 240 282 340
#     4  11  25  37  55  83 119 157 194 228 271 343
#
# _framework density 20.856204000000002
#
# number of rings (size 3 to 8) (size 9 to 14) (size 15 to 20)
#    0.000    1.429    0.000    6.000    0.000    9.714 
#    0.000    1.429    0.000    0.000    0.000    0.000 
#    0.000    0.000    0.000    0.000    0.000    0.000 
#
# Total GULP energy -347137.765526 kJ/mol
# GULP energy per Si atom -12397.777340 kJ/mol
# Density = 2.080873 g / cm^3
# Si number density = 20.856204 Si / 1000 Ang^3
#
#
#
# Elastic Constant Matrix: (Units=GPa)
#
#
# Indices 1 2 3 4 5 6 
#
# 1 107.3246 52.5233 17.9144 0.0000 -2.2072 0.0000
# 2 52.5233 101.2393 11.7872 0.0000 -4.8453 0.0000
# 3 17.9144 11.7872 71.0952 0.0000 0.3072 0.0000
# 4 0.0000 0.0000 0.0000 26.9278 0.0000 -0.8584
# 5 -2.2072 -4.8453 0.3072 0.0000 20.2449 0.0000
# 6 0.0000 0.0000 0.0000 -0.8584 0.0000 28.3130
#
#
#
# Elastic Compliance Matrix: (Units=1/GPa)
#
#
# Indices 1 2 3 4 5 6 
#
# 1 0.012808 -0.006397 -0.002166 0.000000 -0.000102 0.000000
# 2 -0.006397 0.013389 -0.000619 0.000000 0.002516 0.000000
# 3 -0.002166 -0.000619 0.014717 0.000000 -0.000608 0.000000
# 4 0.000000 0.000000 0.000000 0.037172 0.000000 0.001127
# 5 -0.000102 0.002516 -0.000608 0.000000 0.049996 0.000000
# 6 0.000000 0.000000 0.000000 0.001127 0.000000 0.035354
#
#
# Mechanical properties :
#
#
# Convention : Reuss Voigt Hill
#
# Bulk Modulus (GPa) = 44.34792 49.34541 46.84666
# Shear Modulus (GPa) = 26.41087 28.25941 27.33514
#
# Velocity S-wave (km/s) = 3.56242 3.68498 3.62421
# Velocity P-wave (km/s) = 6.18311 6.46658 6.32643
#
# Compressibility (1/GPa) = 0.02254897
#
# Stress axis : x y z
#
# Youngs Moduli (GPa) = 78.07729 74.68788 67.95007
#
# Poissons Ratio (x) = 0.47781 0.14719
# Poissons Ratio (y) = 0.49949 0.04204
# Poissons Ratio (z) = 0.16913 0.04621
#
# Static dielectric constant tensor:
#      x y z
#    x 3.888890 0.000000 -0.050290 
#    y 0.000000 3.812400 0.000000 
#    z -0.050290 0.000000 3.997910 
# 
# 
# High freq. dielectric constant tensor:
#      x y z
#    x 1.807030 0.000000 0.003310 
#    y 0.000000 1.813580 0.000000 
#    z 0.003310 0.000000 1.836070 
# 
# From -- ./inp_files/98086.got.cif
#   From: 2010.06.25/outbox.cif.g09.slc.cpg/sg13_50_cif.got.tgz:98086.got - 2010.06.28 04:50:58.
