data_PCOD8119865
_publ_section_title
;
Structure prediction by ZEFSAII (Michael W. Deem and Ramdas Pophale) SiO2 
 PCOD8119865
Probable space group: P 2/C
;
_chemical_formula_sum "Si O2"
_cell_formula_units_Z 30
_cell_length_a 25.110800
_cell_length_b 9.209834
_cell_length_c 8.821834
_cell_angle_alpha 90.000000
_cell_angle_beta 134.407181
_cell_angle_gamma 90.000000
_cell_volume 1457.483175
_symmetry_space_group_name_H-M "P 2/C"
_symmetry_group_IT_number 13
_symmetry_cell_setting 'monoclinic'
loop_
_space_group_symop_operation_xyz
x,y,z
-x,y,1/2-z
-x,-y,-z
x,-y,1/2+z
loop_
_atom_site_type_symbol
_atom_site_label
_atom_site_fract_x
_atom_site_fract_y
_atom_site_fract_z
Si Si1 0.033860 0.201343 0.575300
Si Si2 0.285595 0.807114 0.659832
Si Si3 0.866709 0.309202 0.271287
Si Si4 0.570658 0.831480 0.689797
Si Si5 0.000000 0.012268 0.250000
Si Si6 0.588036 0.141680 0.576918
Si Si7 0.270175 0.892085 0.971369
Si Si8 0.151916 0.595931 0.427954
O O1 0.084677 0.341764 0.691493
O O2 0.947519 0.244747 0.398499
O O3 0.052710 0.113941 0.458775
O O4 0.051927 0.092003 0.750671
O O5 0.365495 0.735772 0.767564
O O6 0.288824 0.876933 0.832002
O O7 0.227246 0.677138 0.531320
O O8 0.265646 0.937971 0.504585
O O9 0.808933 0.177863 0.146508
O O10 0.842861 0.426060 0.097321
O O11 0.866221 0.387510 0.432280
O O12 0.486163 0.766402 0.517964
O O13 0.572861 0.978767 0.598572
O O14 0.596190 0.856246 0.913037
O O15 0.664543 0.195145 0.807308
#
# Coordination Sequence:
#
# PCOD8119865 Si02
#       8
#     4   4   4   4   2   4   4   4
#     4  11  23  42  61  90 117 149 188 231 283 334
#     4  10  21  34  54  84 112 145 187 232 280 333
#     4  11  25  41  59  82 115 152 193 233 279 338
#     4   9  16  28  48  77 110 144 180 223 278 334
#     4  10  24  38  66  92 116 142 182 246 280 328
#     4   9  16  28  48  77 110 144 180 223 278 334
#     4  10  21  34  54  84 112 145 187 232 280 333
#     4  11  25  41  59  82 115 152 193 233 279 338
#
# _framework density 20.583428999999999
#
# number of rings (size 3 to 8) (size 9 to 14) (size 15 to 20)
#    0.000    1.867    1.333    3.600    5.600    3.733 
#    0.000    0.000    0.000    0.800    0.000    0.000 
#    0.000    0.000    0.000    0.000    0.000    0.000 
#
# Total GULP energy -371813.262384 kJ/mol
# GULP energy per Si atom -12393.775413 kJ/mol
# Density = 2.053658 g / cm^3
# Si number density = 20.583429 Si / 1000 Ang^3
#
#
#
# Elastic Constant Matrix: (Units=GPa)
#
#
# Indices 1 2 3 4 5 6 
#
# 1 104.1356 20.0961 38.8408 0.0000 12.1828 0.0000
# 2 20.0961 47.4878 11.8542 0.0000 -0.2720 0.0000
# 3 38.8408 11.8542 80.3622 0.0000 6.3373 0.0000
# 4 0.0000 0.0000 0.0000 21.0215 0.0000 -6.2199
# 5 12.1828 -0.2720 6.3373 0.0000 39.8129 0.0000
# 6 0.0000 0.0000 0.0000 -6.2199 0.0000 14.6458
#
#
#
# Elastic Compliance Matrix: (Units=1/GPa)
#
#
# Indices 1 2 3 4 5 6 
#
# 1 0.012730 -0.004080 -0.005308 0.000000 -0.003078 0.000000
# 2 -0.004080 0.023188 -0.001579 0.000000 0.001658 0.000000
# 3 -0.005308 -0.001579 0.015307 0.000000 -0.000823 0.000000
# 4 0.000000 0.000000 0.000000 0.054407 0.000000 0.023106
# 5 -0.003078 0.001658 -0.000823 0.000000 0.026202 0.000000
# 6 0.000000 0.000000 0.000000 0.023106 0.000000 0.078092
#
#
# Mechanical properties :
#
#
# Convention : Reuss Voigt Hill
#
# Bulk Modulus (GPa) = 34.14043 41.50752 37.82397
# Shear Modulus (GPa) = 20.69321 25.84233 23.26777
#
# Velocity S-wave (km/s) = 3.17414 3.54714 3.36581
# Velocity P-wave (km/s) = 5.48233 6.08157 5.78971
#
# Compressibility (1/GPa) = 0.02929079
#
# Stress axis : x y z
#
# Youngs Moduli (GPa) = 78.55339 43.12522 65.32907
#
# Poissons Ratio (x) = 0.17594 0.34678
# Poissons Ratio (y) = 0.32048 0.10318
# Poissons Ratio (z) = 0.41698 0.06811
#
# Static dielectric constant tensor:
#      x y z
#    x 4.237160 0.000000 0.192850 
#    y 0.000000 3.324380 0.000000 
#    z 0.192850 0.000000 4.020470 
# 
# 
# High freq. dielectric constant tensor:
#      x y z
#    x 1.825330 0.000000 -0.002830 
#    y 0.000000 1.754730 0.000000 
#    z -0.002830 0.000000 1.814960 
# 
# From -- ./inp_files/24452.got.cif
#   From: 2010.06.25/outbox.cif.g09.slc.cpg/sg13_13_cif.got.tgz:24452.got - 2010.06.28 04:50:58.
