data_PCOD8119233
_publ_section_title
;
Structure prediction by ZEFSAII (Michael W. Deem and Ramdas Pophale) SiO2 
 PCOD8119233
Probable space group: P 2/C
;
_chemical_formula_sum "Si O2"
_cell_formula_units_Z 32
_cell_length_a 21.053688
_cell_length_b 14.109356
_cell_length_c 8.532308
_cell_angle_alpha 90.000000
_cell_angle_beta 40.755568
_cell_angle_gamma 90.000000
_cell_volume 1654.642761
_symmetry_space_group_name_H-M "P 2/C"
_symmetry_group_IT_number 13
_symmetry_cell_setting 'monoclinic'
loop_
_space_group_symop_operation_xyz
x,y,z
-x,y,1/2-z
-x,-y,-z
x,-y,1/2+z
loop_
_atom_site_type_symbol
_atom_site_label
_atom_site_fract_x
_atom_site_fract_y
_atom_site_fract_z
Si Si1 0.608229 0.216783 0.017561
Si Si2 0.606258 0.971122 0.354929
Si Si3 0.110713 0.587018 0.202208
Si Si4 0.704260 0.300137 0.529903
Si Si5 0.385281 0.460811 0.986472
Si Si6 0.689361 0.628505 0.552120
Si Si7 0.382418 0.135454 0.965984
Si Si8 0.101747 0.614321 0.863672
O O1 0.500000 0.252492 0.250000
O O2 0.663798 0.260873 0.064699
O O3 0.609579 0.102093 0.998134
O O4 0.649309 0.260832 0.781940
O O5 0.656413 0.921511 0.114496
O O6 0.500000 0.000000 0.500000
O O7 0.653803 0.070938 0.320742
O O8 0.101600 0.476101 0.252388
O O9 0.011393 0.646818 0.420969
O O10 0.194560 0.631695 0.150606
O O11 0.139465 0.589914 0.966730
O O12 0.665029 0.403905 0.561982
O O13 0.675386 0.234576 0.432233
O O14 0.821576 0.306047 0.340925
O O15 0.500000 0.459224 0.750000
O O16 0.343847 0.567491 0.039284
O O17 0.360756 0.416287 0.200958
O O18 0.500000 0.151676 0.750000
#
# Coordination Sequence:
#
# PCOD8119233 Si02
#       8
#     4   4   4   4   4   4   4   4
#     4  11  23  36  53  79 115 149 184 224 263 326
#     4   9  18  35  55  77 107 145 185 226 267 311
#     4  10  20  38  57  77 103 140 186 232 284 312
#     4  11  21  35  52  79 109 144 186 224 272 327
#     4  12  23  35  50  73 113 155 184 215 263 324
#     4  12  22  36  52  76 108 147 187 226 266 323
#     4   9  18  32  53  77 109 143 181 222 268 324
#     4  10  21  37  58  78 103 139 185 239 277 322
#
# _framework density 19.339521999999999
#
# number of rings (size 3 to 8) (size 9 to 14) (size 15 to 20)
#    0.000    1.500    2.500    3.750    1.750    3.000 
#    0.000    0.000    0.000    0.000    0.000    0.875 
#    0.000    0.000    0.000    0.000    0.000    0.000 
#
# Total GULP energy -396465.681883 kJ/mol
# GULP energy per Si atom -12389.552559 kJ/mol
# Density = 1.929550 g / cm^3
# Si number density = 19.339522 Si / 1000 Ang^3
#
#
#
# Elastic Constant Matrix: (Units=GPa)
#
#
# Indices 1 2 3 4 5 6 
#
# 1 75.7318 27.0319 30.1938 0.0000 -16.3851 0.0000
# 2 27.0319 73.3971 22.9427 0.0000 -15.1866 0.0000
# 3 30.1938 22.9427 73.8442 0.0000 -18.0467 0.0000
# 4 0.0000 0.0000 0.0000 14.0118 0.0000 8.5198
# 5 -16.3851 -15.1866 -18.0467 0.0000 28.3796 0.0000
# 6 0.0000 0.0000 0.0000 8.5198 0.0000 37.0591
#
#
#
# Elastic Compliance Matrix: (Units=1/GPa)
#
#
# Indices 1 2 3 4 5 6 
#
# 1 0.017593 -0.003959 -0.004735 0.000000 0.005028 0.000000
# 2 -0.003959 0.016906 -0.002346 0.000000 0.005269 0.000000
# 3 -0.004735 -0.002346 0.018035 0.000000 0.007479 0.000000
# 4 0.000000 0.000000 0.000000 0.082966 0.000000 -0.019074
# 5 0.005028 0.005269 0.007479 0.000000 0.045715 0.000000
# 6 0.000000 0.000000 0.000000 -0.019074 0.000000 0.031369
#
#
# Mechanical properties :
#
#
# Convention : Reuss Voigt Hill
#
# Bulk Modulus (GPa) = 32.83604 42.58999 37.71302
# Shear Modulus (GPa) = 20.42348 25.41043 22.91695
#
# Velocity S-wave (km/s) = 3.25322 3.62872 3.44609
# Velocity P-wave (km/s) = 5.57914 6.29499 5.94785
#
# Compressibility (1/GPa) = 0.03045434
#
# Stress axis : x y z
#
# Youngs Moduli (GPa) = 56.83996 59.14975 55.44851
#
# Poissons Ratio (x) = 0.23418 0.26254
# Poissons Ratio (y) = 0.22504 0.13008
# Poissons Ratio (z) = 0.26912 0.13877
#
# Static dielectric constant tensor:
#      x y z
#    x 3.821220 0.000000 0.119260 
#    y 0.000000 3.877170 0.000000 
#    z 0.119260 0.000000 3.567440 
# 
# 
# High freq. dielectric constant tensor:
#      x y z
#    x 1.755120 0.000000 0.019710 
#    y 0.000000 1.736430 0.000000 
#    z 0.019710 0.000000 1.735570 
# 
# From -- ./inp_files/23542.got.cif
#   From: 2010.06.25/outbox.cif.g09.slc.cpg/sg13_12_cif.got.tgz:23542.got - 2010.06.28 04:50:58.
