data_PCOD8119127
_publ_section_title
;
Structure prediction by ZEFSAII (Michael W. Deem and Ramdas Pophale) SiO2 
 PCOD8119127
Probable space group: P 2/C
;
_chemical_formula_sum "Si O2"
_cell_formula_units_Z 28
_cell_length_a 23.447422
_cell_length_b 11.038826
_cell_length_c 28.832549
_cell_angle_alpha 90.000000
_cell_angle_beta 169.734958
_cell_angle_gamma 90.000000
_cell_volume 1329.882627
_symmetry_space_group_name_H-M "P 2/C"
_symmetry_group_IT_number 13
_symmetry_cell_setting 'monoclinic'
loop_
_space_group_symop_operation_xyz
x,y,z
-x,y,1/2-z
-x,-y,-z
x,-y,1/2+z
loop_
_atom_site_type_symbol
_atom_site_label
_atom_site_fract_x
_atom_site_fract_y
_atom_site_fract_z
Si Si1 0.847705 0.091661 0.078264
Si Si2 0.262815 0.224029 0.646311
Si Si3 0.701122 0.659160 0.144900
Si Si4 0.530679 0.188627 0.955683
Si Si5 0.843020 0.145915 0.521241
Si Si6 0.833407 0.002408 0.294768
Si Si7 0.914770 0.461673 0.379224
O O1 0.000000 0.105811 0.250000
O O2 0.095569 0.150232 0.239749
O O3 0.829014 0.949421 0.052361
O O4 0.506069 0.162886 0.803386
O O5 0.459320 0.254555 0.850534
O O6 0.956597 0.134913 0.407827
O O7 0.134169 0.357243 0.531530
O O8 0.515239 0.731543 0.035891
O O9 0.951245 0.573275 0.372643
O O10 0.886915 0.750333 0.258859
O O11 0.455865 0.582626 0.917254
O O12 0.279192 0.074939 0.750606
O O13 0.500000 0.212273 0.250000
O O14 0.890531 0.070536 0.511667
O O15 0.500000 0.000000 0.000000
O O16 0.000000 0.500000 0.500000
#
# Coordination Sequence:
#
# PCOD8119127 Si02
#       7
#     4   4   4   4   4   4   4
#     4  10  22  37  58  97 132 162 199 263 326 388
#     4  11  21  37  62  92 124 170 209 258 318 381
#     4  10  24  43  67  92 124 167 218 274 305 380
#     4  10  20  37  60  95 127 157 212 262 321 381
#     4  11  21  40  62  90 133 163 207 261 337 388
#     4  11  20  33  58  93 123 165 207 261 323 374
#     4  11  23  45  67  94 123 169 225 264 310 369
#
# _framework density 21.054489
#
# number of rings (size 3 to 8) (size 9 to 14) (size 15 to 20)
#    0.000    1.429    4.286    2.143    0.000    0.000 
#    2.571    2.857    0.000    0.000    0.000    0.000 
#    0.000    0.000    0.000    0.000    0.000    0.000 
#
# Total GULP energy -346932.314697 kJ/mol
# GULP energy per Si atom -12390.439811 kJ/mol
# Density = 2.100657 g / cm^3
# Si number density = 21.054489 Si / 1000 Ang^3
#
#
#
# Elastic Constant Matrix: (Units=GPa)
#
#
# Indices 1 2 3 4 5 6 
#
# 1 56.7471 34.2370 39.7802 0.0000 7.6209 0.0000
# 2 34.2370 129.1061 53.7803 0.0000 8.3801 0.0000
# 3 39.7802 53.7803 119.6297 0.0000 12.6499 0.0000
# 4 0.0000 0.0000 0.0000 40.5047 0.0000 1.7770
# 5 7.6209 8.3801 12.6499 0.0000 33.5626 0.0000
# 6 0.0000 0.0000 0.0000 1.7770 0.0000 33.7686
#
#
#
# Elastic Compliance Matrix: (Units=1/GPa)
#
#
# Indices 1 2 3 4 5 6 
#
# 1 0.024575 -0.003771 -0.006234 0.000000 -0.002289 0.000000
# 2 -0.003771 0.010130 -0.003252 0.000000 -0.000447 0.000000
# 3 -0.006234 -0.003252 0.012143 0.000000 -0.002349 0.000000
# 4 0.000000 0.000000 0.000000 0.024746 0.000000 -0.001302
# 5 -0.002289 -0.000447 -0.002349 0.000000 0.031312 0.000000
# 6 0.000000 0.000000 0.000000 -0.001302 0.000000 0.029682
#
#
# Mechanical properties :
#
#
# Convention : Reuss Voigt Hill
#
# Bulk Modulus (GPa) = 49.18612 62.34200 55.76406
# Shear Modulus (GPa) = 30.14220 33.41286 31.77753
#
# Velocity S-wave (km/s) = 3.78779 3.98800 3.88919
# Velocity P-wave (km/s) = 6.52241 7.13300 6.83453
#
# Compressibility (1/GPa) = 0.02033094
#
# Stress axis : x y z
#
# Youngs Moduli (GPa) = 40.69139 98.72123 82.35328
#
# Poissons Ratio (x) = 0.37232 0.51343
# Poissons Ratio (y) = 0.15346 0.26785
# Poissons Ratio (z) = 0.25369 0.32109
#
# Static dielectric constant tensor:
#      x y z
#    x 3.848490 0.000000 0.211450 
#    y 0.000000 4.061050 0.000000 
#    z 0.211450 0.000000 4.085720 
# 
# 
# High freq. dielectric constant tensor:
#      x y z
#    x 1.809380 0.000000 -0.004410 
#    y 0.000000 1.818900 0.000000 
#    z -0.004410 0.000000 1.834060 
# 
# From -- ./inp_files/97728.got.cif
#   From: 2010.06.25/outbox.cif.g09.slc.cpg/sg13_49_cif.got.tgz:97728.got - 2010.06.28 04:50:58.
