data_PCOD8119504
_publ_section_title
;
Structure prediction by ZEFSAII (Michael W. Deem and Ramdas Pophale) SiO2 
 PCOD8119504
Probable space group: P 2/C
;
_chemical_formula_sum "Si O2"
_cell_formula_units_Z 24
_cell_length_a 18.342610
_cell_length_b 11.415050
_cell_length_c 11.313988
_cell_angle_alpha 90.000000
_cell_angle_beta 30.113997
_cell_angle_gamma 90.000000
_cell_volume 1188.551138
_symmetry_space_group_name_H-M "P 2/C"
_symmetry_group_IT_number 13
_symmetry_cell_setting 'monoclinic'
loop_
_space_group_symop_operation_xyz
x,y,z
-x,y,1/2-z
-x,-y,-z
x,-y,1/2+z
loop_
_atom_site_type_symbol
_atom_site_label
_atom_site_fract_x
_atom_site_fract_y
_atom_site_fract_z
Si Si1 0.350639 0.801461 0.604341
Si Si2 0.787240 0.402947 0.101159
Si Si3 0.844266 0.933550 0.441474
Si Si4 0.322520 0.840779 0.377656
Si Si5 0.144561 0.660057 0.474142
Si Si6 0.081294 0.300849 0.793683
O O1 0.352548 0.671280 0.660494
O O2 0.308004 0.785169 0.527334
O O3 0.510716 0.854454 0.395344
O O4 0.235091 0.886353 0.829740
O O5 0.765857 0.538873 0.160834
O O6 0.810701 0.389942 0.926756
O O7 0.918902 0.339069 0.987040
O O8 0.879337 0.829662 0.301743
O O9 0.000000 0.993755 0.250000
O O10 0.743361 0.029701 0.522307
O O11 0.239832 0.760976 0.398903
O O12 0.101366 0.697934 0.404397
O O13 0.000000 0.633843 0.750000
#
# Coordination Sequence:
#
# PCOD8119504 Si02
#       6
#     4   4   4   4   4   4
#     4  10  23  46  63  87 132 171 209 253 329 377
#     4  10  20  40  67  86 129 170 205 259 319 366
#     4  11  22  42  68  91 125 167 213 264 314 373
#     4  11  26  40  63  96 127 171 208 263 314 382
#     4  12  24  36  65 101 127 160 221 265 302 373
#     4  10  20  39  62  97 122 164 204 264 317 361
#
# _framework density 20.192653
#
# number of rings (size 3 to 8) (size 9 to 14) (size 15 to 20)
#    0.000    1.333    5.000    2.500    4.667    1.333 
#    0.000    2.500    0.000    0.000    0.000    0.000 
#    0.000    0.000    0.000    0.000    0.000    0.000 
#
# Total GULP energy -297572.785499 kJ/mol
# GULP energy per Si atom -12398.866062 kJ/mol
# Density = 2.014669 g / cm^3
# Si number density = 20.192653 Si / 1000 Ang^3
#
#
#
# Elastic Constant Matrix: (Units=GPa)
#
#
# Indices 1 2 3 4 5 6 
#
# 1 108.8479 26.3046 32.1759 0.0000 16.9359 0.0000
# 2 26.3046 104.1084 24.3990 0.0000 -3.6764 0.0000
# 3 32.1759 24.3990 96.6614 0.0000 7.0787 0.0000
# 4 0.0000 0.0000 0.0000 18.0772 0.0000 -3.6113
# 5 16.9359 -3.6764 7.0787 0.0000 27.1070 0.0000
# 6 0.0000 0.0000 0.0000 -3.6113 0.0000 17.1077
#
#
#
# Elastic Compliance Matrix: (Units=1/GPa)
#
#
# Indices 1 2 3 4 5 6 
#
# 1 0.011694 -0.002558 -0.002739 0.000000 -0.006938 0.000000
# 2 -0.002558 0.010887 -0.002163 0.000000 0.003640 0.000000
# 3 -0.002739 -0.002163 0.011927 0.000000 -0.001697 0.000000
# 4 0.000000 0.000000 0.000000 0.057754 0.000000 0.012192
# 5 -0.006938 0.003640 -0.001697 0.000000 0.042162 0.000000
# 6 0.000000 0.000000 0.000000 0.012192 0.000000 0.061027
#
#
# Mechanical properties :
#
#
# Convention : Reuss Voigt Hill
#
# Bulk Modulus (GPa) = 51.04941 52.81964 51.93452
# Shear Modulus (GPa) = 23.05191 27.57426 25.31308
#
# Velocity S-wave (km/s) = 3.38242 3.69936 3.54443
# Velocity P-wave (km/s) = 6.37106 6.66795 6.52120
#
# Compressibility (1/GPa) = 0.01958886
#
# Stress axis : x y z
#
# Youngs Moduli (GPa) = 85.51058 91.85133 83.84039
#
# Poissons Ratio (x) = 0.23494 0.22964
# Poissons Ratio (y) = 0.21873 0.18136
# Poissons Ratio (z) = 0.23422 0.19869
#
# Static dielectric constant tensor:
#      x y z
#    x 3.549530 0.000000 0.113640 
#    y 0.000000 3.729090 0.000000 
#    z 0.113640 0.000000 3.815400 
# 
# 
# High freq. dielectric constant tensor:
#      x y z
#    x 1.777750 0.000000 0.015180 
#    y 0.000000 1.793440 0.000000 
#    z 0.015180 0.000000 1.791490 
# 
# From -- ./inp_files/39113.got.cif
#   From: 2010.06.25/outbox.cif.g09.slc.cpg/sg13_20_cif.got.tgz:39113.got - 2010.06.28 04:50:58.
