data_PCOD8119584
_publ_section_title
;
Structure prediction by ZEFSAII (Michael W. Deem and Ramdas Pophale) SiO2 
 PCOD8119584
Probable space group: P 2/C
;
_chemical_formula_sum "Si O2"
_cell_formula_units_Z 26
_cell_length_a 23.459607
_cell_length_b 9.114703
_cell_length_c 9.942358
_cell_angle_alpha 90.000000
_cell_angle_beta 139.242884
_cell_angle_gamma 90.000000
_cell_volume 1387.933349
_symmetry_space_group_name_H-M "P 2/C"
_symmetry_group_IT_number 13
_symmetry_cell_setting 'monoclinic'
loop_
_space_group_symop_operation_xyz
x,y,z
-x,y,1/2-z
-x,-y,-z
x,-y,1/2+z
loop_
_atom_site_type_symbol
_atom_site_label
_atom_site_fract_x
_atom_site_fract_y
_atom_site_fract_z
Si Si1 0.500000 0.456794 0.250000
Si Si2 0.340101 0.404151 0.355438
Si Si3 0.200798 0.107033 0.841819
Si Si4 0.778575 0.158921 0.316206
Si Si5 0.674277 0.365250 0.466360
Si Si6 0.071653 0.375361 0.991858
Si Si7 0.959282 0.704005 0.534638
O O1 0.555658 0.565609 0.447139
O O2 0.568265 0.351797 0.292478
O O3 0.288489 0.519671 0.358229
O O4 0.317234 0.235765 0.355240
O O5 0.305244 0.432111 0.143117
O O6 0.202570 0.082318 0.006070
O O7 0.280286 0.208963 0.933892
O O8 0.108326 0.172459 0.632311
O O9 0.214532 0.952782 0.793745
O O10 0.843292 0.294615 0.409357
O O11 0.090751 0.547883 0.049713
O O12 0.000000 0.357251 0.750000
O O13 0.038718 0.301883 0.070982
O O14 0.000000 0.750090 0.750000
#
# Coordination Sequence:
#
# PCOD8119584 Si02
#       7
#     2   4   4   4   4   4   4
#     4   8  18  36  64  94 108 140 192 236 298 332
#     4   9  19  36  61  88 115 142 187 240 284 341
#     4  11  24  40  54  85 120 158 191 233 284 346
#     4  11  24  39  56  83 121 158 192 232 286 339
#     4   9  19  36  62  87 115 140 191 238 286 337
#     4  10  20  40  60  83 113 150 193 249 279 326
#     4  10  22  38  62  86 112 149 199 242 289 328
#
# _framework density 18.732889
#
# number of rings (size 3 to 8) (size 9 to 14) (size 15 to 20)
#    0.923    1.231    1.538    1.385    2.154    2.462 
#    0.000    0.769    0.000    3.692    0.000    0.000 
#    0.000    0.000    0.000    0.000    0.000    0.000 
#
# Total GULP energy -322225.818628 kJ/mol
# GULP energy per Si atom -12393.300716 kJ/mol
# Density = 1.869025 g / cm^3
# Si number density = 18.732889 Si / 1000 Ang^3
#
#
#
# Elastic Constant Matrix: (Units=GPa)
#
#
# Indices 1 2 3 4 5 6 
#
# 1 73.4270 24.4404 17.2318 0.0000 -14.0097 0.0000
# 2 24.4404 57.0619 6.9989 0.0000 0.5222 0.0000
# 3 17.2318 6.9989 35.4723 0.0000 -2.1642 0.0000
# 4 0.0000 0.0000 0.0000 10.6510 0.0000 1.6141
# 5 -14.0097 0.5222 -2.1642 0.0000 33.7122 0.0000
# 6 0.0000 0.0000 0.0000 1.6141 0.0000 29.8780
#
#
#
# Elastic Compliance Matrix: (Units=1/GPa)
#
#
# Indices 1 2 3 4 5 6 
#
# 1 0.019297 -0.007422 -0.007443 0.000000 0.007656 0.000000
# 2 -0.007422 0.020823 -0.000714 0.000000 -0.003453 0.000000
# 3 -0.007443 -0.000714 0.031884 0.000000 -0.001035 0.000000
# 4 0.000000 0.000000 0.000000 0.094663 0.000000 -0.005114
# 5 0.007656 -0.003453 -0.001035 0.000000 0.032832 0.000000
# 6 0.000000 0.000000 0.000000 -0.005114 0.000000 0.033746
#
#
# Mechanical properties :
#
#
# Convention : Reuss Voigt Hill
#
# Bulk Modulus (GPa) = 24.48143 29.25594 26.86868
# Shear Modulus (GPa) = 17.98452 22.66756 20.32604
#
# Velocity S-wave (km/s) = 3.10183 3.48234 3.29758
# Velocity P-wave (km/s) = 5.09171 5.64094 5.37335
#
# Compressibility (1/GPa) = 0.04084729
#
# Stress axis : x y z
#
# Youngs Moduli (GPa) = 51.82171 48.02370 31.36355
#
# Poissons Ratio (x) = 0.35645 0.23342
# Poissons Ratio (y) = 0.38464 0.02238
# Poissons Ratio (z) = 0.38568 0.03427
#
# Static dielectric constant tensor:
#      x y z
#    x 3.693260 0.000000 -0.046620 
#    y 0.000000 3.196100 0.000000 
#    z -0.046620 0.000000 3.390320 
# 
# 
# High freq. dielectric constant tensor:
#      x y z
#    x 1.737000 0.000000 -0.010970 
#    y 0.000000 1.704190 0.000000 
#    z -0.010970 0.000000 1.725720 
# 
# From -- ./inp_files/22829.got.cif
#   From: 2010.06.25/outbox.cif.g09.slc.cpg/sg13_12_cif.got.tgz:22829.got - 2010.06.28 04:50:58.
