data_PCOD8119545
_publ_section_title
;
Structure prediction by ZEFSAII (Michael W. Deem and Ramdas Pophale) SiO2 
 PCOD8119545
Probable space group: P 2/C
;
_chemical_formula_sum "Si O2"
_cell_formula_units_Z 22
_cell_length_a 8.276892
_cell_length_b 6.793839
_cell_length_c 19.077041
_cell_angle_alpha 90.000000
_cell_angle_beta 66.209142
_cell_angle_gamma 90.000000
_cell_volume 981.580809
_symmetry_space_group_name_H-M "P 2/C"
_symmetry_group_IT_number 13
_symmetry_cell_setting 'monoclinic'
loop_
_space_group_symop_operation_xyz
x,y,z
-x,y,1/2-z
-x,-y,-z
x,-y,1/2+z
loop_
_atom_site_type_symbol
_atom_site_label
_atom_site_fract_x
_atom_site_fract_y
_atom_site_fract_z
Si Si1 0.500000 0.372312 0.250000
Si Si2 0.358482 0.778874 0.963703
Si Si3 0.372702 0.622817 0.400483
Si Si4 0.134960 0.965933 0.414404
Si Si5 0.655217 0.941205 0.394343
Si Si6 0.161539 0.122824 0.262058
O O1 0.449192 0.513920 0.320826
O O2 0.332375 0.247668 0.252509
O O3 0.333874 0.543255 0.966168
O O4 0.290962 0.876977 0.903119
O O5 0.564392 0.848264 0.930244
O O6 0.248911 0.863721 0.050746
O O7 0.196616 0.738999 0.408229
O O8 0.508754 0.776235 0.407538
O O9 0.075648 0.017123 0.345420
O O10 0.000000 0.000000 0.500000
O O11 0.779906 0.956718 0.304893
O O12 0.000000 0.238682 0.250000
#
# Coordination Sequence:
#
# PCOD8119545 Si02
#       6
#     2   4   4   4   4   4
#     4  12  22  46  70 106 136 182 242 284 352 416
#     4  10  20  39  66 101 133 184 228 282 350 413
#     4  11  21  40  72  97 135 188 230 289 350 416
#     4  11  24  43  65  97 140 187 231 285 353 417
#     4  10  21  39  66 101 137 173 236 284 343 420
#     4  12  24  45  70  98 141 187 232 293 349 414
#
# _framework density 22.412822999999999
#
# number of rings (size 3 to 8) (size 9 to 14) (size 15 to 20)
#    0.000    1.091    3.636    3.818    0.000    0.727 
#    3.273    3.636    0.000    0.000    0.000    0.000 
#    0.000    0.000    0.000    0.000    0.000    0.000 
#
# Total GULP energy -272584.293746 kJ/mol
# GULP energy per Si atom -12390.195170 kJ/mol
# Density = 2.236181 g / cm^3
# Si number density = 22.412823 Si / 1000 Ang^3
#
#
#
# Elastic Constant Matrix: (Units=GPa)
#
#
# Indices 1 2 3 4 5 6 
#
# 1 90.2538 34.9679 31.7396 0.0000 17.4470 0.0000
# 2 34.9679 118.1626 33.2585 0.0000 4.6777 0.0000
# 3 31.7396 33.2585 176.7675 0.0000 8.3099 0.0000
# 4 0.0000 0.0000 0.0000 38.7567 0.0000 1.1179
# 5 17.4470 4.6777 8.3099 0.0000 36.1271 0.0000
# 6 0.0000 0.0000 0.0000 1.1179 0.0000 16.4443
#
#
#
# Elastic Compliance Matrix: (Units=1/GPa)
#
#
# Indices 1 2 3 4 5 6 
#
# 1 0.014163 -0.003502 -0.001601 0.000000 -0.006018 0.000000
# 2 -0.003502 0.009824 -0.001253 0.000000 0.000708 0.000000
# 3 -0.001601 -0.001253 0.006203 0.000000 -0.000491 0.000000
# 4 0.000000 0.000000 0.000000 0.025853 0.000000 -0.001758
# 5 -0.006018 0.000708 -0.000491 0.000000 0.030608 0.000000
# 6 0.000000 0.000000 0.000000 -0.001758 0.000000 0.060931
#
#
# Mechanical properties :
#
#
# Convention : Reuss Voigt Hill
#
# Bulk Modulus (GPa) = 57.21486 65.01288 61.11387
# Shear Modulus (GPa) = 30.09856 37.28015 33.68936
#
# Velocity S-wave (km/s) = 3.66856 4.08283 3.88123
# Velocity P-wave (km/s) = 6.59754 7.16212 6.88562
#
# Compressibility (1/GPa) = 0.01747798
#
# Stress axis : x y z
#
# Youngs Moduli (GPa) = 70.60496 101.79170 161.20041
#
# Poissons Ratio (x) = 0.35652 0.25812
# Poissons Ratio (y) = 0.24729 0.20194
# Poissons Ratio (z) = 0.11305 0.12752
#
# Static dielectric constant tensor:
#      x y z
#    x 4.485480 0.000000 0.518090 
#    y 0.000000 4.487760 0.000000 
#    z 0.518090 0.000000 4.515750 
# 
# 
# High freq. dielectric constant tensor:
#      x y z
#    x 1.878770 0.000000 0.020930 
#    y 0.000000 1.864880 0.000000 
#    z 0.020930 0.000000 1.907720 
# 
# From -- ./inp_files/74476.got.cif
#   From: 2010.06.25/outbox.cif.g09.slc.cpg/sg13_38_cif.got.tgz:74476.got - 2010.06.28 04:50:58.
