data_PCOD8119404
_publ_section_title
;
Structure prediction by ZEFSAII (Michael W. Deem and Ramdas Pophale) SiO2 
 PCOD8119404
Probable space group: P 2/C
;
_chemical_formula_sum "Si O2"
_cell_formula_units_Z 30
_cell_length_a 8.548934
_cell_length_b 10.945249
_cell_length_c 16.107583
_cell_angle_alpha 90.000000
_cell_angle_beta 117.802839
_cell_angle_gamma 90.000000
_cell_volume 1333.196720
_symmetry_space_group_name_H-M "P 2/C"
_symmetry_group_IT_number 13
_symmetry_cell_setting 'monoclinic'
loop_
_space_group_symop_operation_xyz
x,y,z
-x,y,1/2-z
-x,-y,-z
x,-y,1/2+z
loop_
_atom_site_type_symbol
_atom_site_label
_atom_site_fract_x
_atom_site_fract_y
_atom_site_fract_z
Si Si1 0.500000 0.753595 0.750000
Si Si2 0.193331 0.831075 0.261015
Si Si3 0.443203 0.353075 0.404300
Si Si4 0.801562 0.943352 0.852546
Si Si5 0.234285 0.516453 0.981209
Si Si6 0.863686 0.873627 0.502199
Si Si7 0.079718 0.338123 0.595262
Si Si8 0.509931 0.140671 0.529247
O O1 0.585953 0.666608 0.700954
O O2 0.660304 0.836701 0.820237
O O3 0.193251 0.706975 0.204381
O O4 0.336438 0.822447 0.369085
O O5 0.000000 0.851572 0.250000
O O6 0.252267 0.951213 0.224837
O O7 0.578713 0.461215 0.450539
O O8 0.263065 0.390978 0.409790
O O9 0.532259 0.225641 0.455014
O O10 0.002638 0.892627 0.886179
O O11 0.813509 0.996426 0.948857
O O12 0.092233 0.413769 0.918158
O O13 0.184270 0.581020 0.054898
O O14 0.970340 0.787879 0.463490
O O15 0.678263 0.814099 0.481283
O O16 0.500000 0.000000 0.500000
#
# Coordination Sequence:
#
# PCOD8119404 Si02
#       8
#     2   4   4   4   4   4   4   4
#     4  12  24  44  68 106 136 184 228 298 344 436
#     4  11  23  39  64 110 138 180 237 294 348 426
#     4  11  24  44  68  99 137 182 230 288 356 419
#     4  10  21  37  64  97 145 174 226 274 351 421
#     4  10  22  46  71  95 136 187 235 289 355 410
#     4  10  20  38  64  99 131 192 219 279 351 422
#     4  10  21  42  71  95 135 182 241 291 345 411
#     4  12  23  40  69 102 143 185 230 285 366 431
#
# _framework density 22.502305
#
# number of rings (size 3 to 8) (size 9 to 14) (size 15 to 20)
#    0.000    1.333    1.333    4.800    0.000    3.733 
#    7.200    0.000    2.933    0.000    0.000    0.000 
#    0.000    0.000    0.000    0.000    0.000    0.000 
#
# Total GULP energy -371738.772391 kJ/mol
# GULP energy per Si atom -12391.292413 kJ/mol
# Density = 2.245109 g / cm^3
# Si number density = 22.502305 Si / 1000 Ang^3
#
#
#
# Elastic Constant Matrix: (Units=GPa)
#
#
# Indices 1 2 3 4 5 6 
#
# 1 113.6501 31.7800 46.4491 0.0000 4.3398 0.0000
# 2 31.7800 103.2900 43.7310 0.0000 -4.4956 0.0000
# 3 46.4491 43.7310 114.5240 0.0000 0.7882 0.0000
# 4 0.0000 0.0000 0.0000 33.6273 0.0000 -1.0955
# 5 4.3398 -4.4956 0.7882 0.0000 37.3493 0.0000
# 6 0.0000 0.0000 0.0000 -1.0955 0.0000 36.3847
#
#
#
# Elastic Compliance Matrix: (Units=1/GPa)
#
#
# Indices 1 2 3 4 5 6 
#
# 1 0.010880 -0.001842 -0.003699 0.000000 -0.001408 0.000000
# 2 -0.001842 0.011943 -0.003825 0.000000 0.001732 0.000000
# 3 -0.003699 -0.003825 0.011695 0.000000 -0.000277 0.000000
# 4 0.000000 0.000000 0.000000 0.029767 0.000000 0.000896
# 5 -0.001408 0.001732 -0.000277 0.000000 0.027152 0.000000
# 6 0.000000 0.000000 0.000000 0.000896 0.000000 0.027511
#
#
# Mechanical properties :
#
#
# Convention : Reuss Voigt Hill
#
# Bulk Modulus (GPa) = 63.35652 63.93157 63.64405
# Shear Modulus (GPa) = 34.97880 35.43919 35.20900
#
# Velocity S-wave (km/s) = 3.94693 3.97282 3.95990
# Velocity P-wave (km/s) = 6.99912 7.03685 7.01801
#
# Compressibility (1/GPa) = 0.01578370
#
# Stress axis : x y z
#
# Youngs Moduli (GPa) = 91.91262 83.72913 85.50812
#
# Poissons Ratio (x) = 0.15427 0.31633
# Poissons Ratio (y) = 0.16935 0.32708
# Poissons Ratio (z) = 0.34003 0.32028
#
# Static dielectric constant tensor:
#      x y z
#    x 4.243790 0.000000 -0.155890 
#    y 0.000000 4.213790 0.000000 
#    z -0.155890 0.000000 4.013930 
# 
# 
# High freq. dielectric constant tensor:
#      x y z
#    x 1.890960 0.000000 -0.006790 
#    y 0.000000 1.897710 0.000000 
#    z -0.006790 0.000000 1.872380 
# 
# From -- ./inp_files/47298.got.cif
#   From: 2010.06.25/outbox.cif.g09.slc.cpg/sg13_24_cif.got.tgz:47298.got - 2010.06.28 04:50:58.
