data_PCOD8119935
_publ_section_title
;
Structure prediction by ZEFSAII (Michael W. Deem and Ramdas Pophale) SiO2 
 PCOD8119935
Probable space group: P 2/C
;
_chemical_formula_sum "Si O2"
_cell_formula_units_Z 24
_cell_length_a 10.670118
_cell_length_b 11.490003
_cell_length_c 11.969549
_cell_angle_alpha 90.000000
_cell_angle_beta 129.740347
_cell_angle_gamma 90.000000
_cell_volume 1128.404994
_symmetry_space_group_name_H-M "P 2/C"
_symmetry_group_IT_number 13
_symmetry_cell_setting 'monoclinic'
loop_
_space_group_symop_operation_xyz
x,y,z
-x,y,1/2-z
-x,-y,-z
x,-y,1/2+z
loop_
_atom_site_type_symbol
_atom_site_label
_atom_site_fract_x
_atom_site_fract_y
_atom_site_fract_z
Si Si1 0.206179 0.408706 0.967061
Si Si2 0.730583 0.096161 0.582152
Si Si3 0.326986 0.653711 0.100285
Si Si4 0.678990 0.789002 0.837201
Si Si5 0.147610 0.703845 0.218469
Si Si6 0.358387 0.156929 0.425629
O O1 0.257804 0.370367 0.870480
O O2 0.024317 0.361566 0.885660
O O3 0.227583 0.545731 0.992360
O O4 0.318563 0.346133 0.123784
O O5 0.783026 0.135091 0.485940
O O6 0.855345 0.162402 0.737603
O O7 0.548008 0.135161 0.512043
O O8 0.741964 0.957604 0.595946
O O9 0.500000 0.615000 0.250000
O O10 0.221557 0.708831 0.138433
O O11 0.344523 0.748498 0.014217
O O12 0.500000 0.841436 0.750000
O O13 0.733401 0.799892 0.739624
#
# Coordination Sequence:
#
# PCOD8119935 Si02
#       6
#     4   4   4   4   4   4
#     4  10  23  41  63  82 127 175 212 256 311 385
#     4   9  19  38  64  89 127 167 205 262 316 383
#     4  12  24  37  64  98 128 160 215 269 313 373
#     4   9  19  37  60  88 119 164 211 256 317 370
#     4  10  22  43  63  86 126 175 211 253 327 374
#     4  10  21  35  63  98 125 157 212 267 313 372
#
# _framework density 21.268958000000001
#
# number of rings (size 3 to 8) (size 9 to 14) (size 15 to 20)
#    0.000    2.000    1.667    1.000    4.667    1.333 
#    0.000    0.833    7.333    0.000    0.000    0.000 
#    0.000    0.000    0.000    0.000    0.000    0.000 
#
# Total GULP energy -297381.395192 kJ/mol
# GULP energy per Si atom -12390.891466 kJ/mol
# Density = 2.122055 g / cm^3
# Si number density = 21.268958 Si / 1000 Ang^3
#
#
#
# Elastic Constant Matrix: (Units=GPa)
#
#
# Indices 1 2 3 4 5 6 
#
# 1 69.4157 29.5206 44.9174 0.0000 -24.7591 0.0000
# 2 29.5206 144.3642 63.7436 0.0000 -11.4269 0.0000
# 3 44.9174 63.7436 110.8363 0.0000 -29.6274 0.0000
# 4 0.0000 0.0000 0.0000 20.4619 0.0000 0.6941
# 5 -24.7591 -11.4269 -29.6274 0.0000 43.7927 0.0000
# 6 0.0000 0.0000 0.0000 0.6941 0.0000 22.6456
#
#
#
# Elastic Compliance Matrix: (Units=1/GPa)
#
#
# Indices 1 2 3 4 5 6 
#
# 1 0.021562 -0.001147 -0.005982 0.000000 0.007845 0.000000
# 2 -0.001147 0.009422 -0.005457 0.000000 -0.001882 0.000000
# 3 -0.005982 -0.005457 0.016236 0.000000 0.006179 0.000000
# 4 0.000000 0.000000 0.000000 0.048922 0.000000 -0.001499
# 5 0.007845 -0.001882 0.006179 0.000000 0.030959 0.000000
# 6 0.000000 0.000000 0.000000 -0.001499 0.000000 0.044205
#
#
# Mechanical properties :
#
#
# Convention : Reuss Voigt Hill
#
# Bulk Modulus (GPa) = 45.35264 66.77549 56.06406
# Shear Modulus (GPa) = 24.53047 29.80901 27.16974
#
# Velocity S-wave (km/s) = 3.39978 3.74776 3.57800
# Velocity P-wave (km/s) = 6.06474 7.08460 6.59441
#
# Compressibility (1/GPa) = 0.02204943
#
# Stress axis : x y z
#
# Youngs Moduli (GPa) = 46.37697 106.13432 61.58982
#
# Poissons Ratio (x) = 0.12175 0.36841
# Poissons Ratio (y) = 0.05320 0.33609
# Poissons Ratio (z) = 0.27741 0.57916
#
# Static dielectric constant tensor:
#      x y z
#    x 3.712980 0.000000 -0.243080 
#    y 0.000000 3.766210 0.000000 
#    z -0.243080 0.000000 4.173510 
# 
# 
# High freq. dielectric constant tensor:
#      x y z
#    x 1.814170 0.000000 -0.015870 
#    y 0.000000 1.826940 0.000000 
#    z -0.015870 0.000000 1.845080 
# 
# From -- ./inp_files/33958.got.cif
#   From: 2010.06.25/outbox.cif.g09.slc.cpg/sg13_17_cif.got.tgz:33958.got - 2010.06.28 04:50:58.
