data_PCOD8119951
_publ_section_title
;
Structure prediction by ZEFSAII (Michael W. Deem and Ramdas Pophale) SiO2 
 PCOD8119951
Probable space group: P 2/C
;
_chemical_formula_sum "Si O2"
_cell_formula_units_Z 28
_cell_length_a 18.152438
_cell_length_b 16.253412
_cell_length_c 5.060135
_cell_angle_alpha 90.000000
_cell_angle_beta 73.635793
_cell_angle_gamma 90.000000
_cell_volume 1432.458796
_symmetry_space_group_name_H-M "P 2/C"
_symmetry_group_IT_number 13
_symmetry_cell_setting 'monoclinic'
loop_
_space_group_symop_operation_xyz
x,y,z
-x,y,1/2-z
-x,-y,-z
x,-y,1/2+z
loop_
_atom_site_type_symbol
_atom_site_label
_atom_site_fract_x
_atom_site_fract_y
_atom_site_fract_z
Si Si1 0.877362 0.945679 0.370622
Si Si2 0.701143 0.551961 0.088369
Si Si3 0.877148 0.445790 0.374800
Si Si4 0.000000 0.192946 0.750000
Si Si5 0.586154 0.197272 0.193019
Si Si6 0.586175 0.696822 0.193725
Si Si7 0.000000 0.692545 0.750000
Si Si8 0.298845 0.947769 0.933191
O O1 0.788777 0.918290 0.445048
O O2 0.925644 0.863395 0.279178
O O3 0.897964 0.987280 0.627804
O O4 0.684496 0.521754 0.401165
O O5 0.646254 0.626263 0.068881
O O6 0.788730 0.582077 0.975212
O O7 0.897390 0.513891 0.573727
O O8 0.925740 0.363872 0.371451
O O9 0.014391 0.250172 0.485412
O O10 0.500000 0.161469 0.250000
O O11 0.599844 0.228617 0.476126
O O12 0.598909 0.272173 0.978103
O O13 0.646328 0.127587 0.059335
O O14 0.500000 0.661348 0.250000
O O15 0.316024 0.020419 0.122328
#
# Coordination Sequence:
#
# PCOD8119951 Si02
#       8
#     4   4   4   2   4   4   2   4
#     4  10  21  39  58  77 108 146 177 213 269 323
#     4  10  21  36  57  82 105 138 183 223 261 311
#     4  10  21  39  58  77 108 146 177 213 269 323
#     4  12  24  36  56  86 110 136 180 224 262 310
#     4  10  21  36  54  78 110 145 176 214 270 322
#     4  10  21  36  54  78 110 145 176 214 270 322
#     4  12  24  36  56  86 110 136 180 224 262 310
#     4  10  21  36  57  82 105 138 183 223 261 311
#
# _framework density 19.546810000000001
#
# number of rings (size 3 to 8) (size 9 to 14) (size 15 to 20)
#    0.000    1.714    0.000    4.286    0.000    3.429 
#    0.000    0.000    0.000    0.000    0.000    0.000 
#    0.000    0.000    0.000    0.000    0.000    0.000 
#
# Total GULP energy -347370.218027 kJ/mol
# GULP energy per Si atom -12406.079215 kJ/mol
# Density = 1.950232 g / cm^3
# Si number density = 19.546810 Si / 1000 Ang^3
#
#
#
# Elastic Constant Matrix: (Units=GPa)
#
#
# Indices 1 2 3 4 5 6 
#
# 1 101.2857 57.7107 29.4312 0.0000 -13.7320 0.0000
# 2 57.7107 83.7026 16.9175 0.0000 -23.4953 0.0000
# 3 29.4312 16.9175 77.9679 0.0000 1.2057 0.0000
# 4 0.0000 0.0000 0.0000 12.7096 0.0000 6.8768
# 5 -13.7320 -23.4953 1.2057 0.0000 31.6532 0.0000
# 6 0.0000 0.0000 0.0000 6.8768 0.0000 12.3055
#
#
#
# Elastic Compliance Matrix: (Units=1/GPa)
#
#
# Indices 1 2 3 4 5 6 
#
# 1 0.017477 -0.011430 -0.004106 0.000000 -0.000745 0.000000
# 2 -0.011430 0.023554 -0.000991 0.000000 0.012563 0.000000
# 3 -0.004106 -0.000991 0.014638 0.000000 -0.003074 0.000000
# 4 0.000000 0.000000 0.000000 0.112782 0.000000 -0.063027
# 5 -0.000745 0.012563 -0.003074 0.000000 0.040711 0.000000
# 6 0.000000 0.000000 0.000000 -0.063027 0.000000 0.116487
#
#
# Mechanical properties :
#
#
# Convention : Reuss Voigt Hill
#
# Bulk Modulus (GPa) = 44.21344 52.34166 48.27755
# Shear Modulus (GPa) = 13.65221 21.92679 17.78950
#
# Velocity S-wave (km/s) = 2.64566 3.35290 3.02005
# Velocity P-wave (km/s) = 5.65695 6.46722 6.07561
#
# Compressibility (1/GPa) = 0.02261756
#
# Stress axis : x y z
#
# Youngs Moduli (GPa) = 57.21665 42.45557 68.31472
#
# Poissons Ratio (x) = 0.48525 0.28049
# Poissons Ratio (y) = 0.65396 0.06767
# Poissons Ratio (z) = 0.23492 0.04206
#
# Static dielectric constant tensor:
#      x y z
#    x 3.695580 0.000000 0.012530 
#    y 0.000000 3.235790 0.000000 
#    z 0.012530 0.000000 3.699330 
# 
# 
# High freq. dielectric constant tensor:
#      x y z
#    x 1.773560 0.000000 0.005050 
#    y 0.000000 1.746010 0.000000 
#    z 0.005050 0.000000 1.780510 
# 
# From -- ./inp_files/6252.got.cif
#   From: 2010.06.25/outbox.cif.g09.slc.cpg/sg13_4_cif.got.tgz:6252.got - 2010.06.28 04:50:58.
