data_PCOD8119729
_publ_section_title
;
Structure prediction by ZEFSAII (Michael W. Deem and Ramdas Pophale) SiO2 
 PCOD8119729
Probable space group: P 2/C
;
_chemical_formula_sum "Si O2"
_cell_formula_units_Z 16
_cell_length_a 11.362209
_cell_length_b 9.703292
_cell_length_c 10.962134
_cell_angle_alpha 90.000000
_cell_angle_beta 35.600455
_cell_angle_gamma 90.000000
_cell_volume 703.552539
_symmetry_space_group_name_H-M "P 2/C"
_symmetry_group_IT_number 13
_symmetry_cell_setting 'monoclinic'
loop_
_space_group_symop_operation_xyz
x,y,z
-x,y,1/2-z
-x,-y,-z
x,-y,1/2+z
loop_
_atom_site_type_symbol
_atom_site_label
_atom_site_fract_x
_atom_site_fract_y
_atom_site_fract_z
Si Si1 0.695475 0.498291 0.457831
Si Si2 0.058759 0.142243 0.890840
Si Si3 0.247453 0.402059 0.837294
Si Si4 0.299877 0.197267 0.468492
O O1 0.493582 0.405257 0.620886
O O2 0.826544 0.452015 0.465973
O O3 0.821076 0.499817 0.221783
O O4 0.632607 0.656529 0.532700
O O5 0.165966 0.246291 0.894508
O O6 0.208433 0.104263 0.653346
O O7 0.860631 0.218189 0.004918
O O8 0.000000 0.000000 0.000000
O O9 0.500000 0.121337 0.250000
#
# Coordination Sequence:
#
# PCOD8119729 Si02
#       4
#     4   4   4   4
#     4   9  17  34  62  99 124 164 218 269 344 379
#     4  10  23  40  60  93 134 178 223 258 324 410
#     4   9  17  34  61  90 136 160 214 277 319 402
#     4  10  20  41  66  89 129 173 215 282 340 380
#
# _framework density 22.741727999999998
#
# number of rings (size 3 to 8) (size 9 to 14) (size 15 to 20)
#    0.000    2.500    2.500    0.000    0.000    2.000 
#    4.500    5.000    0.000    0.000    0.000    0.000 
#    0.000    0.000    0.000    0.000    0.000    0.000 
#
# Total GULP energy -198231.648847 kJ/mol
# GULP energy per Si atom -12389.478053 kJ/mol
# Density = 2.268997 g / cm^3
# Si number density = 22.741728 Si / 1000 Ang^3
#
#
#
# Elastic Constant Matrix: (Units=GPa)
#
#
# Indices 1 2 3 4 5 6 
#
# 1 155.2285 63.7676 66.6938 0.0000 35.2367 0.0000
# 2 63.7676 121.6960 49.8139 0.0000 13.2018 0.0000
# 3 66.6938 49.8139 132.8423 0.0000 26.0586 0.0000
# 4 0.0000 0.0000 0.0000 33.9903 0.0000 -0.7545
# 5 35.2367 13.2018 26.0586 0.0000 42.6672 0.0000
# 6 0.0000 0.0000 0.0000 -0.7545 0.0000 17.3286
#
#
#
# Elastic Compliance Matrix: (Units=1/GPa)
#
#
# Indices 1 2 3 4 5 6 
#
# 1 0.010467 -0.003744 -0.002707 0.000000 -0.005833 0.000000
# 2 -0.003744 0.011076 -0.002508 0.000000 0.001197 0.000000
# 3 -0.002707 -0.002508 0.010494 0.000000 -0.003397 0.000000
# 4 0.000000 0.000000 0.000000 0.029449 0.000000 0.001282
# 5 -0.005833 0.001197 -0.003397 0.000000 0.029959 0.000000
# 6 0.000000 0.000000 0.000000 0.001282 0.000000 0.057764
#
#
# Mechanical properties :
#
#
# Convention : Reuss Voigt Hill
#
# Bulk Modulus (GPa) = 70.83070 85.59080 78.21075
# Shear Modulus (GPa) = 29.09802 34.09664 31.59733
#
# Velocity S-wave (km/s) = 3.58089 3.87628 3.73151
# Velocity P-wave (km/s) = 6.95056 7.59946 7.28224
#
# Compressibility (1/GPa) = 0.01411817
#
# Stress axis : x y z
#
# Youngs Moduli (GPa) = 95.53671 90.28605 95.29406
#
# Poissons Ratio (x) = 0.33802 0.25796
# Poissons Ratio (y) = 0.35768 0.23904
# Poissons Ratio (z) = 0.25862 0.22648
#
# Static dielectric constant tensor:
#      x y z
#    x 4.636960 0.000000 0.473140 
#    y 0.000000 3.455810 0.000000 
#    z 0.473140 0.000000 4.521310 
# 
# 
# High freq. dielectric constant tensor:
#      x y z
#    x 1.919840 0.000000 0.010520 
#    y 0.000000 1.838790 0.000000 
#    z 0.010520 0.000000 1.907380 
# 
# From -- ./inp_files/31978.got.cif
#   From: 2010.06.25/outbox.cif.g09.slc.cpg/sg13_16_cif.got.tgz:31978.got - 2010.06.28 04:50:58.
