data_PCOD8119007
_publ_section_title
;
Structure prediction by ZEFSAII (Michael W. Deem and Ramdas Pophale) SiO2 
 PCOD8119007
Probable space group: P 2/C
;
_chemical_formula_sum "Si O2"
_cell_formula_units_Z 20
_cell_length_a 17.743605
_cell_length_b 12.424695
_cell_length_c 9.058052
_cell_angle_alpha 90.000000
_cell_angle_beta 28.791626
_cell_angle_gamma 90.000000
_cell_volume 961.771634
_symmetry_space_group_name_H-M "P 2/C"
_symmetry_group_IT_number 13
_symmetry_cell_setting 'monoclinic'
loop_
_space_group_symop_operation_xyz
x,y,z
-x,y,1/2-z
-x,-y,-z
x,-y,1/2+z
loop_
_atom_site_type_symbol
_atom_site_label
_atom_site_fract_x
_atom_site_fract_y
_atom_site_fract_z
Si Si1 0.345173 0.332870 0.321640
Si Si2 0.836900 0.871867 0.450869
Si Si3 0.167734 0.080890 0.887866
Si Si4 0.883395 0.514464 0.832340
Si Si5 0.305444 0.700792 0.228903
O O1 0.270250 0.233339 0.362178
O O2 0.275376 0.444861 0.383729
O O3 0.302389 0.337625 0.566422
O O4 0.529937 0.325578 0.976128
O O5 0.852545 0.912015 0.254085
O O6 0.000000 0.841577 0.250000
O O7 0.759294 0.966529 0.684382
O O8 0.278388 0.171478 0.769865
O O9 0.000000 0.092162 0.250000
O O10 0.000000 0.467772 0.750000
O O11 0.000000 0.500000 0.500000
O O12 0.831492 0.638902 0.946689
#
# Coordination Sequence:
#
# PCOD8119007 Si02
#       5
#     4   4   4   4   4
#     4  10  22  40  61  88 125 159 197 247 302 360
#     4  10  20  37  61  90 120 156 200 246 291 351
#     4  10  20  36  62  87 120 158 199 244 294 352
#     4  12  23  41  66  89 116 157 205 249 297 359
#     4  10  22  40  61  88 124 161 194 247 310 352
#
# _framework density 20.794958000000001
#
# number of rings (size 3 to 8) (size 9 to 14) (size 15 to 20)
#    0.000    1.600    2.000    4.200    2.800    0.800 
#    3.600    0.000    0.000    0.000    0.000    0.000 
#    0.000    0.000    0.000    0.000    0.000    0.000 
#
# Total GULP energy -247794.443762 kJ/mol
# GULP energy per Si atom -12389.722188 kJ/mol
# Density = 2.074763 g / cm^3
# Si number density = 20.794958 Si / 1000 Ang^3
#
#
#
# Elastic Constant Matrix: (Units=GPa)
#
#
# Indices 1 2 3 4 5 6 
#
# 1 122.8343 55.8743 39.1488 0.0000 -13.2509 0.0000
# 2 55.8743 117.7648 27.4614 0.0000 -15.6614 0.0000
# 3 39.1488 27.4614 75.6426 0.0000 -5.6257 0.0000
# 4 0.0000 0.0000 0.0000 28.5495 0.0000 -4.4853
# 5 -13.2509 -15.6614 -5.6257 0.0000 38.1912 0.0000
# 6 0.0000 0.0000 0.0000 -4.4853 0.0000 35.1765
#
#
#
# Elastic Compliance Matrix: (Units=1/GPa)
#
#
# Indices 1 2 3 4 5 6 
#
# 1 0.011661 -0.004299 -0.004352 0.000000 0.001642 0.000000
# 2 -0.004299 0.011305 -0.001663 0.000000 0.002899 0.000000
# 3 -0.004352 -0.001663 0.016090 0.000000 0.000178 0.000000
# 4 0.000000 0.000000 0.000000 0.035743 0.000000 0.004557
# 5 0.001642 0.002899 0.000178 0.000000 0.027969 0.000000
# 6 0.000000 0.000000 0.000000 0.004557 0.000000 0.029009
#
#
# Mechanical properties :
#
#
# Convention : Reuss Voigt Hill
#
# Bulk Modulus (GPa) = 54.27246 62.35674 58.31460
# Shear Modulus (GPa) = 31.53621 33.30057 32.41839
#
# Velocity S-wave (km/s) = 3.89849 4.00606 3.95264
# Velocity P-wave (km/s) = 6.81321 7.17284 6.99534
#
# Compressibility (1/GPa) = 0.01842555
#
# Stress axis : x y z
#
# Youngs Moduli (GPa) = 85.75639 88.45795 62.15187
#
# Poissons Ratio (x) = 0.38032 0.27049
# Poissons Ratio (y) = 0.36870 0.10338
# Poissons Ratio (z) = 0.37323 0.14714
#
# Static dielectric constant tensor:
#      x y z
#    x 4.004720 0.000000 -0.218200 
#    y 0.000000 4.839280 0.000000 
#    z -0.218200 0.000000 3.658910 
# 
# 
# High freq. dielectric constant tensor:
#      x y z
#    x 1.825020 0.000000 -0.006890 
#    y 0.000000 1.824910 0.000000 
#    z -0.006890 0.000000 1.794870 
# 
# From -- ./inp_files/21698.got.cif
#   From: 2010.06.25/outbox.cif.g09.slc.cpg/sg13_11_cif.got.tgz:21698.got - 2010.06.28 04:50:58.
