data_PCOD8119949
_publ_section_title
;
Structure prediction by ZEFSAII (Michael W. Deem and Ramdas Pophale) SiO2 
 PCOD8119949
Probable space group: P 2/C
;
_chemical_formula_sum "Si O2"
_cell_formula_units_Z 20
_cell_length_a 8.240810
_cell_length_b 21.883849
_cell_length_c 8.606230
_cell_angle_alpha 90.000000
_cell_angle_beta 34.541139
_cell_angle_gamma 90.000000
_cell_volume 880.010695
_symmetry_space_group_name_H-M "P 2/C"
_symmetry_group_IT_number 13
_symmetry_cell_setting 'monoclinic'
loop_
_space_group_symop_operation_xyz
x,y,z
-x,y,1/2-z
-x,-y,-z
x,-y,1/2+z
loop_
_atom_site_type_symbol
_atom_site_label
_atom_site_fract_x
_atom_site_fract_y
_atom_site_fract_z
Si Si1 0.567494 0.065600 0.878955
Si Si2 0.941144 0.129430 0.118887
Si Si3 0.678033 0.451610 0.458938
Si Si4 0.128587 0.250085 0.812847
Si Si5 0.638160 0.671746 0.804425
O O1 0.500000 0.070508 0.750000
O O2 0.904565 0.081710 0.621472
O O3 0.401218 0.117020 0.117627
O O4 0.500000 0.000000 0.000000
O O5 0.000000 0.112536 0.250000
O O6 0.076185 0.195331 0.974771
O O7 0.500000 0.500000 0.500000
O O8 0.686466 0.388024 0.364593
O O9 0.000000 0.474455 0.250000
O O10 0.500000 0.438296 0.750000
O O11 0.454719 0.274318 0.535296
O O12 0.000000 0.228690 0.750000
O O13 0.957473 0.306368 0.019598
O O14 0.500000 0.653135 0.750000
#
# Coordination Sequence:
#
# PCOD8119949 Si02
#       5
#     4   4   4   4   4
#     4  10  21  36  54  78 108 146 190 241 299 359
#     4  10  21  36  54  80 114 148 189 243 301 361
#     4  12  26  44  68  98 131 171 217 265 319 381
#     4  10  21  37  60  87 117 156 199 245 302 365
#     4  10  22  41  62  89 125 161 203 256 308 366
#
# _framework density 22.726997000000001
#
# number of rings (size 3 to 8) (size 9 to 14) (size 15 to 20)
#    0.000    1.600    0.000    4.200    0.000    6.400 
#    0.000    0.000    0.000    0.000    0.000    0.000 
#    0.000    0.000    0.000    0.000    0.000    0.000 
#
# Total GULP energy -247772.087832 kJ/mol
# GULP energy per Si atom -12388.604392 kJ/mol
# Density = 2.267527 g / cm^3
# Si number density = 22.726997 Si / 1000 Ang^3
#
#
#
# Elastic Constant Matrix: (Units=GPa)
#
#
# Indices 1 2 3 4 5 6 
#
# 1 44.8446 36.4942 50.1610 0.0000 -2.8652 0.0000
# 2 36.4942 87.4765 32.1504 0.0000 18.9483 0.0000
# 3 50.1610 32.1504 162.2742 0.0000 5.9496 0.0000
# 4 0.0000 0.0000 0.0000 65.1605 0.0000 34.2186
# 5 -2.8652 18.9483 5.9496 0.0000 31.5872 0.0000
# 6 0.0000 0.0000 0.0000 34.2186 0.0000 38.4518
#
#
#
# Elastic Compliance Matrix: (Units=1/GPa)
#
#
# Indices 1 2 3 4 5 6 
#
# 1 0.060189 -0.024757 -0.014545 0.000000 0.023051 0.000000
# 2 -0.024757 0.024260 0.003486 0.000000 -0.017455 0.000000
# 3 -0.014545 0.003486 0.010163 0.000000 -0.005325 0.000000
# 4 0.000000 0.000000 0.000000 0.028811 0.000000 -0.025639
# 5 0.023051 -0.017455 -0.005325 0.000000 0.045223 0.000000
# 6 0.000000 0.000000 0.000000 -0.025639 0.000000 0.048823
#
#
# Mechanical properties :
#
#
# Convention : Reuss Voigt Hill
#
# Bulk Modulus (GPa) = 43.51751 59.13405 51.32578
# Shear Modulus (GPa) = 16.84857 38.75922 27.80389
#
# Velocity S-wave (km/s) = 2.72572 4.13416 3.50149
# Velocity P-wave (km/s) = 5.39403 6.99029 6.24339
#
# Compressibility (1/GPa) = 0.02297925
#
# Stress axis : x y z
#
# Youngs Moduli (GPa) = 16.61434 41.22054 98.39569
#
# Poissons Ratio (x) = 1.02051 1.43119
# Poissons Ratio (y) = 0.41133 -0.34304
# Poissons Ratio (z) = 0.24166 -0.14371
#
# Static dielectric constant tensor:
#      x y z
#    x 4.148000 0.000000 -0.029710 
#    y 0.000000 3.766080 0.000000 
#    z -0.029710 0.000000 5.129380 
# 
# 
# High freq. dielectric constant tensor:
#      x y z
#    x 1.869370 0.000000 0.007300 
#    y 0.000000 1.893450 0.000000 
#    z 0.007300 0.000000 1.938850 
# 
# From -- ./inp_files/13780.got.cif
#   From: 2010.06.25/outbox.cif.g09.slc.cpg/sg13_7_cif.got.tgz:13780.got - 2010.06.28 04:50:58.
