data_PCOD8119624
_publ_section_title
;
Structure prediction by ZEFSAII (Michael W. Deem and Ramdas Pophale) SiO2 
 PCOD8119624
Probable space group: P 2/C
;
_chemical_formula_sum "Si O2"
_cell_formula_units_Z 28
_cell_length_a 29.327529
_cell_length_b 9.128136
_cell_length_c 9.789036
_cell_angle_alpha 90.000000
_cell_angle_beta 147.405596
_cell_angle_gamma 90.000000
_cell_volume 1411.676567
_symmetry_space_group_name_H-M "P 2/C"
_symmetry_group_IT_number 13
_symmetry_cell_setting 'monoclinic'
loop_
_space_group_symop_operation_xyz
x,y,z
-x,y,1/2-z
-x,-y,-z
x,-y,1/2+z
loop_
_atom_site_type_symbol
_atom_site_label
_atom_site_fract_x
_atom_site_fract_y
_atom_site_fract_z
Si Si1 0.859526 0.142358 0.672616
Si Si2 0.419315 0.339969 0.370721
Si Si3 0.604427 0.602750 0.383758
Si Si4 0.167762 0.187160 0.428354
Si Si5 0.009479 0.359430 0.118576
Si Si6 0.279244 0.878414 0.458286
Si Si7 0.245762 0.794222 0.850653
O O1 0.787937 0.182575 0.601962
O O2 0.829426 0.187964 0.446971
O O3 0.877420 0.967833 0.721897
O O4 0.943991 0.230680 0.918812
O O5 0.398562 0.443020 0.190291
O O6 0.389005 0.414924 0.436032
O O7 0.519617 0.307032 0.630109
O O8 0.370750 0.188493 0.222665
O O9 0.685782 0.682436 0.530947
O O10 0.248149 0.163243 0.729023
O O11 0.202279 0.265499 0.378774
O O12 0.102773 0.295337 0.335933
O O13 0.000000 0.412045 0.250000
O O14 0.000000 0.500000 0.000000
O O15 0.290953 0.052205 0.498750
#
# Coordination Sequence:
#
# PCOD8119624 Si02
#       7
#     4   4   4   4   4   4   4
#     4  10  21  43  65  85 119 156 198 244 298 352
#     4  10  22  39  61  84 123 160 201 239 295 349
#     4  10  22  40  58  88 120 162 198 243 291 354
#     4  10  23  41  64  89 116 156 197 246 298 352
#     4  12  27  43  60  89 124 157 199 244 292 349
#     4  10  20  40  63  90 116 156 197 249 294 350
#     4  10  22  38  65  91 117 149 203 245 298 351
#
# _framework density 19.834572000000001
#
# number of rings (size 3 to 8) (size 9 to 14) (size 15 to 20)
#    0.000    1.714    2.857    0.429    4.000    2.857 
#    0.000    0.000    0.000    0.000    0.000    0.000 
#    0.000    0.000    0.000    0.000    0.000    0.000 
#
# Total GULP energy -347279.716043 kJ/mol
# GULP energy per Si atom -12402.847002 kJ/mol
# Density = 1.978943 g / cm^3
# Si number density = 19.834572 Si / 1000 Ang^3
#
#
#
# Elastic Constant Matrix: (Units=GPa)
#
#
# Indices 1 2 3 4 5 6 
#
# 1 106.7668 10.4031 18.8394 0.0000 -16.2880 0.0000
# 2 10.4031 47.2480 18.8942 0.0000 1.1901 0.0000
# 3 18.8394 18.8942 59.0702 0.0000 -10.6917 0.0000
# 4 0.0000 0.0000 0.0000 29.9973 0.0000 0.0027
# 5 -16.2880 1.1901 -10.6917 0.0000 38.4668 0.0000
# 6 0.0000 0.0000 0.0000 0.0027 0.0000 27.0501
#
#
#
# Elastic Compliance Matrix: (Units=1/GPa)
#
#
# Indices 1 2 3 4 5 6 
#
# 1 0.010490 -0.001550 -0.002145 0.000000 0.003893 0.000000
# 2 -0.001550 0.024846 -0.008119 0.000000 -0.003682 0.000000
# 3 -0.002145 -0.008119 0.021156 0.000000 0.005223 0.000000
# 4 0.000000 0.000000 0.000000 0.033336 0.000000 -0.000003
# 5 0.003893 -0.003682 0.005223 0.000000 0.029211 0.000000
# 6 0.000000 0.000000 0.000000 -0.000003 0.000000 0.036968
#
#
# Mechanical properties :
#
#
# Convention : Reuss Voigt Hill
#
# Bulk Modulus (GPa) = 30.42974 34.37316 32.40145
# Shear Modulus (GPa) = 26.23447 30.09939 28.16693
#
# Velocity S-wave (km/s) = 3.64079 3.89976 3.77250
# Velocity P-wave (km/s) = 5.74881 6.13556 5.94533
#
# Compressibility (1/GPa) = 0.03286259
#
# Stress axis : x y z
#
# Youngs Moduli (GPa) = 95.33167 40.24830 47.26897
#
# Poissons Ratio (x) = 0.06238 0.10139
# Poissons Ratio (y) = 0.14775 0.38379
# Poissons Ratio (z) = 0.20449 0.32679
#
# Static dielectric constant tensor:
#      x y z
#    x 3.837490 0.000000 -0.156940 
#    y 0.000000 3.427180 0.000000 
#    z -0.156940 0.000000 3.607640 
# 
# 
# High freq. dielectric constant tensor:
#      x y z
#    x 1.788440 0.000000 -0.012170 
#    y 0.000000 1.755880 0.000000 
#    z -0.012170 0.000000 1.776870 
# 
# From -- ./inp_files/23000.got.cif
#   From: 2010.06.25/outbox.cif.g09.slc.cpg/sg13_12_cif.got.tgz:23000.got - 2010.06.28 04:50:58.
