data_PCOD8119206
_publ_section_title
;
Structure prediction by ZEFSAII (Michael W. Deem and Ramdas Pophale) SiO2 
 PCOD8119206
Probable space group: P 2/C
;
_chemical_formula_sum "Si O2"
_cell_formula_units_Z 24
_cell_length_a 12.623904
_cell_length_b 10.761282
_cell_length_c 15.579726
_cell_angle_alpha 90.000000
_cell_angle_beta 28.674140
_cell_angle_gamma 90.000000
_cell_volume 1015.553240
_symmetry_space_group_name_H-M "P 2/C"
_symmetry_group_IT_number 13
_symmetry_cell_setting 'monoclinic'
loop_
_space_group_symop_operation_xyz
x,y,z
-x,y,1/2-z
-x,-y,-z
x,-y,1/2+z
loop_
_atom_site_type_symbol
_atom_site_label
_atom_site_fract_x
_atom_site_fract_y
_atom_site_fract_z
Si Si1 0.753324 0.750000 0.339986
Si Si2 0.676556 0.491843 0.450407
Si Si3 0.500000 0.951101 0.750000
Si Si4 0.839755 0.250000 0.066432
Si Si5 0.765048 0.250000 0.316595
Si Si6 0.500000 0.451100 0.250000
Si Si7 0.323444 0.008157 0.049593
O O1 0.798839 0.626759 0.365945
O O2 0.501115 0.750000 0.488881
O O3 0.798838 0.873241 0.365946
O O4 0.911944 0.750001 0.145101
O O5 0.500000 0.500000 0.500000
O O6 0.841544 0.376707 0.311112
O O7 0.565786 0.464935 0.621611
O O8 0.289676 0.870825 0.872087
O O9 0.565788 0.035066 0.621610
O O10 0.861755 0.250001 0.153043
O O11 0.710327 0.370824 0.127910
O O12 0.841545 0.123293 0.311112
O O13 0.500000 0.000000 0.000000
#
# Coordination Sequence:
#
# PCOD8119206 Si02
#       7
#     4   4   2   4   4   2   4
#     4  10  20  37  65  89 111 156 200 237 292 343
#     4  10  20  39  59  87 121 152 191 243 293 340
#     4  11  20  37  62  88 116 156 194 244 290 338
#     4  11  21  36  66  88 112 154 206 240 284 343
#     4  10  21  43  57  87 128 149 187 249 293 342
#     4  11  20  37  62  88 116 156 194 244 290 338
#     4  10  20  39  59  87 121 152 191 243 293 340
#
# _framework density 23.632438
#
# number of rings (size 3 to 8) (size 9 to 14) (size 15 to 20)
#    0.000    1.667    6.667    1.000    0.000    4.667 
#    0.000    0.000    0.000    4.000    0.000    0.000 
#    0.000    0.000    0.000    0.000    0.000    0.000 
#
# Total GULP energy -297405.162544 kJ/mol
# GULP energy per Si atom -12391.881773 kJ/mol
# Density = 2.357865 g / cm^3
# Si number density = 23.632438 Si / 1000 Ang^3
#
#
#
# Elastic Constant Matrix: (Units=GPa)
#
#
# Indices 1 2 3 4 5 6 
#
# 1 63.1820 2.5270 45.1916 0.0000 36.9149 0.0000
# 2 2.5270 184.7009 29.8274 0.0000 34.5176 0.0000
# 3 45.1916 29.8274 186.2841 0.0000 49.6249 0.0000
# 4 0.0000 0.0000 0.0000 31.6939 0.0000 27.1658
# 5 36.9149 34.5176 49.6249 0.0000 59.5280 0.0000
# 6 0.0000 0.0000 0.0000 27.1658 0.0000 -5.4749
#
#
#
# Elastic Compliance Matrix: (Units=1/GPa)
#
#
# Indices 1 2 3 4 5 6 
#
# 1 0.027272 0.003144 -0.002736 0.000000 -0.016454 0.000000
# 2 0.003144 0.006435 -0.000360 0.000000 -0.005381 0.000000
# 3 -0.002736 -0.000360 0.007175 0.000000 -0.004076 0.000000
# 4 0.000000 0.000000 0.000000 0.006006 0.000000 0.029803
# 5 -0.016454 -0.005381 -0.004076 0.000000 0.033521 0.000000
# 6 0.000000 0.000000 0.000000 0.029803 0.000000 -0.034771
#
#
# Mechanical properties :
#
#
# Convention : Reuss Voigt Hill
#
# Bulk Modulus (GPa) = 24.40298 65.47323 44.93811
# Shear Modulus (GPa) = 84.45613 40.92412 62.69013
#
# Velocity S-wave (km/s) = 5.98456 4.16588 5.15604
# Velocity P-wave (km/s) = 7.62245 7.13473 7.38262
#
# Compressibility (1/GPa) = 0.04097860
#
# Stress axis : x y z
#
# Youngs Moduli (GPa) = 36.66739 155.40392 139.36415
#
# Poissons Ratio (x) = -0.48855 0.38133
# Poissons Ratio (y) = -0.11527 0.05010
# Poissons Ratio (z) = 0.10033 0.05587
#
# Static dielectric constant tensor:
#      x y z
#    x 3.850780 0.000000 0.279010 
#    y 0.000000 6.981040 0.000000 
#    z 0.279010 0.000000 4.161500 
# 
# 
# High freq. dielectric constant tensor:
#      x y z
#    x 1.918360 0.000000 0.020000 
#    y 0.000000 1.942290 0.000000 
#    z 0.020000 0.000000 1.931840 
# 
# From -- ./inp_files/53656.got.cif
#   From: 2010.06.25/outbox.cif.g09.slc.cpg/sg13_27_cif.got.tgz:53656.got - 2010.06.28 04:50:58.
