data_PCOD8119769
_publ_section_title
;
Structure prediction by ZEFSAII (Michael W. Deem and Ramdas Pophale) SiO2 
 PCOD8119769
Probable space group: P 2/C
;
_chemical_formula_sum "Si O2"
_cell_formula_units_Z 28
_cell_length_a 9.083180
_cell_length_b 8.923043
_cell_length_c 27.557865
_cell_angle_alpha 90.000000
_cell_angle_beta 144.974746
_cell_angle_gamma 90.000000
_cell_volume 1281.920306
_symmetry_space_group_name_H-M "P 2/C"
_symmetry_group_IT_number 13
_symmetry_cell_setting 'monoclinic'
loop_
_space_group_symop_operation_xyz
x,y,z
-x,y,1/2-z
-x,-y,-z
x,-y,1/2+z
loop_
_atom_site_type_symbol
_atom_site_label
_atom_site_fract_x
_atom_site_fract_y
_atom_site_fract_z
Si Si1 0.605333 0.887401 0.331173
Si Si2 0.253960 0.416418 0.452915
Si Si3 0.601932 0.835367 0.034546
Si Si4 0.897443 0.310497 0.529857
Si Si5 0.930505 0.926738 0.284700
Si Si6 0.700611 0.783708 0.875133
Si Si7 0.150630 0.757447 0.693321
O O1 0.500000 0.936790 0.250000
O O2 0.345206 0.841280 0.289662
O O3 0.814656 0.755700 0.384492
O O4 0.718632 0.036233 0.387236
O O5 0.500000 0.500000 0.500000
O O6 0.376536 0.256040 0.501808
O O7 0.111346 0.514322 0.456181
O O8 0.060813 0.374059 0.355484
O O9 0.682272 0.776609 0.002741
O O10 0.855169 0.817071 0.135894
O O11 0.500000 0.000000 0.000000
O O12 0.834164 0.299083 0.455947
O O13 0.000000 0.977718 0.250000
O O14 0.944245 0.076318 0.320743
O O15 0.406757 0.725895 0.792654
O O16 0.832936 0.740415 0.860736
#
# Coordination Sequence:
#
# PCOD8119769 Si02
#       7
#     4   4   4   4   4   4   4
#     4  11  20  41  66 101 139 171 235 303 352 417
#     4  10  24  42  62  96 139 181 226 278 357 435
#     4  11  22  40  66  98 137 182 229 292 345 407
#     4  11  24  42  68 101 137 184 230 287 367 424
#     4  11  23  38  67 106 130 177 236 297 356 412
#     4  10  21  39  70  99 125 180 242 290 346 425
#     4  10  20  42  64  92 138 170 233 293 341 424
#
# _framework density 21.842231000000002
#
# number of rings (size 3 to 8) (size 9 to 14) (size 15 to 20)
#    0.000    1.429    5.714    0.429    4.000    1.714 
#    2.571    2.857    0.000    0.000    0.000    0.000 
#    0.000    0.000    0.000    0.000    0.000    0.000 
#
# Total GULP energy -346902.079118 kJ/mol
# GULP energy per Si atom -12389.359968 kJ/mol
# Density = 2.179252 g / cm^3
# Si number density = 21.842231 Si / 1000 Ang^3
#
#
#
# Elastic Constant Matrix: (Units=GPa)
#
#
# Indices 1 2 3 4 5 6 
#
# 1 85.3906 44.8785 44.3972 0.0000 9.6705 0.0000
# 2 44.8785 121.6693 54.2993 0.0000 15.2481 0.0000
# 3 44.3972 54.2993 112.6581 0.0000 10.7595 0.0000
# 4 0.0000 0.0000 0.0000 35.0868 0.0000 11.4667
# 5 9.6705 15.2481 10.7595 0.0000 43.2653 0.0000
# 6 0.0000 0.0000 0.0000 11.4667 0.0000 35.3906
#
#
#
# Elastic Compliance Matrix: (Units=1/GPa)
#
#
# Indices 1 2 3 4 5 6 
#
# 1 0.016153 -0.003849 -0.004400 0.000000 -0.001160 0.000000
# 2 -0.003849 0.011658 -0.003884 0.000000 -0.002282 0.000000
# 3 -0.004400 -0.003884 0.012556 0.000000 -0.000770 0.000000
# 4 0.000000 0.000000 0.000000 0.031876 0.000000 -0.010328
# 5 -0.001160 -0.002282 -0.000770 0.000000 0.024368 0.000000
# 6 0.000000 0.000000 0.000000 -0.010328 0.000000 0.031602
#
#
# Mechanical properties :
#
#
# Convention : Reuss Voigt Hill
#
# Bulk Modulus (GPa) = 62.10809 67.42978 64.76893
# Shear Modulus (GPa) = 31.67629 34.49141 33.08385
#
# Velocity S-wave (km/s) = 3.81232 3.97812 3.89610
# Velocity P-wave (km/s) = 6.91918 7.21380 7.06802
#
# Compressibility (1/GPa) = 0.01610096
#
# Stress axis : x y z
#
# Youngs Moduli (GPa) = 61.90900 85.77567 79.64384
#
# Poissons Ratio (x) = 0.33017 0.35040
# Poissons Ratio (y) = 0.23830 0.30935
# Poissons Ratio (z) = 0.27237 0.33317
#
# Static dielectric constant tensor:
#      x y z
#    x 4.803970 0.000000 0.868300 
#    y 0.000000 4.961280 0.000000 
#    z 0.868300 0.000000 4.405210 
# 
# 
# High freq. dielectric constant tensor:
#      x y z
#    x 1.858420 0.000000 0.028110 
#    y 0.000000 1.842860 0.000000 
#    z 0.028110 0.000000 1.861110 
# 
# From -- ./inp_files/91319.got.cif
#   From: 2010.06.25/outbox.cif.g09.slc.cpg/sg13_46_cif.got.tgz:91319.got - 2010.06.28 04:50:58.
