data_PCOD8119247
_publ_section_title
;
Structure prediction by ZEFSAII (Michael W. Deem and Ramdas Pophale) SiO2 
 PCOD8119247
Probable space group: P 2/C
;
_chemical_formula_sum "Si O2"
_cell_formula_units_Z 30
_cell_length_a 15.288619
_cell_length_b 12.133349
_cell_length_c 9.234622
_cell_angle_alpha 90.000000
_cell_angle_beta 115.978663
_cell_angle_gamma 90.000000
_cell_volume 1539.951710
_symmetry_space_group_name_H-M "P 2/C"
_symmetry_group_IT_number 13
_symmetry_cell_setting 'monoclinic'
loop_
_space_group_symop_operation_xyz
x,y,z
-x,y,1/2-z
-x,-y,-z
x,-y,1/2+z
loop_
_atom_site_type_symbol
_atom_site_label
_atom_site_fract_x
_atom_site_fract_y
_atom_site_fract_z
Si Si1 0.500000 0.973820 0.250000
Si Si2 0.081647 0.095850 0.698581
Si Si3 0.948631 0.153238 0.350147
Si Si4 0.711925 0.186815 0.574135
Si Si5 0.604880 0.378146 0.654542
Si Si6 0.381527 0.398691 0.499539
Si Si7 0.373651 0.046050 0.416336
Si Si8 0.251950 0.767791 0.725423
O O1 0.439692 0.049101 0.319947
O O2 0.569967 0.899119 0.403448
O O3 0.178485 0.162715 0.800977
O O4 0.000000 0.134418 0.750000
O O5 0.042291 0.132877 0.516261
O O6 0.100715 0.964926 0.721706
O O7 0.866006 0.235845 0.352900
O O8 0.000000 0.209555 0.250000
O O9 0.665756 0.272996 0.650278
O O10 0.649544 0.076138 0.544076
O O11 0.709888 0.237086 0.411119
O O12 0.490224 0.353080 0.550986
O O13 0.636508 0.404142 0.841813
O O14 0.632812 0.479472 0.572580
O O15 0.302192 0.325366 0.358346
O O16 0.277763 0.114326 0.314734
#
# Coordination Sequence:
#
# PCOD8119247 Si02
#       8
#     2   4   4   4   4   4   4   4
#     4  10  24  38  48  78 130 174 198 246 298 372
#     4  10  20  38  58  85 125 164 205 251 306 364
#     4  10  22  36  60  87 123 164 206 256 303 364
#     4  12  24  37  62  89 125 165 208 254 305 367
#     4  10  24  44  67  92 119 163 205 257 310 364
#     4  10  24  44  67  91 122 158 210 256 307 368
#     4  11  24  36  55  85 128 166 209 243 306 368
#     4  12  24  38  60  91 125 162 210 254 304 370
#
# _framework density 19.48113
#
# number of rings (size 3 to 8) (size 9 to 14) (size 15 to 20)
#    0.000    1.333    4.000    0.800    7.467    1.600 
#    0.000    0.000    0.000    1.600    0.000    0.000 
#    0.000    0.000    0.000    0.000    0.000    0.000 
#
# Total GULP energy -371856.949157 kJ/mol
# GULP energy per Si atom -12395.231639 kJ/mol
# Density = 1.943679 g / cm^3
# Si number density = 19.481130 Si / 1000 Ang^3
#
#
#
# Elastic Constant Matrix: (Units=GPa)
#
#
# Indices 1 2 3 4 5 6 
#
# 1 85.7571 26.7867 34.9851 0.0000 1.6924 0.0000
# 2 26.7867 64.7772 26.9988 0.0000 1.1634 0.0000
# 3 34.9851 26.9988 110.1228 0.0000 -12.2459 0.0000
# 4 0.0000 0.0000 0.0000 29.9103 0.0000 4.4090
# 5 1.6924 1.1634 -12.2459 0.0000 35.6197 0.0000
# 6 0.0000 0.0000 0.0000 4.4090 0.0000 23.6999
#
#
#
# Elastic Compliance Matrix: (Units=1/GPa)
#
#
# Indices 1 2 3 4 5 6 
#
# 1 0.014619 -0.004445 -0.003759 0.000000 -0.001842 0.000000
# 2 -0.004445 0.018697 -0.003344 0.000000 -0.001549 0.000000
# 3 -0.003759 -0.003344 0.011569 0.000000 0.004265 0.000000
# 4 0.000000 0.000000 0.000000 0.034376 0.000000 -0.006395
# 5 -0.001842 -0.001549 0.004265 0.000000 0.029679 0.000000
# 6 0.000000 0.000000 0.000000 -0.006395 0.000000 0.043384
#
#
# Mechanical properties :
#
#
# Convention : Reuss Voigt Hill
#
# Bulk Modulus (GPa) = 45.89612 48.68872 47.29242
# Shear Modulus (GPa) = 27.36945 29.30508 28.33727
#
# Velocity S-wave (km/s) = 3.75229 3.88271 3.81806
# Velocity P-wave (km/s) = 6.51025 6.71920 6.61555
#
# Compressibility (1/GPa) = 0.02178834
#
# Stress axis : x y z
#
# Youngs Moduli (GPa) = 68.40218 53.48338 86.43587
#
# Poissons Ratio (x) = 0.23776 0.32495
# Poissons Ratio (y) = 0.30408 0.28904
# Poissons Ratio (z) = 0.25715 0.17885
#
# Static dielectric constant tensor:
#      x y z
#    x 6.185940 0.000000 2.811390 
#    y 0.000000 3.194740 0.000000 
#    z 2.811390 0.000000 6.986990 
# 
# 
# High freq. dielectric constant tensor:
#      x y z
#    x 1.763600 0.000000 -0.004390 
#    y 0.000000 1.717000 0.000000 
#    z -0.004390 0.000000 1.783340 
# 
# From -- ./inp_files/19084.got.cif
#   From: 2010.06.25/outbox.cif.g09.slc.cpg/sg13_10_cif.got.tgz:19084.got - 2010.06.28 04:50:58.
