data_PCOD8119445
_publ_section_title
;
Structure prediction by ZEFSAII (Michael W. Deem and Ramdas Pophale) SiO2 
 PCOD8119445
Probable space group: P 2/C
;
_chemical_formula_sum "Si O2"
_cell_formula_units_Z 20
_cell_length_a 10.354807
_cell_length_b 13.776763
_cell_length_c 9.693678
_cell_angle_alpha 90.000000
_cell_angle_beta 139.073930
_cell_angle_gamma 90.000000
_cell_volume 905.889484
_symmetry_space_group_name_H-M "P 2/C"
_symmetry_group_IT_number 13
_symmetry_cell_setting 'monoclinic'
loop_
_space_group_symop_operation_xyz
x,y,z
-x,y,1/2-z
-x,-y,-z
x,-y,1/2+z
loop_
_atom_site_type_symbol
_atom_site_label
_atom_site_fract_x
_atom_site_fract_y
_atom_site_fract_z
Si Si1 0.479224 0.596900 0.896350
Si Si2 0.891789 0.710171 0.794169
Si Si3 0.355836 0.095088 0.015396
Si Si4 0.852626 0.274766 0.737235
Si Si5 0.627416 0.880952 0.477279
O O1 0.500000 0.576203 0.750000
O O2 0.266283 0.640434 0.761627
O O3 0.500000 0.500000 0.000000
O O4 0.644722 0.671109 0.081431
O O5 0.798940 0.809936 0.664064
O O6 0.000000 0.659174 0.750000
O O7 0.058621 0.735865 0.039468
O O8 0.500000 0.135608 0.250000
O O9 0.279910 0.986087 0.990682
O O10 0.174887 0.169066 0.855144
O O11 0.470762 0.097108 0.966683
O O12 0.000000 0.330757 0.750000
O O13 0.500000 0.834502 0.250000
#
# Coordination Sequence:
#
# PCOD8119445 Si02
#       5
#     4   4   4   4   4
#     4  12  29  52  77 103 138 180 228 293 359 417
#     4  12  27  43  72 108 143 184 234 285 350 418
#     4  10  20  38  68  97 139 191 237 279 338 402
#     4  12  24  44  73 103 140 183 236 287 344 424
#     4  10  21  39  64 100 143 190 233 281 334 405
#
# _framework density 22.077749000000001
#
# number of rings (size 3 to 8) (size 9 to 14) (size 15 to 20)
#    0.000    0.800    4.000    3.000    2.800    3.200 
#    0.000    0.000    0.000    0.000    0.000    0.000 
#    0.000    0.000    0.000    0.000    0.000    0.000 
#
# Total GULP energy -247989.471722 kJ/mol
# GULP energy per Si atom -12399.473586 kJ/mol
# Density = 2.202750 g / cm^3
# Si number density = 22.077749 Si / 1000 Ang^3
#
#
#
# Elastic Constant Matrix: (Units=GPa)
#
#
# Indices 1 2 3 4 5 6 
#
# 1 132.4813 30.2640 55.9236 0.0000 -14.2121 0.0000
# 2 30.2640 107.4499 59.4971 0.0000 -5.9667 0.0000
# 3 55.9236 59.4971 164.5675 0.0000 -33.4347 0.0000
# 4 0.0000 0.0000 0.0000 19.1091 0.0000 -10.9225
# 5 -14.2121 -5.9667 -33.4347 0.0000 48.4523 0.0000
# 6 0.0000 0.0000 0.0000 -10.9225 0.0000 22.4577
#
#
#
# Elastic Compliance Matrix: (Units=1/GPa)
#
#
# Indices 1 2 3 4 5 6 
#
# 1 0.008929 -0.001099 -0.002480 0.000000 0.000772 0.000000
# 2 -0.001099 0.011894 -0.004297 0.000000 -0.001823 0.000000
# 3 -0.002480 -0.004297 0.009558 0.000000 0.005339 0.000000
# 4 0.000000 0.000000 0.000000 0.072480 0.000000 0.035251
# 5 0.000772 -0.001823 0.005339 0.000000 0.024325 0.000000
# 6 0.000000 0.000000 0.000000 0.035251 0.000000 0.061673
#
#
# Mechanical properties :
#
#
# Convention : Reuss Voigt Hill
#
# Bulk Modulus (GPa) = 68.35841 77.31869 72.83855
# Shear Modulus (GPa) = 23.86783 35.25810 29.56296
#
# Velocity S-wave (km/s) = 3.29155 4.00058 3.66326
# Velocity P-wave (km/s) = 6.74355 7.51243 7.13835
#
# Compressibility (1/GPa) = 0.01462878
#
# Stress axis : x y z
#
# Youngs Moduli (GPa) = 111.99459 84.07353 104.62928
#
# Poissons Ratio (x) = 0.09237 0.25949
# Poissons Ratio (y) = 0.12305 0.44961
# Poissons Ratio (z) = 0.27776 0.36128
#
# Static dielectric constant tensor:
#      x y z
#    x 4.180720 0.000000 -0.032870 
#    y 0.000000 4.209930 0.000000 
#    z -0.032870 0.000000 4.025370 
# 
# 
# High freq. dielectric constant tensor:
#      x y z
#    x 1.883810 0.000000 -0.010540 
#    y 0.000000 1.854200 0.000000 
#    z -0.010540 0.000000 1.880490 
# 
# From -- ./inp_files/34621.got.cif
#   From: 2010.06.25/outbox.cif.g09.slc.cpg/sg13_18_cif.got.tgz:34621.got - 2010.06.28 04:50:58.
