data_PCOD8119995
_publ_section_title
;
Structure prediction by ZEFSAII (Michael W. Deem and Ramdas Pophale) SiO2 
 PCOD8119995
Probable space group: P 2/C
;
_chemical_formula_sum "Si O2"
_cell_formula_units_Z 28
_cell_length_a 28.002090
_cell_length_b 8.880175
_cell_length_c 28.477543
_cell_angle_alpha 90.000000
_cell_angle_beta 169.515952
_cell_angle_gamma 90.000000
_cell_volume 1288.530284
_symmetry_space_group_name_H-M "P 2/C"
_symmetry_group_IT_number 13
_symmetry_cell_setting 'monoclinic'
loop_
_space_group_symop_operation_xyz
x,y,z
-x,y,1/2-z
-x,-y,-z
x,-y,1/2+z
loop_
_atom_site_type_symbol
_atom_site_label
_atom_site_fract_x
_atom_site_fract_y
_atom_site_fract_z
Si Si1 0.281946 0.970059 0.750001
Si Si2 0.613193 0.922129 0.249991
Si Si3 0.444354 0.228676 0.249995
Si Si4 0.107777 0.261932 0.249991
Si Si5 0.700560 0.375201 0.250000
Si Si6 0.055184 0.421124 0.750005
Si Si7 0.809794 0.462138 0.250001
O O1 0.302459 0.802844 0.750002
O O2 0.328920 0.074568 0.750002
O O3 0.000000 0.000000 0.500000
O O4 0.500000 0.000000 0.000000
O O5 0.844074 0.834254 0.499932
O O6 0.589510 0.084721 0.250008
O O7 0.344169 0.834274 0.000026
O O8 0.500000 0.179902 0.250000
O O9 0.680248 0.325648 0.499374
O O10 0.181485 0.325645 0.000611
O O11 0.081885 0.421266 0.250008
O O12 0.164262 0.300518 0.249998
O O13 0.754350 0.431460 0.250000
O O14 0.926086 0.440302 0.501833
O O15 0.422419 0.440303 0.998166
O O16 0.000000 0.462490 0.750000
#
# Coordination Sequence:
#
# PCOD8119995 Si02
#       7
#     4   4   4   4   4   4   4
#     4  12  25  41  62  88 132 176 220 267 324 393
#     4  12  26  41  66 100 132 177 219 267 341 383
#     4  10  23  45  70  99 132 168 219 274 320 402
#     4  12  25  41  65  96 135 168 211 280 314 398
#     4  10  21  37  57  83 112 166 210 256 305 368
#     4  10  23  43  70  98 130 172 215 266 332 393
#     4  10  21  36  58  84 118 155 210 260 308 355
#
# _framework density 21.730183
#
# number of rings (size 3 to 8) (size 9 to 14) (size 15 to 20)
#    0.000    1.143    0.000    6.000    4.000    3.429 
#    0.000    0.000    0.000    0.000    0.000    0.000 
#    0.000    0.000    0.000    0.000    0.000    0.000 
#
# Total GULP energy -347309.622149 kJ/mol
# GULP energy per Si atom -12403.915077 kJ/mol
# Density = 2.168072 g / cm^3
# Si number density = 21.730183 Si / 1000 Ang^3
#
#
#
# Elastic Constant Matrix: (Units=GPa)
#
#
# Indices 1 2 3 4 5 6 
#
# 1 80.4297 43.0604 42.1168 0.0000 -0.4653 0.0000
# 2 43.0604 140.0249 82.9123 0.0000 1.6698 0.0000
# 3 42.1168 82.9123 218.8075 0.0000 6.2955 0.0000
# 4 0.0000 0.0000 0.0000 26.7467 0.0000 0.0062
# 5 -0.4653 1.6698 6.2955 0.0000 14.0738 0.0000
# 6 0.0000 0.0000 0.0000 0.0062 0.0000 26.5710
#
#
#
# Elastic Compliance Matrix: (Units=1/GPa)
#
#
# Indices 1 2 3 4 5 6 
#
# 1 0.015291 -0.003805 -0.001549 0.000000 0.001650 0.000000
# 2 -0.003805 0.010157 -0.003118 0.000000 0.000064 0.000000
# 3 -0.001549 -0.003118 0.006120 0.000000 -0.002419 0.000000
# 4 0.000000 0.000000 0.000000 0.037388 0.000000 -0.000009
# 5 0.001650 0.000064 -0.002419 0.000000 0.072183 0.000000
# 6 0.000000 0.000000 0.000000 -0.000009 0.000000 0.037635
#
#
# Mechanical properties :
#
#
# Convention : Reuss Voigt Hill
#
# Bulk Modulus (GPa) = 68.38259 86.16011 77.27135
# Shear Modulus (GPa) = 24.92617 31.55647 28.24132
#
# Velocity S-wave (km/s) = 3.39053 3.81490 3.60896
# Velocity P-wave (km/s) = 6.84579 7.69030 7.28030
#
# Compressibility (1/GPa) = 0.01462360
#
# Stress axis : x y z
#
# Youngs Moduli (GPa) = 65.39854 98.45105 163.40886
#
# Poissons Ratio (x) = 0.37458 0.25312
# Poissons Ratio (y) = 0.24882 0.50957
# Poissons Ratio (z) = 0.10130 0.30701
#
# Static dielectric constant tensor:
#      x y z
#    x 4.006740 0.000000 0.016330 
#    y 0.000000 3.908760 0.000000 
#    z 0.016330 0.000000 4.391610 
# 
# 
# High freq. dielectric constant tensor:
#      x y z
#    x 1.854210 0.000000 0.000920 
#    y 0.000000 1.861470 0.000000 
#    z 0.000920 0.000000 1.875940 
# 
# From -- ./inp_files/98111.got.cif
#   From: 2010.06.25/outbox.cif.g09.slc.cpg/sg13_50_cif.got.tgz:98111.got - 2010.06.28 04:50:58.
