data_PCOD8119908
_publ_section_title
;
Structure prediction by ZEFSAII (Michael W. Deem and Ramdas Pophale) SiO2 
 PCOD8119908
Probable space group: P 2/C
;
_chemical_formula_sum "Si O2"
_cell_formula_units_Z 28
_cell_length_a 14.906002
_cell_length_b 12.739273
_cell_length_c 9.293102
_cell_angle_alpha 90.000000
_cell_angle_beta 57.333946
_cell_angle_gamma 90.000000
_cell_volume 1485.563733
_symmetry_space_group_name_H-M "P 2/C"
_symmetry_group_IT_number 13
_symmetry_cell_setting 'monoclinic'
loop_
_space_group_symop_operation_xyz
x,y,z
-x,y,1/2-z
-x,-y,-z
x,-y,1/2+z
loop_
_atom_site_type_symbol
_atom_site_label
_atom_site_fract_x
_atom_site_fract_y
_atom_site_fract_z
Si Si1 0.129060 0.822512 0.787233
Si Si2 0.101868 0.609007 0.963020
Si Si3 0.263613 0.797617 0.169870
Si Si4 0.860822 0.408532 0.734240
Si Si5 0.565472 0.929976 0.329277
Si Si6 0.753401 0.926342 0.588522
Si Si7 0.896052 0.892639 0.986019
O O1 0.141740 0.717177 0.865807
O O2 0.227805 0.889412 0.763036
O O3 0.134667 0.805632 0.610770
O O4 0.020603 0.888031 0.914514
O O5 0.162259 0.522815 0.811783
O O6 0.133319 0.586479 0.099259
O O7 0.973787 0.619039 0.062037
O O8 0.232410 0.675449 0.223708
O O9 0.377022 0.830468 0.142442
O O10 0.170271 0.869054 0.314802
O O11 0.262725 0.826655 0.002116
O O12 0.500000 0.884154 0.250000
O O13 0.500000 0.000000 0.500000
O O14 0.648715 0.004512 0.177211
O O15 0.857974 0.995255 0.453372
#
# Coordination Sequence:
#
# PCOD8119908 Si02
#       7
#     4   4   4   4   4   4   4
#     4  11  21  35  51  82 118 163 194 238 285 347
#     4  10  21  35  57  77 119 155 201 239 287 335
#     4  11  21  37  59  83 118 155 200 241 303 352
#     4  10  21  37  54  84 111 159 199 246 282 346
#     4  11  23  41  60  87 118 154 193 248 300 364
#     4  11  22  37  56  84 118 155 199 236 295 357
#     4  10  22  32  51  81 123 161 195 230 279 358
#
# _framework density 18.848064000000001
#
# number of rings (size 3 to 8) (size 9 to 14) (size 15 to 20)
#    0.000    1.429    4.286    2.143    4.000    2.857 
#    0.000    0.000    0.000    0.000    0.000    5.000 
#    0.000    0.000    0.000    0.000    0.000    0.000 
#
# Total GULP energy -346909.900208 kJ/mol
# GULP energy per Si atom -12389.639293 kJ/mol
# Density = 1.880517 g / cm^3
# Si number density = 18.848064 Si / 1000 Ang^3
#
#
#
# Elastic Constant Matrix: (Units=GPa)
#
#
# Indices 1 2 3 4 5 6 
#
# 1 108.3480 38.2038 24.9554 0.0000 12.1687 0.0000
# 2 38.2038 85.8830 17.3520 0.0000 -5.2348 0.0000
# 3 24.9554 17.3520 52.5130 0.0000 8.7573 0.0000
# 4 0.0000 0.0000 0.0000 24.8182 0.0000 0.5748
# 5 12.1687 -5.2348 8.7573 0.0000 26.6825 0.0000
# 6 0.0000 0.0000 0.0000 0.5748 0.0000 30.3278
#
#
#
# Elastic Compliance Matrix: (Units=1/GPa)
#
#
# Indices 1 2 3 4 5 6 
#
# 1 0.012455 -0.005227 -0.003251 0.000000 -0.005638 0.000000
# 2 -0.005227 0.015092 -0.003591 0.000000 0.006523 0.000000
# 3 -0.003251 -0.003591 0.022898 0.000000 -0.006737 0.000000
# 4 0.000000 0.000000 0.000000 0.040311 0.000000 -0.000764
# 5 -0.005638 0.006523 -0.006737 0.000000 0.043540 0.000000
# 6 0.000000 0.000000 0.000000 -0.000764 0.000000 0.032988
#
#
# Mechanical properties :
#
#
# Convention : Reuss Voigt Hill
#
# Bulk Modulus (GPa) = 38.01335 45.30738 41.66037
# Shear Modulus (GPa) = 24.97628 27.44788 26.21208
#
# Velocity S-wave (km/s) = 3.64419 3.82025 3.73326
# Velocity P-wave (km/s) = 6.15784 6.59920 6.38234
#
# Compressibility (1/GPa) = 0.02630655
#
# Stress axis : x y z
#
# Youngs Moduli (GPa) = 80.29085 66.26020 43.67205
#
# Poissons Ratio (x) = 0.34635 0.14199
# Poissons Ratio (y) = 0.41969 0.15681
# Poissons Ratio (z) = 0.26105 0.23792
#
# Static dielectric constant tensor:
#      x y z
#    x 3.450380 0.000000 0.143260 
#    y 0.000000 3.402020 0.000000 
#    z 0.143260 0.000000 3.435190 
# 
# 
# High freq. dielectric constant tensor:
#      x y z
#    x 1.720250 0.000000 0.028410 
#    y 0.000000 1.713830 0.000000 
#    z 0.028410 0.000000 1.729930 
# 
# From -- ./inp_files/18925.got.cif
#   From: 2010.06.25/outbox.cif.g09.slc.cpg/sg13_10_cif.got.tgz:18925.got - 2010.06.28 04:50:58.
