data_PCOD8119471
_publ_section_title
;
Structure prediction by ZEFSAII (Michael W. Deem and Ramdas Pophale) SiO2 
 PCOD8119471
Probable space group: P 2/C
;
_chemical_formula_sum "Si O2"
_cell_formula_units_Z 32
_cell_length_a 14.981497
_cell_length_b 17.510532
_cell_length_c 11.005572
_cell_angle_alpha 90.000000
_cell_angle_beta 151.007724
_cell_angle_gamma 90.000000
_cell_volume 1399.370656
_symmetry_space_group_name_H-M "P 2/C"
_symmetry_group_IT_number 13
_symmetry_cell_setting 'monoclinic'
loop_
_space_group_symop_operation_xyz
x,y,z
-x,y,1/2-z
-x,-y,-z
x,-y,1/2+z
loop_
_atom_site_type_symbol
_atom_site_label
_atom_site_fract_x
_atom_site_fract_y
_atom_site_fract_z
Si Si1 0.807747 0.403944 0.071019
Si Si2 0.886232 0.053873 0.774451
Si Si3 0.201734 0.160856 0.172647
Si Si4 0.561896 0.413711 0.558765
Si Si5 0.113768 0.446127 0.725548
Si Si6 0.561896 0.913711 0.058765
Si Si7 0.807747 0.096056 0.071019
Si Si8 0.201734 0.339144 0.172647
O O1 0.817108 0.497573 0.085292
O O2 0.766166 0.367477 0.151457
O O3 0.000000 0.370716 0.250000
O O4 0.647084 0.382426 0.786452
O O5 0.711847 0.093470 0.630998
O O6 0.817109 0.997573 0.585293
O O7 0.025998 0.120550 0.899189
O O8 0.000000 0.000000 0.000000
O O9 0.385744 0.138774 0.316782
O O10 0.233835 0.132522 0.348544
O O11 0.165667 0.250000 0.125349
O O12 0.500000 0.500000 0.500000
O O13 0.711847 0.406530 0.630999
O O14 0.385744 0.361226 0.316783
O O15 0.000000 0.500000 0.500000
O O16 0.974002 0.379450 0.600811
O O17 0.647084 0.882426 0.286452
O O18 0.500000 0.000000 0.000000
O O19 0.000000 0.129285 0.250000
#
# Coordination Sequence:
#
# PCOD8119471 Si02
#       8
#     4   4   4   4   4   4   4   4
#     4  11  20  37  62  90 119 155 201 238 295 353
#     4  10  20  39  59  86 119 159 199 242 290 349
#     4  11  24  39  58  91 128 156 190 245 307 357
#     4  12  21  37  62  89 119 155 204 246 288 349
#     4  10  20  39  59  86 119 159 199 242 290 349
#     4  12  21  37  62  89 119 155 204 246 288 349
#     4  11  20  37  62  90 119 155 201 238 295 353
#     4  11  24  39  58  91 128 156 190 245 307 357
#
# _framework density 22.867422999999999
#
# number of rings (size 3 to 8) (size 9 to 14) (size 15 to 20)
#    0.000    1.000   10.000    0.750    0.000    3.500 
#    0.000    0.000    0.000    6.750    0.000    8.750 
#    0.000    0.000    0.000    0.000    0.000    0.000 
#
# Total GULP energy -396785.321037 kJ/mol
# GULP energy per Si atom -12399.541282 kJ/mol
# Density = 2.281538 g / cm^3
# Si number density = 22.867423 Si / 1000 Ang^3
#
#
#
# Elastic Constant Matrix: (Units=GPa)
#
#
# Indices 1 2 3 4 5 6 
#
# 1 61.9114 1.9835 32.3604 0.0000 35.0952 0.0000
# 2 1.9835 131.1577 36.5835 0.0000 23.5903 0.0000
# 3 32.3604 36.5835 86.5554 0.0000 46.3175 0.0000
# 4 0.0000 0.0000 0.0000 25.1965 0.0000 8.3023
# 5 35.0952 23.5903 46.3175 0.0000 45.6011 0.0000
# 6 0.0000 0.0000 0.0000 8.3023 0.0000 22.5865
#
#
#
# Elastic Compliance Matrix: (Units=1/GPa)
#
#
# Indices 1 2 3 4 5 6 
#
# 1 0.030639 0.004032 0.001260 0.000000 -0.026946 0.000000
# 2 0.004032 0.009232 -0.002614 0.000000 -0.005224 0.000000
# 3 0.001260 -0.002614 0.026250 0.000000 -0.026280 0.000000
# 4 0.000000 0.000000 0.000000 0.045157 0.000000 -0.016599
# 5 -0.026946 -0.005224 -0.026280 0.000000 0.072062 0.000000
# 6 0.000000 0.000000 0.000000 -0.016599 0.000000 0.050376
#
#
# Mechanical properties :
#
#
# Convention : Reuss Voigt Hill
#
# Bulk Modulus (GPa) = 13.99067 46.83103 30.41085
# Shear Modulus (GPa) = 19.82668 32.58996 26.20832
#
# Velocity S-wave (km/s) = 2.94773 3.77924 3.38908
# Velocity P-wave (km/s) = 4.20915 6.29026 5.35183
#
# Compressibility (1/GPa) = 0.07147618
#
# Stress axis : x y z
#
# Youngs Moduli (GPa) = 32.63851 108.31768 38.09539
#
# Poissons Ratio (x) = -0.43669 -0.04801
# Poissons Ratio (y) = -0.13159 0.09959
# Poissons Ratio (z) = -0.04113 0.28316
#
# Static dielectric constant tensor:
#      x y z
#    x 4.321720 0.000000 0.251540 
#    y 0.000000 4.022840 0.000000 
#    z 0.251540 0.000000 4.597550 
# 
# 
# High freq. dielectric constant tensor:
#      x y z
#    x 1.901530 0.000000 0.019110 
#    y 0.000000 1.859450 0.000000 
#    z 0.019110 0.000000 1.914550 
# 
# From -- ./inp_files/37714.got.cif
#   From: 2010.06.25/outbox.cif.g09.slc.cpg/sg13_19_cif.got.tgz:37714.got - 2010.06.28 04:50:58.
