data_PCOD8119524
_publ_section_title
;
Structure prediction by ZEFSAII (Michael W. Deem and Ramdas Pophale) SiO2 
 PCOD8119524
Probable space group: P 2/C
;
_chemical_formula_sum "Si O2"
_cell_formula_units_Z 16
_cell_length_a 7.966333
_cell_length_b 18.353239
_cell_length_c 8.868097
_cell_angle_alpha 90.000000
_cell_angle_beta 34.821319
_cell_angle_gamma 90.000000
_cell_volume 740.375811
_symmetry_space_group_name_H-M "P 2/C"
_symmetry_group_IT_number 13
_symmetry_cell_setting 'monoclinic'
loop_
_space_group_symop_operation_xyz
x,y,z
-x,y,1/2-z
-x,-y,-z
x,-y,1/2+z
loop_
_atom_site_type_symbol
_atom_site_label
_atom_site_fract_x
_atom_site_fract_y
_atom_site_fract_z
Si Si1 0.299101 0.544602 0.255075
Si Si2 0.174098 0.941204 0.966457
Si Si3 0.344817 0.294207 0.704582
Si Si4 0.151083 0.795513 0.800279
O O1 0.500000 0.555897 0.250000
O O2 0.242817 0.625015 0.226728
O O3 0.000000 0.500000 0.500000
O O4 0.500000 0.500000 0.000000
O O5 0.500000 0.973875 0.750000
O O6 0.227284 0.870941 0.822964
O O7 0.000000 0.924040 0.250000
O O8 0.000000 0.000000 0.000000
O O9 0.500000 0.299922 0.750000
O O10 0.559816 0.254612 0.428174
O O11 0.056022 0.246131 0.930785
O O12 0.000000 0.810452 0.750000
#
# Coordination Sequence:
#
# PCOD8119524 Si02
#       4
#     4   4   4   4
#     4  11  22  39  61  89 123 163 209 256 307 368
#     4  12  26  44  66  95 129 165 205 256 311 372
#     4   9  19  36  61  87 118 161 206 248 304 376
#     4  10  20  39  64  89 117 159 208 254 305 366
#
# _framework density 21.610647
#
# number of rings (size 3 to 8) (size 9 to 14) (size 15 to 20)
#    0.000    1.500    0.000    5.250    0.000    7.000 
#    0.000   12.500    0.000    0.000    0.000    0.000 
#    0.000    0.000    0.000    0.000    0.000    0.000 
#
# Total GULP energy -198343.830227 kJ/mol
# GULP energy per Si atom -12396.489389 kJ/mol
# Density = 2.156146 g / cm^3
# Si number density = 21.610647 Si / 1000 Ang^3
#
#
#
# Elastic Constant Matrix: (Units=GPa)
#
#
# Indices 1 2 3 4 5 6 
#
# 1 70.1204 52.2791 45.1567 0.0000 -15.9591 0.0000
# 2 52.2791 163.3391 56.3065 0.0000 -18.0110 0.0000
# 3 45.1567 56.3065 165.1934 0.0000 -31.5922 0.0000
# 4 0.0000 0.0000 0.0000 39.9578 0.0000 -1.8374
# 5 -15.9591 -18.0110 -31.5922 0.0000 37.6195 0.0000
# 6 0.0000 0.0000 0.0000 -1.8374 0.0000 28.8635
#
#
#
# Elastic Compliance Matrix: (Units=1/GPa)
#
#
# Indices 1 2 3 4 5 6 
#
# 1 0.021107 -0.005215 -0.003285 0.000000 0.003699 0.000000
# 2 -0.005215 0.008307 -0.001273 0.000000 0.000696 0.000000
# 3 -0.003285 -0.001273 0.008342 0.000000 0.005003 0.000000
# 4 0.000000 0.000000 0.000000 0.025100 0.000000 0.001598
# 5 0.003699 0.000696 0.005003 0.000000 0.032685 0.000000
# 6 0.000000 0.000000 0.000000 0.001598 0.000000 0.034748
#
#
# Mechanical properties :
#
#
# Convention : Reuss Voigt Hill
#
# Bulk Modulus (GPa) = 54.91472 78.45973 66.68722
# Shear Modulus (GPa) = 32.07109 37.61554 34.84332
#
# Velocity S-wave (km/s) = 3.85650 4.17658 4.01973
# Velocity P-wave (km/s) = 6.73025 7.72291 7.24360
#
# Compressibility (1/GPa) = 0.01821005
#
# Stress axis : x y z
#
# Youngs Moduli (GPa) = 47.37846 120.38110 119.87656
#
# Poissons Ratio (x) = 0.62783 0.39375
# Poissons Ratio (y) = 0.24710 0.15257
# Poissons Ratio (z) = 0.15562 0.15321
#
# Static dielectric constant tensor:
#      x y z
#    x 3.914460 0.000000 -0.076560 
#    y 0.000000 4.129750 0.000000 
#    z -0.076560 0.000000 4.127410 
# 
# 
# High freq. dielectric constant tensor:
#      x y z
#    x 1.837810 0.000000 -0.006940 
#    y 0.000000 1.865920 0.000000 
#    z -0.006940 0.000000 1.866510 
# 
# From -- ./inp_files/9622.got.cif
#   From: 2010.06.25/outbox.cif.g09.slc.cpg/sg13_5_cif.got.tgz:9622.got - 2010.06.28 04:50:58.
