data_PCOD8119008
_publ_section_title
;
Structure prediction by ZEFSAII (Michael W. Deem and Ramdas Pophale) SiO2 
 PCOD8119008
Probable space group: P 2/C
;
_chemical_formula_sum "Si O2"
_cell_formula_units_Z 28
_cell_length_a 13.331124
_cell_length_b 6.599883
_cell_length_c 17.487396
_cell_angle_alpha 90.000000
_cell_angle_beta 110.182527
_cell_angle_gamma 90.000000
_cell_volume 1444.135368
_symmetry_space_group_name_H-M "P 2/C"
_symmetry_group_IT_number 13
_symmetry_cell_setting 'monoclinic'
loop_
_space_group_symop_operation_xyz
x,y,z
-x,y,1/2-z
-x,-y,-z
x,-y,1/2+z
loop_
_atom_site_type_symbol
_atom_site_label
_atom_site_fract_x
_atom_site_fract_y
_atom_site_fract_z
Si Si1 0.144383 0.587559 0.980847
Si Si2 0.518194 0.776199 0.980125
Si Si3 0.739504 0.511521 0.278704
Si Si4 0.323867 0.496179 0.411419
Si Si5 0.088409 0.719944 0.595751
Si Si6 0.777002 0.895952 0.377243
Si Si7 0.593840 0.780657 0.830696
O O1 0.211840 0.518738 0.925680
O O2 0.037002 0.695042 0.922430
O O3 0.120092 0.386108 0.023722
O O4 0.209864 0.751416 0.046575
O O5 0.406402 0.666451 0.967725
O O6 0.545505 0.730898 0.899717
O O7 0.618111 0.709654 0.058875
O O8 0.500000 0.000000 0.000000
O O9 0.697433 0.470352 0.183403
O O10 0.850359 0.390787 0.318778
O O11 0.760217 0.750652 0.298955
O O12 0.652863 0.420972 0.315615
O O13 0.119061 0.958691 0.603745
O O14 0.673293 0.031942 0.360244
O O15 0.500000 0.849762 0.750000
#
# Coordination Sequence:
#
# PCOD8119008 Si02
#       7
#     4   4   4   4   4   4   4
#     4  10  20  39  62  85 117 153 194 251 298 360
#     4  11  24  39  58  84 117 157 201 249 293 350
#     4  10  22  38  58  87 122 153 197 245 299 363
#     4  11  23  38  57  85 119 154 196 242 300 354
#     4   9  20  38  62  87 114 151 198 244 299 359
#     4  10  20  36  62  88 111 153 200 243 295 358
#     4  11  22  39  58  84 119 158 202 249 300 363
#
# _framework density 19.388763999999998
#
# number of rings (size 3 to 8) (size 9 to 14) (size 15 to 20)
#    0.000    1.714    1.429    3.857    2.000    2.286 
#    0.000    0.000    0.000   10.286    0.000    0.000 
#    0.000    0.000    0.000    0.000    0.000    0.000 
#
# Total GULP energy -347210.797162 kJ/mol
# GULP energy per Si atom -12400.385613 kJ/mol
# Density = 1.934463 g / cm^3
# Si number density = 19.388764 Si / 1000 Ang^3
#
#
#
# Elastic Constant Matrix: (Units=GPa)
#
#
# Indices 1 2 3 4 5 6 
#
# 1 122.5935 41.8745 40.8301 0.0000 5.6004 0.0000
# 2 41.8745 117.1479 20.4255 0.0000 -3.6043 0.0000
# 3 40.8301 20.4255 95.3441 0.0000 3.4991 0.0000
# 4 0.0000 0.0000 0.0000 17.0340 0.0000 6.5053
# 5 5.6004 -3.6043 3.4991 0.0000 30.6137 0.0000
# 6 0.0000 0.0000 0.0000 6.5053 0.0000 18.0764
#
#
#
# Elastic Compliance Matrix: (Units=1/GPa)
#
#
# Indices 1 2 3 4 5 6 
#
# 1 0.010591 -0.003184 -0.003784 0.000000 -0.001880 0.000000
# 2 -0.003184 0.009874 -0.000819 0.000000 0.001839 0.000000
# 3 -0.003784 -0.000819 0.012314 0.000000 -0.000812 0.000000
# 4 0.000000 0.000000 0.000000 0.068061 0.000000 -0.024494
# 5 -0.001880 0.001839 -0.000812 0.000000 0.033318 0.000000
# 6 0.000000 0.000000 0.000000 -0.024494 0.000000 0.064136
#
#
# Mechanical properties :
#
#
# Convention : Reuss Voigt Hill
#
# Bulk Modulus (GPa) = 58.12621 60.14952 59.13787
# Shear Modulus (GPa) = 22.76844 28.60851 25.68847
#
# Velocity S-wave (km/s) = 3.43054 3.84542 3.64389
# Velocity P-wave (km/s) = 6.76283 7.12787 6.94775
#
# Compressibility (1/GPa) = 0.01720394
#
# Stress axis : x y z
#
# Youngs Moduli (GPa) = 94.42204 101.27980 81.20669
#
# Poissons Ratio (x) = 0.32244 0.30732
# Poissons Ratio (y) = 0.30061 0.06653
# Poissons Ratio (z) = 0.35733 0.08298
#
# Static dielectric constant tensor:
#      x y z
#    x 3.808150 0.000000 -0.054320 
#    y 0.000000 3.595140 0.000000 
#    z -0.054320 0.000000 4.000590 
# 
# 
# High freq. dielectric constant tensor:
#      x y z
#    x 1.755460 0.000000 0.020850 
#    y 0.000000 1.759220 0.000000 
#    z 0.020850 0.000000 1.753140 
# 
# From -- ./inp_files/67401.got.cif
#   From: 2010.06.25/outbox.cif.g09.slc.cpg/sg13_34_cif.got.tgz:67401.got - 2010.06.28 04:50:58.
