data_PCOD8119019
_publ_section_title
;
Structure prediction by ZEFSAII (Michael W. Deem and Ramdas Pophale) SiO2 
 PCOD8119019
Probable space group: P 2/C
;
_chemical_formula_sum "Si O2"
_cell_formula_units_Z 32
_cell_length_a 19.750188
_cell_length_b 11.272023
_cell_length_c 8.928997
_cell_angle_alpha 90.000000
_cell_angle_beta 50.403163
_cell_angle_gamma 90.000000
_cell_volume 1531.707072
_symmetry_space_group_name_H-M "P 2/C"
_symmetry_group_IT_number 13
_symmetry_cell_setting 'monoclinic'
loop_
_space_group_symop_operation_xyz
x,y,z
-x,y,1/2-z
-x,-y,-z
x,-y,1/2+z
loop_
_atom_site_type_symbol
_atom_site_label
_atom_site_fract_x
_atom_site_fract_y
_atom_site_fract_z
Si Si1 0.222744 0.347640 0.391462
Si Si2 0.260472 0.833761 0.371676
Si Si3 0.200313 0.991508 0.199817
Si Si4 0.399391 0.387887 0.055366
Si Si5 0.153582 0.481105 0.752109
Si Si6 0.906119 0.335395 0.404044
Si Si7 0.405461 0.635919 0.197732
Si Si8 0.102664 0.866433 0.073960
O O1 0.322553 0.299764 0.226762
O O2 0.216615 0.396087 0.567631
O O3 0.216227 0.450286 0.277007
O O4 0.144683 0.257543 0.464944
O O5 0.258590 0.911185 0.527821
O O6 0.170939 0.759122 0.497840
O O7 0.344958 0.748955 0.244184
O O8 0.264530 0.918016 0.219605
O O9 0.121130 0.045253 0.410918
O O10 0.153106 0.904120 0.151988
O O11 0.378144 0.520509 0.143489
O O12 0.492163 0.335688 0.982957
O O13 0.395588 0.395442 0.883763
O O14 0.099844 0.565283 0.716565
O O15 0.089357 0.397917 0.939854
O O16 0.000000 0.269472 0.250000
O O17 0.000000 0.852882 0.250000
#
# Coordination Sequence:
#
# PCOD8119019 Si02
#       8
#     4   4   4   4   4   4   4   4
#     4  11  21  36  57  83 118 153 188 234 288 349
#     4  11  23  41  61  84 116 157 204 254 300 344
#     4  10  24  41  60  82 111 152 206 255 293 339
#     4  10  20  36  62  96 125 154 191 232 292 370
#     4  10  22  35  53  84 122 158 192 225 282 370
#     4  11  22  36  56  83 119 159 195 240 299 360
#     4  10  21  38  63  92 126 158 190 238 298 361
#     4  11  23  39  60  84 111 149 197 250 301 344
#
# _framework density 20.891724
#
# number of rings (size 3 to 8) (size 9 to 14) (size 15 to 20)
#    0.000    1.500    0.000    6.000    0.000    9.000 
#    0.000    0.000    0.000   13.500    0.000    0.000 
#    0.000    0.000    0.000    0.000    0.000    0.000 
#
# Total GULP energy -396707.506879 kJ/mol
# GULP energy per Si atom -12397.109590 kJ/mol
# Density = 2.084417 g / cm^3
# Si number density = 20.891724 Si / 1000 Ang^3
#
#
#
# Elastic Constant Matrix: (Units=GPa)
#
#
# Indices 1 2 3 4 5 6 
#
# 1 84.5768 40.5583 60.6148 0.0000 -9.1905 0.0000
# 2 40.5583 88.5733 42.1472 0.0000 -8.9490 0.0000
# 3 60.6148 42.1472 115.6620 0.0000 -9.4086 0.0000
# 4 0.0000 0.0000 0.0000 23.4909 0.0000 -14.2605
# 5 -9.1905 -8.9490 -9.4086 0.0000 48.6249 0.0000
# 6 0.0000 0.0000 0.0000 -14.2605 0.0000 9.5939
#
#
#
# Elastic Compliance Matrix: (Units=1/GPa)
#
#
# Indices 1 2 3 4 5 6 
#
# 1 0.020843 -0.005163 -0.008939 0.000000 0.001260 0.000000
# 2 -0.005163 0.015057 -0.002677 0.000000 0.001277 0.000000
# 3 -0.008939 -0.002677 0.014355 0.000000 0.000595 0.000000
# 4 0.000000 0.000000 0.000000 0.435945 0.000000 0.647994
# 5 0.001260 0.001277 0.000595 0.000000 0.021154 0.000000
# 6 0.000000 0.000000 0.000000 0.647994 0.000000 1.067419
#
#
# Mechanical properties :
#
#
# Convention : Reuss Voigt Hill
#
# Bulk Modulus (GPa) = 59.89516 63.93919 61.91717
# Shear Modulus (GPa) = 3.09809 26.04139 14.56974
#
# Velocity S-wave (km/s) = 1.21908 3.53440 2.64368
# Velocity P-wave (km/s) = 5.54194 6.87950 6.24662
#
# Compressibility (1/GPa) = 0.01669584
#
# Stress axis : x y z
#
# Youngs Moduli (GPa) = 47.97760 66.41303 69.66393
#
# Poissons Ratio (x) = 0.34290 0.62274
# Poissons Ratio (y) = 0.24772 0.18650
# Poissons Ratio (z) = 0.42888 0.17779
#
# Static dielectric constant tensor:
#      x y z
#    x 3.760930 0.000000 0.042700 
#    y 0.000000 3.762810 0.000000 
#    z 0.042700 0.000000 4.258680 
# 
# 
# High freq. dielectric constant tensor:
#      x y z
#    x 1.815240 0.000000 0.012990 
#    y 0.000000 1.800060 0.000000 
#    z 0.012990 0.000000 1.837580 
# 
# From -- ./inp_files/23351.got.cif
#   From: 2010.06.25/outbox.cif.g09.slc.cpg/sg13_12_cif.got.tgz:23351.got - 2010.06.28 04:50:58.
