data_PCOD8119094
_publ_section_title
;
Structure prediction by ZEFSAII (Michael W. Deem and Ramdas Pophale) SiO2 
 PCOD8119094
Probable space group: P 2/C
;
_chemical_formula_sum "Si O2"
_cell_formula_units_Z 24
_cell_length_a 14.016955
_cell_length_b 13.945974
_cell_length_c 8.848994
_cell_angle_alpha 90.000000
_cell_angle_beta 136.129780
_cell_angle_gamma 90.000000
_cell_volume 1198.799974
_symmetry_space_group_name_H-M "P 2/C"
_symmetry_group_IT_number 13
_symmetry_cell_setting 'monoclinic'
loop_
_space_group_symop_operation_xyz
x,y,z
-x,y,1/2-z
-x,-y,-z
x,-y,1/2+z
loop_
_atom_site_type_symbol
_atom_site_label
_atom_site_fract_x
_atom_site_fract_y
_atom_site_fract_z
Si Si1 0.500000 0.974712 0.250000
Si Si2 0.500000 0.463399 0.250000
Si Si3 0.602357 0.873208 0.086165
Si Si4 0.476169 0.310191 0.479928
Si Si5 0.299526 0.634796 0.032596
Si Si6 0.098985 0.867248 0.071224
Si Si7 0.000000 0.709391 0.750000
Si Si8 0.000000 0.027329 0.750000
O O1 0.589436 0.908448 0.243640
O O2 0.599616 0.039081 0.466605
O O3 0.492488 0.398832 0.388369
O O4 0.640681 0.526094 0.411853
O O5 0.484637 0.794218 0.909651
O O6 0.749741 0.823339 0.243052
O O7 0.332394 0.317004 0.406911
O O8 0.609929 0.310167 0.740739
O O9 0.136106 0.642102 0.884113
O O10 0.062309 0.901922 0.196794
O O11 0.005927 0.779013 0.903982
O O12 0.103982 0.956990 0.959256
#
# Coordination Sequence:
#
# PCOD8119094 Si02
#       8
#     2   2   4   4   4   4   2   2
#     4  10  23  33  54  92 120 154 192 251 293 332
#     4  10  21  41  66  92 112 152 202 247 301 366
#     4  11  20  37  56  88 121 153 199 246 288 345
#     4  10  20  39  65  87 114 160 194 249 288 364
#     4  10  20  39  62  87 118 153 198 238 305 359
#     4  10  20  37  59  82 121 158 212 234 302 345
#     4  11  22  38  60  89 118 166 188 249 296 367
#     4   9  20  38  56  83 112 174 196 251 278 359
#
# _framework density 20.020019999999999
#
# number of rings (size 3 to 8) (size 9 to 14) (size 15 to 20)
#    0.000    2.000    1.667    4.500    0.000    0.000 
#   12.000    3.333    0.000    0.000    0.000    0.000 
#    0.000    0.000    0.000    0.000    0.000    0.000 
#
# Total GULP energy -297329.401967 kJ/mol
# GULP energy per Si atom -12388.725082 kJ/mol
# Density = 1.997445 g / cm^3
# Si number density = 20.020020 Si / 1000 Ang^3
#
#
#
# Elastic Constant Matrix: (Units=GPa)
#
#
# Indices 1 2 3 4 5 6 
#
# 1 132.3491 63.4112 58.0326 0.0000 5.5218 0.0000
# 2 63.4112 108.7068 22.6709 0.0000 -0.4317 0.0000
# 3 58.0326 22.6709 56.6149 0.0000 2.0486 0.0000
# 4 0.0000 0.0000 0.0000 68.0476 0.0000 -59.3142
# 5 5.5218 -0.4317 2.0486 0.0000 37.4633 0.0000
# 6 0.0000 0.0000 0.0000 -59.3142 0.0000 92.3574
#
#
#
# Elastic Compliance Matrix: (Units=1/GPa)
#
#
# Indices 1 2 3 4 5 6 
#
# 1 0.017777 -0.007192 -0.015275 0.000000 -0.001868 0.000000
# 2 -0.007192 0.012951 0.002146 0.000000 0.001092 0.000000
# 3 -0.015275 0.002146 0.032443 0.000000 0.000502 0.000000
# 4 0.000000 0.000000 0.000000 0.033384 0.000000 0.021440
# 5 -0.001868 0.001092 0.000502 0.000000 0.026953 0.000000
# 6 0.000000 0.000000 0.000000 0.021440 0.000000 0.024597
#
#
# Mechanical properties :
#
#
# Convention : Reuss Voigt Hill
#
# Bulk Modulus (GPa) = 44.38468 65.10005 54.74236
# Shear Modulus (GPa) = 25.47695 49.81073 37.64384
#
# Velocity S-wave (km/s) = 3.57119 4.99344 4.34096
# Velocity P-wave (km/s) = 6.26281 8.11382 7.24765
#
# Compressibility (1/GPa) = 0.02253029
#
# Stress axis : x y z
#
# Youngs Moduli (GPa) = 56.25209 77.21497 30.82326
#
# Poissons Ratio (x) = 0.55530 0.47082
# Poissons Ratio (y) = 0.40454 -0.06615
# Poissons Ratio (z) = 0.85924 -0.16572
#
# Static dielectric constant tensor:
#      x y z
#    x 3.733970 0.000000 -0.217020 
#    y 0.000000 3.641640 0.000000 
#    z -0.217020 0.000000 3.480370 
# 
# 
# High freq. dielectric constant tensor:
#      x y z
#    x 1.782400 0.000000 -0.019220 
#    y 0.000000 1.781670 0.000000 
#    z -0.019220 0.000000 1.761450 
# 
# From -- ./inp_files/12604.got.cif
#   From: 2010.06.25/outbox.cif.g09.slc.cpg/sg13_7_cif.got.tgz:12604.got - 2010.06.28 04:50:58.
