data_PCOD8119994
_publ_section_title
;
Structure prediction by ZEFSAII (Michael W. Deem and Ramdas Pophale) SiO2 
 PCOD8119994
Probable space group: P 2/C
;
_chemical_formula_sum "Si O2"
_cell_formula_units_Z 26
_cell_length_a 16.484277
_cell_length_b 6.407467
_cell_length_c 13.904302
_cell_angle_alpha 90.000000
_cell_angle_beta 112.135981
_cell_angle_gamma 90.000000
_cell_volume 1360.358810
_symmetry_space_group_name_H-M "P 2/C"
_symmetry_group_IT_number 13
_symmetry_cell_setting 'monoclinic'
loop_
_space_group_symop_operation_xyz
x,y,z
-x,y,1/2-z
-x,-y,-z
x,-y,1/2+z
loop_
_atom_site_type_symbol
_atom_site_label
_atom_site_fract_x
_atom_site_fract_y
_atom_site_fract_z
Si Si1 0.500266 0.522348 0.614566
Si Si2 0.500000 0.147890 0.750000
Si Si3 0.380229 0.768055 0.696013
Si Si4 0.074250 0.975200 0.892712
Si Si5 0.185995 0.910220 0.611372
Si Si6 0.094138 0.814873 0.198063
Si Si7 0.036599 0.605728 0.611314
O O1 0.500000 0.500000 0.500000
O O2 0.502777 0.287968 0.655705
O O3 0.413658 0.640934 0.616583
O O4 0.584624 0.650841 0.692000
O O5 0.414214 0.004604 0.708122
O O6 0.276477 0.785748 0.650706
O O7 0.097740 0.064323 0.799566
O O8 0.991907 0.104451 0.899864
O O9 0.161181 0.011271 0.993903
O O10 0.043763 0.731893 0.873845
O O11 0.116818 0.752755 0.623705
O O12 0.181380 0.118655 0.677103
O O13 0.079552 0.567298 0.202319
O O14 0.000000 0.500000 0.500000
#
# Coordination Sequence:
#
# PCOD8119994 Si02
#       7
#     4   2   4   4   4   4   4
#     4   9  19  41  64  87 115 154 197 224 289 381
#     4   8  18  40  62  78 116 152 178 234 292 356
#     4   9  21  37  59  91 118 148 190 244 302 344
#     4  10  21  37  57  84 115 157 211 248 290 359
#     4  11  21  39  54  89 125 145 200 260 297 353
#     4  10  21  36  58  83 114 161 207 245 294 360
#     4  11  19  39  62  76 115 173 200 243 305 346
#
# _framework density 19.112604999999999
#
# number of rings (size 3 to 8) (size 9 to 14) (size 15 to 20)
#    0.000    2.462    3.077    0.923    0.000    9.846 
#    8.308    0.000    0.000    0.000    0.000    0.000 
#    0.000    0.000    0.000    0.000    0.000    0.000 
#
# Total GULP energy -322140.105047 kJ/mol
# GULP energy per Si atom -12390.004040 kJ/mol
# Density = 1.906910 g / cm^3
# Si number density = 19.112605 Si / 1000 Ang^3
#
#
#
# Elastic Constant Matrix: (Units=GPa)
#
#
# Indices 1 2 3 4 5 6 
#
# 1 92.7600 31.6096 63.1752 0.0000 7.0923 0.0000
# 2 31.6096 130.8142 60.7900 0.0000 -10.9668 0.0000
# 3 63.1752 60.7900 128.6208 0.0000 -16.5364 0.0000
# 4 0.0000 0.0000 0.0000 25.4879 0.0000 0.0319
# 5 7.0923 -10.9668 -16.5364 0.0000 31.0418 0.0000
# 6 0.0000 0.0000 0.0000 0.0319 0.0000 22.5578
#
#
#
# Elastic Compliance Matrix: (Units=1/GPa)
#
#
# Indices 1 2 3 4 5 6 
#
# 1 0.018653 -0.000625 -0.010137 0.000000 -0.009883 0.000000
# 2 -0.000625 0.009850 -0.004168 0.000000 0.001402 0.000000
# 3 -0.010137 -0.004168 0.015923 0.000000 0.009326 0.000000
# 4 0.000000 0.000000 0.000000 0.039234 0.000000 -0.000056
# 5 -0.009883 0.001402 0.009326 0.000000 0.039936 0.000000
# 6 0.000000 0.000000 0.000000 -0.000056 0.000000 0.044331
#
#
# Mechanical properties :
#
#
# Convention : Reuss Voigt Hill
#
# Bulk Modulus (GPa) = 68.65576 73.70498 71.18037
# Shear Modulus (GPa) = 24.67398 28.92550 26.79974
#
# Velocity S-wave (km/s) = 3.59692 3.89450 3.74866
# Velocity P-wave (km/s) = 7.29727 7.67268 7.48733
#
# Compressibility (1/GPa) = 0.01456542
#
# Stress axis : x y z
#
# Youngs Moduli (GPa) = 53.61036 101.52321 62.80288
#
# Poissons Ratio (x) = 0.06346 0.63664
# Poissons Ratio (y) = 0.03351 0.26177
# Poissons Ratio (z) = 0.54345 0.42316
#
# Static dielectric constant tensor:
#      x y z
#    x 3.304560 0.000000 -0.054330 
#    y 0.000000 4.025340 0.000000 
#    z -0.054330 0.000000 3.440720 
# 
# 
# High freq. dielectric constant tensor:
#      x y z
#    x 1.713060 0.000000 -0.013260 
#    y 0.000000 1.763620 0.000000 
#    z -0.013260 0.000000 1.733390 
# 
# From -- ./inp_files/54514.got.cif
#   From: 2010.06.25/outbox.cif.g09.slc.cpg/sg13_28_cif.got.tgz:54514.got - 2010.06.28 04:50:58.
