data_PCOD8119708
_publ_section_title
;
Structure prediction by ZEFSAII (Michael W. Deem and Ramdas Pophale) SiO2 
 PCOD8119708
Probable space group: P 2/C
;
_chemical_formula_sum "Si O2"
_cell_formula_units_Z 20
_cell_length_a 8.271006
_cell_length_b 9.768250
_cell_length_c 11.635580
_cell_angle_alpha 90.000000
_cell_angle_beta 107.553949
_cell_angle_gamma 90.000000
_cell_volume 896.300202
_symmetry_space_group_name_H-M "P 2/C"
_symmetry_group_IT_number 13
_symmetry_cell_setting 'monoclinic'
loop_
_space_group_symop_operation_xyz
x,y,z
-x,y,1/2-z
-x,-y,-z
x,-y,1/2+z
loop_
_atom_site_type_symbol
_atom_site_label
_atom_site_fract_x
_atom_site_fract_y
_atom_site_fract_z
Si Si1 0.782775 0.839063 0.642736
Si Si2 0.853963 0.150009 0.633135
Si Si3 0.513949 0.282810 0.546938
Si Si4 0.900058 0.273659 0.393059
Si Si5 0.630899 0.526495 0.873611
O O1 0.596247 0.824094 0.550145
O O2 0.783086 0.815200 0.779892
O O3 0.906819 0.724659 0.610862
O O4 0.857002 0.986602 0.629215
O O5 0.669686 0.201445 0.639632
O O6 0.890716 0.203007 0.514103
O O7 0.000000 0.204347 0.750000
O O8 0.395311 0.362766 0.614344
O O9 0.596853 0.396609 0.484650
O O10 0.822863 0.429317 0.378393
O O11 0.500000 0.579647 0.750000
#
# Coordination Sequence:
#
# PCOD8119708 Si02
#       5
#     4   4   4   4   4
#     4  11  21  40  66  96 127 167 220 258 334 387
#     4  11  23  40  63  95 136 166 212 268 322 391
#     4  10  23  39  63  94 123 169 217 264 319 381
#     4  10  22  39  66  91 127 174 204 272 321 383
#     4  10  20  41  62  87 128 168 214 265 313 381
#
# _framework density 22.313953000000001
#
# number of rings (size 3 to 8) (size 9 to 14) (size 15 to 20)
#    0.000    1.600    4.000    1.200    0.000    2.400 
#    0.000    4.000    0.000    0.000    0.000    0.000 
#    0.000    0.000    0.000    0.000    0.000    0.000 
#
# Total GULP energy -247891.050737 kJ/mol
# GULP energy per Si atom -12394.552537 kJ/mol
# Density = 2.226317 g / cm^3
# Si number density = 22.313953 Si / 1000 Ang^3
#
#
#
# Elastic Constant Matrix: (Units=GPa)
#
#
# Indices 1 2 3 4 5 6 
#
# 1 115.4452 46.1206 62.7588 0.0000 31.2575 0.0000
# 2 46.1206 58.7821 42.2520 0.0000 5.1309 0.0000
# 3 62.7588 42.2520 130.1652 0.0000 20.7466 0.0000
# 4 0.0000 0.0000 0.0000 15.5737 0.0000 5.2345
# 5 31.2575 5.1309 20.7466 0.0000 43.9593 0.0000
# 6 0.0000 0.0000 0.0000 5.2345 0.0000 32.8418
#
#
#
# Elastic Compliance Matrix: (Units=1/GPa)
#
#
# Indices 1 2 3 4 5 6 
#
# 1 0.017133 -0.010122 -0.003484 0.000000 -0.009357 0.000000
# 2 -0.010122 0.028200 -0.005294 0.000000 0.006404 0.000000
# 3 -0.003484 -0.005294 0.011449 0.000000 -0.002308 0.000000
# 4 0.000000 0.000000 0.000000 0.067846 0.000000 -0.010813
# 5 -0.009357 0.006404 -0.002308 0.000000 0.029744 0.000000
# 6 0.000000 0.000000 0.000000 -0.010813 0.000000 0.032172
#
#
# Mechanical properties :
#
#
# Convention : Reuss Voigt Hill
#
# Bulk Modulus (GPa) = 52.68153 67.40613 60.04383
# Shear Modulus (GPa) = 21.67590 28.69236 25.18413
#
# Velocity S-wave (km/s) = 3.12012 3.58976 3.36315
# Velocity P-wave (km/s) = 6.05315 6.88880 6.48445
#
# Compressibility (1/GPa) = 0.01898198
#
# Stress axis : x y z
#
# Youngs Moduli (GPa) = 58.36633 35.46076 87.34641
#
# Poissons Ratio (x) = 0.35893 0.30429
# Poissons Ratio (y) = 0.59078 0.46244
# Poissons Ratio (z) = 0.20333 0.18774
#
# Static dielectric constant tensor:
#      x y z
#    x 4.214560 0.000000 0.077480 
#    y 0.000000 3.994090 0.000000 
#    z 0.077480 0.000000 4.099030 
# 
# 
# High freq. dielectric constant tensor:
#      x y z
#    x 1.874410 0.000000 0.013410 
#    y 0.000000 1.858920 0.000000 
#    z 0.013410 0.000000 1.886490 
# 
# From -- ./inp_files/28281.got.cif
#   From: 2010.06.25/outbox.cif.g09.slc.cpg/sg13_15_cif.got.tgz:28281.got - 2010.06.28 04:50:58.
