data_PCOD8119387
_publ_section_title
;
Structure prediction by ZEFSAII (Michael W. Deem and Ramdas Pophale) SiO2 
 PCOD8119387
Probable space group: P 2/C
;
_chemical_formula_sum "Si O2"
_cell_formula_units_Z 16
_cell_length_a 7.789062
_cell_length_b 18.495085
_cell_length_c 8.127469
_cell_angle_alpha 90.000000
_cell_angle_beta 143.656669
_cell_angle_gamma 90.000000
_cell_volume 693.864959
_symmetry_space_group_name_H-M "P 2/C"
_symmetry_group_IT_number 13
_symmetry_cell_setting 'monoclinic'
loop_
_space_group_symop_operation_xyz
x,y,z
-x,y,1/2-z
-x,-y,-z
x,-y,1/2+z
loop_
_atom_site_type_symbol
_atom_site_label
_atom_site_fract_x
_atom_site_fract_y
_atom_site_fract_z
Si Si1 0.849789 0.708541 0.307737
Si Si2 0.317892 0.561075 0.448244
Si Si3 0.647072 0.792045 0.685678
Si Si4 0.315845 0.059678 0.450931
O O1 0.734458 0.625873 0.223777
O O2 0.000000 0.719744 0.250000
O O3 0.088468 0.734062 0.623781
O O4 0.582204 0.762746 0.123425
O O5 0.500000 0.500000 0.500000
O O6 0.000000 0.530207 0.250000
O O7 0.500000 0.588188 0.750000
O O8 0.500000 0.795747 0.750000
O O9 0.748751 0.871799 0.715260
O O10 0.000000 0.026547 0.250000
O O11 0.500000 0.000000 0.500000
O O12 0.500000 0.084381 0.750000
#
# Coordination Sequence:
#
# PCOD8119387 Si02
#       4
#     4   4   4   4
#     4   9  18  35  61  88 119 164 212 254 309 384
#     4  11  22  39  63  95 130 171 218 268 320 382
#     4  10  20  38  64  90 119 162 212 260 312 374
#     4  12  26  44  66  97 132 169 210 262 319 382
#
# _framework density 23.059242000000001
#
# number of rings (size 3 to 8) (size 9 to 14) (size 15 to 20)
#    0.000    1.500    0.000    7.500    0.000    3.000 
#    0.000    5.000    0.000    0.000    0.000    0.000 
#    0.000    0.000    0.000    0.000    0.000    0.000 
#
# Total GULP energy -198305.958012 kJ/mol
# GULP energy per Si atom -12394.122376 kJ/mol
# Density = 2.300676 g / cm^3
# Si number density = 23.059242 Si / 1000 Ang^3
#
#
#
# Elastic Constant Matrix: (Units=GPa)
#
#
# Indices 1 2 3 4 5 6 
#
# 1 76.5003 61.0925 44.4076 0.0000 30.3692 0.0000
# 2 61.0925 171.1730 47.6571 0.0000 19.4931 0.0000
# 3 44.4076 47.6571 130.4294 0.0000 27.2298 0.0000
# 4 0.0000 0.0000 0.0000 45.9606 0.0000 10.3202
# 5 30.3692 19.4931 27.2298 0.0000 39.8212 0.0000
# 6 0.0000 0.0000 0.0000 10.3202 0.0000 28.5800
#
#
#
# Elastic Compliance Matrix: (Units=1/GPa)
#
#
# Indices 1 2 3 4 5 6 
#
# 1 0.026116 -0.006736 -0.003454 0.000000 -0.014258 0.000000
# 2 -0.006736 0.008356 -0.001141 0.000000 0.001827 0.000000
# 3 -0.003454 -0.001141 0.010024 0.000000 -0.003662 0.000000
# 4 0.000000 0.000000 0.000000 0.023678 0.000000 -0.008550
# 5 -0.014258 0.001827 -0.003662 0.000000 0.037596 0.000000
# 6 0.000000 0.000000 0.000000 -0.008550 0.000000 0.038077
#
#
# Mechanical properties :
#
#
# Convention : Reuss Voigt Hill
#
# Bulk Modulus (GPa) = 45.79892 76.04635 60.92264
# Shear Modulus (GPa) = 28.77098 37.86873 33.31985
#
# Velocity S-wave (km/s) = 3.53611 4.05685 3.80540
# Velocity P-wave (km/s) = 6.04786 7.41581 6.76650
#
# Compressibility (1/GPa) = 0.02183457
#
# Stress axis : x y z
#
# Youngs Moduli (GPa) = 38.29064 119.67904 99.75595
#
# Poissons Ratio (x) = 0.80611 0.34456
# Poissons Ratio (y) = 0.25791 0.11384
# Poissons Ratio (z) = 0.13226 0.13657
#
# Static dielectric constant tensor:
#      x y z
#    x 3.951580 0.000000 0.300770 
#    y 0.000000 4.184060 0.000000 
#    z 0.300770 0.000000 4.755180 
# 
# 
# High freq. dielectric constant tensor:
#      x y z
#    x 1.891690 0.000000 0.026010 
#    y 0.000000 1.908580 0.000000 
#    z 0.026010 0.000000 1.929980 
# 
# From -- ./inp_files/12968.got.cif
#   From: 2010.06.25/outbox.cif.g09.slc.cpg/sg13_7_cif.got.tgz:12968.got - 2010.06.28 04:50:58.
