data_PCOD8119663
_publ_section_title
;
Structure prediction by ZEFSAII (Michael W. Deem and Ramdas Pophale) SiO2 
 PCOD8119663
Probable space group: P 2/C
;
_chemical_formula_sum "Si O2"
_cell_formula_units_Z 20
_cell_length_a 11.216476
_cell_length_b 8.911454
_cell_length_c 11.227204
_cell_angle_alpha 90.000000
_cell_angle_beta 51.846920
_cell_angle_gamma 90.000000
_cell_volume 882.469518
_symmetry_space_group_name_H-M "P 2/C"
_symmetry_group_IT_number 13
_symmetry_cell_setting 'monoclinic'
loop_
_space_group_symop_operation_xyz
x,y,z
-x,y,1/2-z
-x,-y,-z
x,-y,1/2+z
loop_
_atom_site_type_symbol
_atom_site_label
_atom_site_fract_x
_atom_site_fract_y
_atom_site_fract_z
Si Si1 0.361656 0.551109 0.664583
Si Si2 0.833303 0.711428 0.140663
Si Si3 0.000000 0.842734 0.250000
Si Si4 0.500000 0.791474 0.750000
Si Si5 0.088857 0.742164 0.810512
Si Si6 0.787446 0.965659 0.577447
O O1 0.500000 0.500000 0.500000
O O2 0.300458 0.412040 0.780976
O O3 0.427170 0.687206 0.697649
O O4 0.215730 0.622298 0.687463
O O5 0.883809 0.737677 0.247124
O O6 0.765308 0.860527 0.121373
O O7 0.977820 0.658276 0.973189
O O8 0.914447 0.947375 0.398148
O O9 0.632477 0.898910 0.618732
O O10 0.161870 0.885696 0.831111
O O11 0.000000 0.799559 0.750000
#
# Coordination Sequence:
#
# PCOD8119663 Si02
#       6
#     4   4   2   2   4   4
#     4  11  25  44  66  97 134 185 216 274 338 398
#     4  11  24  39  71 101 129 175 226 274 337 394
#     4  10  20  40  66  98 136 160 220 284 330 392
#     4  10  24  48  58  88 144 170 222 274 332 396
#     4  10  23  42  67 100 135 171 223 277 337 397
#     4  10  23  42  68  96 132 178 217 283 333 389
#
# _framework density 22.663671999999998
#
# number of rings (size 3 to 8) (size 9 to 14) (size 15 to 20)
#    0.000    1.600    0.000    4.200    9.800    0.800 
#    0.000    3.000    0.000    0.000    0.000    0.000 
#    0.000    0.000    0.000    0.000    0.000    0.000 
#
# Total GULP energy -247934.040274 kJ/mol
# GULP energy per Si atom -12396.702014 kJ/mol
# Density = 2.261209 g / cm^3
# Si number density = 22.663672 Si / 1000 Ang^3
#
#
#
# Elastic Constant Matrix: (Units=GPa)
#
#
# Indices 1 2 3 4 5 6 
#
# 1 108.3911 62.6313 42.5388 0.0000 -11.3099 0.0000
# 2 62.6313 116.5380 59.0414 0.0000 -26.4642 0.0000
# 3 42.5388 59.0414 107.9399 0.0000 -27.0584 0.0000
# 4 0.0000 0.0000 0.0000 33.0408 0.0000 -10.7465
# 5 -11.3099 -26.4642 -27.0584 0.0000 45.9682 0.0000
# 6 0.0000 0.0000 0.0000 -10.7465 0.0000 19.7187
#
#
#
# Elastic Compliance Matrix: (Units=1/GPa)
#
#
# Indices 1 2 3 4 5 6 
#
# 1 0.013770 -0.006678 -0.002215 0.000000 -0.001761 0.000000
# 2 -0.006678 0.015619 -0.004774 0.000000 0.004539 0.000000
# 3 -0.002215 -0.004774 0.013987 0.000000 0.004940 0.000000
# 4 0.000000 0.000000 0.000000 0.036786 0.000000 0.020048
# 5 -0.001761 0.004539 0.004940 0.000000 0.026842 0.000000
# 6 0.000000 0.000000 0.000000 0.020048 0.000000 0.061639
#
#
# Mechanical properties :
#
#
# Convention : Reuss Voigt Hill
#
# Bulk Modulus (GPa) = 62.33643 73.47688 67.90666
# Shear Modulus (GPa) = 24.83533 30.98937 27.91235
#
# Velocity S-wave (km/s) = 3.31391 3.70179 3.51321
# Velocity P-wave (km/s) = 6.49672 7.12474 6.81797
#
# Compressibility (1/GPa) = 0.01604198
#
# Stress axis : x y z
#
# Youngs Moduli (GPa) = 72.61978 64.02377 71.49478
#
# Poissons Ratio (x) = 0.42755 0.15839
# Poissons Ratio (y) = 0.48496 0.34130
# Poissons Ratio (z) = 0.16088 0.30564
#
# Static dielectric constant tensor:
#      x y z
#    x 4.479980 0.000000 -0.396180 
#    y 0.000000 3.194450 0.000000 
#    z -0.396180 0.000000 4.153270 
# 
# 
# High freq. dielectric constant tensor:
#      x y z
#    x 1.891010 0.000000 -0.011850 
#    y 0.000000 1.904640 0.000000 
#    z -0.011850 0.000000 1.887580 
# 
# From -- ./inp_files/32473.got.cif
#   From: 2010.06.25/outbox.cif.g09.slc.cpg/sg13_17_cif.got.tgz:32473.got - 2010.06.28 04:50:58.
