data_PCOD8119396
_publ_section_title
;
Structure prediction by ZEFSAII (Michael W. Deem and Ramdas Pophale) SiO2 
 PCOD8119396
Probable space group: P 2/C
;
_chemical_formula_sum "Si O2"
_cell_formula_units_Z 20
_cell_length_a 8.736655
_cell_length_b 22.103783
_cell_length_c 9.988099
_cell_angle_alpha 90.000000
_cell_angle_beta 29.450475
_cell_angle_gamma 90.000000
_cell_volume 948.351383
_symmetry_space_group_name_H-M "P 2/C"
_symmetry_group_IT_number 13
_symmetry_cell_setting 'monoclinic'
loop_
_space_group_symop_operation_xyz
x,y,z
-x,y,1/2-z
-x,-y,-z
x,-y,1/2+z
loop_
_atom_site_type_symbol
_atom_site_label
_atom_site_fract_x
_atom_site_fract_y
_atom_site_fract_z
Si Si1 0.843189 0.845361 0.007424
Si Si2 0.172233 0.666668 0.259695
Si Si3 0.813453 0.727467 0.755723
Si Si4 0.317928 0.031288 0.757306
Si Si5 0.679891 0.464654 0.752912
O O1 0.500000 0.813927 0.250000
O O2 0.765356 0.896725 0.178183
O O3 0.000000 0.873183 0.750000
O O4 0.094570 0.795439 0.864138
O O5 0.306169 0.602694 0.200719
O O6 0.000000 0.663607 0.250000
O O7 0.911527 0.681197 0.567240
O O8 0.443601 0.717918 0.055639
O O9 0.000000 0.714043 0.750000
O O10 0.500000 0.014099 0.750000
O O11 0.500000 0.000000 0.500000
O O12 0.000000 0.000000 0.000000
O O13 0.500000 0.464564 0.750000
O O14 0.000000 0.500000 0.500000
O O15 0.500000 0.500000 0.000000
#
# Coordination Sequence:
#
# PCOD8119396 Si02
#       5
#     4   4   4   4   4
#     4  10  20  38  64  93 125 166 214 263 316 383
#     4  12  25  42  63  95 133 168 206 263 327 383
#     4  11  22  41  67  92 119 167 220 264 310 378
#     4  11  22  39  63  93 126 166 210 260 317 383
#     4  12  25  44  67  95 129 171 217 266 318 379
#
# _framework density 21.089227999999999
#
# number of rings (size 3 to 8) (size 9 to 14) (size 15 to 20)
#    0.000    0.800    0.000   10.800    0.000    0.000 
#    0.000    4.000    0.000    2.400    0.000    0.000 
#    0.000    0.000    0.000    0.000    0.000    0.000 
#
# Total GULP energy -247767.927955 kJ/mol
# GULP energy per Si atom -12388.396398 kJ/mol
# Density = 2.104123 g / cm^3
# Si number density = 21.089228 Si / 1000 Ang^3
#
#
#
# Elastic Constant Matrix: (Units=GPa)
#
#
# Indices 1 2 3 4 5 6 
#
# 1 169.6844 52.7151 42.1024 0.0000 2.0246 0.0000
# 2 52.7151 138.2734 45.1738 0.0000 2.5356 0.0000
# 3 42.1024 45.1738 134.3707 0.0000 -0.9574 0.0000
# 4 0.0000 0.0000 0.0000 38.3885 0.0000 0.9206
# 5 2.0246 2.5356 -0.9574 0.0000 49.0475 0.0000
# 6 0.0000 0.0000 0.0000 0.9206 0.0000 30.6135
#
#
#
# Elastic Compliance Matrix: (Units=1/GPa)
#
#
# Indices 1 2 3 4 5 6 
#
# 1 0.006927 -0.002165 -0.001444 0.000000 -0.000202 0.000000
# 2 -0.002165 0.008812 -0.002287 0.000000 -0.000411 0.000000
# 3 -0.001444 -0.002287 0.008666 0.000000 0.000347 0.000000
# 4 0.000000 0.000000 0.000000 0.026068 0.000000 -0.000784
# 5 -0.000202 -0.000411 0.000347 0.000000 0.020425 0.000000
# 6 0.000000 0.000000 0.000000 -0.000784 0.000000 0.032689
#
#
# Mechanical properties :
#
#
# Convention : Reuss Voigt Hill
#
# Bulk Modulus (GPa) = 79.28702 80.25678 79.77190
# Shear Modulus (GPa) = 41.81191 43.76571 42.78881
#
# Velocity S-wave (km/s) = 4.45749 4.56045 4.50926
# Velocity P-wave (km/s) = 8.01061 8.11595 8.06345
#
# Compressibility (1/GPa) = 0.01261241
#
# Stress axis : x y z
#
# Youngs Moduli (GPa) = 144.37038 113.47832 115.39565
#
# Poissons Ratio (x) = 0.24571 0.16661
# Poissons Ratio (y) = 0.31260 0.26392
# Poissons Ratio (z) = 0.20844 0.25953
#
# Static dielectric constant tensor:
#      x y z
#    x 3.826110 0.000000 -0.067530 
#    y 0.000000 3.956670 0.000000 
#    z -0.067530 0.000000 4.261020 
# 
# 
# High freq. dielectric constant tensor:
#      x y z
#    x 1.813190 0.000000 -0.007110 
#    y 0.000000 1.834930 0.000000 
#    z -0.007110 0.000000 1.860220 
# 
# From -- ./inp_files/13786.got.cif
#   From: 2010.06.25/outbox.cif.g09.slc.cpg/sg13_7_cif.got.tgz:13786.got - 2010.06.28 04:50:58.
