data_PCOD8119544
_publ_section_title
;
Structure prediction by ZEFSAII (Michael W. Deem and Ramdas Pophale) SiO2 
 PCOD8119544
Probable space group: P 2/C
;
_chemical_formula_sum "Si O2"
_cell_formula_units_Z 32
_cell_length_a 19.389142
_cell_length_b 9.212937
_cell_length_c 10.324440
_cell_angle_alpha 90.000000
_cell_angle_beta 123.268557
_cell_angle_gamma 90.000000
_cell_volume 1542.005248
_symmetry_space_group_name_H-M "P 2/C"
_symmetry_group_IT_number 13
_symmetry_cell_setting 'monoclinic'
loop_
_space_group_symop_operation_xyz
x,y,z
-x,y,1/2-z
-x,-y,-z
x,-y,1/2+z
loop_
_atom_site_type_symbol
_atom_site_label
_atom_site_fract_x
_atom_site_fract_y
_atom_site_fract_z
Si Si1 0.691041 0.366873 0.851428
Si Si2 0.489080 0.624602 0.385336
Si Si3 0.966464 0.699194 0.574910
Si Si4 0.349230 0.787546 0.943362
Si Si5 0.740201 0.045329 0.557343
Si Si6 0.745419 0.304228 0.399179
Si Si7 0.189435 0.126095 0.607493
Si Si8 0.065839 0.371508 0.933200
O O1 0.604148 0.317767 0.697829
O O2 0.706047 0.537619 0.855823
O O3 0.759333 0.275464 0.847534
O O4 0.690087 0.333597 0.003139
O O5 0.500000 0.563533 0.250000
O O6 0.500000 0.500000 0.500000
O O7 0.554134 0.753984 0.482269
O O8 0.905061 0.828799 0.479110
O O9 0.922026 0.542835 0.532393
O O10 0.000000 0.735737 0.750000
O O11 0.036744 0.700894 0.537391
O O12 0.292263 0.784563 0.758888
O O13 0.341465 0.946409 0.002869
O O14 0.716562 0.210757 0.494872
O O15 0.791687 0.040565 0.742133
O O16 0.795390 0.976784 0.499754
O O17 0.844838 0.306143 0.506487
O O18 0.000000 0.340668 0.750000
#
# Coordination Sequence:
#
# PCOD8119544 Si02
#       8
#     4   4   4   4   4   4   4   4
#     4  10  23  38  71  99 125 166 219 281 322 377
#     4  10  20  39  65  99 133 157 205 275 325 375
#     4  10  22  38  62  90 130 163 215 279 339 373
#     4  10  23  42  64  94 138 169 215 266 332 392
#     4  11  25  42  66  90 136 180 213 263 326 409
#     4  12  22  39  71  96 125 177 225 270 326 391
#     4  11  23  45  63  92 128 176 220 269 327 392
#     4  10  22  38  60  99 128 164 218 283 329 380
#
# _framework density 20.752199000000001
#
# number of rings (size 3 to 8) (size 9 to 14) (size 15 to 20)
#    0.000    1.500    3.750    0.750    5.250    1.000 
#    0.000    3.750    5.500    0.000    0.000    0.000 
#    0.000    0.000    0.000    0.000    0.000    0.000 
#
# Total GULP energy -396716.962886 kJ/mol
# GULP energy per Si atom -12397.405090 kJ/mol
# Density = 2.070497 g / cm^3
# Si number density = 20.752199 Si / 1000 Ang^3
#
#
#
# Elastic Constant Matrix: (Units=GPa)
#
#
# Indices 1 2 3 4 5 6 
#
# 1 84.7528 42.1138 56.4274 0.0000 5.6226 0.0000
# 2 42.1138 98.5641 34.1348 0.0000 1.9412 0.0000
# 3 56.4274 34.1348 121.2979 0.0000 -2.5683 0.0000
# 4 0.0000 0.0000 0.0000 13.8555 0.0000 -6.4210
# 5 5.6226 1.9412 -2.5683 0.0000 39.2128 0.0000
# 6 0.0000 0.0000 0.0000 -6.4210 0.0000 29.7087
#
#
#
# Elastic Compliance Matrix: (Units=1/GPa)
#
#
# Indices 1 2 3 4 5 6 
#
# 1 0.020066 -0.005825 -0.007761 0.000000 -0.003097 0.000000
# 2 -0.005825 0.012955 -0.000933 0.000000 0.000133 0.000000
# 3 -0.007761 -0.000933 0.012159 0.000000 0.001955 0.000000
# 4 0.000000 0.000000 0.000000 0.080207 0.000000 0.017335
# 5 -0.003097 0.000133 0.001955 0.000000 0.026067 0.000000
# 6 0.000000 0.000000 0.000000 0.017335 0.000000 0.037407
#
#
# Mechanical properties :
#
#
# Convention : Reuss Voigt Hill
#
# Bulk Modulus (GPa) = 61.95219 63.32965 62.64092
# Shear Modulus (GPa) = 22.39338 28.01798 25.20568
#
# Velocity S-wave (km/s) = 3.28851 3.67839 3.48890
# Velocity P-wave (km/s) = 6.65861 6.97309 6.81767
#
# Compressibility (1/GPa) = 0.01614148
#
# Stress axis : x y z
#
# Youngs Moduli (GPa) = 49.83533 77.18987 82.24627
#
# Poissons Ratio (x) = 0.44962 0.63832
# Poissons Ratio (y) = 0.29028 0.07675
# Poissons Ratio (z) = 0.38678 0.07203
#
# Static dielectric constant tensor:
#      x y z
#    x 3.793200 0.000000 -0.009430 
#    y 0.000000 3.769050 0.000000 
#    z -0.009430 0.000000 3.981120 
# 
# 
# High freq. dielectric constant tensor:
#      x y z
#    x 1.806590 0.000000 -0.008450 
#    y 0.000000 1.805280 0.000000 
#    z -0.008450 0.000000 1.821910 
# 
# From -- ./inp_files/40523.got.cif
#   From: 2010.06.25/outbox.cif.g09.slc.cpg/sg13_21_cif.got.tgz:40523.got - 2010.06.28 04:50:58.
