data_PCOD8119889
_publ_section_title
;
Structure prediction by ZEFSAII (Michael W. Deem and Ramdas Pophale) SiO2 
 PCOD8119889
Probable space group: P 2/C
;
_chemical_formula_sum "Si O2"
_cell_formula_units_Z 26
_cell_length_a 11.351315
_cell_length_b 10.976187
_cell_length_c 12.284406
_cell_angle_alpha 90.000000
_cell_angle_beta 119.129564
_cell_angle_gamma 90.000000
_cell_volume 1336.981093
_symmetry_space_group_name_H-M "P 2/C"
_symmetry_group_IT_number 13
_symmetry_cell_setting 'monoclinic'
loop_
_space_group_symop_operation_xyz
x,y,z
-x,y,1/2-z
-x,-y,-z
x,-y,1/2+z
loop_
_atom_site_type_symbol
_atom_site_label
_atom_site_fract_x
_atom_site_fract_y
_atom_site_fract_z
Si Si1 0.496473 0.281867 0.457447
Si Si2 0.878455 0.176047 0.909384
Si Si3 0.838782 0.895643 0.947363
Si Si4 0.500000 0.447186 0.250000
Si Si5 0.603355 0.943256 0.704497
Si Si6 0.743907 0.159111 0.638864
Si Si7 0.374590 0.323462 0.627919
O O1 0.472665 0.366472 0.343119
O O2 0.466601 0.141322 0.416103
O O3 0.652081 0.276950 0.567702
O O4 0.401838 0.328137 0.511419
O O5 0.862315 0.203696 0.773221
O O6 0.769368 0.257660 0.923898
O O7 0.860646 0.034236 0.923707
O O8 0.034748 0.197148 0.015526
O O9 0.714501 0.855660 0.814982
O O10 0.805966 0.899822 0.059934
O O11 0.629506 0.536097 0.330557
O O12 0.500000 0.989962 0.750000
O O13 0.658951 0.060505 0.668640
O O14 0.500000 0.257310 0.750000
#
# Coordination Sequence:
#
# PCOD8119889 Si02
#       7
#     4   4   4   2   4   4   4
#     4  12  20  37  59  88 120 151 199 259 310 353
#     4  10  21  36  53  79 119 155 205 238 298 361
#     4  10  21  35  51  81 121 160 191 242 293 374
#     4  10  22  38  58  92 122 150 204 268 322 338
#     4  11  22  32  55  89 123 160 195 246 301 374
#     4  11  20  32  57  83 117 158 196 237 303 366
#     4  10  22  36  59  86 111 159 202 260 294 358
#
# _framework density 19.446797
#
# number of rings (size 3 to 8) (size 9 to 14) (size 15 to 20)
#    0.462    0.923    3.846    2.308    4.308    0.000 
#    0.000    2.308    0.000    3.692    0.000    4.308 
#    0.000    0.000    0.000    0.000    0.000    0.000 
#
# Total GULP energy -322114.227933 kJ/mol
# GULP energy per Si atom -12389.008767 kJ/mol
# Density = 1.940254 g / cm^3
# Si number density = 19.446797 Si / 1000 Ang^3
#
#
#
# Elastic Constant Matrix: (Units=GPa)
#
#
# Indices 1 2 3 4 5 6 
#
# 1 108.3831 22.0797 54.7952 0.0000 3.8592 0.0000
# 2 22.0797 52.9539 22.9233 0.0000 0.2343 0.0000
# 3 54.7952 22.9233 111.0403 0.0000 -15.5458 0.0000
# 4 0.0000 0.0000 0.0000 21.1808 0.0000 9.1707
# 5 3.8592 0.2343 -15.5458 0.0000 32.6726 0.0000
# 6 0.0000 0.0000 0.0000 9.1707 0.0000 15.0529
#
#
#
# Elastic Compliance Matrix: (Units=1/GPa)
#
#
# Indices 1 2 3 4 5 6 
#
# 1 0.013314 -0.002635 -0.006689 0.000000 -0.004736 0.000000
# 2 -0.002635 0.021428 -0.003323 0.000000 -0.001423 0.000000
# 3 -0.006689 -0.003323 0.014042 0.000000 0.007495 0.000000
# 4 0.000000 0.000000 0.000000 0.064128 0.000000 -0.039069
# 5 -0.004736 -0.001423 0.007495 0.000000 0.034743 0.000000
# 6 0.000000 0.000000 0.000000 -0.039069 0.000000 0.090235
#
#
# Mechanical properties :
#
#
# Convention : Reuss Voigt Hill
#
# Bulk Modulus (GPa) = 42.57091 52.44153 47.50622
# Shear Modulus (GPa) = 18.44937 25.28652 21.86795
#
# Velocity S-wave (km/s) = 3.08346 3.60987 3.35700
# Velocity P-wave (km/s) = 5.88349 6.66334 6.28552
#
# Compressibility (1/GPa) = 0.02349022
#
# Stress axis : x y z
#
# Youngs Moduli (GPa) = 75.11028 46.66888 71.21530
#
# Poissons Ratio (x) = 0.12296 0.47637
# Poissons Ratio (y) = 0.19789 0.23662
# Poissons Ratio (z) = 0.50243 0.15507
#
# Static dielectric constant tensor:
#      x y z
#    x 3.750450 0.000000 0.390510 
#    y 0.000000 3.225930 0.000000 
#    z 0.390510 0.000000 4.300560 
# 
# 
# High freq. dielectric constant tensor:
#      x y z
#    x 1.744810 0.000000 -0.006360 
#    y 0.000000 1.719040 0.000000 
#    z -0.006360 0.000000 1.780020 
# 
# From -- ./inp_files/33327.got.cif
#   From: 2010.06.25/outbox.cif.g09.slc.cpg/sg13_17_cif.got.tgz:33327.got - 2010.06.28 04:50:58.
