data_PCOD8119473
_publ_section_title
;
Structure prediction by ZEFSAII (Michael W. Deem and Ramdas Pophale) SiO2 
 PCOD8119473
Probable space group: P 2/C
;
_chemical_formula_sum "Si O2"
_cell_formula_units_Z 24
_cell_length_a 22.866075
_cell_length_b 11.004989
_cell_length_c 8.666095
_cell_angle_alpha 90.000000
_cell_angle_beta 31.746664
_cell_angle_gamma 90.000000
_cell_volume 1147.429873
_symmetry_space_group_name_H-M "P 2/C"
_symmetry_group_IT_number 13
_symmetry_cell_setting 'monoclinic'
loop_
_space_group_symop_operation_xyz
x,y,z
-x,y,1/2-z
-x,-y,-z
x,-y,1/2+z
loop_
_atom_site_type_symbol
_atom_site_label
_atom_site_fract_x
_atom_site_fract_y
_atom_site_fract_z
Si Si1 0.628153 0.148919 0.986785
Si Si2 0.801886 0.330013 0.688679
Si Si3 0.000000 0.717140 0.250000
Si Si4 0.739966 0.029585 0.449064
Si Si5 0.101326 0.075197 0.678530
Si Si6 0.879220 0.539855 0.715057
Si Si7 0.000000 0.144933 0.250000
O O1 0.682065 0.266035 0.948114
O O2 0.688320 0.123924 0.687379
O O3 0.500000 0.176447 0.250000
O O4 0.642107 0.034218 0.070301
O O5 0.806917 0.425824 0.817220
O O6 0.815574 0.397419 0.496229
O O7 0.893508 0.227097 0.515050
O O8 0.969559 0.800295 0.168133
O O9 0.896428 0.633124 0.534258
O O10 0.826513 0.091789 0.139978
O O11 0.813050 0.927082 0.372719
O O12 0.024828 0.948428 0.838920
O O13 0.000000 0.500000 0.500000
#
# Coordination Sequence:
#
# PCOD8119473 Si02
#       7
#     4   4   2   4   4   4   2
#     4  11  24  43  65  87 122 165 206 257 305 358
#     4  12  24  41  62  87 126 161 212 250 302 355
#     4  11  23  32  56  84 137 157 200 232 304 371
#     4  10  20  39  59  93 123 154 202 239 302 376
#     4  10  23  32  58  97 124 165 185 243 312 378
#     4  12  23  38  57  87 118 167 202 247 295 365
#     4  11  19  36  60  90 135 155 190 238 316 379
#
# _framework density 20.916309999999999
#
# number of rings (size 3 to 8) (size 9 to 14) (size 15 to 20)
#    0.000    1.000    6.667    1.500    4.667    1.333 
#    0.000    0.833    0.000    0.000    0.000    0.000 
#    0.000    0.000    0.000    0.000    0.000    0.000 
#
# Total GULP energy -297567.363345 kJ/mol
# GULP energy per Si atom -12398.640139 kJ/mol
# Density = 2.086870 g / cm^3
# Si number density = 20.916310 Si / 1000 Ang^3
#
#
#
# Elastic Constant Matrix: (Units=GPa)
#
#
# Indices 1 2 3 4 5 6 
#
# 1 102.1327 40.2838 42.5783 0.0000 -9.7786 0.0000
# 2 40.2838 114.4421 34.1533 0.0000 -7.3321 0.0000
# 3 42.5783 34.1533 67.2106 0.0000 -13.5203 0.0000
# 4 0.0000 0.0000 0.0000 22.5939 0.0000 4.9656
# 5 -9.7786 -7.3321 -13.5203 0.0000 47.0645 0.0000
# 6 0.0000 0.0000 0.0000 4.9656 0.0000 43.8046
#
#
#
# Elastic Compliance Matrix: (Units=1/GPa)
#
#
# Indices 1 2 3 4 5 6 
#
# 1 0.013976 -0.002683 -0.007420 0.000000 0.000355 0.000000
# 2 -0.002683 0.010816 -0.003789 0.000000 0.000039 0.000000
# 3 -0.007420 -0.003789 0.022368 0.000000 0.004294 0.000000
# 4 0.000000 0.000000 0.000000 0.045390 0.000000 -0.005145
# 5 0.000355 0.000039 0.004294 0.000000 0.022561 0.000000
# 6 0.000000 0.000000 0.000000 -0.005145 0.000000 0.023412
#
#
# Mechanical properties :
#
#
# Convention : Reuss Voigt Hill
#
# Bulk Modulus (GPa) = 51.60463 57.53513 54.56988
# Shear Modulus (GPa) = 28.94121 33.81061 31.37591
#
# Velocity S-wave (km/s) = 3.72380 4.02490 3.87727
# Velocity P-wave (km/s) = 6.57377 7.01190 6.79637
#
# Compressibility (1/GPa) = 0.01937811
#
# Stress axis : x y z
#
# Youngs Moduli (GPa) = 71.54894 92.45978 44.70700
#
# Poissons Ratio (x) = 0.24805 0.33171
# Poissons Ratio (y) = 0.19195 0.16937
# Poissons Ratio (z) = 0.53086 0.35028
#
# Static dielectric constant tensor:
#      x y z
#    x 4.160110 0.000000 0.264480 
#    y 0.000000 4.009720 0.000000 
#    z 0.264480 0.000000 3.698490 
# 
# 
# High freq. dielectric constant tensor:
#      x y z
#    x 1.835640 0.000000 0.032960 
#    y 0.000000 1.821460 0.000000 
#    z 0.032960 0.000000 1.792190 
# 
# From -- ./inp_files/23187.got.cif
#   From: 2010.06.25/outbox.cif.g09.slc.cpg/sg13_12_cif.got.tgz:23187.got - 2010.06.28 04:50:58.
