data_PCOD8119004
_publ_section_title
;
Structure prediction by ZEFSAII (Michael W. Deem and Ramdas Pophale) SiO2 
 PCOD8119004
Probable space group: P 2/C
;
_chemical_formula_sum "Si O2"
_cell_formula_units_Z 20
_cell_length_a 10.211032
_cell_length_b 6.353435
_cell_length_c 13.851207
_cell_angle_alpha 90.000000
_cell_angle_beta 92.518894
_cell_angle_gamma 90.000000
_cell_volume 897.730587
_symmetry_space_group_name_H-M "P 2/C"
_symmetry_group_IT_number 13
_symmetry_cell_setting 'monoclinic'
loop_
_space_group_symop_operation_xyz
x,y,z
-x,y,1/2-z
-x,-y,-z
x,-y,1/2+z
loop_
_atom_site_type_symbol
_atom_site_label
_atom_site_fract_x
_atom_site_fract_y
_atom_site_fract_z
Si Si1 0.612115 0.659123 0.379189
Si Si2 0.252111 0.959881 0.979416
Si Si3 0.835613 0.338853 0.418410
Si Si4 0.327128 0.694995 0.327750
Si Si5 0.107542 0.420013 0.390920
O O1 0.699683 0.449605 0.387970
O O2 0.460522 0.585503 0.372308
O O3 0.650682 0.777072 0.280400
O O4 0.634567 0.813425 0.470629
O O5 0.190763 0.090508 0.067462
O O6 0.304922 0.106387 0.895836
O O7 0.143880 0.812357 0.927801
O O8 0.889092 0.412815 0.523204
O O9 0.955993 0.392178 0.347619
O O10 0.211392 0.518477 0.318372
#
# Coordination Sequence:
#
# PCOD8119004 Si02
#       5
#     4   4   4   4   4
#     4  10  22  38  56  83 118 154 194 239 287 341
#     4  10  20  36  62  86 112 150 194 240 286 338
#     4   9  19  36  57  81 110 144 184 233 287 341
#     4  10  22  38  56  83 118 154 194 239 287 341
#     4   9  19  36  57  81 110 144 184 233 287 341
#
# _framework density 22.278400000000001
#
# number of rings (size 3 to 8) (size 9 to 14) (size 15 to 20)
#    0.000    2.400    0.000    1.200    0.000   12.800 
#    0.000    4.000    0.000    0.000    0.000    0.000 
#    0.000    0.000    0.000    0.000    0.000    0.000 
#
# Total GULP energy -247776.572337 kJ/mol
# GULP energy per Si atom -12388.828617 kJ/mol
# Density = 2.222769 g / cm^3
# Si number density = 22.278400 Si / 1000 Ang^3
#
#
#
# Elastic Constant Matrix: (Units=GPa)
#
#
# Indices 1 2 3 4 5 6 
#
# 1 116.1037 40.4133 -0.7633 0.0000 -3.5064 0.0000
# 2 40.4133 106.1047 14.8680 0.0000 -2.5960 0.0000
# 3 -0.7633 14.8680 30.4038 0.0000 -7.4462 0.0000
# 4 0.0000 0.0000 0.0000 20.3010 0.0000 -6.3927
# 5 -3.5064 -2.5960 -7.4462 0.0000 28.0212 0.0000
# 6 0.0000 0.0000 0.0000 -6.3927 0.0000 17.3050
#
#
#
# Elastic Compliance Matrix: (Units=1/GPa)
#
#
# Indices 1 2 3 4 5 6 
#
# 1 0.010142 -0.004202 0.002701 0.000000 0.001597 0.000000
# 2 -0.004202 0.011863 -0.006168 0.000000 -0.001066 0.000000
# 3 0.002701 -0.006168 0.038418 0.000000 0.009975 0.000000
# 4 0.000000 0.000000 0.000000 0.055743 0.000000 0.020592
# 5 0.001597 -0.001066 0.009975 0.000000 0.038439 0.000000
# 6 0.000000 0.000000 0.000000 0.020592 0.000000 0.065394
#
#
# Mechanical properties :
#
#
# Convention : Reuss Voigt Hill
#
# Bulk Modulus (GPa) = 22.18075 40.18312 31.18194
# Shear Modulus (GPa) = 19.97085 26.33175 23.15130
#
# Velocity S-wave (km/s) = 2.99728 3.44167 3.22713
# Velocity P-wave (km/s) = 4.68573 5.81974 5.28325
#
# Compressibility (1/GPa) = 0.04508414
#
# Stress axis : x y z
#
# Youngs Moduli (GPa) = 98.60323 84.29311 26.02969
#
# Poissons Ratio (x) = 0.35421 -0.07030
# Poissons Ratio (y) = 0.41434 0.16055
# Poissons Ratio (z) = -0.26630 0.51991
#
# Static dielectric constant tensor:
#      x y z
#    x 4.537940 0.000000 -0.192600 
#    y 0.000000 3.852380 0.000000 
#    z -0.192600 0.000000 3.889330 
# 
# 
# High freq. dielectric constant tensor:
#      x y z
#    x 1.892890 0.000000 -0.004400 
#    y 0.000000 1.859790 0.000000 
#    z -0.004400 0.000000 1.862180 
# 
# From -- ./inp_files/48643.got.cif
#   From: 2010.06.25/outbox.cif.g09.slc.cpg/sg13_25_cif.got.tgz:48643.got - 2010.06.28 04:50:58.
