data_PCOD8119451
_publ_section_title
;
Structure prediction by ZEFSAII (Michael W. Deem and Ramdas Pophale) SiO2 
 PCOD8119451
Probable space group: P 2/C
;
_chemical_formula_sum "Si O2"
_cell_formula_units_Z 24
_cell_length_a 12.555436
_cell_length_b 12.699840
_cell_length_c 12.973443
_cell_angle_alpha 90.000000
_cell_angle_beta 145.826079
_cell_angle_gamma 90.000000
_cell_volume 1161.970295
_symmetry_space_group_name_H-M "P 2/C"
_symmetry_group_IT_number 13
_symmetry_cell_setting 'monoclinic'
loop_
_space_group_symop_operation_xyz
x,y,z
-x,y,1/2-z
-x,-y,-z
x,-y,1/2+z
loop_
_atom_site_type_symbol
_atom_site_label
_atom_site_fract_x
_atom_site_fract_y
_atom_site_fract_z
Si Si1 0.618022 0.778432 0.185508
Si Si2 0.691958 0.007833 0.852666
Si Si3 0.000000 0.929062 0.750000
Si Si4 0.999098 0.675042 0.029151
Si Si5 0.255649 0.158244 0.277555
Si Si6 0.891867 0.482306 0.063211
Si Si7 0.500000 0.608989 0.250000
O O1 0.816133 0.743391 0.291737
O O2 0.526076 0.680133 0.170146
O O3 0.664220 0.869546 0.304478
O O4 0.471926 0.817242 0.981765
O O5 0.500000 0.961933 0.750000
O O6 0.744253 0.947854 0.789769
O O7 0.861982 0.997176 0.071569
O O8 0.126509 0.856074 0.775969
O O9 0.935741 0.604502 0.074900
O O10 0.044826 0.597007 0.973719
O O11 0.825015 0.748975 0.857570
O O12 0.000000 0.444900 0.250000
O O13 0.670645 0.470307 0.907253
#
# Coordination Sequence:
#
# PCOD8119451 Si02
#       7
#     4   4   2   4   4   4   2
#     4  11  21  40  66  95 126 166 219 265 311 385
#     4  12  25  42  63  99 133 173 219 265 321 385
#     4  12  24  40  70  90 132 178 218 272 312 384
#     4  10  24  41  63  97 123 165 221 264 328 390
#     4  12  25  41  66  98 132 173 219 267 322 390
#     4  10  22  42  65  91 128 163 210 275 329 383
#     4  10  20  38  70  96 118 164 222 260 322 388
#
# _framework density 20.654572999999999
#
# number of rings (size 3 to 8) (size 9 to 14) (size 15 to 20)
#    0.000    1.000    4.167    2.000    3.500    1.333 
#    6.000    5.000    0.000    0.000    0.000    0.000 
#    0.000    0.000    0.000    0.000    0.000    0.000 
#
# Total GULP energy -297702.518483 kJ/mol
# GULP energy per Si atom -12404.271603 kJ/mol
# Density = 2.060756 g / cm^3
# Si number density = 20.654573 Si / 1000 Ang^3
#
#
#
# Elastic Constant Matrix: (Units=GPa)
#
#
# Indices 1 2 3 4 5 6 
#
# 1 69.1471 43.0509 43.1008 0.0000 8.7843 0.0000
# 2 43.0509 73.7873 49.8184 0.0000 8.2512 0.0000
# 3 43.1008 49.8184 184.5444 0.0000 11.4970 0.0000
# 4 0.0000 0.0000 0.0000 40.3689 0.0000 -1.0779
# 5 8.7843 8.2512 11.4970 0.0000 22.4593 0.0000
# 6 0.0000 0.0000 0.0000 -1.0779 0.0000 22.3400
#
#
#
# Elastic Compliance Matrix: (Units=1/GPa)
#
#
# Indices 1 2 3 4 5 6 
#
# 1 0.023711 -0.012020 -0.002056 0.000000 -0.003805 0.000000
# 2 -0.012020 0.023009 -0.003275 0.000000 -0.002075 0.000000
# 3 -0.002056 -0.003275 0.006877 0.000000 -0.001513 0.000000
# 4 0.000000 0.000000 0.000000 0.024804 0.000000 0.001197
# 5 -0.003805 -0.002075 -0.001513 0.000000 0.047550 0.000000
# 6 0.000000 0.000000 0.000000 0.001197 0.000000 0.044820
#
#
# Mechanical properties :
#
#
# Convention : Reuss Voigt Hill
#
# Bulk Modulus (GPa) = 52.92386 66.60211 59.76298
# Shear Modulus (GPa) = 23.61050 29.80089 26.70570
#
# Velocity S-wave (km/s) = 3.38466 3.80257 3.59969
# Velocity P-wave (km/s) = 6.39949 7.18297 6.80252
#
# Compressibility (1/GPa) = 0.01889507
#
# Stress axis : x y z
#
# Youngs Moduli (GPa) = 42.17540 43.46193 145.40967
#
# Poissons Ratio (x) = 0.52243 0.29891
# Poissons Ratio (y) = 0.50696 0.47616
# Poissons Ratio (z) = 0.08670 0.14232
#
# Static dielectric constant tensor:
#      x y z
#    x 3.721770 0.000000 0.196970 
#    y 0.000000 3.712300 0.000000 
#    z 0.196970 0.000000 3.923020 
# 
# 
# High freq. dielectric constant tensor:
#      x y z
#    x 1.798590 0.000000 0.010600 
#    y 0.000000 1.799440 0.000000 
#    z 0.010600 0.000000 1.824450 
# 
# From -- ./inp_files/53766.got.cif
#   From: 2010.06.25/outbox.cif.g09.slc.cpg/sg13_27_cif.got.tgz:53766.got - 2010.06.28 04:50:58.
