data_PCOD8119676
_publ_section_title
;
Structure prediction by ZEFSAII (Michael W. Deem and Ramdas Pophale) SiO2 
 PCOD8119676
Probable space group: P 2/C
;
_chemical_formula_sum "Si O2"
_cell_formula_units_Z 22
_cell_length_a 8.079420
_cell_length_b 14.838153
_cell_length_c 8.873308
_cell_angle_alpha 90.000000
_cell_angle_beta 95.321152
_cell_angle_gamma 90.000000
_cell_volume 1059.180467
_symmetry_space_group_name_H-M "P 2/C"
_symmetry_group_IT_number 13
_symmetry_cell_setting 'monoclinic'
loop_
_space_group_symop_operation_xyz
x,y,z
-x,y,1/2-z
-x,-y,-z
x,-y,1/2+z
loop_
_atom_site_type_symbol
_atom_site_label
_atom_site_fract_x
_atom_site_fract_y
_atom_site_fract_z
Si Si1 0.500000 0.491979 0.250000
Si Si2 0.804788 0.088059 0.194505
Si Si3 0.623276 0.210848 0.967972
Si Si4 0.305325 0.911857 0.482999
Si Si5 0.605088 0.625732 0.010139
Si Si6 0.175398 0.242185 0.816337
O O1 0.601457 0.553680 0.144545
O O2 0.624861 0.427761 0.355214
O O3 0.767072 0.179818 0.097889
O O4 0.699299 0.086594 0.337663
O O5 0.000000 0.077087 0.250000
O O6 0.725452 0.010735 0.083398
O O7 0.479079 0.134392 0.947805
O O8 0.555088 0.308307 0.013478
O O9 0.696002 0.226765 0.808298
O O10 0.154272 0.852166 0.403007
O O11 0.764798 0.686042 0.055280
O O12 0.000000 0.278763 0.750000
#
# Coordination Sequence:
#
# PCOD8119676 Si02
#       6
#     2   4   4   4   4   4
#     4  10  20  40  68  92 120 160 206 256 300 384
#     4  12  24  39  60  93 129 167 206 261 311 355
#     4  11  23  40  61  92 122 165 214 253 306 372
#     4  11  23  39  61  87 124 171 215 251 297 368
#     4  10  21  39  67  91 123 160 208 250 310 370
#     4  11  22  41  63  91 128 165 205 261 318 363
#
# _framework density 20.770776999999999
#
# number of rings (size 3 to 8) (size 9 to 14) (size 15 to 20)
#    0.000    1.091    1.818    6.000    5.091    1.455 
#    0.000    0.909    0.000    0.000    0.000    0.000 
#    0.000    0.000    0.000    0.000    0.000    0.000 
#
# Total GULP energy -272705.559662 kJ/mol
# GULP energy per Si atom -12395.707257 kJ/mol
# Density = 2.072350 g / cm^3
# Si number density = 20.770777 Si / 1000 Ang^3
#
#
#
# Elastic Constant Matrix: (Units=GPa)
#
#
# Indices 1 2 3 4 5 6 
#
# 1 85.7011 32.4300 21.2879 0.0000 7.8030 0.0000
# 2 32.4300 119.7324 54.7127 0.0000 10.3982 0.0000
# 3 21.2879 54.7127 104.5893 0.0000 11.6267 0.0000
# 4 0.0000 0.0000 0.0000 41.0579 0.0000 6.3660
# 5 7.8030 10.3982 11.6267 0.0000 21.6106 0.0000
# 6 0.0000 0.0000 0.0000 6.3660 0.0000 5.6199
#
#
#
# Elastic Compliance Matrix: (Units=1/GPa)
#
#
# Indices 1 2 3 4 5 6 
#
# 1 0.013260 -0.002961 -0.000826 0.000000 -0.002919 0.000000
# 2 -0.002961 0.011748 -0.005354 0.000000 -0.001703 0.000000
# 3 -0.000826 -0.005354 0.012987 0.000000 -0.004113 0.000000
# 4 0.000000 0.000000 0.000000 0.029545 0.000000 -0.033467
# 5 -0.002919 -0.001703 -0.004113 0.000000 0.050360 0.000000
# 6 0.000000 0.000000 0.000000 -0.033467 0.000000 0.215850
#
#
# Mechanical properties :
#
#
# Convention : Reuss Voigt Hill
#
# Bulk Modulus (GPa) = 50.72276 58.54266 54.63271
# Shear Modulus (GPa) = 13.94304 27.09718 20.52011
#
# Velocity S-wave (km/s) = 2.59372 3.61582 3.14655
# Velocity P-wave (km/s) = 5.78300 6.75859 6.28974
#
# Compressibility (1/GPa) = 0.01971502
#
# Stress axis : x y z
#
# Youngs Moduli (GPa) = 75.41683 85.11913 76.99934
#
# Poissons Ratio (x) = 0.25201 0.06357
# Poissons Ratio (y) = 0.22329 0.41224
# Poissons Ratio (z) = 0.06226 0.45571
#
# Static dielectric constant tensor:
#      x y z
#    x 3.543080 0.000000 0.208700 
#    y 0.000000 4.056700 0.000000 
#    z 0.208700 0.000000 4.024420 
# 
# 
# High freq. dielectric constant tensor:
#      x y z
#    x 1.785020 0.000000 0.017180 
#    y 0.000000 1.821080 0.000000 
#    z 0.017180 0.000000 1.833850 
# 
# From -- ./inp_files/12253.got.cif
#   From: 2010.06.25/outbox.cif.g09.slc.cpg/sg13_7_cif.got.tgz:12253.got - 2010.06.28 04:50:58.
