data_PCOD8119055
_publ_section_title
;
Structure prediction by ZEFSAII (Michael W. Deem and Ramdas Pophale) SiO2 
 PCOD8119055
Probable space group: P 2/C
;
_chemical_formula_sum "Si O2"
_cell_formula_units_Z 30
_cell_length_a 11.780950
_cell_length_b 15.300416
_cell_length_c 11.777225
_cell_angle_alpha 90.000000
_cell_angle_beta 46.582562
_cell_angle_gamma 90.000000
_cell_volume 1541.990668
_symmetry_space_group_name_H-M "P 2/C"
_symmetry_group_IT_number 13
_symmetry_cell_setting 'monoclinic'
loop_
_space_group_symop_operation_xyz
x,y,z
-x,y,1/2-z
-x,-y,-z
x,-y,1/2+z
loop_
_atom_site_type_symbol
_atom_site_label
_atom_site_fract_x
_atom_site_fract_y
_atom_site_fract_z
Si Si1 0.824356 0.913874 0.407637
Si Si2 0.256921 0.896343 0.581970
Si Si3 0.654403 0.614628 0.086768
Si Si4 0.827468 0.768174 0.045446
Si Si5 0.500000 0.448308 0.250000
Si Si6 0.405813 0.831833 0.111080
Si Si7 0.593742 0.321166 0.383165
Si Si8 0.834044 0.182224 0.132209
O O1 0.702673 0.888442 0.395216
O O2 0.783184 0.861712 0.549705
O O3 0.000000 0.892015 0.250000
O O4 0.800688 0.017249 0.443184
O O5 0.180761 0.813213 0.571929
O O6 0.444445 0.889481 0.456903
O O7 0.187512 0.892245 0.757173
O O8 0.500000 0.658862 0.250000
O O9 0.802096 0.664068 0.042118
O O10 0.650837 0.510953 0.119563
O O11 0.657679 0.627971 0.949037
O O12 0.687893 0.810424 0.211835
O O13 0.989245 0.783789 0.997921
O O14 0.529008 0.391563 0.340521
O O15 0.453432 0.742973 0.014384
O O16 0.728740 0.266306 0.229376
#
# Coordination Sequence:
#
# PCOD8119055 Si02
#       8
#     4   4   4   4   2   4   4   4
#     4  12  25  41  59  93 131 166 214 268 325 361
#     4  11  25  40  63  89 120 168 222 268 302 365
#     4  10  20  36  66  94 119 159 211 256 311 376
#     4  12  20  42  63  91 123 167 213 258 313 383
#     4  10  22  38  66  98 128 158 208 274 312 378
#     4  11  22  41  65  88 125 170 214 259 315 379
#     4  11  21  42  64  95 126 164 214 256 317 388
#     4  11  25  40  65  91 128 174 207 260 325 378
#
# _framework density 19.455369999999998
#
# number of rings (size 3 to 8) (size 9 to 14) (size 15 to 20)
#    0.400    0.533    5.333    3.200    1.867    2.667 
#    4.800    0.667    0.000    1.600    0.000    0.000 
#    0.000    0.000    0.000    0.000    0.000    0.000 
#
# Total GULP energy -371997.824631 kJ/mol
# GULP energy per Si atom -12399.927488 kJ/mol
# Density = 1.941109 g / cm^3
# Si number density = 19.455370 Si / 1000 Ang^3
#
#
#
# Elastic Constant Matrix: (Units=GPa)
#
#
# Indices 1 2 3 4 5 6 
#
# 1 71.7341 24.2367 16.3574 0.0000 2.9348 0.0000
# 2 24.2367 82.7694 25.6218 0.0000 5.0276 0.0000
# 3 16.3574 25.6218 85.8773 0.0000 6.6251 0.0000
# 4 0.0000 0.0000 0.0000 20.3894 0.0000 7.5961
# 5 2.9348 5.0276 6.6251 0.0000 35.6260 0.0000
# 6 0.0000 0.0000 0.0000 7.5961 0.0000 36.4643
#
#
#
# Elastic Compliance Matrix: (Units=1/GPa)
#
#
# Indices 1 2 3 4 5 6 
#
# 1 0.015721 -0.004034 -0.001760 0.000000 -0.000398 0.000000
# 2 -0.004034 0.014394 -0.003444 0.000000 -0.001058 0.000000
# 3 -0.001760 -0.003444 0.013147 0.000000 -0.001814 0.000000
# 4 0.000000 0.000000 0.000000 0.053172 0.000000 -0.011076
# 5 -0.000398 -0.001058 -0.001814 0.000000 0.028589 0.000000
# 6 0.000000 0.000000 0.000000 -0.011076 0.000000 0.029732
#
#
# Mechanical properties :
#
#
# Convention : Reuss Voigt Hill
#
# Bulk Modulus (GPa) = 40.34778 41.42363 40.88571
# Shear Modulus (GPa) = 27.54927 30.10693 28.82810
#
# Velocity S-wave (km/s) = 3.76709 3.93808 3.85353
# Velocity P-wave (km/s) = 6.30119 6.48196 6.39221
#
# Compressibility (1/GPa) = 0.02478451
#
# Stress axis : x y z
#
# Youngs Moduli (GPa) = 63.60866 69.47524 76.06121
#
# Poissons Ratio (x) = 0.28029 0.13387
# Poissons Ratio (y) = 0.25663 0.26198
# Poissons Ratio (z) = 0.11195 0.23929
#
# Static dielectric constant tensor:
#      x y z
#    x 3.498000 0.000000 0.031630 
#    y 0.000000 3.488160 0.000000 
#    z 0.031630 0.000000 3.618650 
# 
# 
# High freq. dielectric constant tensor:
#      x y z
#    x 1.756190 0.000000 0.011040 
#    y 0.000000 1.751230 0.000000 
#    z 0.011040 0.000000 1.762480 
# 
# From -- ./inp_files/34760.got.cif
#   From: 2010.06.25/outbox.cif.g09.slc.cpg/sg13_18_cif.got.tgz:34760.got - 2010.06.28 04:50:58.
