data_PCOD8119263
_publ_section_title
;
Structure prediction by ZEFSAII (Michael W. Deem and Ramdas Pophale) SiO2 
 PCOD8119263
Probable space group: P 2/C
;
_chemical_formula_sum "Si O2"
_cell_formula_units_Z 18
_cell_length_a 8.092308
_cell_length_b 11.872822
_cell_length_c 10.374717
_cell_angle_alpha 90.000000
_cell_angle_beta 62.203060
_cell_angle_gamma 90.000000
_cell_volume 881.764160
_symmetry_space_group_name_H-M "P 2/C"
_symmetry_group_IT_number 13
_symmetry_cell_setting 'monoclinic'
loop_
_space_group_symop_operation_xyz
x,y,z
-x,y,1/2-z
-x,-y,-z
x,-y,1/2+z
loop_
_atom_site_type_symbol
_atom_site_label
_atom_site_fract_x
_atom_site_fract_y
_atom_site_fract_z
Si Si1 0.110223 0.384565 0.960039
Si Si2 0.360722 0.893398 0.694208
Si Si3 0.636916 0.864898 0.368013
Si Si4 0.500000 0.666601 0.250000
Si Si5 0.000000 0.243392 0.750000
Si Si6 0.000000 0.244420 0.250000
O O1 0.334248 0.409949 0.870619
O O2 0.046962 0.316760 0.857772
O O3 0.077629 0.319946 0.105877
O O4 0.000000 0.500000 0.000000
O O5 0.500000 0.838704 0.750000
O O6 0.462639 0.887929 0.521454
O O7 0.163409 0.830885 0.753999
O O8 0.331576 0.026622 0.736955
O O9 0.597521 0.747935 0.314695
O O10 0.835742 0.839191 0.361678
#
# Coordination Sequence:
#
# PCOD8119263 Si02
#       6
#     4   4   4   2   2   2
#     4  11  24  45  65  94 125 172 227 276 325 381
#     4  11  22  37  63  99 136 166 213 263 323 393
#     4  10  20  38  59  93 127 174 206 248 329 404
#     4  10  20  44  64  86 130 170 202 264 330 390
#     4  10  22  40  66  86 130 174 216 260 336 394
#     4  12  24  42  68 102 136 164 222 282 320 372
#
# _framework density 20.413620999999999
#
# number of rings (size 3 to 8) (size 9 to 14) (size 15 to 20)
#    0.000    1.333    3.333    2.667    0.000    0.000 
#    6.000   10.000    0.000    0.000    0.000    0.000 
#    0.000    0.000    0.000    0.000    0.000    0.000 
#
# Total GULP energy -222996.010446 kJ/mol
# GULP energy per Si atom -12388.667247 kJ/mol
# Density = 2.036716 g / cm^3
# Si number density = 20.413621 Si / 1000 Ang^3
#
#
#
# Elastic Constant Matrix: (Units=GPa)
#
#
# Indices 1 2 3 4 5 6 
#
# 1 160.7256 58.8460 48.5031 0.0000 -23.9206 0.0000
# 2 58.8460 95.0704 29.1321 0.0000 -20.7100 0.0000
# 3 48.5031 29.1321 93.3006 0.0000 -10.9264 0.0000
# 4 0.0000 0.0000 0.0000 13.6319 0.0000 -0.3057
# 5 -23.9206 -20.7100 -10.9264 0.0000 47.9925 0.0000
# 6 0.0000 0.0000 0.0000 -0.3057 0.0000 39.6136
#
#
#
# Elastic Compliance Matrix: (Units=1/GPa)
#
#
# Indices 1 2 3 4 5 6 
#
# 1 0.008990 -0.004174 -0.003140 0.000000 0.001965 0.000000
# 2 -0.004174 0.014506 -0.001921 0.000000 0.003742 0.000000
# 3 -0.003140 -0.001921 0.013017 0.000000 0.000569 0.000000
# 4 0.000000 0.000000 0.000000 0.073370 0.000000 0.000566
# 5 0.001965 0.003742 0.000569 0.000000 0.023560 0.000000
# 6 0.000000 0.000000 0.000000 0.000566 0.000000 0.025248
#
#
# Mechanical properties :
#
#
# Convention : Reuss Voigt Hill
#
# Bulk Modulus (GPa) = 55.42618 69.11768 62.27193
# Shear Modulus (GPa) = 27.29597 34.42196 30.85897
#
# Velocity S-wave (km/s) = 3.66067 4.11082 3.89226
# Velocity P-wave (km/s) = 6.71400 7.51425 7.12537
#
# Compressibility (1/GPa) = 0.01804201
#
# Stress axis : x y z
#
# Youngs Moduli (GPa) = 111.23244 68.93615 76.82278
#
# Poissons Ratio (x) = 0.28777 0.24123
# Poissons Ratio (y) = 0.46434 0.14758
# Poissons Ratio (z) = 0.34928 0.13243
#
# Static dielectric constant tensor:
#      x y z
#    x 4.204450 0.000000 -0.318100 
#    y 0.000000 4.182100 0.000000 
#    z -0.318100 0.000000 3.742110 
# 
# 
# High freq. dielectric constant tensor:
#      x y z
#    x 1.820920 0.000000 -0.011510 
#    y 0.000000 1.785820 0.000000 
#    z -0.011510 0.000000 1.796580 
# 
# From -- ./inp_files/11636.got.cif
#   From: 2010.06.25/outbox.cif.g09.slc.cpg/sg13_6_cif.got.tgz:11636.got - 2010.06.28 04:50:58.
