data_PCOD8119899
_publ_section_title
;
Structure prediction by ZEFSAII (Michael W. Deem and Ramdas Pophale) SiO2 
 PCOD8119899
Probable space group: P 2/C
;
_chemical_formula_sum "Si O2"
_cell_formula_units_Z 32
_cell_length_a 9.938022
_cell_length_b 19.241197
_cell_length_c 13.318747
_cell_angle_alpha 90.000000
_cell_angle_beta 137.200475
_cell_angle_gamma 90.000000
_cell_volume 1730.387885
_symmetry_space_group_name_H-M "P 2/C"
_symmetry_group_IT_number 13
_symmetry_cell_setting 'monoclinic'
loop_
_space_group_symop_operation_xyz
x,y,z
-x,y,1/2-z
-x,-y,-z
x,-y,1/2+z
loop_
_atom_site_type_symbol
_atom_site_label
_atom_site_fract_x
_atom_site_fract_y
_atom_site_fract_z
Si Si1 0.904071 0.796189 0.421826
Si Si2 0.825347 0.053571 0.923175
Si Si3 0.164989 0.722831 0.425139
Si Si4 0.959953 0.427644 0.611679
Si Si5 0.481340 0.942407 0.073757
Si Si6 0.270386 0.553267 0.111888
Si Si7 0.319685 0.697204 0.073557
Si Si8 0.443616 0.788415 0.430434
O O1 0.927921 0.871504 0.482821
O O2 0.863963 0.741777 0.487787
O O3 0.726504 0.792724 0.245382
O O4 0.110477 0.775290 0.484437
O O5 0.715874 0.042068 0.969432
O O6 0.671861 0.050999 0.748237
O O7 0.000000 0.000000 0.000000
O O8 0.169039 0.643483 0.467526
O O9 0.367745 0.755047 0.493128
O O10 0.000000 0.724587 0.250000
O O11 0.829563 0.487339 0.492062
O O12 0.000000 0.444860 0.750000
O O13 0.166805 0.424134 0.661655
O O14 0.468907 0.866586 0.013230
O O15 0.500000 0.000000 0.000000
O O16 0.500000 0.534414 0.250000
O O17 0.248981 0.617661 0.021956
O O18 0.500000 0.697119 0.250000
O O19 0.387977 0.733320 0.008327
#
# Coordination Sequence:
#
# PCOD8119899 Si02
#       8
#     4   4   4   4   4   4   4   4
#     4   9  15  29  49  73 100 129 172 217 262 296
#     4  10  21  35  54  79 107 141 175 215 263 316
#     4   9  17  28  48  77 102 130 168 224 261 298
#     4  10  21  36  52  80 112 137 175 221 261 315
#     4  10  21  36  53  78 110 139 173 218 262 315
#     4  10  21  35  55  78 107 145 175 213 267 316
#     4   9  15  28  50  74  96 131 171 218 260 301
#     4   9  17  29  49  75 102 129 171 220 261 301
#
# _framework density 18.492964000000001
#
# number of rings (size 3 to 8) (size 9 to 14) (size 15 to 20)
#    0.000    2.500    2.500    0.000    7.000    1.000 
#    0.000    0.000    0.000    3.000    0.000    0.000 
#    0.000    0.000    0.000    0.000    0.000    0.000 
#
# Total GULP energy -396550.143707 kJ/mol
# GULP energy per Si atom -12392.191991 kJ/mol
# Density = 1.845087 g / cm^3
# Si number density = 18.492964 Si / 1000 Ang^3
#
#
#
# Elastic Constant Matrix: (Units=GPa)
#
#
# Indices 1 2 3 4 5 6 
#
# 1 174.9198 89.8307 29.5476 0.0000 -5.5894 0.0000
# 2 89.8307 152.2004 29.1801 0.0000 -1.7712 0.0000
# 3 29.5476 29.1801 20.4807 0.0000 -2.3378 0.0000
# 4 0.0000 0.0000 0.0000 23.8924 0.0000 -2.3912
# 5 -5.5894 -1.7712 -2.3378 0.0000 19.5675 0.0000
# 6 0.0000 0.0000 0.0000 -2.3912 0.0000 41.3223
#
#
#
# Elastic Compliance Matrix: (Units=1/GPa)
#
#
# Indices 1 2 3 4 5 6 
#
# 1 0.008988 -0.003897 -0.007261 0.000000 0.001347 0.000000
# 2 -0.003897 0.010739 -0.009829 0.000000 -0.001315 0.000000
# 3 -0.007261 -0.009829 0.073976 0.000000 0.005874 0.000000
# 4 0.000000 0.000000 0.000000 0.042098 0.000000 0.002436
# 5 0.001347 -0.001315 0.005874 0.000000 0.052073 0.000000
# 6 0.000000 0.000000 0.000000 0.002436 0.000000 0.024341
#
#
# Mechanical properties :
#
#
# Convention : Reuss Voigt Hill
#
# Bulk Modulus (GPa) = 19.33121 71.63533 45.48327
# Shear Modulus (GPa) = 18.42082 30.22593 24.32338
#
# Velocity S-wave (km/s) = 3.15953 4.04723 3.63061
# Velocity P-wave (km/s) = 4.87710 7.78850 6.49795
#
# Compressibility (1/GPa) = 0.05172982
#
# Stress axis : x y z
#
# Youngs Moduli (GPa) = 111.26282 93.11426 13.51788
#
# Poissons Ratio (x) = 0.36287 0.09815
# Poissons Ratio (y) = 0.43359 0.13287
# Poissons Ratio (z) = 0.80783 0.91523
#
# Static dielectric constant tensor:
#      x y z
#    x 3.847500 0.000000 -0.057030 
#    y 0.000000 3.720310 0.000000 
#    z -0.057030 0.000000 2.740230 
# 
# 
# High freq. dielectric constant tensor:
#      x y z
#    x 1.739820 0.000000 -0.003710 
#    y 0.000000 1.737750 0.000000 
#    z -0.003710 0.000000 1.643600 
# 
# From -- ./inp_files/30811.got.cif
#   From: 2010.06.25/outbox.cif.g09.slc.cpg/sg13_16_cif.got.tgz:30811.got - 2010.06.28 04:50:58.
