data_PCOD8119934
_publ_section_title
;
Structure prediction by ZEFSAII (Michael W. Deem and Ramdas Pophale) SiO2 
 PCOD8119934
Probable space group: P 2/C
;
_chemical_formula_sum "Si O2"
_cell_formula_units_Z 16
_cell_length_a 5.108994
_cell_length_b 10.137205
_cell_length_c 16.929206
_cell_angle_alpha 90.000000
_cell_angle_beta 96.518855
_cell_angle_gamma 90.000000
_cell_volume 871.110373
_symmetry_space_group_name_H-M "P 2/C"
_symmetry_group_IT_number 13
_symmetry_cell_setting 'monoclinic'
loop_
_space_group_symop_operation_xyz
x,y,z
-x,y,1/2-z
-x,-y,-z
x,-y,1/2+z
loop_
_atom_site_type_symbol
_atom_site_label
_atom_site_fract_x
_atom_site_fract_y
_atom_site_fract_z
Si Si1 0.817668 0.892554 0.035845
Si Si2 0.518506 0.237846 0.093924
Si Si3 0.719543 0.986984 0.699495
Si Si4 0.006654 0.645472 0.533459
O O1 0.546429 0.873595 0.975994
O O2 0.974258 0.751941 0.037452
O O3 0.754945 0.922119 0.124191
O O4 0.000000 0.000000 0.000000
O O5 0.744595 0.336505 0.074673
O O6 0.258067 0.327210 0.100179
O O7 0.611626 0.158521 0.174013
O O8 0.500000 0.051625 0.750000
O O9 0.000000 0.971381 0.750000
O O10 0.000000 0.500000 0.500000
#
# Coordination Sequence:
#
# PCOD8119934 Si02
#       4
#     4   4   4   4
#     4  10  21  37  63  86 120 145 202 246 287 341
#     4  10  21  37  59  83 120 147 200 240 288 342
#     4  12  23  34  56  93 121 152 188 243 302 344
#     4  10  21  35  63  88 111 148 202 245 289 336
#
# _framework density 18.367363999999998
#
# number of rings (size 3 to 8) (size 9 to 14) (size 15 to 20)
#    1.500    0.000    2.500    4.500    3.500    0.000 
#    0.000    0.000    0.000    6.000    0.000    0.000 
#    0.000    0.000    0.000    0.000    0.000    0.000 
#
# Total GULP energy -198247.741521 kJ/mol
# GULP energy per Si atom -12390.483845 kJ/mol
# Density = 1.832556 g / cm^3
# Si number density = 18.367364 Si / 1000 Ang^3
#
#
#
# Elastic Constant Matrix: (Units=GPa)
#
#
# Indices 1 2 3 4 5 6 
#
# 1 146.1157 32.9435 43.1263 0.0000 3.8051 0.0000
# 2 32.9435 110.1832 31.1352 0.0000 -7.4718 0.0000
# 3 43.1263 31.1352 90.9763 0.0000 -3.6100 0.0000
# 4 0.0000 0.0000 0.0000 11.2357 0.0000 -5.7660
# 5 3.8051 -7.4718 -3.6100 0.0000 39.8616 0.0000
# 6 0.0000 0.0000 0.0000 -5.7660 0.0000 26.3724
#
#
#
# Elastic Compliance Matrix: (Units=1/GPa)
#
#
# Indices 1 2 3 4 5 6 
#
# 1 0.008249 -0.001595 -0.003420 0.000000 -0.001396 0.000000
# 2 -0.001595 0.010456 -0.002748 0.000000 0.001863 0.000000
# 3 -0.003420 -0.002748 0.013595 0.000000 0.001043 0.000000
# 4 0.000000 0.000000 0.000000 0.100251 0.000000 0.021919
# 5 -0.001396 0.001863 0.001043 0.000000 0.025664 0.000000
# 6 0.000000 0.000000 0.000000 0.021919 0.000000 0.042711
#
#
# Mechanical properties :
#
#
# Convention : Reuss Voigt Hill
#
# Bulk Modulus (GPa) = 59.61759 62.40949 61.01354
# Shear Modulus (GPa) = 22.51822 31.49861 27.00842
#
# Velocity S-wave (km/s) = 3.50521 4.14566 3.83881
# Velocity P-wave (km/s) = 6.99364 7.54768 7.27593
#
# Compressibility (1/GPa) = 0.01677357
#
# Stress axis : x y z
#
# Youngs Moduli (GPa) = 121.22335 95.64299 73.55586
#
# Poissons Ratio (x) = 0.15252 0.25157
# Poissons Ratio (y) = 0.19331 0.20216
# Poissons Ratio (z) = 0.41460 0.26286
#
# Static dielectric constant tensor:
#      x y z
#    x 3.673950 0.000000 0.003490 
#    y 0.000000 3.147260 0.000000 
#    z 0.003490 0.000000 3.404070 
# 
# 
# High freq. dielectric constant tensor:
#      x y z
#    x 1.741020 0.000000 0.001650 
#    y 0.000000 1.690720 0.000000 
#    z 0.001650 0.000000 1.683690 
# 
# From -- ./inp_files/25539.got.cif
#   From: 2010.06.25/outbox.cif.g09.slc.cpg/sg13_13_cif.got.tgz:25539.got - 2010.06.28 04:50:58.
