data_PCOD8119570
_publ_section_title
;
Structure prediction by ZEFSAII (Michael W. Deem and Ramdas Pophale) SiO2 
 PCOD8119570
Probable space group: P 2/C
;
_chemical_formula_sum "Si O2"
_cell_formula_units_Z 26
_cell_length_a 12.808537
_cell_length_b 13.135852
_cell_length_c 20.492815
_cell_angle_alpha 90.000000
_cell_angle_beta 22.540418
_cell_angle_gamma 90.000000
_cell_volume 1321.715378
_symmetry_space_group_name_H-M "P 2/C"
_symmetry_group_IT_number 13
_symmetry_cell_setting 'monoclinic'
loop_
_space_group_symop_operation_xyz
x,y,z
-x,y,1/2-z
-x,-y,-z
x,-y,1/2+z
loop_
_atom_site_type_symbol
_atom_site_label
_atom_site_fract_x
_atom_site_fract_y
_atom_site_fract_z
Si Si1 0.000000 0.248631 0.750000
Si Si2 0.594755 0.925039 0.123059
Si Si3 0.187071 0.394740 0.203437
Si Si4 0.134651 0.229015 0.864213
Si Si5 0.709421 0.618854 0.323650
Si Si6 0.659820 0.149221 0.045560
Si Si7 0.941391 0.773251 0.617910
O O1 0.042461 0.323284 0.786084
O O2 0.242176 0.176476 0.584397
O O3 0.500000 0.954836 0.250000
O O4 0.350618 0.862189 0.230872
O O5 0.645581 0.027845 0.054642
O O6 0.880751 0.864857 0.955307
O O7 0.251611 0.498296 0.205473
O O8 0.055142 0.317421 0.330955
O O9 0.000000 0.421807 0.250000
O O10 0.457665 0.349579 0.015014
O O11 0.289970 0.330302 0.747998
O O12 0.858786 0.193659 0.987022
O O13 0.082373 0.260336 0.969106
O O14 0.360620 0.194427 0.227355
#
# Coordination Sequence:
#
# PCOD8119570 Si02
#       7
#     2   4   4   4   4   4   4
#     4  10  20  40  56  84 120 152 192 250 286 354
#     4  10  21  39  58  85 125 160 191 240 302 350
#     4  11  22  38  63  85 115 159 199 240 298 363
#     4  10  22  38  61  88 123 155 194 251 295 347
#     4  10  21  39  59  82 117 156 193 239 306 348
#     4  11  21  38  61  88 117 162 201 240 292 354
#     4  11  22  38  62  92 117 153 205 246 289 352
#
# _framework density 19.671406999999999
#
# number of rings (size 3 to 8) (size 9 to 14) (size 15 to 20)
#    0.000    1.538    2.308    3.231    0.000    3.077 
#    4.154    2.308    0.000    3.692    0.000    0.000 
#    0.000    0.000    0.000    0.000    0.000    0.000 
#
# Total GULP energy -322254.823709 kJ/mol
# GULP energy per Si atom -12394.416297 kJ/mol
# Density = 1.962663 g / cm^3
# Si number density = 19.671407 Si / 1000 Ang^3
#
#
#
# Elastic Constant Matrix: (Units=GPa)
#
#
# Indices 1 2 3 4 5 6 
#
# 1 61.9880 29.3890 28.2941 0.0000 6.1490 0.0000
# 2 29.3890 101.3225 53.4881 0.0000 25.2866 0.0000
# 3 28.2941 53.4881 99.1247 0.0000 6.6571 0.0000
# 4 0.0000 0.0000 0.0000 32.1645 0.0000 3.3311
# 5 6.1490 25.2866 6.6571 0.0000 39.8494 0.0000
# 6 0.0000 0.0000 0.0000 3.3311 0.0000 20.2554
#
#
#
# Elastic Compliance Matrix: (Units=1/GPa)
#
#
# Indices 1 2 3 4 5 6 
#
# 1 0.019547 -0.003806 -0.003525 0.000000 -0.000012 0.000000
# 2 -0.003806 0.017266 -0.007619 0.000000 -0.009096 0.000000
# 3 -0.003525 -0.007619 0.015013 0.000000 0.002871 0.000000
# 4 0.000000 0.000000 0.000000 0.031629 0.000000 -0.005202
# 5 -0.000012 -0.009096 0.002871 0.000000 0.030389 0.000000
# 6 0.000000 0.000000 0.000000 -0.005202 0.000000 0.050225
#
#
# Mechanical properties :
#
#
# Convention : Reuss Voigt Hill
#
# Bulk Modulus (GPa) = 45.60954 53.86416 49.73685
# Shear Modulus (GPa) = 24.84143 28.53812 26.68978
#
# Velocity S-wave (km/s) = 3.55747 3.81299 3.68745
# Velocity P-wave (km/s) = 6.33326 6.84300 6.59306
#
# Compressibility (1/GPa) = 0.02192524
#
# Stress axis : x y z
#
# Youngs Moduli (GPa) = 51.15972 57.91854 66.60813
#
# Poissons Ratio (x) = 0.22042 0.23479
# Poissons Ratio (y) = 0.19469 0.50752
# Poissons Ratio (z) = 0.18034 0.44131
#
# Static dielectric constant tensor:
#      x y z
#    x 3.802860 0.000000 0.078610 
#    y 0.000000 3.493610 0.000000 
#    z 0.078610 0.000000 3.958850 
# 
# 
# High freq. dielectric constant tensor:
#      x y z
#    x 1.761670 0.000000 -0.002520 
#    y 0.000000 1.764830 0.000000 
#    z -0.002520 0.000000 1.780740 
# 
# From -- ./inp_files/87505.got.cif
#   From: 2010.06.25/outbox.cif.g09.slc.cpg/sg13_44_cif.got.tgz:87505.got - 2010.06.28 04:50:58.
