data_PCOD8119681
_publ_section_title
;
Structure prediction by ZEFSAII (Michael W. Deem and Ramdas Pophale) SiO2 
 PCOD8119681
Probable space group: P 2/C
;
_chemical_formula_sum "Si O2"
_cell_formula_units_Z 28
_cell_length_a 7.772921
_cell_length_b 13.830911
_cell_length_c 14.067004
_cell_angle_alpha 90.000000
_cell_angle_beta 65.939612
_cell_angle_gamma 90.000000
_cell_volume 1380.901588
_symmetry_space_group_name_H-M "P 2/C"
_symmetry_group_IT_number 13
_symmetry_cell_setting 'monoclinic'
loop_
_space_group_symop_operation_xyz
x,y,z
-x,y,1/2-z
-x,-y,-z
x,-y,1/2+z
loop_
_atom_site_type_symbol
_atom_site_label
_atom_site_fract_x
_atom_site_fract_y
_atom_site_fract_z
Si Si1 0.206010 0.692495 0.873936
Si Si2 0.302035 0.272959 0.561388
Si Si3 0.524970 0.103817 0.449189
Si Si4 0.612530 0.407958 0.512781
Si Si5 0.000000 0.357612 0.750000
Si Si6 0.853893 0.746334 0.870882
Si Si7 0.278111 0.478064 0.819059
Si Si8 0.500000 0.835625 0.750000
O O1 0.207589 0.587424 0.826478
O O2 0.320310 0.765091 0.777740
O O3 0.994278 0.735739 0.930053
O O4 0.303386 0.685542 0.954057
O O5 0.364022 0.161953 0.542344
O O6 0.454944 0.333540 0.587347
O O7 0.099494 0.285126 0.654142
O O8 0.729988 0.155935 0.412356
O O9 0.478528 0.097057 0.347426
O O10 0.500000 0.000000 0.500000
O O11 0.500000 0.500000 0.500000
O O12 0.724055 0.350975 0.403225
O O13 0.753804 0.437299 0.566527
O O14 0.847911 0.421577 0.728695
O O15 0.000000 0.745888 0.750000
O O16 0.500000 0.469546 0.750000
#
# Coordination Sequence:
#
# PCOD8119681 Si02
#       8
#     4   4   4   4   2   4   4   2
#     4  11  22  38  62  97 129 177 221 279 318 392
#     4  10  23  42  63  90 136 170 221 273 335 399
#     4  10  23  47  70  96 127 166 215 292 357 407
#     4  11  23  41  58  93 138 181 218 273 327 378
#     4  12  26  40  58  96 136 186 226 268 330 416
#     4  11  24  39  68  97 127 169 226 274 324 402
#     4  12  25  37  63  95 140 188 230 268 325 396
#     4  10  20  40  68  96 130 160 216 278 346 396
#
# _framework density 20.276606000000001
#
# number of rings (size 3 to 8) (size 9 to 14) (size 15 to 20)
#    0.000    1.143    5.000    0.857    5.000    1.143 
#    1.286    7.143    0.000    0.000    0.000    0.000 
#    0.000    0.000    0.000    0.000    0.000    0.000 
#
# Total GULP energy -346992.545322 kJ/mol
# GULP energy per Si atom -12392.590904 kJ/mol
# Density = 2.023046 g / cm^3
# Si number density = 20.276606 Si / 1000 Ang^3
#
#
#
# Elastic Constant Matrix: (Units=GPa)
#
#
# Indices 1 2 3 4 5 6 
#
# 1 121.3953 63.1813 35.4101 0.0000 -10.6316 0.0000
# 2 63.1813 158.1975 76.1032 0.0000 -6.9858 0.0000
# 3 35.4101 76.1032 104.7971 0.0000 -15.9436 0.0000
# 4 0.0000 0.0000 0.0000 29.2731 0.0000 -0.7705
# 5 -10.6316 -6.9858 -15.9436 0.0000 37.3488 0.0000
# 6 0.0000 0.0000 0.0000 -0.7705 0.0000 26.0417
#
#
#
# Elastic Compliance Matrix: (Units=1/GPa)
#
#
# Indices 1 2 3 4 5 6 
#
# 1 0.010592 -0.003949 -0.000390 0.000000 0.002110 0.000000
# 2 -0.003949 0.011245 -0.007147 0.000000 -0.002072 0.000000
# 3 -0.000390 -0.007147 0.015661 0.000000 0.005238 0.000000
# 4 0.000000 0.000000 0.000000 0.034188 0.000000 0.001011
# 5 0.002110 -0.002072 0.005238 0.000000 0.029224 0.000000
# 6 0.000000 0.000000 0.000000 0.001011 0.000000 0.038430
#
#
# Mechanical properties :
#
#
# Convention : Reuss Voigt Hill
#
# Bulk Modulus (GPa) = 68.84504 81.53101 75.18803
# Shear Modulus (GPa) = 29.91278 32.51240 31.21259
#
# Velocity S-wave (km/s) = 3.84505 4.00865 3.92770
# Velocity P-wave (km/s) = 7.33070 7.85636 7.59808
#
# Compressibility (1/GPa) = 0.01452538
#
# Stress axis : x y z
#
# Youngs Moduli (GPa) = 94.41508 88.92695 63.85348
#
# Poissons Ratio (x) = 0.35121 0.02489
# Poissons Ratio (y) = 0.37288 0.45636
# Poissons Ratio (z) = 0.03680 0.63555
#
# Static dielectric constant tensor:
#      x y z
#    x 4.075890 0.000000 -0.042420 
#    y 0.000000 3.403910 0.000000 
#    z -0.042420 0.000000 3.783690 
# 
# 
# High freq. dielectric constant tensor:
#      x y z
#    x 1.811250 0.000000 -0.003150 
#    y 0.000000 1.759990 0.000000 
#    z -0.003150 0.000000 1.792370 
# 
# From -- ./inp_files/47169.got.cif
#   From: 2010.06.25/outbox.cif.g09.slc.cpg/sg13_24_cif.got.tgz:47169.got - 2010.06.28 04:50:58.
