data_PCOD8119805
_publ_section_title
;
Structure prediction by ZEFSAII (Michael W. Deem and Ramdas Pophale) SiO2 
 PCOD8119805
Probable space group: P 2/C
;
_chemical_formula_sum "Si O2"
_cell_formula_units_Z 28
_cell_length_a 9.395363
_cell_length_b 15.029919
_cell_length_c 10.895036
_cell_angle_alpha 90.000000
_cell_angle_beta 60.564909
_cell_angle_gamma 90.000000
_cell_volume 1339.903875
_symmetry_space_group_name_H-M "P 2/C"
_symmetry_group_IT_number 13
_symmetry_cell_setting 'monoclinic'
loop_
_space_group_symop_operation_xyz
x,y,z
-x,y,1/2-z
-x,-y,-z
x,-y,1/2+z
loop_
_atom_site_type_symbol
_atom_site_label
_atom_site_fract_x
_atom_site_fract_y
_atom_site_fract_z
Si Si1 0.488938 0.924562 0.608493
Si Si2 0.106652 0.681171 0.963702
Si Si3 0.357149 0.334840 0.039609
Si Si4 0.832166 0.812122 0.773210
Si Si5 0.671445 0.240712 0.941980
Si Si6 0.329515 0.465941 0.251817
Si Si7 0.264483 0.661892 0.319384
O O1 0.500000 0.953506 0.750000
O O2 0.309649 0.884464 0.666151
O O3 0.638652 0.859045 0.505520
O O4 0.500000 0.000000 0.500000
O O5 0.153475 0.767823 0.865380
O O6 0.192360 0.590306 0.882755
O O7 0.171214 0.710505 0.069517
O O8 0.914942 0.666918 0.047713
O O9 0.202938 0.269080 0.118375
O O10 0.331651 0.430589 0.110990
O O11 0.507941 0.292643 0.049999
O O12 0.392314 0.342885 0.879638
O O13 0.000000 0.857714 0.750000
O O14 0.696760 0.252981 0.783836
O O15 0.500000 0.455737 0.250000
O O16 0.279187 0.567273 0.246180
#
# Coordination Sequence:
#
# PCOD8119805 Si02
#       7
#     4   4   4   4   4   4   4
#     4  11  25  47  78 108 134 170 218 272 339 421
#     4  11  22  42  63  91 131 179 229 269 334 387
#     4  10  22  38  62  89 122 177 232 270 326 387
#     4  10  20  42  71  95 128 173 216 265 328 398
#     4  11  23  43  68  91 129 178 219 268 338 403
#     4  11  23  38  62  87 130 186 233 284 329 383
#     4  12  25  38  59  96 134 171 231 287 327 380
#
# _framework density 20.897020999999999
#
# number of rings (size 3 to 8) (size 9 to 14) (size 15 to 20)
#    0.000    1.143    4.286    2.143    2.000    3.429 
#    2.571    2.143    0.000    0.000    0.000    0.000 
#    0.000    0.000    0.000    0.000    0.000    0.000 
#
# Total GULP energy -346972.279372 kJ/mol
# GULP energy per Si atom -12391.867120 kJ/mol
# Density = 2.084946 g / cm^3
# Si number density = 20.897021 Si / 1000 Ang^3
#
#
#
# Elastic Constant Matrix: (Units=GPa)
#
#
# Indices 1 2 3 4 5 6 
#
# 1 76.5420 26.8984 22.3097 0.0000 11.2990 0.0000
# 2 26.8984 93.0384 46.7969 0.0000 12.1793 0.0000
# 3 22.3097 46.7969 112.1172 0.0000 22.3529 0.0000
# 4 0.0000 0.0000 0.0000 35.0079 0.0000 -3.1251
# 5 11.2990 12.1793 22.3529 0.0000 42.0167 0.0000
# 6 0.0000 0.0000 0.0000 -3.1251 0.0000 17.8858
#
#
#
# Elastic Compliance Matrix: (Units=1/GPa)
#
#
# Indices 1 2 3 4 5 6 
#
# 1 0.014952 -0.003482 -0.001031 0.000000 -0.002463 0.000000
# 2 -0.003482 0.014455 -0.005249 0.000000 -0.000461 0.000000
# 3 -0.001031 -0.005249 0.012257 0.000000 -0.004722 0.000000
# 4 0.000000 0.000000 0.000000 0.029018 0.000000 0.005070
# 5 -0.002463 -0.000461 -0.004722 0.000000 0.027108 0.000000
# 6 0.000000 0.000000 0.000000 0.005070 0.000000 0.056796
#
#
# Mechanical properties :
#
#
# Convention : Reuss Voigt Hill
#
# Bulk Modulus (GPa) = 45.16455 52.63419 48.89937
# Shear Modulus (GPa) = 27.54975 31.36157 29.45566
#
# Velocity S-wave (km/s) = 3.63486 3.87818 3.75849
# Velocity P-wave (km/s) = 6.26706 6.73021 6.50276
#
# Compressibility (1/GPa) = 0.02214126
#
# Stress axis : x y z
#
# Youngs Moduli (GPa) = 66.87877 69.17855 81.58910
#
# Poissons Ratio (x) = 0.24088 0.08411
# Poissons Ratio (y) = 0.23287 0.42824
# Poissons Ratio (z) = 0.06894 0.36310
#
# Static dielectric constant tensor:
#      x y z
#    x 3.845070 0.000000 -0.040260 
#    y 0.000000 3.516000 0.000000 
#    z -0.040260 0.000000 3.866030 
# 
# 
# High freq. dielectric constant tensor:
#      x y z
#    x 1.831090 0.000000 0.000020 
#    y 0.000000 1.786900 0.000000 
#    z 0.000020 0.000000 1.829700 
# 
# From -- ./inp_files/30266.got.cif
#   From: 2010.06.25/outbox.cif.g09.slc.cpg/sg13_16_cif.got.tgz:30266.got - 2010.06.28 04:50:58.
