data_PCOD8119497
_publ_section_title
;
Structure prediction by ZEFSAII (Michael W. Deem and Ramdas Pophale) SiO2 
 PCOD8119497
Probable space group: P 2/C
;
_chemical_formula_sum "Si O2"
_cell_formula_units_Z 28
_cell_length_a 13.974785
_cell_length_b 9.174138
_cell_length_c 20.627576
_cell_angle_alpha 90.000000
_cell_angle_beta 150.358633
_cell_angle_gamma 90.000000
_cell_volume 1307.934314
_symmetry_space_group_name_H-M "P 2/C"
_symmetry_group_IT_number 13
_symmetry_cell_setting 'monoclinic'
loop_
_space_group_symop_operation_xyz
x,y,z
-x,y,1/2-z
-x,-y,-z
x,-y,1/2+z
loop_
_atom_site_type_symbol
_atom_site_label
_atom_site_fract_x
_atom_site_fract_y
_atom_site_fract_z
Si Si1 0.641783 0.759298 0.273986
Si Si2 0.596332 0.772914 0.982700
Si Si3 0.141604 0.580718 0.276545
Si Si4 0.277438 0.015564 0.270698
Si Si5 0.932256 0.163919 0.595428
Si Si6 0.669770 0.547927 0.730419
Si Si7 0.914402 0.768871 0.942003
O O1 0.500000 0.784074 0.250000
O O2 0.614061 0.889909 0.206338
O O3 0.595065 0.609316 0.208957
O O4 0.856477 0.753875 0.429086
O O5 0.514082 0.654385 0.883373
O O6 0.429546 0.890716 0.903645
O O7 0.687078 0.686828 0.096634
O O8 0.758842 0.869300 0.042212
O O9 0.234633 0.455959 0.286086
O O10 0.000000 0.517587 0.250000
O O11 0.006615 0.671905 0.149088
O O12 0.109909 0.945332 0.216774
O O13 0.164371 0.121133 0.156727
O O14 0.858414 0.160374 0.478144
O O15 0.817930 0.611340 0.871312
#
# Coordination Sequence:
#
# PCOD8119497 Si02
#       7
#     4   4   4   4   4   4   4
#     4  11  23  34  58  93 126 152 194 250 311 357
#     4  10  24  37  65  86 120 164 211 242 297 370
#     4  10  21  40  62  85 118 166 203 248 302 355
#     4  10  22  39  59  89 120 164 197 254 298 364
#     4  10  20  39  62  87 121 164 197 247 313 358
#     4  11  22  40  60  92 121 159 200 253 302 360
#     4  10  22  38  61  86 124 156 197 247 306 369
#
# _framework density 21.407803000000001
#
# number of rings (size 3 to 8) (size 9 to 14) (size 15 to 20)
#    0.000    1.714    2.857    2.571    6.000    2.857 
#    0.000    0.000    0.000    3.429    0.000    0.000 
#    0.000    0.000    0.000    0.000    0.000    0.000 
#
# Total GULP energy -347082.900005 kJ/mol
# GULP energy per Si atom -12395.817857 kJ/mol
# Density = 2.135908 g / cm^3
# Si number density = 21.407803 Si / 1000 Ang^3
#
#
#
# Elastic Constant Matrix: (Units=GPa)
#
#
# Indices 1 2 3 4 5 6 
#
# 1 61.0953 13.1492 16.9671 0.0000 14.5973 0.0000
# 2 13.1492 82.2970 12.9030 0.0000 14.7345 0.0000
# 3 16.9671 12.9030 71.4367 0.0000 10.7826 0.0000
# 4 0.0000 0.0000 0.0000 28.9314 0.0000 0.0966
# 5 14.5973 14.7345 10.7826 0.0000 20.5058 0.0000
# 6 0.0000 0.0000 0.0000 0.0966 0.0000 23.0127
#
#
#
# Elastic Compliance Matrix: (Units=1/GPa)
#
#
# Indices 1 2 3 4 5 6 
#
# 1 0.020268 -0.000549 -0.002820 0.000000 -0.012550 0.000000
# 2 -0.000549 0.014039 -0.001023 0.000000 -0.009159 0.000000
# 3 -0.002820 -0.001023 0.015684 0.000000 -0.005504 0.000000
# 4 0.000000 0.000000 0.000000 0.034565 0.000000 -0.000145
# 5 -0.012550 -0.009159 -0.005504 0.000000 0.067176 0.000000
# 6 0.000000 0.000000 0.000000 -0.000145 0.000000 0.043455
#
#
# Mechanical properties :
#
#
# Convention : Reuss Voigt Hill
#
# Bulk Modulus (GPa) = 24.26823 33.42973 28.84898
# Shear Modulus (GPa) = 22.96663 25.94397 24.45530
#
# Velocity S-wave (km/s) = 3.27894 3.48500 3.38354
# Velocity P-wave (km/s) = 5.06913 5.64298 5.36373
#
# Compressibility (1/GPa) = 0.04120613
#
# Stress axis : x y z
#
# Youngs Moduli (GPa) = 49.33907 71.22980 63.75979
#
# Poissons Ratio (x) = 0.03912 0.17982
# Poissons Ratio (y) = 0.02709 0.06522
# Poissons Ratio (z) = 0.13915 0.07286
#
# Static dielectric constant tensor:
#      x y z
#    x 3.846170 0.000000 0.177090 
#    y 0.000000 4.018920 0.000000 
#    z 0.177090 0.000000 4.037670 
# 
# 
# High freq. dielectric constant tensor:
#      x y z
#    x 1.823660 0.000000 0.004110 
#    y 0.000000 1.837120 0.000000 
#    z 0.004110 0.000000 1.847470 
# 
# From -- ./inp_files/80029.got.cif
#   From: 2010.06.25/outbox.cif.g09.slc.cpg/sg13_41_cif.got.tgz:80029.got - 2010.06.28 04:50:58.
