data_PCOD8119110
_publ_section_title
;
Structure prediction by ZEFSAII (Michael W. Deem and Ramdas Pophale) SiO2 
 PCOD8119110
Probable space group: P 2/C
;
_chemical_formula_sum "Si O2"
_cell_formula_units_Z 26
_cell_length_a 10.598899
_cell_length_b 9.793207
_cell_length_c 17.736425
_cell_angle_alpha 90.000000
_cell_angle_beta 132.471402
_cell_angle_gamma 90.000000
_cell_volume 1357.941909
_symmetry_space_group_name_H-M "P 2/C"
_symmetry_group_IT_number 13
_symmetry_cell_setting 'monoclinic'
loop_
_space_group_symop_operation_xyz
x,y,z
-x,y,1/2-z
-x,-y,-z
x,-y,1/2+z
loop_
_atom_site_type_symbol
_atom_site_label
_atom_site_fract_x
_atom_site_fract_y
_atom_site_fract_z
Si Si1 0.000000 0.760772 0.250000
Si Si2 0.332025 0.593574 0.004587
Si Si3 0.366401 0.312765 0.091734
Si Si4 0.080735 0.120227 0.938892
Si Si5 0.285564 0.449602 0.840465
Si Si6 0.264117 0.336872 0.218067
Si Si7 0.064433 0.191908 0.461554
O O1 0.992934 0.850529 0.323087
O O2 0.165707 0.667956 0.322103
O O3 0.291909 0.581876 0.899282
O O4 0.218234 0.704475 0.003158
O O5 0.298992 0.438442 0.015973
O O6 0.532045 0.625039 0.098634
O O7 0.316842 0.360867 0.154431
O O8 0.569849 0.280912 0.168879
O O9 0.271979 0.178583 0.023725
O O10 0.109644 0.959422 0.954655
O O11 0.966813 0.186828 0.960492
O O12 0.214712 0.515721 0.733995
O O13 0.103231 0.234794 0.154070
#
# Coordination Sequence:
#
# PCOD8119110 Si02
#       7
#     2   4   4   4   4   4   4
#     4  12  22  38  58  84 120 152 184 248 290 350
#     4  10  20  37  60  83 120 148 193 244 297 341
#     4   9  18  37  57  85 113 152 187 242 285 344
#     4  10  23  39  59  84 123 152 199 233 297 342
#     4  10  21  35  57  93 114 149 193 253 292 345
#     4   9  19  33  62  82 113 148 198 230 291 338
#     4  10  22  41  59  86 114 161 197 241 279 365
#
# _framework density 19.146621
#
# number of rings (size 3 to 8) (size 9 to 14) (size 15 to 20)
#    0.000    2.154    1.538    0.923    2.154    2.462 
#    2.769    0.769    0.000    0.000    0.000    0.000 
#    0.000    0.000    0.000    0.000    0.000    0.000 
#
# Total GULP energy -322192.070609 kJ/mol
# GULP energy per Si atom -12392.002716 kJ/mol
# Density = 1.910304 g / cm^3
# Si number density = 19.146621 Si / 1000 Ang^3
#
#
#
# Elastic Constant Matrix: (Units=GPa)
#
#
# Indices 1 2 3 4 5 6 
#
# 1 94.9956 60.5862 54.4322 0.0000 12.9743 0.0000
# 2 60.5862 108.4504 58.9497 0.0000 15.5424 0.0000
# 3 54.4322 58.9497 97.6860 0.0000 -6.1135 0.0000
# 4 0.0000 0.0000 0.0000 20.5291 0.0000 -2.0398
# 5 12.9743 15.5424 -6.1135 0.0000 31.7553 0.0000
# 6 0.0000 0.0000 0.0000 -2.0398 0.0000 28.2034
#
#
#
# Elastic Compliance Matrix: (Units=1/GPa)
#
#
# Indices 1 2 3 4 5 6 
#
# 1 0.019613 -0.005682 -0.007923 0.000000 -0.006758 0.000000
# 2 -0.005682 0.018016 -0.008211 0.000000 -0.008077 0.000000
# 3 -0.007923 -0.008211 0.020306 0.000000 0.011165 0.000000
# 4 0.000000 0.000000 0.000000 0.049064 0.000000 0.003548
# 5 -0.006758 -0.008077 0.011165 0.000000 0.040355 0.000000
# 6 0.000000 0.000000 0.000000 0.003548 0.000000 0.035713
#
#
# Mechanical properties :
#
#
# Convention : Reuss Voigt Hill
#
# Bulk Modulus (GPa) = 69.91795 72.11871 71.01833
# Shear Modulus (GPa) = 21.60129 24.57515 23.08822
#
# Velocity S-wave (km/s) = 3.36252 3.58652 3.47632
# Velocity P-wave (km/s) = 7.18831 7.40939 7.29969
#
# Compressibility (1/GPa) = 0.01430248
#
# Stress axis : x y z
#
# Youngs Moduli (GPa) = 50.98532 55.50605 49.24716
#
# Poissons Ratio (x) = 0.31538 0.39019
# Poissons Ratio (y) = 0.28970 0.40439
# Poissons Ratio (z) = 0.40396 0.45578
#
# Static dielectric constant tensor:
#      x y z
#    x 3.717630 0.000000 -0.023290 
#    y 0.000000 3.234230 0.000000 
#    z -0.023290 0.000000 3.650300 
# 
# 
# High freq. dielectric constant tensor:
#      x y z
#    x 1.755370 0.000000 -0.006680 
#    y 0.000000 1.719190 0.000000 
#    z -0.006680 0.000000 1.752040 
# 
# From -- ./inp_files/78326.got.cif
#   From: 2010.06.25/outbox.cif.g09.slc.cpg/sg13_40_cif.got.tgz:78326.got - 2010.06.28 04:50:58.
