data_PCOD8119354
_publ_section_title
;
Structure prediction by ZEFSAII (Michael W. Deem and Ramdas Pophale) SiO2 
 PCOD8119354
Probable space group: P 2/C
;
_chemical_formula_sum "Si O2"
_cell_formula_units_Z 28
_cell_length_a 19.458901
_cell_length_b 10.130766
_cell_length_c 14.286650
_cell_angle_alpha 90.000000
_cell_angle_beta 28.765597
_cell_angle_gamma 90.000000
_cell_volume 1355.318470
_symmetry_space_group_name_H-M "P 2/C"
_symmetry_group_IT_number 13
_symmetry_cell_setting 'monoclinic'
loop_
_space_group_symop_operation_xyz
x,y,z
-x,y,1/2-z
-x,-y,-z
x,-y,1/2+z
loop_
_atom_site_type_symbol
_atom_site_label
_atom_site_fract_x
_atom_site_fract_y
_atom_site_fract_z
Si Si1 0.106417 0.310827 0.749810
Si Si2 0.627969 0.027126 0.451365
Si Si3 0.196070 0.621643 0.947344
Si Si4 0.860522 0.920854 0.032453
Si Si5 0.762223 0.647781 0.209838
Si Si6 0.470978 0.216532 0.074730
Si Si7 0.168242 0.010115 0.640820
O O1 0.161573 0.401779 0.598205
O O2 0.159649 0.371827 0.783725
O O3 0.167137 0.164787 0.664401
O O4 0.934241 0.306723 0.951132
O O5 0.555114 0.160186 0.499313
O O6 0.690507 0.052743 0.480017
O O7 0.764318 0.987214 0.225903
O O8 0.512909 0.908317 0.589947
O O9 0.226842 0.483143 0.863204
O O10 0.330524 0.717755 0.782739
O O11 0.835871 0.763862 0.062317
O O12 0.817342 0.985186 0.985858
O O13 0.027152 0.944074 0.853193
O O14 0.595375 0.675585 0.425071
#
# Coordination Sequence:
#
# PCOD8119354 Si02
#       7
#     4   4   4   4   4   4   4
#     4  11  23  42  66  95 117 166 213 254 319 364
#     4  10  20  38  62  92 129 159 207 259 317 370
#     4  11  24  42  66  88 127 163 218 256 293 385
#     4  10  21  36  63  95 130 157 204 266 310 368
#     4  11  24  44  60  92 130 166 208 257 309 371
#     4  10  21  40  64  92 126 167 204 256 313 369
#     4  11  20  37  65  97 125 161 206 259 324 370
#
# _framework density 20.659351000000001
#
# number of rings (size 3 to 8) (size 9 to 14) (size 15 to 20)
#    0.000    1.429    2.857    4.714    2.000    2.857 
#    5.143    5.714    0.000    0.000    0.000    0.000 
#    0.000    0.000    0.000    0.000    0.000    0.000 
#
# Total GULP energy -347257.508882 kJ/mol
# GULP energy per Si atom -12402.053889 kJ/mol
# Density = 2.061233 g / cm^3
# Si number density = 20.659351 Si / 1000 Ang^3
#
#
#
# Elastic Constant Matrix: (Units=GPa)
#
#
# Indices 1 2 3 4 5 6 
#
# 1 110.3202 17.9833 33.5884 0.0000 -23.3562 0.0000
# 2 17.9833 52.8764 30.6493 0.0000 -0.6655 0.0000
# 3 33.5884 30.6493 78.7823 0.0000 -11.8415 0.0000
# 4 0.0000 0.0000 0.0000 28.7069 0.0000 2.0316
# 5 -23.3562 -0.6655 -11.8415 0.0000 27.3270 0.0000
# 6 0.0000 0.0000 0.0000 2.0316 0.0000 26.7826
#
#
#
# Elastic Compliance Matrix: (Units=1/GPa)
#
#
# Indices 1 2 3 4 5 6 
#
# 1 0.012286 -0.002357 -0.002943 0.000000 0.009168 0.000000
# 2 -0.002357 0.025239 -0.009653 0.000000 -0.005583 0.000000
# 3 -0.002943 -0.009653 0.018494 0.000000 0.005264 0.000000
# 4 0.000000 0.000000 0.000000 0.035023 0.000000 -0.002657
# 5 0.009168 -0.005583 0.005264 0.000000 0.046574 0.000000
# 6 0.000000 0.000000 0.000000 -0.002657 0.000000 0.037539
#
#
# Mechanical properties :
#
#
# Convention : Reuss Voigt Hill
#
# Bulk Modulus (GPa) = 38.29553 45.15790 41.72672
# Shear Modulus (GPa) = 23.39007 27.21383 25.30195
#
# Velocity S-wave (km/s) = 3.36844 3.63335 3.50340
# Velocity P-wave (km/s) = 5.80563 6.28549 6.05032
#
# Compressibility (1/GPa) = 0.02611271
#
# Stress axis : x y z
#
# Youngs Moduli (GPa) = 81.39521 39.62168 54.07014
#
# Poissons Ratio (x) = 0.09339 0.15912
# Poissons Ratio (y) = 0.19186 0.52194
# Poissons Ratio (z) = 0.23954 0.38247
#
# Static dielectric constant tensor:
#      x y z
#    x 4.089160 0.000000 -0.109620 
#    y 0.000000 3.623950 0.000000 
#    z -0.109620 0.000000 3.853390 
# 
# 
# High freq. dielectric constant tensor:
#      x y z
#    x 1.820140 0.000000 -0.015310 
#    y 0.000000 1.789550 0.000000 
#    z -0.015310 0.000000 1.811730 
# 
# From -- ./inp_files/57467.got.cif
#   From: 2010.06.25/outbox.cif.g09.slc.cpg/sg13_29_cif.got.tgz:57467.got - 2010.06.28 04:50:58.
