data_PCOD8119929
_publ_section_title
;
Structure prediction by ZEFSAII (Michael W. Deem and Ramdas Pophale) SiO2 
 PCOD8119929
Probable space group: P 2/C
;
_chemical_formula_sum "Si O2"
_cell_formula_units_Z 28
_cell_length_a 9.381693
_cell_length_b 13.819244
_cell_length_c 21.382663
_cell_angle_alpha 90.000000
_cell_angle_beta 149.085897
_cell_angle_gamma 90.000000
_cell_volume 1424.233492
_symmetry_space_group_name_H-M "P 2/C"
_symmetry_group_IT_number 13
_symmetry_cell_setting 'monoclinic'
loop_
_space_group_symop_operation_xyz
x,y,z
-x,y,1/2-z
-x,-y,-z
x,-y,1/2+z
loop_
_atom_site_type_symbol
_atom_site_label
_atom_site_fract_x
_atom_site_fract_y
_atom_site_fract_z
Si Si1 0.681966 0.399951 0.502330
Si Si2 0.829269 0.093719 0.122740
Si Si3 0.326593 0.233554 0.092474
Si Si4 0.205285 0.879023 0.426237
Si Si5 0.083884 0.237150 0.129838
Si Si6 0.130228 0.304690 0.737321
Si Si7 0.636239 0.376698 0.990278
O O1 0.608471 0.337158 0.414399
O O2 0.488254 0.363576 0.486961
O O3 0.636739 0.511504 0.470610
O O4 0.007495 0.373693 0.636871
O O5 0.000000 0.120730 0.250000
O O6 0.893431 0.152913 0.084737
O O7 0.906741 0.985304 0.130688
O O8 0.510808 0.122869 0.012142
O O9 0.089534 0.240685 0.056447
O O10 0.616157 0.208603 0.232413
O O11 0.230791 0.149067 0.008922
O O12 0.982387 0.805299 0.311775
O O13 0.951260 0.337527 0.105969
O O14 0.461380 0.315984 0.871567
O O15 0.000000 0.352396 0.750000
#
# Coordination Sequence:
#
# PCOD8119929 Si02
#       7
#     4   4   4   4   4   4   4
#     4   9  20  36  59  86 117 152 194 247 288 343
#     4  11  21  36  63  93 111 151 200 243 294 353
#     4  10  22  41  57  81 125 160 191 240 292 346
#     4  10  21  38  62  86 117 150 191 252 296 339
#     4  11  23  37  59  86 119 161 195 237 290 353
#     4   9  17  34  55  83 119 143 180 245 296 337
#     4  10  21  35  60  91 112 154 200 241 296 346
#
# _framework density 19.659697999999999
#
# number of rings (size 3 to 8) (size 9 to 14) (size 15 to 20)
#    0.000    2.000    1.429    3.000    2.000    2.286 
#    0.000    2.857    0.000    0.000    0.000    0.000 
#    0.000    0.000    0.000    0.000    0.000    0.000 
#
# Total GULP energy -346879.645986 kJ/mol
# GULP energy per Si atom -12388.558785 kJ/mol
# Density = 1.961495 g / cm^3
# Si number density = 19.659698 Si / 1000 Ang^3
#
#
#
# Elastic Constant Matrix: (Units=GPa)
#
#
# Indices 1 2 3 4 5 6 
#
# 1 119.7472 50.1805 18.8643 0.0000 -8.8319 0.0000
# 2 50.1805 113.3203 19.1939 0.0000 -5.9156 0.0000
# 3 18.8643 19.1939 40.2822 0.0000 -6.4080 0.0000
# 4 0.0000 0.0000 0.0000 25.9339 0.0000 -6.2222
# 5 -8.8319 -5.9156 -6.4080 0.0000 21.7284 0.0000
# 6 0.0000 0.0000 0.0000 -6.2222 0.0000 14.7504
#
#
#
# Elastic Compliance Matrix: (Units=1/GPa)
#
#
# Indices 1 2 3 4 5 6 
#
# 1 0.010689 -0.004160 -0.002636 0.000000 0.002435 0.000000
# 2 -0.004160 0.011255 -0.003354 0.000000 0.000384 0.000000
# 3 -0.002636 -0.003354 0.028688 0.000000 0.006476 0.000000
# 4 0.000000 0.000000 0.000000 0.042902 0.000000 0.018097
# 5 0.002435 0.000384 0.006476 0.000000 0.049027 0.000000
# 6 0.000000 0.000000 0.000000 0.018097 0.000000 0.075429
#
#
# Mechanical properties :
#
#
# Convention : Reuss Voigt Hill
#
# Bulk Modulus (GPa) = 32.96849 49.98079 41.47464
# Shear Modulus (GPa) = 20.12900 24.82328 22.47614
#
# Velocity S-wave (km/s) = 3.20327 3.55723 3.38488
# Velocity P-wave (km/s) = 5.52153 6.50769 6.03478
#
# Compressibility (1/GPa) = 0.03033199
#
# Stress axis : x y z
#
# Youngs Moduli (GPa) = 93.55474 88.85261 34.85836
#
# Poissons Ratio (x) = 0.36960 0.09190
# Poissons Ratio (y) = 0.38915 0.11690
# Poissons Ratio (z) = 0.24664 0.29797
#
# Static dielectric constant tensor:
#      x y z
#    x 3.635510 0.000000 -0.077990 
#    y 0.000000 3.576910 0.000000 
#    z -0.077990 0.000000 3.752730 
# 
# 
# High freq. dielectric constant tensor:
#      x y z
#    x 1.745120 0.000000 -0.005920 
#    y 0.000000 1.764790 0.000000 
#    z -0.005920 0.000000 1.770510 
# 
# From -- ./inp_files/76739.got.cif
#   From: 2010.06.25/outbox.cif.g09.slc.cpg/sg13_39_cif.got.tgz:76739.got - 2010.06.28 04:50:58.
