data_PCOD8119977
_publ_section_title
;
Structure prediction by ZEFSAII (Michael W. Deem and Ramdas Pophale) SiO2 
 PCOD8119977
Probable space group: P 2/C
;
_chemical_formula_sum "Si O2"
_cell_formula_units_Z 32
_cell_length_a 16.675683
_cell_length_b 11.398251
_cell_length_c 29.876317
_cell_angle_alpha 90.000000
_cell_angle_beta 16.985621
_cell_angle_gamma 90.000000
_cell_volume 1658.928210
_symmetry_space_group_name_H-M "P 2/C"
_symmetry_group_IT_number 13
_symmetry_cell_setting 'monoclinic'
loop_
_space_group_symop_operation_xyz
x,y,z
-x,y,1/2-z
-x,-y,-z
x,-y,1/2+z
loop_
_atom_site_type_symbol
_atom_site_label
_atom_site_fract_x
_atom_site_fract_y
_atom_site_fract_z
Si Si1 0.925899 0.358175 0.591116
Si Si2 0.008814 0.027901 0.323004
Si Si3 0.518906 0.875770 0.585205
Si Si4 0.997903 0.627243 0.545913
Si Si5 0.348703 0.607473 0.440238
Si Si6 0.722885 0.829840 0.380456
Si Si7 0.593513 0.338655 0.107050
Si Si8 0.777283 0.739474 0.903557
O O1 0.045415 0.488157 0.520145
O O2 0.656090 0.351510 0.765232
O O3 0.879755 0.312152 0.564700
O O4 0.161983 0.288350 0.492128
O O5 0.210504 0.071764 0.255521
O O6 0.884978 0.133993 0.360691
O O7 0.176525 0.942324 0.200866
O O8 0.751199 0.959495 0.482937
O O9 0.548453 0.872260 0.515876
O O10 0.545120 0.746410 0.591142
O O11 0.678267 0.658098 0.718006
O O12 0.158621 0.670026 0.504202
O O13 0.329143 0.466796 0.452982
O O14 0.246038 0.651981 0.542582
O O15 0.527497 0.747213 0.455135
O O16 0.000000 0.762176 0.250000
O O17 0.000000 0.685884 0.750000
#
# Coordination Sequence:
#
# PCOD8119977 Si02
#       8
#     4   4   4   4   4   4   4   4
#     4   9  18  33  60  82 114 147 188 239 281 332
#     4  11  21  36  58  81 108 145 201 256 285 312
#     4  11  21  34  56  82 112 147 187 244 290 330
#     4   9  17  35  57  86 111 148 189 234 286 328
#     4  10  22  36  56  86 124 153 186 229 280 359
#     4  10  22  34  54  79 105 145 195 251 285 312
#     4  10  21  36  55  87 124 147 183 229 293 355
#     4  12  22  37  57  82 117 157 193 235 284 335
#
# _framework density 19.289562
#
# number of rings (size 3 to 8) (size 9 to 14) (size 15 to 20)
#    0.000    1.750    2.500    3.000    3.500    3.000 
#    0.000    2.500    0.000    0.000    0.000   15.750 
#    0.000    0.000    0.000    0.000    0.000    0.000 
#
# Total GULP energy -396645.282816 kJ/mol
# GULP energy per Si atom -12395.165088 kJ/mol
# Density = 1.924566 g / cm^3
# Si number density = 19.289562 Si / 1000 Ang^3
#
#
#
# Elastic Constant Matrix: (Units=GPa)
#
#
# Indices 1 2 3 4 5 6 
#
# 1 123.6073 47.0567 66.7528 0.0000 -17.4773 0.0000
# 2 47.0567 49.7989 33.7593 0.0000 -0.1331 0.0000
# 3 66.7528 33.7593 99.3889 0.0000 -13.2924 0.0000
# 4 0.0000 0.0000 0.0000 15.6538 0.0000 -5.9281
# 5 -17.4773 -0.1331 -13.2924 0.0000 41.6314 0.0000
# 6 0.0000 0.0000 0.0000 -5.9281 0.0000 15.4328
#
#
#
# Elastic Compliance Matrix: (Units=1/GPa)
#
#
# Indices 1 2 3 4 5 6 
#
# 1 0.016667 -0.011151 -0.006764 0.000000 0.004802 0.000000
# 2 -0.011151 0.033880 -0.004837 0.000000 -0.006117 0.000000
# 3 -0.006764 -0.004837 0.016574 0.000000 0.002436 0.000000
# 4 0.000000 0.000000 0.000000 0.074757 0.000000 0.028716
# 5 0.004802 -0.006117 0.002436 0.000000 0.026795 0.000000
# 6 0.000000 0.000000 0.000000 0.028716 0.000000 0.075827
#
#
# Mechanical properties :
#
#
# Convention : Reuss Voigt Hill
#
# Bulk Modulus (GPa) = 46.26099 63.10364 54.68232
# Shear Modulus (GPa) = 16.82312 22.89202 19.85757
#
# Velocity S-wave (km/s) = 2.95640 3.44867 3.21198
# Velocity P-wave (km/s) = 5.97396 6.97443 6.49349
#
# Compressibility (1/GPa) = 0.02161649
#
# Stress axis : x y z
#
# Youngs Moduli (GPa) = 59.99804 29.51572 60.33719
#
# Poissons Ratio (x) = 0.32913 0.40815
# Poissons Ratio (y) = 0.66903 0.29185
# Poissons Ratio (z) = 0.40585 0.14277
#
# Static dielectric constant tensor:
#      x y z
#    x 3.691360 0.000000 -0.311110 
#    y 0.000000 3.116200 0.000000 
#    z -0.311110 0.000000 3.772230 
# 
# 
# High freq. dielectric constant tensor:
#      x y z
#    x 1.750530 0.000000 -0.023360 
#    y 0.000000 1.697730 0.000000 
#    z -0.023360 0.000000 1.765430 
# 
# From -- ./inp_files/92929.got.cif
#   From: 2010.06.25/outbox.cif.g09.slc.cpg/sg13_47_cif.got.tgz:92929.got - 2010.06.28 04:50:58.
