data_PCOD8119288
_publ_section_title
;
Structure prediction by ZEFSAII (Michael W. Deem and Ramdas Pophale) SiO2 
 PCOD8119288
Probable space group: P 2/C
;
_chemical_formula_sum "Si O2"
_cell_formula_units_Z 30
_cell_length_a 11.958184
_cell_length_b 6.520234
_cell_length_c 20.508421
_cell_angle_alpha 90.000000
_cell_angle_beta 115.434814
_cell_angle_gamma 90.000000
_cell_volume 1444.056600
_symmetry_space_group_name_H-M "P 2/C"
_symmetry_group_IT_number 13
_symmetry_cell_setting 'monoclinic'
loop_
_space_group_symop_operation_xyz
x,y,z
-x,y,1/2-z
-x,-y,-z
x,-y,1/2+z
loop_
_atom_site_type_symbol
_atom_site_label
_atom_site_fract_x
_atom_site_fract_y
_atom_site_fract_z
Si Si1 0.102475 0.081314 0.475150
Si Si2 0.250079 0.465653 0.697921
Si Si3 0.370032 0.128128 0.234707
Si Si4 0.616103 0.802018 0.159712
Si Si5 0.660575 0.199311 0.886031
Si Si6 0.000000 0.918711 0.750000
Si Si7 0.835065 0.201758 0.630297
Si Si8 0.012484 0.585532 0.859581
O O1 0.236915 0.118043 0.539115
O O2 0.056761 0.301232 0.436517
O O3 0.125847 0.907455 0.426717
O O4 0.000000 0.000000 0.500000
O O5 0.261185 0.709534 0.707147
O O6 0.322111 0.360739 0.775416
O O7 0.299512 0.409704 0.638606
O O8 0.102281 0.427926 0.660526
O O9 0.500000 0.239544 0.250000
O O10 0.373703 0.028038 0.307110
O O11 0.348302 0.955851 0.175844
O O12 0.470342 0.758437 0.110859
O O13 0.687147 0.792637 0.107809
O O14 0.970159 0.769981 0.802258
O O15 0.112803 0.071551 0.795276
O O16 0.879477 0.439068 0.641427
#
# Coordination Sequence:
#
# PCOD8119288 Si02
#       8
#     4   4   4   4   4   2   4   4
#     4  11  25  43  59  83 116 155 203 245 286 347
#     4  11  19  34  60  89 117 146 189 244 292 340
#     4   9  18  34  59  88 115 149 188 235 296 344
#     4  10  21  37  58  87 119 149 190 241 293 352
#     4  10  22  38  57  85 119 155 196 236 282 346
#     4  10  20  38  60  90 120 144 186 244 298 352
#     4  11  23  39  59  85 118 153 191 241 297 349
#     4  11  23  37  62  90 115 152 194 238 294 347
#
# _framework density 20.774806999999999
#
# number of rings (size 3 to 8) (size 9 to 14) (size 15 to 20)
#    0.000    1.600    0.000    6.400    0.000    9.067 
#    0.000    0.667    0.000    0.000    0.000    0.000 
#    0.000    0.000    0.000    0.000    0.000    0.000 
#
# Total GULP energy -371858.058088 kJ/mol
# GULP energy per Si atom -12395.268603 kJ/mol
# Density = 2.072752 g / cm^3
# Si number density = 20.774807 Si / 1000 Ang^3
#
#
#
# Elastic Constant Matrix: (Units=GPa)
#
#
# Indices 1 2 3 4 5 6 
#
# 1 174.9430 42.5742 50.7032 0.0000 -0.2336 0.0000
# 2 42.5742 88.1365 16.2673 0.0000 -7.5341 0.0000
# 3 50.7032 16.2673 73.4498 0.0000 3.8073 0.0000
# 4 0.0000 0.0000 0.0000 18.8231 0.0000 3.2266
# 5 -0.2336 -7.5341 3.8073 0.0000 34.8510 0.0000
# 6 0.0000 0.0000 0.0000 3.2266 0.0000 28.3833
#
#
#
# Elastic Compliance Matrix: (Units=1/GPa)
#
#
# Indices 1 2 3 4 5 6 
#
# 1 0.007793 -0.002895 -0.004736 0.000000 -0.000056 0.000000
# 2 -0.002895 0.013196 -0.001077 0.000000 0.002951 0.000000
# 3 -0.004736 -0.001077 0.017234 0.000000 -0.002147 0.000000
# 4 0.000000 0.000000 0.000000 0.054182 0.000000 -0.006159
# 5 -0.000056 0.002951 -0.002147 0.000000 0.029566 0.000000
# 6 0.000000 0.000000 0.000000 -0.006159 0.000000 0.035932
#
#
# Mechanical properties :
#
#
# Convention : Reuss Voigt Hill
#
# Bulk Modulus (GPa) = 48.06074 61.73542 54.89808
# Shear Modulus (GPa) = 27.43438 31.54378 29.48908
#
# Velocity S-wave (km/s) = 3.63789 3.90085 3.77166
# Velocity P-wave (km/s) = 6.38984 7.07600 6.74166
#
# Compressibility (1/GPa) = 0.02080700
#
# Stress axis : x y z
#
# Youngs Moduli (GPa) = 128.31777 75.78298 58.02640
#
# Poissons Ratio (x) = 0.21941 0.27479
# Poissons Ratio (y) = 0.37151 0.06248
# Poissons Ratio (z) = 0.60766 0.08161
#
# Static dielectric constant tensor:
#      x y z
#    x 3.944630 0.000000 0.107630 
#    y 0.000000 3.734000 0.000000 
#    z 0.107630 0.000000 3.664190 
# 
# 
# High freq. dielectric constant tensor:
#      x y z
#    x 1.827350 0.000000 0.002740 
#    y 0.000000 1.817510 0.000000 
#    z 0.002740 0.000000 1.787920 
# 
# From -- ./inp_files/77559.got.cif
#   From: 2010.06.25/outbox.cif.g09.slc.cpg/sg13_39_cif.got.tgz:77559.got - 2010.06.28 04:50:58.
