data_PCOD8119231
_publ_section_title
;
Structure prediction by ZEFSAII (Michael W. Deem and Ramdas Pophale) SiO2 
 PCOD8119231
Probable space group: P 2/C
;
_chemical_formula_sum "Si O2"
_cell_formula_units_Z 18
_cell_length_a 10.646019
_cell_length_b 8.383483
_cell_length_c 9.814363
_cell_angle_alpha 90.000000
_cell_angle_beta 103.286950
_cell_angle_gamma 90.000000
_cell_volume 852.491162
_symmetry_space_group_name_H-M "P 2/C"
_symmetry_group_IT_number 13
_symmetry_cell_setting 'monoclinic'
loop_
_space_group_symop_operation_xyz
x,y,z
-x,y,1/2-z
-x,-y,-z
x,-y,1/2+z
loop_
_atom_site_type_symbol
_atom_site_label
_atom_site_fract_x
_atom_site_fract_y
_atom_site_fract_z
Si Si1 0.000000 0.101388 0.250000
Si Si2 0.853003 0.462554 0.497486
Si Si3 0.199104 0.113010 0.924173
Si Si4 0.773095 0.672810 0.719480
Si Si5 0.646596 0.965542 0.769163
O O1 0.894029 0.213928 0.295972
O O2 0.931070 0.992805 0.118316
O O3 0.840110 0.296820 0.573957
O O4 0.791220 0.601288 0.574601
O O5 0.769903 0.461662 0.336563
O O6 0.000000 0.500000 0.500000
O O7 0.280262 0.095795 0.804434
O O8 0.285768 0.046317 0.067764
O O9 0.649624 0.790228 0.694684
O O10 0.500000 0.020265 0.750000
#
# Coordination Sequence:
#
# PCOD8119231 Si02
#       5
#     2   4   4   4   4
#     4  10  20  38  56  94 124 150 202 254 302 364
#     4  11  21  37  56  89 127 158 192 243 312 372
#     4  10  24  37  65  92 121 160 208 248 311 358
#     4  10  22  38  58  89 124 161 199 245 309 363
#     4  10  22  45  63  85 122 164 212 259 288 352
#
# _framework density 21.114588000000001
#
# number of rings (size 3 to 8) (size 9 to 14) (size 15 to 20)
#    0.000    1.778    2.222    0.667    3.111   11.556 
#    0.000    5.556    0.000    0.000    0.000    0.000 
#    0.000    0.000    0.000    0.000    0.000    0.000 
#
# Total GULP energy -223149.295707 kJ/mol
# GULP energy per Si atom -12397.183095 kJ/mol
# Density = 2.106653 g / cm^3
# Si number density = 21.114588 Si / 1000 Ang^3
#
#
#
# Elastic Constant Matrix: (Units=GPa)
#
#
# Indices 1 2 3 4 5 6 
#
# 1 89.5325 32.4137 33.1979 0.0000 -5.2813 0.0000
# 2 32.4137 74.1258 29.2053 0.0000 -4.8391 0.0000
# 3 33.1979 29.2053 72.7083 0.0000 -2.1719 0.0000
# 4 0.0000 0.0000 0.0000 41.0265 0.0000 -9.6190
# 5 -5.2813 -4.8391 -2.1719 0.0000 31.1795 0.0000
# 6 0.0000 0.0000 0.0000 -9.6190 0.0000 25.7626
#
#
#
# Elastic Compliance Matrix: (Units=1/GPa)
#
#
# Indices 1 2 3 4 5 6 
#
# 1 0.014655 -0.004388 -0.004885 0.000000 0.001461 0.000000
# 2 -0.004388 0.017472 -0.004966 0.000000 0.001622 0.000000
# 3 -0.004885 -0.004966 0.017968 0.000000 -0.000347 0.000000
# 4 0.000000 0.000000 0.000000 0.026713 0.000000 0.009974
# 5 0.001461 0.001622 -0.000347 0.000000 0.032547 0.000000
# 6 0.000000 0.000000 0.000000 0.009974 0.000000 0.042540
#
#
# Mechanical properties :
#
#
# Convention : Reuss Voigt Hill
#
# Bulk Modulus (GPa) = 46.26013 47.33337 46.79675
# Shear Modulus (GPa) = 26.65517 29.03037 27.84277
#
# Velocity S-wave (km/s) = 3.55689 3.71198 3.63526
# Velocity P-wave (km/s) = 6.23099 6.39045 6.31122
#
# Compressibility (1/GPa) = 0.02161689
#
# Stress axis : x y z
#
# Youngs Moduli (GPa) = 68.23403 57.23438 55.65308
#
# Poissons Ratio (x) = 0.25117 0.27187
# Poissons Ratio (y) = 0.29944 0.27637
# Poissons Ratio (z) = 0.33333 0.28422
#
# Static dielectric constant tensor:
#      x y z
#    x 3.762930 0.000000 -0.238540 
#    y 0.000000 3.888920 0.000000 
#    z -0.238540 0.000000 3.873580 
# 
# 
# High freq. dielectric constant tensor:
#      x y z
#    x 1.805730 0.000000 -0.020460 
#    y 0.000000 1.824370 0.000000 
#    z -0.020460 0.000000 1.836600 
# 
# From -- ./inp_files/14562.got.cif
#   From: 2010.06.25/outbox.cif.g09.slc.cpg/sg13_8_cif.got.tgz:14562.got - 2010.06.28 04:50:58.
