data_PCOD8119785
_publ_section_title
;
Structure prediction by ZEFSAII (Michael W. Deem and Ramdas Pophale) SiO2 
 PCOD8119785
Probable space group: P 2/C
;
_chemical_formula_sum "Si O2"
_cell_formula_units_Z 28
_cell_length_a 29.959179
_cell_length_b 8.732419
_cell_length_c 30.398332
_cell_angle_alpha 90.000000
_cell_angle_beta 9.408381
_cell_angle_gamma 90.000000
_cell_volume 1300.028921
_symmetry_space_group_name_H-M "P 2/C"
_symmetry_group_IT_number 13
_symmetry_cell_setting 'monoclinic'
loop_
_space_group_symop_operation_xyz
x,y,z
-x,y,1/2-z
-x,-y,-z
x,-y,1/2+z
loop_
_atom_site_type_symbol
_atom_site_label
_atom_site_fract_x
_atom_site_fract_y
_atom_site_fract_z
Si Si1 0.727572 0.572437 0.248571
Si Si2 0.765389 0.100126 0.747106
Si Si3 0.009159 0.845500 0.104732
Si Si4 0.500000 0.939061 0.250000
Si Si5 0.185403 0.499538 0.935053
Si Si6 0.448169 0.996003 0.896834
Si Si7 0.284991 0.651662 0.557005
Si Si8 0.000000 0.268282 0.250000
O O1 0.500000 0.500000 0.500000
O O2 0.724324 0.753739 0.256513
O O3 0.695157 0.532564 0.229330
O O4 0.000000 0.500000 0.000000
O O5 0.839912 0.147401 0.724113
O O6 0.000000 0.000000 0.500000
O O7 0.500000 0.000000 0.000000
O O8 0.120441 0.676463 0.005461
O O9 0.796661 0.888136 0.349296
O O10 0.269254 0.959541 0.852438
O O11 0.524573 0.039725 0.181805
O O12 0.234115 0.835773 0.501061
O O13 0.443291 0.450081 0.713944
O O14 0.912349 0.401769 0.211157
O O15 0.370133 0.172241 0.982029
O O16 0.119870 0.627105 0.672290
#
# Coordination Sequence:
#
# PCOD8119785 Si02
#       8
#     4   4   4   2   4   4   4   2
#     4  12  26  48  69  94 135 189 224 267 339 415
#     4  12  28  46  68 100 137 176 229 286 336 388
#     4  12  26  45  66 101 142 178 217 285 343 395
#     4  10  20  42  68 102 134 176 218 274 340 404
#     4  12  26  44  69 100 139 179 227 273 344 405
#     4  11  24  43  73 100 134 176 229 278 333 401
#     4  11  24  43  72 103 130 179 225 279 326 410
#     4  10  20  42  70 102 140 166 224 280 338 386
#
# _framework density 21.537983000000001
#
# number of rings (size 3 to 8) (size 9 to 14) (size 15 to 20)
#    0.000    0.571    1.429    7.714    8.000    0.000 
#    0.000    2.857    0.000    1.714    0.000    0.000 
#    0.000    0.000    0.000    0.000    0.000    0.000 
#
# Total GULP energy -347276.747869 kJ/mol
# GULP energy per Si atom -12402.740995 kJ/mol
# Density = 2.148896 g / cm^3
# Si number density = 21.537983 Si / 1000 Ang^3
#
#
#
# Elastic Constant Matrix: (Units=GPa)
#
#
# Indices 1 2 3 4 5 6 
#
# 1 98.2967 48.4168 43.6805 0.0000 0.6111 0.0000
# 2 48.4168 127.3722 66.6722 0.0000 2.5783 0.0000
# 3 43.6805 66.6722 179.2334 0.0000 1.3416 0.0000
# 4 0.0000 0.0000 0.0000 49.4931 0.0000 2.5346
# 5 0.6111 2.5783 1.3416 0.0000 48.9450 0.0000
# 6 0.0000 0.0000 0.0000 2.5346 0.0000 34.1665
#
#
#
# Elastic Compliance Matrix: (Units=1/GPa)
#
#
# Indices 1 2 3 4 5 6 
#
# 1 0.012893 -0.004046 -0.001638 0.000000 0.000097 0.000000
# 2 -0.004046 0.011027 -0.003113 0.000000 -0.000445 0.000000
# 3 -0.001638 -0.003113 0.007136 0.000000 -0.000011 0.000000
# 4 0.000000 0.000000 0.000000 0.020282 0.000000 -0.001505
# 5 0.000097 -0.000445 -0.000011 0.000000 0.020454 0.000000
# 6 0.000000 0.000000 0.000000 -0.001505 0.000000 0.029380
#
#
# Mechanical properties :
#
#
# Convention : Reuss Voigt Hill
#
# Bulk Modulus (GPa) = 74.27013 80.27127 77.27070
# Shear Modulus (GPa) = 40.56698 42.92977 41.74838
#
# Velocity S-wave (km/s) = 4.34465 4.46938 4.40746
# Velocity P-wave (km/s) = 7.72827 7.99903 7.86481
#
# Compressibility (1/GPa) = 0.01346436
#
# Stress axis : x y z
#
# Youngs Moduli (GPa) = 77.56002 90.68559 140.12540
#
# Poissons Ratio (x) = 0.36687 0.22953
# Poissons Ratio (y) = 0.31377 0.43616
# Poissons Ratio (z) = 0.12705 0.28227
#
# Static dielectric constant tensor:
#      x y z
#    x 3.838400 0.000000 0.091180 
#    y 0.000000 3.908370 0.000000 
#    z 0.091180 0.000000 4.154660 
# 
# 
# High freq. dielectric constant tensor:
#      x y z
#    x 1.851900 0.000000 -0.002240 
#    y 0.000000 1.837920 0.000000 
#    z -0.002240 0.000000 1.878680 
# 
# From -- ./inp_files/97993.got.cif
#   From: 2010.06.25/outbox.cif.g09.slc.cpg/sg13_49_cif.got.tgz:97993.got - 2010.06.28 04:50:58.
