data_PCOD8119830
_publ_section_title
;
Structure prediction by ZEFSAII (Michael W. Deem and Ramdas Pophale) SiO2 
 PCOD8119830
Probable space group: P 2/C
;
_chemical_formula_sum "Si O2"
_cell_formula_units_Z 26
_cell_length_a 10.792327
_cell_length_b 8.438548
_cell_length_c 20.233241
_cell_angle_alpha 90.000000
_cell_angle_beta 38.695394
_cell_angle_gamma 90.000000
_cell_volume 1152.002158
_symmetry_space_group_name_H-M "P 2/C"
_symmetry_group_IT_number 13
_symmetry_cell_setting 'monoclinic'
loop_
_space_group_symop_operation_xyz
x,y,z
-x,y,1/2-z
-x,-y,-z
x,-y,1/2+z
loop_
_atom_site_type_symbol
_atom_site_label
_atom_site_fract_x
_atom_site_fract_y
_atom_site_fract_z
Si Si1 0.844498 0.517869 0.218719
Si Si2 0.576478 0.518786 0.643491
Si Si3 0.000000 0.759490 0.250000
Si Si4 0.271728 0.996395 0.081119
Si Si5 0.000000 0.741025 0.750000
Si Si6 0.248536 0.149723 0.449684
Si Si7 0.500000 0.069862 0.750000
Si Si8 0.844369 0.704489 0.096416
O O1 0.607148 0.532873 0.326253
O O2 0.897848 0.549309 0.119256
O O3 0.969802 0.657480 0.198028
O O4 0.913472 0.355704 0.223707
O O5 0.500000 0.553006 0.750000
O O6 0.656550 0.678996 0.577050
O O7 0.741280 0.376182 0.574523
O O8 0.194946 0.863733 0.162684
O O9 0.174425 0.161452 0.142817
O O10 0.210634 0.947345 0.032400
O O11 0.500000 0.000000 0.000000
O O12 0.402197 0.042797 0.345262
O O13 0.036786 0.186055 0.500730
O O14 0.322229 0.184448 0.797945
#
# Coordination Sequence:
#
# PCOD8119830 Si02
#       8
#     4   4   2   4   2   4   2   4
#     4  10  20  44  71  92 136 178 223 283 341 396
#     4  10  21  43  69  96 139 181 229 282 341 406
#     4  10  22  44  66  94 134 174 228 282 338 404
#     4  11  25  43  67 102 136 177 229 280 355 409
#     4  10  24  46  70 104 134 182 226 290 342 412
#     4  12  25  44  68 104 137 182 229 286 343 423
#     4  12  26  44  66  98 144 176 228 288 350 396
#     4  11  23  45  68 101 132 189 231 280 346 415
#
# _framework density 22.569403999999999
#
# number of rings (size 3 to 8) (size 9 to 14) (size 15 to 20)
#    0.000    1.231    4.615    1.846    2.154    1.231 
#   11.077    2.308    0.000    0.000    0.000    0.000 
#    0.000    0.000    0.000    0.000    0.000    0.000 
#
# Total GULP energy -322096.631503 kJ/mol
# GULP energy per Si atom -12388.331981 kJ/mol
# Density = 2.251803 g / cm^3
# Si number density = 22.569404 Si / 1000 Ang^3
#
#
#
# Elastic Constant Matrix: (Units=GPa)
#
#
# Indices 1 2 3 4 5 6 
#
# 1 76.4200 44.8768 22.6582 0.0000 -30.1700 0.0000
# 2 44.8768 145.2027 54.4261 0.0000 -16.3369 0.0000
# 3 22.6582 54.4261 105.2074 0.0000 -26.1765 0.0000
# 4 0.0000 0.0000 0.0000 25.9808 0.0000 3.8484
# 5 -30.1700 -16.3369 -26.1765 0.0000 42.2311 0.0000
# 6 0.0000 0.0000 0.0000 3.8484 0.0000 -74.6867
#
#
#
# Elastic Compliance Matrix: (Units=1/GPa)
#
#
# Indices 1 2 3 4 5 6 
#
# 1 0.021580 -0.005770 0.001913 0.000000 0.014370 0.000000
# 2 -0.005770 0.010102 -0.004773 0.000000 -0.003172 0.000000
# 3 0.001913 -0.004773 0.013529 0.000000 0.007906 0.000000
# 4 0.000000 0.000000 0.000000 0.038198 0.000000 0.001968
# 5 0.014370 -0.003172 0.007906 0.000000 0.037619 0.000000
# 6 0.000000 0.000000 0.000000 0.001968 0.000000 -0.013288
#
#
# Mechanical properties :
#
#
# Convention : Reuss Voigt Hill
#
# Bulk Modulus (GPa) = 35.77590 63.41695 49.59642
# Shear Modulus (GPa) = 37.22523 12.36297 24.79410
#
# Velocity S-wave (km/s) = 4.06565 2.34300 3.31807
# Velocity P-wave (km/s) = 6.15835 5.95644 6.05823
#
# Compressibility (1/GPa) = 0.02795177
#
# Stress axis : x y z
#
# Youngs Moduli (GPa) = 46.33935 98.98872 73.91390
#
# Poissons Ratio (x) = 0.57113 -0.14137
# Poissons Ratio (y) = 0.26736 0.35277
# Poissons Ratio (z) = -0.08863 0.47245
#
# Static dielectric constant tensor:
#      x y z
#    x 4.444260 0.000000 -0.529410 
#    y 0.000000 4.357880 0.000000 
#    z -0.529410 0.000000 4.141480 
# 
# 
# High freq. dielectric constant tensor:
#      x y z
#    x 1.875990 0.000000 -0.027030 
#    y 0.000000 1.905140 0.000000 
#    z -0.027030 0.000000 1.890340 
# 
# From -- ./inp_files/86332.got.cif
#   From: 2010.06.25/outbox.cif.g09.slc.cpg/sg13_44_cif.got.tgz:86332.got - 2010.06.28 04:50:58.
