data_PCOD8119136
_publ_section_title
;
Structure prediction by ZEFSAII (Michael W. Deem and Ramdas Pophale) SiO2 
 PCOD8119136
Probable space group: P 2/C
;
_chemical_formula_sum "Si O2"
_cell_formula_units_Z 32
_cell_length_a 11.814022
_cell_length_b 7.666892
_cell_length_c 26.103199
_cell_angle_alpha 90.000000
_cell_angle_beta 137.819550
_cell_angle_gamma 90.000000
_cell_volume 1587.581511
_symmetry_space_group_name_H-M "P 2/C"
_symmetry_group_IT_number 13
_symmetry_cell_setting 'monoclinic'
loop_
_space_group_symop_operation_xyz
x,y,z
-x,y,1/2-z
-x,-y,-z
x,-y,1/2+z
loop_
_atom_site_type_symbol
_atom_site_label
_atom_site_fract_x
_atom_site_fract_y
_atom_site_fract_z
Si Si1 0.468146 0.283581 0.847412
Si Si2 0.324371 0.896813 0.161561
Si Si3 0.643440 0.224441 0.068939
Si Si4 0.333916 0.719715 0.660430
Si Si5 0.402979 0.620154 0.567918
Si Si6 0.323609 0.153064 0.893898
Si Si7 0.153860 0.559997 0.397051
Si Si8 0.204169 0.588660 0.179947
O O1 0.625214 0.173170 0.877810
O O2 0.544371 0.419426 0.913031
O O3 0.344243 0.158786 0.838809
O O4 0.370691 0.393863 0.770869
O O5 0.500000 0.899348 0.250000
O O6 0.188455 0.768923 0.142598
O O7 0.244406 0.090349 0.133968
O O8 0.553554 0.272577 0.092203
O O9 0.777019 0.371741 0.097407
O O10 0.737784 0.039643 0.109640
O O11 0.504277 0.201931 0.978542
O O12 0.500000 0.720298 0.750000
O O13 0.370203 0.692805 0.613105
O O14 0.214941 0.569137 0.642854
O O15 0.235713 0.629072 0.477186
O O16 0.186239 0.296091 0.864165
O O17 0.954189 0.550238 0.337320
#
# Coordination Sequence:
#
# PCOD8119136 Si02
#       8
#     4   4   4   4   4   4   4   4
#     4  11  18  38  63  82 108 149 192 240 277 331
#     4   9  20  36  57  82 109 144 192 235 278 332
#     4  10  20  37  61  88 109 151 192 235 279 334
#     4  11  20  37  61  84 109 147 196 239 275 336
#     4  11  19  37  63  84 107 147 198 234 277 333
#     4  10  20  37  62  84 114 146 194 236 278 335
#     4  11  23  38  55  85 122 151 182 234 288 346
#     4  11  23  37  56  82 120 152 181 231 295 336
#
# _framework density 20.156445999999999
#
# number of rings (size 3 to 8) (size 9 to 14) (size 15 to 20)
#    0.000    1.500    5.000    1.875    0.000    2.000 
#    0.000    0.625    2.750    0.000    0.000    0.000 
#    0.000    0.000    0.000    0.000    0.000    0.000 
#
# Total GULP energy -396706.575397 kJ/mol
# GULP energy per Si atom -12397.080481 kJ/mol
# Density = 2.011057 g / cm^3
# Si number density = 20.156446 Si / 1000 Ang^3
#
#
#
# Elastic Constant Matrix: (Units=GPa)
#
#
# Indices 1 2 3 4 5 6 
#
# 1 95.9647 51.1743 8.4905 0.0000 -14.7157 0.0000
# 2 51.1743 164.5529 4.0231 0.0000 -7.3579 0.0000
# 3 8.4905 4.0231 23.3194 0.0000 -18.1042 0.0000
# 4 0.0000 0.0000 0.0000 6.7110 0.0000 -5.9250
# 5 -14.7157 -7.3579 -18.1042 0.0000 31.7951 0.0000
# 6 0.0000 0.0000 0.0000 -5.9250 0.0000 20.3651
#
#
#
# Elastic Compliance Matrix: (Units=1/GPa)
#
#
# Indices 1 2 3 4 5 6 
#
# 1 0.013309 -0.003904 -0.000164 0.000000 0.005163 0.000000
# 2 -0.003904 0.007286 0.000127 0.000000 -0.000049 0.000000
# 3 -0.000164 0.000127 0.076862 0.000000 0.043719 0.000000
# 4 0.000000 0.000000 0.000000 0.200511 0.000000 0.058336
# 5 0.005163 -0.000049 0.043719 0.000000 0.058723 0.000000
# 6 0.000000 0.000000 0.000000 0.058336 0.000000 0.066076
#
#
# Mechanical properties :
#
#
# Convention : Reuss Voigt Hill
#
# Bulk Modulus (GPa) = 11.16396 45.69030 28.42713
# Shear Modulus (GPa) = 10.85761 26.45087 18.65424
#
# Velocity S-wave (km/s) = 2.32344 3.62647 3.04546
# Velocity P-wave (km/s) = 3.57050 6.34445 5.14784
#
# Compressibility (1/GPa) = 0.08957399
#
# Stress axis : x y z
#
# Youngs Moduli (GPa) = 75.13989 137.25157 13.01034
#
# Poissons Ratio (x) = 0.53582 0.00213
# Poissons Ratio (y) = 0.29334 -0.00165
# Poissons Ratio (z) = 0.01231 -0.01738
#
# Static dielectric constant tensor:
#      x y z
#    x 3.580220 0.000000 -0.336110 
#    y 0.000000 4.082200 0.000000 
#    z -0.336110 0.000000 3.356920 
# 
# 
# High freq. dielectric constant tensor:
#      x y z
#    x 1.777470 0.000000 -0.035730 
#    y 0.000000 1.804070 0.000000 
#    z -0.035730 0.000000 1.755390 
# 
# From -- ./inp_files/86219.got.cif
#   From: 2010.06.25/outbox.cif.g09.slc.cpg/sg13_44_cif.got.tgz:86219.got - 2010.06.28 04:50:58.
