data_PCOD8119306
_publ_section_title
;
Structure prediction by ZEFSAII (Michael W. Deem and Ramdas Pophale) SiO2 
 PCOD8119306
Probable space group: P 2/C
;
_chemical_formula_sum "Si O2"
_cell_formula_units_Z 20
_cell_length_a 10.011157
_cell_length_b 8.274910
_cell_length_c 30.713415
_cell_angle_alpha 90.000000
_cell_angle_beta 21.343595
_cell_angle_gamma 90.000000
_cell_volume 926.039150
_symmetry_space_group_name_H-M "P 2/C"
_symmetry_group_IT_number 13
_symmetry_cell_setting 'monoclinic'
loop_
_space_group_symop_operation_xyz
x,y,z
-x,y,1/2-z
-x,-y,-z
x,-y,1/2+z
loop_
_atom_site_type_symbol
_atom_site_label
_atom_site_fract_x
_atom_site_fract_y
_atom_site_fract_z
Si Si1 0.495153 0.189109 0.493615
Si Si2 0.588658 0.351787 0.890097
Si Si3 0.794962 0.684397 0.503608
Si Si4 0.188016 0.132468 0.237275
Si Si5 0.685968 0.132485 0.600261
O O1 0.383742 0.295425 0.568507
O O2 0.215708 0.226969 0.539474
O O3 0.905997 0.235477 0.352370
O O4 0.500000 0.000000 0.500000
O O5 0.297062 0.497171 0.974759
O O6 0.408178 0.208463 0.917722
O O7 0.000000 0.401332 0.750000
O O8 0.517105 0.749567 0.624607
O O9 0.202334 0.726444 0.399236
O O10 0.000000 0.067884 0.250000
O O11 0.324274 0.972980 0.222947
O O12 0.000000 0.000000 0.500000
#
# Coordination Sequence:
#
# PCOD8119306 Si02
#       5
#     4   4   4   4   4
#     4  11  21  37  61  87 115 156 202 242 287 355
#     4  12  23  39  62  88 120 160 199 243 297 355
#     4  10  22  39  60  89 121 152 194 250 301 348
#     4   9  18  37  61  87 118 155 199 243 291 354
#     4  10  20  38  61  85 117 155 195 244 296 346
#
# _framework density 21.597358
#
# number of rings (size 3 to 8) (size 9 to 14) (size 15 to 20)
#    0.000    1.600    0.000    8.400    0.000    0.000 
#    0.000   14.000    0.000   12.000    0.000    0.000 
#    0.000    0.000    0.000    0.000    0.000    0.000 
#
# Total GULP energy -247856.019445 kJ/mol
# GULP energy per Si atom -12392.800972 kJ/mol
# Density = 2.154820 g / cm^3
# Si number density = 21.597358 Si / 1000 Ang^3
#
#
#
# Elastic Constant Matrix: (Units=GPa)
#
#
# Indices 1 2 3 4 5 6 
#
# 1 95.7102 16.6881 39.9192 0.0003 6.0505 -0.0005
# 2 16.6881 78.6502 9.6699 0.0003 3.1771 -0.0022
# 3 39.9192 9.6699 60.5406 -0.0087 11.6673 -0.0103
# 4 0.0003 0.0003 -0.0087 29.7114 -0.0021 -7.0979
# 5 6.0505 3.1771 11.6673 -0.0021 34.8089 -0.0022
# 6 -0.0005 -0.0022 -0.0103 -7.0979 -0.0022 44.6839
#
#
#
# Elastic Compliance Matrix: (Units=1/GPa)
#
#
# Indices 1 2 3 4 5 6 
#
# 1 0.014726 -0.001983 -0.009552 -0.000003 0.000823 -0.000003
# 2 -0.001983 0.013245 -0.000686 0.000000 -0.000634 0.000000
# 3 -0.009552 -0.000686 0.024154 0.000008 -0.006373 0.000006
# 4 -0.000003 0.000000 0.000008 0.034985 0.000000 0.005557
# 5 0.000823 -0.000634 -0.006373 0.000000 0.030779 0.000000
# 6 -0.000003 0.000000 0.000006 0.005557 0.000000 0.023262
#
#
# Mechanical properties :
#
#
# Convention : Reuss Voigt Hill
#
# Bulk Modulus (GPa) = 36.12253 40.82838 38.47546
# Shear Modulus (GPa) = 28.60079 33.08242 30.84160
#
# Velocity S-wave (km/s) = 3.64300 3.91804 3.78302
# Velocity P-wave (km/s) = 5.87001 6.27801 6.07744
#
# Compressibility (1/GPa) = 0.02768355
#
# Stress axis : x y z
#
# Youngs Moduli (GPa) = 67.90754 75.49855 41.40142
#
# Poissons Ratio (x) = 0.14975 0.39546
# Poissons Ratio (y) = 0.13469 0.02838
# Poissons Ratio (z) = 0.64864 0.05176
#
# Static dielectric constant tensor:
#      x y z
#    x 4.312470 -0.000010 -0.232230 
#    y -0.000010 4.024580 -0.000020 
#    z -0.232230 -0.000020 4.275050 
# 
# 
# High freq. dielectric constant tensor:
#      x y z
#    x 1.850700 0.000000 -0.012220 
#    y 0.000000 1.851710 0.000000 
#    z -0.012220 0.000000 1.832240 
# 
# From -- ./inp_files/58567.got.cif
#   From: 2010.06.25/outbox.cif.g09.slc.cpg/sg13_30_cif.got.tgz:58567.got - 2010.06.28 04:50:58.
