data_PCOD8119091
_publ_section_title
;
Structure prediction by ZEFSAII (Michael W. Deem and Ramdas Pophale) SiO2 
 PCOD8119091
Probable space group: P 2/C
;
_chemical_formula_sum "Si O2"
_cell_formula_units_Z 32
_cell_length_a 14.445525
_cell_length_b 8.939809
_cell_length_c 15.411148
_cell_angle_alpha 90.000000
_cell_angle_beta 123.760583
_cell_angle_gamma 90.000000
_cell_volume 1654.585952
_symmetry_space_group_name_H-M "P 2/C"
_symmetry_group_IT_number 13
_symmetry_cell_setting 'monoclinic'
loop_
_space_group_symop_operation_xyz
x,y,z
-x,y,1/2-z
-x,-y,-z
x,-y,1/2+z
loop_
_atom_site_type_symbol
_atom_site_label
_atom_site_fract_x
_atom_site_fract_y
_atom_site_fract_z
Si Si1 0.495853 0.063598 0.093529
Si Si2 0.276448 0.076817 0.545545
Si Si3 0.875557 0.429498 0.192208
Si Si4 0.504707 0.385427 0.351923
Si Si5 0.739647 0.071703 0.287283
Si Si6 0.740075 0.423647 0.285705
Si Si7 0.722077 0.568669 0.456428
Si Si8 0.874751 0.073651 0.191527
O O1 0.472207 0.241508 0.076137
O O2 0.612713 0.031083 0.200157
O O3 0.400491 0.984973 0.099375
O O4 0.500000 0.000000 0.000000
O O5 0.282705 0.254268 0.549890
O O6 0.197829 0.016365 0.427432
O O7 0.224120 0.016376 0.607634
O O8 0.822666 0.485539 0.255033
O O9 0.875716 0.251613 0.191427
O O10 0.000000 0.494531 0.250000
O O11 0.804995 0.489735 0.074133
O O12 0.500000 0.328788 0.250000
O O13 0.385448 0.458565 0.312946
O O14 0.599098 0.509076 0.414992
O O15 0.754496 0.247786 0.310305
O O16 0.818953 0.014866 0.250981
O O17 0.767753 0.508274 0.388997
O O18 0.000000 0.009571 0.250000
#
# Coordination Sequence:
#
# PCOD8119091 Si02
#       8
#     4   4   4   4   4   4   4   4
#     4  11  20  35  56  84 111 148 183 219 271 339
#     4  11  21  35  57  85 113 140 186 232 272 325
#     4   9  19  36  57  77 106 148 188 223 270 331
#     4   9  19  36  56  78 113 147 179 214 273 338
#     4  10  20  37  59  80 111 150 182 222 277 337
#     4   9  19  37  57  78 108 147 182 215 275 337
#     4  10  21  36  55  85 111 141 183 230 273 320
#     4   9  19  37  57  80 109 146 189 227 275 336
#
# _framework density 19.340185999999999
#
# number of rings (size 3 to 8) (size 9 to 14) (size 15 to 20)
#    0.000    2.250    1.250    2.625    1.750    4.500 
#    2.250    0.000    0.000    5.250    0.000    0.000 
#    0.000    0.000    0.000    0.000    0.000    0.000 
#
# Total GULP energy -396845.544218 kJ/mol
# GULP energy per Si atom -12401.423257 kJ/mol
# Density = 1.929617 g / cm^3
# Si number density = 19.340186 Si / 1000 Ang^3
#
#
#
# Elastic Constant Matrix: (Units=GPa)
#
#
# Indices 1 2 3 4 5 6 
#
# 1 170.4719 35.6762 77.4999 0.0000 -4.4467 0.0000
# 2 35.6762 50.4558 43.1120 0.0000 -2.6050 0.0000
# 3 77.4999 43.1120 114.9742 0.0000 -13.7809 0.0000
# 4 0.0000 0.0000 0.0000 26.4985 0.0000 -0.8296
# 5 -4.4467 -2.6050 -13.7809 0.0000 32.0660 0.0000
# 6 0.0000 0.0000 0.0000 -0.8296 0.0000 15.1772
#
#
#
# Elastic Compliance Matrix: (Units=1/GPa)
#
#
# Indices 1 2 3 4 5 6 
#
# 1 0.008596 -0.001566 -0.005355 0.000000 -0.001237 0.000000
# 2 -0.001566 0.029633 -0.010325 0.000000 -0.002247 0.000000
# 3 -0.005355 -0.010325 0.016858 0.000000 0.005664 0.000000
# 4 0.000000 0.000000 0.000000 0.037803 0.000000 0.002066
# 5 -0.001237 -0.002247 0.005664 0.000000 0.033266 0.000000
# 6 0.000000 0.000000 0.000000 0.002066 0.000000 0.066001
#
#
# Mechanical properties :
#
#
# Convention : Reuss Voigt Hill
#
# Bulk Modulus (GPa) = 48.55836 72.05314 60.30575
# Shear Modulus (GPa) = 21.41190 26.72259 24.06725
#
# Velocity S-wave (km/s) = 3.33095 3.72117 3.53146
# Velocity P-wave (km/s) = 6.32105 7.46990 6.91936
#
# Compressibility (1/GPa) = 0.02059378
#
# Stress axis : x y z
#
# Youngs Moduli (GPa) = 116.33000 33.74600 59.31905
#
# Poissons Ratio (x) = 0.05285 0.31768
# Poissons Ratio (y) = 0.18219 0.61248
# Poissons Ratio (z) = 0.62299 0.34844
#
# Static dielectric constant tensor:
#      x y z
#    x 3.848510 0.000000 -0.021730 
#    y 0.000000 3.198010 0.000000 
#    z -0.021730 0.000000 3.648590 
# 
# 
# High freq. dielectric constant tensor:
#      x y z
#    x 1.762460 0.000000 -0.007720 
#    y 0.000000 1.723040 0.000000 
#    z -0.007720 0.000000 1.755530 
# 
# From -- ./inp_files/53091.got.cif
#   From: 2010.06.25/outbox.cif.g09.slc.cpg/sg13_27_cif.got.tgz:53091.got - 2010.06.28 04:50:58.
