data_PCOD8119457
_publ_section_title
;
Structure prediction by ZEFSAII (Michael W. Deem and Ramdas Pophale) SiO2 
 PCOD8119457
Probable space group: P 2/C
;
_chemical_formula_sum "Si O2"
_cell_formula_units_Z 30
_cell_length_a 14.199616
_cell_length_b 8.855729
_cell_length_c 11.510717
_cell_angle_alpha 90.000000
_cell_angle_beta 102.844056
_cell_angle_gamma 90.000000
_cell_volume 1411.232040
_symmetry_space_group_name_H-M "P 2/C"
_symmetry_group_IT_number 13
_symmetry_cell_setting 'monoclinic'
loop_
_space_group_symop_operation_xyz
x,y,z
-x,y,1/2-z
-x,-y,-z
x,-y,1/2+z
loop_
_atom_site_type_symbol
_atom_site_label
_atom_site_fract_x
_atom_site_fract_y
_atom_site_fract_z
Si Si1 0.278383 0.096434 0.144193
Si Si2 0.104064 0.536287 0.079070
Si Si3 0.000000 0.641956 0.250000
Si Si4 0.736751 0.238432 0.899036
Si Si5 0.160752 0.728242 0.450482
Si Si6 0.540457 0.841478 0.966584
Si Si7 0.333332 0.638418 0.343008
Si Si8 0.657410 0.283255 0.127465
O O1 0.376809 0.134019 0.104555
O O2 0.275256 0.198544 0.259534
O O3 0.266539 0.920776 0.170484
O O4 0.186753 0.126444 0.034269
O O5 0.083922 0.538660 0.213147
O O6 0.153976 0.695905 0.057870
O O7 0.173493 0.407066 0.048548
O O8 0.000000 0.500000 0.000000
O O9 0.053388 0.741967 0.364167
O O10 0.673230 0.348334 0.798800
O O11 0.688020 0.219532 0.010397
O O12 0.235947 0.708471 0.367850
O O13 0.453375 0.757572 0.877746
O O14 0.576127 0.732580 0.081525
O O15 0.500000 0.000000 0.000000
O O16 0.335153 0.462471 0.371933
#
# Coordination Sequence:
#
# PCOD8119457 Si02
#       8
#     4   4   2   4   4   4   4   4
#     4  11  26  42  68  98 140 184 225 281 347 414
#     4  10  21  38  66  98 124 168 220 278 337 411
#     4  10  20  38  72  94 132 164 218 284 342 408
#     4  12  24  43  69  99 135 183 228 280 352 411
#     4  10  21  41  67  97 131 172 224 278 348 401
#     4  11  23  46  66  97 141 186 232 284 344 399
#     4  11  24  40  69  97 137 182 232 284 333 410
#     4  12  25  43  67  99 140 182 235 286 338 408
#
# _framework density 21.258023000000001
#
# number of rings (size 3 to 8) (size 9 to 14) (size 15 to 20)
#    0.000    1.067    4.000    2.400    3.733    0.533 
#    2.400    2.667    0.000    1.600    0.000    0.000 
#    0.000    0.000    0.000    0.000    0.000    0.000 
#
# Total GULP energy -371777.547186 kJ/mol
# GULP energy per Si atom -12392.584906 kJ/mol
# Density = 2.120964 g / cm^3
# Si number density = 21.258023 Si / 1000 Ang^3
#
#
#
# Elastic Constant Matrix: (Units=GPa)
#
#
# Indices 1 2 3 4 5 6 
#
# 1 62.4329 14.3490 33.7010 0.0000 3.2148 0.0000
# 2 14.3490 107.4420 33.6843 0.0000 11.1923 0.0000
# 3 33.7010 33.6843 113.6382 0.0000 7.6402 0.0000
# 4 0.0000 0.0000 0.0000 34.1436 0.0000 3.3020
# 5 3.2148 11.1923 7.6402 0.0000 45.0142 0.0000
# 6 0.0000 0.0000 0.0000 3.3020 0.0000 30.7087
#
#
#
# Elastic Compliance Matrix: (Units=1/GPa)
#
#
# Indices 1 2 3 4 5 6 
#
# 1 0.019144 -0.000834 -0.005414 0.000000 -0.000241 0.000000
# 2 -0.000834 0.010489 -0.002722 0.000000 -0.002087 0.000000
# 3 -0.005414 -0.002722 0.011269 0.000000 -0.000849 0.000000
# 4 0.000000 0.000000 0.000000 0.029596 0.000000 -0.003182
# 5 -0.000241 -0.002087 -0.000849 0.000000 0.022895 0.000000
# 6 0.000000 0.000000 0.000000 -0.003182 0.000000 0.032906
#
#
# Mechanical properties :
#
#
# Convention : Reuss Voigt Hill
#
# Bulk Modulus (GPa) = 43.54831 49.66463 46.60647
# Shear Modulus (GPa) = 32.91785 35.42523 34.17154
#
# Velocity S-wave (km/s) = 3.93936 4.08663 4.01367
# Velocity P-wave (km/s) = 6.42039 6.75877 6.59175
#
# Compressibility (1/GPa) = 0.02296300
#
# Stress axis : x y z
#
# Youngs Moduli (GPa) = 52.23652 95.33483 88.73729
#
# Poissons Ratio (x) = 0.07953 0.48041
# Poissons Ratio (y) = 0.04358 0.24150
# Poissons Ratio (z) = 0.28280 0.25946
#
# Static dielectric constant tensor:
#      x y z
#    x 4.081560 0.000000 -0.212270 
#    y 0.000000 3.922570 0.000000 
#    z -0.212270 0.000000 4.311520 
# 
# 
# High freq. dielectric constant tensor:
#      x y z
#    x 1.831120 0.000000 -0.000250 
#    y 0.000000 1.822760 0.000000 
#    z -0.000250 0.000000 1.847890 
# 
# From -- ./inp_files/36472.got.cif
#   From: 2010.06.25/outbox.cif.g09.slc.cpg/sg13_19_cif.got.tgz:36472.got - 2010.06.28 04:50:58.
