data_PCOD8119728
_publ_section_title
;
Structure prediction by ZEFSAII (Michael W. Deem and Ramdas Pophale) SiO2 
 PCOD8119728
Probable space group: P 2/C
;
_chemical_formula_sum "Si O2"
_cell_formula_units_Z 20
_cell_length_a 9.758945
_cell_length_b 11.808861
_cell_length_c 10.575389
_cell_angle_alpha 90.000000
_cell_angle_beta 124.654003
_cell_angle_gamma 90.000000
_cell_volume 1002.527642
_symmetry_space_group_name_H-M "P 2/C"
_symmetry_group_IT_number 13
_symmetry_cell_setting 'monoclinic'
loop_
_space_group_symop_operation_xyz
x,y,z
-x,y,1/2-z
-x,-y,-z
x,-y,1/2+z
loop_
_atom_site_type_symbol
_atom_site_label
_atom_site_fract_x
_atom_site_fract_y
_atom_site_fract_z
Si Si1 0.306926 0.794649 0.638090
Si Si2 0.320611 0.451430 0.386073
Si Si3 0.831173 0.556407 0.954792
Si Si4 0.609135 0.013309 0.933111
Si Si5 0.196863 0.797551 0.844797
O O1 0.500000 0.751261 0.750000
O O2 0.178802 0.692994 0.539011
O O3 0.245328 0.852339 0.736055
O O4 0.291704 0.894232 0.526893
O O5 0.500000 0.500000 0.500000
O O6 0.200784 0.512916 0.421726
O O7 0.290443 0.479837 0.223057
O O8 0.301452 0.318856 0.406578
O O9 0.000000 0.500000 0.000000
O O10 0.500000 0.033442 0.750000
O O11 0.740454 0.116691 0.013735
O O12 0.500000 0.000000 0.000000
O O13 0.000000 0.773718 0.750000
#
# Coordination Sequence:
#
# PCOD8119728 Si02
#       5
#     4   4   4   4   4
#     4  10  20  41  66  88 131 173 212 258 334 381
#     4  11  23  40  65  91 126 170 218 259 321 389
#     4  11  22  40  63  92 129 167 209 267 328 381
#     4  11  22  42  70  96 125 172 225 264 318 399
#     4  11  23  42  64  95 134 172 212 273 336 380
#
# _framework density 19.949574999999999
#
# number of rings (size 3 to 8) (size 9 to 14) (size 15 to 20)
#    0.000    1.200    4.000    6.000    0.000    2.400 
#    0.000    2.000    0.000    0.000    0.000    0.000 
#    0.000    0.000    0.000    0.000    0.000    0.000 
#
# Total GULP energy -247785.302488 kJ/mol
# GULP energy per Si atom -12389.265124 kJ/mol
# Density = 1.990417 g / cm^3
# Si number density = 19.949575 Si / 1000 Ang^3
#
#
#
# Elastic Constant Matrix: (Units=GPa)
#
#
# Indices 1 2 3 4 5 6 
#
# 1 119.2424 44.2812 27.7706 0.0000 -1.4643 0.0000
# 2 44.2812 145.3446 55.1210 0.0000 8.6929 0.0000
# 3 27.7706 55.1210 78.5732 0.0000 -3.8873 0.0000
# 4 0.0000 0.0000 0.0000 21.5108 0.0000 -5.6074
# 5 -1.4643 8.6929 -3.8873 0.0000 47.3192 0.0000
# 6 0.0000 0.0000 0.0000 -5.6074 0.0000 42.6281
#
#
#
# Elastic Compliance Matrix: (Units=1/GPa)
#
#
# Indices 1 2 3 4 5 6 
#
# 1 0.009662 -0.002308 -0.001767 0.000000 0.000578 0.000000
# 2 -0.002308 0.010175 -0.006445 0.000000 -0.002470 0.000000
# 3 -0.001767 -0.006445 0.018002 0.000000 0.002608 0.000000
# 4 0.000000 0.000000 0.000000 0.048139 0.000000 0.006332
# 5 0.000578 -0.002470 0.002608 0.000000 0.021819 0.000000
# 6 0.000000 0.000000 0.000000 0.006332 0.000000 0.024292
#
#
# Mechanical properties :
#
#
# Convention : Reuss Voigt Hill
#
# Bulk Modulus (GPa) = 59.52653 66.38953 62.95803
# Shear Modulus (GPa) = 31.50046 36.69079 34.09563
#
# Velocity S-wave (km/s) = 3.97798 4.29321 4.13860
# Velocity P-wave (km/s) = 7.14159 7.61095 7.38000
#
# Compressibility (1/GPa) = 0.01679923
#
# Stress axis : x y z
#
# Youngs Moduli (GPa) = 103.49783 98.27829 55.55048
#
# Poissons Ratio (x) = 0.22683 0.09817
# Poissons Ratio (y) = 0.23888 0.35800
# Poissons Ratio (z) = 0.18290 0.63336
#
# Static dielectric constant tensor:
#      x y z
#    x 1.922580 0.000000 1.818970 
#    y 0.000000 3.784820 0.000000 
#    z 1.818970 0.000000 1.652550 
# 
# 
# High freq. dielectric constant tensor:
#      x y z
#    x 1.799000 0.000000 -0.013590 
#    y 0.000000 1.782790 0.000000 
#    z -0.013590 0.000000 1.758830 
# 
# From -- ./inp_files/29633.got.cif
#   From: 2010.06.25/outbox.cif.g09.slc.cpg/sg13_15_cif.got.tgz:29633.got - 2010.06.28 04:50:58.
