data_PCOD8119436
_publ_section_title
;
Structure prediction by ZEFSAII (Michael W. Deem and Ramdas Pophale) SiO2 
 PCOD8119436
Probable space group: P 2/C
;
_chemical_formula_sum "Si O2"
_cell_formula_units_Z 16
_cell_length_a 9.237988
_cell_length_b 9.396809
_cell_length_c 8.695704
_cell_angle_alpha 90.000000
_cell_angle_beta 132.293806
_cell_angle_gamma 90.000000
_cell_volume 558.367869
_symmetry_space_group_name_H-M "P 2/C"
_symmetry_group_IT_number 13
_symmetry_cell_setting 'monoclinic'
loop_
_space_group_symop_operation_xyz
x,y,z
-x,y,1/2-z
-x,-y,-z
x,-y,1/2+z
loop_
_atom_site_type_symbol
_atom_site_label
_atom_site_fract_x
_atom_site_fract_y
_atom_site_fract_z
Si Si1 0.830840 0.349178 0.386042
Si Si2 0.312545 0.397968 0.876082
Si Si3 0.440430 0.151224 0.521355
Si Si4 0.098757 0.868312 0.984990
O O1 0.738961 0.364547 0.486609
O O2 0.856115 0.503670 0.322214
O O3 0.697740 0.236858 0.195804
O O4 0.046000 0.273817 0.547955
O O5 0.500000 0.500000 0.000000
O O6 0.363555 0.250261 0.823431
O O7 0.331519 0.120607 0.609497
O O8 0.500000 0.000000 0.500000
O O9 0.000000 0.852450 0.750000
O O10 0.000000 0.000000 0.000000
#
# Coordination Sequence:
#
# PCOD8119436 Si02
#       4
#     4   4   4   4
#     4  10  22  43  66  95 133 174 216 266 328 393
#     4  10  20  40  65  95 131 173 218 266 322 389
#     4  10  20  38  67  98 127 167 218 270 320 385
#     4  10  22  43  66  96 131 170 219 272 329 391
#
# _framework density 28.654945000000001
#
# number of rings (size 3 to 8) (size 9 to 14) (size 15 to 20)
#    0.000    2.000    0.000    4.500    0.000    2.000 
#    0.000   67.500    0.000   31.500    0.000    0.000 
#    0.000    0.000    0.000    0.000    0.000    0.000 
#
# Total GULP energy -198397.664592 kJ/mol
# GULP energy per Si atom -12399.854037 kJ/mol
# Density = 2.858972 g / cm^3
# Si number density = 28.654945 Si / 1000 Ang^3
#
#
#
# Elastic Constant Matrix: (Units=GPa)
#
#
# Indices 1 2 3 4 5 6 
#
# 1 296.6991 149.8712 82.2210 0.0000 -27.5288 0.0000
# 2 149.8712 317.2879 57.0381 0.0000 -16.2973 0.0000
# 3 82.2210 57.0381 80.9621 0.0000 -7.9017 0.0000
# 4 0.0000 0.0000 0.0000 46.4542 0.0000 -10.9094
# 5 -27.5288 -16.2973 -7.9017 0.0000 69.4217 0.0000
# 6 0.0000 0.0000 0.0000 -10.9094 0.0000 76.0248
#
#
#
# Elastic Compliance Matrix: (Units=1/GPa)
#
#
# Indices 1 2 3 4 5 6 
#
# 1 0.005588 -0.001803 -0.004277 0.000000 0.001306 0.000000
# 2 -0.001803 0.004213 -0.001122 0.000000 0.000146 0.000000
# 3 -0.004277 -0.001122 0.017488 0.000000 0.000031 0.000000
# 4 0.000000 0.000000 0.000000 0.022277 0.000000 0.003197
# 5 0.001306 0.000146 0.000031 0.000000 0.014960 0.000000
# 6 0.000000 0.000000 0.000000 0.003197 0.000000 0.013612
#
#
# Mechanical properties :
#
#
# Convention : Reuss Voigt Hill
#
# Bulk Modulus (GPa) = 77.61443 141.46775 109.54109
# Shear Modulus (GPa) = 51.63275 65.43472 58.53373
#
# Velocity S-wave (km/s) = 4.24946 4.78382 4.52454
# Velocity P-wave (km/s) = 7.15695 8.94371 8.09975
#
# Compressibility (1/GPa) = 0.01288420
#
# Stress axis : x y z
#
# Youngs Moduli (GPa) = 178.96542 237.37039 57.18161
#
# Poissons Ratio (x) = 0.42810 0.24454
# Poissons Ratio (y) = 0.32276 0.06417
# Poissons Ratio (z) = 0.76536 0.26637
#
# Static dielectric constant tensor:
#      x y z
#    x 8.095000 0.000000 3.041890 
#    y 0.000000 5.664060 0.000000 
#    z 3.041890 0.000000 12.273450 
# 
# 
# High freq. dielectric constant tensor:
#      x y z
#    x 2.195920 0.000000 0.029240 
#    y 0.000000 2.195830 0.000000 
#    z 0.029240 0.000000 2.221210 
# 
# From -- ./inp_files/11919.got.cif
#   From: 2010.06.25/outbox.cif.g09.slc.cpg/sg13_6_cif.got.tgz:11919.got - 2010.06.28 04:50:58.
