data_PCOD8119408
_publ_section_title
;
Structure prediction by ZEFSAII (Michael W. Deem and Ramdas Pophale) SiO2 
 PCOD8119408
Probable space group: P 2/C
;
_chemical_formula_sum "Si O2"
_cell_formula_units_Z 24
_cell_length_a 6.086896
_cell_length_b 16.558182
_cell_length_c 11.731426
_cell_angle_alpha 90.000000
_cell_angle_beta 68.752515
_cell_angle_gamma 90.000000
_cell_volume 1102.012019
_symmetry_space_group_name_H-M "P 2/C"
_symmetry_group_IT_number 13
_symmetry_cell_setting 'monoclinic'
loop_
_space_group_symop_operation_xyz
x,y,z
-x,y,1/2-z
-x,-y,-z
x,-y,1/2+z
loop_
_atom_site_type_symbol
_atom_site_label
_atom_site_fract_x
_atom_site_fract_y
_atom_site_fract_z
Si Si1 0.000000 0.558100 0.750000
Si Si2 0.450030 0.205060 0.547095
Si Si3 0.166308 0.098117 0.950251
Si Si4 0.000000 0.153522 0.750000
Si Si5 0.699194 0.509807 0.120656
Si Si6 0.331684 0.072079 0.389537
Si Si7 0.423567 0.620448 0.549099
O O1 0.056247 0.504273 0.854262
O O2 0.224271 0.615032 0.684842
O O3 0.687314 0.181703 0.570945
O O4 0.439059 0.133214 0.459243
O O5 0.481012 0.289614 0.478196
O O6 0.220329 0.210001 0.671067
O O7 0.066293 0.094070 0.840472
O O8 0.332430 0.019896 0.937006
O O9 0.944295 0.096755 0.080057
O O10 0.500000 0.522266 0.250000
O O11 0.643586 0.435334 0.045526
O O12 0.697329 0.591632 0.046571
O O13 0.500000 0.078909 0.250000
#
# Coordination Sequence:
#
# PCOD8119408 Si02
#       7
#     2   4   4   2   4   4   4
#     4  10  20  38  65  85 116 162 198 238 294 359
#     4  11  23  39  61  89 120 156 197 249 304 357
#     4  10  22  40  61  86 119 159 203 251 298 348
#     4  10  22  40  61  87 118 156 202 252 302 355
#     4   9  20  40  61  86 117 155 197 243 292 353
#     4  10  22  38  60  88 119 159 204 246 295 357
#     4  10  22  38  59  89 122 151 193 244 298 356
#
# _framework density 21.778348000000001
#
# number of rings (size 3 to 8) (size 9 to 14) (size 15 to 20)
#    0.000    2.000    0.000    2.500    0.000   10.667 
#    0.000    8.333    0.000    1.000    0.000    0.000 
#    0.000    0.000    0.000    0.000    0.000    0.000 
#
# Total GULP energy -297474.604158 kJ/mol
# GULP energy per Si atom -12394.775173 kJ/mol
# Density = 2.172878 g / cm^3
# Si number density = 21.778348 Si / 1000 Ang^3
#
#
#
# Elastic Constant Matrix: (Units=GPa)
#
#
# Indices 1 2 3 4 5 6 
#
# 1 97.2448 29.4554 43.4205 0.0000 -3.5761 0.0000
# 2 29.4554 102.4750 32.4732 0.0000 6.7439 0.0000
# 3 43.4205 32.4732 107.4326 0.0000 -16.8898 0.0000
# 4 0.0000 0.0000 0.0000 25.4900 0.0000 0.3934
# 5 -3.5761 6.7439 -16.8898 0.0000 45.9389 0.0000
# 6 0.0000 0.0000 0.0000 0.3934 0.0000 14.2791
#
#
#
# Elastic Compliance Matrix: (Units=1/GPa)
#
#
# Indices 1 2 3 4 5 6 
#
# 1 0.013023 -0.002249 -0.004641 0.000000 -0.000362 0.000000
# 2 -0.002249 0.011572 -0.003060 0.000000 -0.002999 0.000000
# 3 -0.004641 -0.003060 0.012866 0.000000 0.004818 0.000000
# 4 0.000000 0.000000 0.000000 0.039248 0.000000 -0.001081
# 5 -0.000362 -0.002999 0.004818 0.000000 0.023952 0.000000
# 6 0.000000 0.000000 0.000000 -0.001081 0.000000 0.070062
#
#
# Mechanical properties :
#
#
# Convention : Reuss Voigt Hill
#
# Bulk Modulus (GPa) = 56.94246 57.53895 57.24071
# Shear Modulus (GPa) = 25.44822 30.59515 28.02169
#
# Velocity S-wave (km/s) = 3.42206 3.75219 3.59092
# Velocity P-wave (km/s) = 6.46661 6.72678 6.59798
#
# Compressibility (1/GPa) = 0.01756159
#
# Stress axis : x y z
#
# Youngs Moduli (GPa) = 76.78522 86.41482 77.72211
#
# Poissons Ratio (x) = 0.19435 0.36069
# Poissons Ratio (y) = 0.17269 0.23786
# Poissons Ratio (z) = 0.35634 0.26446
#
# Static dielectric constant tensor:
#      x y z
#    x 4.301020 0.000000 -0.069920 
#    y 0.000000 3.541560 0.000000 
#    z -0.069920 0.000000 4.061950 
# 
# 
# High freq. dielectric constant tensor:
#      x y z
#    x 1.865220 0.000000 -0.010940 
#    y 0.000000 1.825200 0.000000 
#    z -0.010940 0.000000 1.865180 
# 
# From -- ./inp_files/26501.got.cif
#   From: 2010.06.25/outbox.cif.g09.slc.cpg/sg13_14_cif.got.tgz:26501.got - 2010.06.28 04:50:58.
