data_PCOD8119939
_publ_section_title
;
Structure prediction by ZEFSAII (Michael W. Deem and Ramdas Pophale) SiO2 
 PCOD8119939
Probable space group: P 2/C
;
_chemical_formula_sum "Si O2"
_cell_formula_units_Z 20
_cell_length_a 8.068912
_cell_length_b 11.101714
_cell_length_c 8.837781
_cell_angle_alpha 90.000000
_cell_angle_beta 90.241520
_cell_angle_gamma 90.000000
_cell_volume 791.670370
_symmetry_space_group_name_H-M "P 2/C"
_symmetry_group_IT_number 13
_symmetry_cell_setting 'monoclinic'
loop_
_space_group_symop_operation_xyz
x,y,z
-x,y,1/2-z
-x,-y,-z
x,-y,1/2+z
loop_
_atom_site_type_symbol
_atom_site_label
_atom_site_fract_x
_atom_site_fract_y
_atom_site_fract_z
Si Si1 0.190085 0.159358 0.025304
Si Si2 0.656054 0.421902 0.054773
Si Si3 0.156191 0.582116 0.650736
Si Si4 0.242339 0.982034 0.257897
Si Si5 0.416525 0.847771 0.999695
O O1 0.124748 0.290794 0.066453
O O2 0.388852 0.153930 0.027667
O O3 0.123677 0.062032 0.148279
O O4 0.134247 0.113506 0.858059
O O5 0.682056 0.416994 0.237085
O O6 0.648554 0.287582 0.993842
O O7 0.500000 0.500000 0.000000
O O8 0.817806 0.481981 0.977906
O O9 0.000000 0.547414 0.750000
O O10 0.334046 0.077460 0.365702
O O11 0.375150 0.907147 0.160179
#
# Coordination Sequence:
#
# PCOD8119939 Si02
#       5
#     4   4   4   4   4
#     4  11  20  38  65  96 139 172 227 279 349 399
#     4  12  26  45  75 102 134 176 242 287 335 408
#     4  12  28  48  67  98 143 187 225 284 357 418
#     4  10  21  35  65 105 135 174 222 296 345 395
#     4  11  20  37  66 104 135 167 229 289 345 389
#
# _framework density 25.263038000000002
#
# number of rings (size 3 to 8) (size 9 to 14) (size 15 to 20)
#    0.000    0.800    4.000    6.000    2.800    1.600 
#    0.000    1.000    0.000    0.000    0.000    0.000 
#    0.000    0.000    0.000    0.000    0.000    0.000 
#
# Total GULP energy -247950.696864 kJ/mol
# GULP energy per Si atom -12397.534843 kJ/mol
# Density = 2.520554 g / cm^3
# Si number density = 25.263038 Si / 1000 Ang^3
#
#
#
# Elastic Constant Matrix: (Units=GPa)
#
#
# Indices 1 2 3 4 5 6 
#
# 1 19.3281 8.8730 5.3000 0.0000 -8.8598 0.0000
# 2 8.8730 176.4436 65.1696 0.0000 -13.1797 0.0000
# 3 5.3000 65.1696 143.1274 0.0000 -12.6964 0.0000
# 4 0.0000 0.0000 0.0000 48.6371 0.0000 -11.8482
# 5 -8.8598 -13.1797 -12.6964 0.0000 30.2824 0.0000
# 6 0.0000 0.0000 0.0000 -11.8482 0.0000 23.5193
#
#
#
# Elastic Compliance Matrix: (Units=1/GPa)
#
#
# Indices 1 2 3 4 5 6 
#
# 1 0.060284 -0.001802 0.000086 0.000000 0.016889 0.000000
# 2 -0.001802 0.006956 -0.002990 0.000000 0.001247 0.000000
# 3 0.000086 -0.002990 0.008550 0.000000 0.002309 0.000000
# 4 0.000000 0.000000 0.000000 0.023437 0.000000 0.011806
# 5 0.016889 0.001247 0.002309 0.000000 0.039474 0.000000
# 6 0.000000 0.000000 0.000000 0.011806 0.000000 0.048466
#
#
# Mechanical properties :
#
#
# Convention : Reuss Voigt Hill
#
# Bulk Modulus (GPa) = 15.06518 55.28715 35.17617
# Shear Modulus (GPa) = 22.86214 37.79152 30.32683
#
# Velocity S-wave (km/s) = 3.01153 3.87191 3.46850
# Velocity P-wave (km/s) = 4.25072 6.47465 5.47676
#
# Compressibility (1/GPa) = 0.06637823
#
# Stress axis : x y z
#
# Youngs Moduli (GPa) = 16.58827 143.77077 116.96348
#
# Poissons Ratio (x) = 0.25905 -0.01009
# Poissons Ratio (y) = 0.02989 0.34969
# Poissons Ratio (z) = -0.00143 0.42983
#
# Static dielectric constant tensor:
#      x y z
#    x 4.191750 0.000000 -0.068980 
#    y 0.000000 5.045360 0.000000 
#    z -0.068980 0.000000 5.379410 
# 
# 
# High freq. dielectric constant tensor:
#      x y z
#    x 1.990050 0.000000 -0.008480 
#    y 0.000000 2.017740 0.000000 
#    z -0.008480 0.000000 2.033490 
# 
# From -- ./inp_files/11688.got.cif
#   From: 2010.06.25/outbox.cif.g09.slc.cpg/sg13_6_cif.got.tgz:11688.got - 2010.06.28 04:50:58.
