data_PCOD8119023
_publ_section_title
;
Structure prediction by ZEFSAII (Michael W. Deem and Ramdas Pophale) SiO2 
 PCOD8119023
Probable space group: P 2/C
;
_chemical_formula_sum "Si O2"
_cell_formula_units_Z 28
_cell_length_a 9.489680
_cell_length_b 14.146728
_cell_length_c 14.347952
_cell_angle_alpha 90.000000
_cell_angle_beta 134.143292
_cell_angle_gamma 90.000000
_cell_volume 1382.229252
_symmetry_space_group_name_H-M "P 2/C"
_symmetry_group_IT_number 13
_symmetry_cell_setting 'monoclinic'
loop_
_space_group_symop_operation_xyz
x,y,z
-x,y,1/2-z
-x,-y,-z
x,-y,1/2+z
loop_
_atom_site_type_symbol
_atom_site_label
_atom_site_fract_x
_atom_site_fract_y
_atom_site_fract_z
Si Si1 0.288951 0.039320 0.190944
Si Si2 0.119094 0.115003 0.507669
Si Si3 0.166403 0.547056 0.899964
Si Si4 0.642019 0.614764 0.896925
Si Si5 0.343472 0.281956 0.374520
Si Si6 0.671692 0.076494 0.082014
Si Si7 0.965676 0.692487 0.920670
O O1 0.500000 0.078563 0.250000
O O2 0.239936 0.056406 0.276206
O O3 0.103623 0.092745 0.059127
O O4 0.270918 0.928735 0.153276
O O5 0.176253 0.066839 0.433779
O O6 0.133652 0.229070 0.518205
O O7 0.306984 0.627573 0.922665
O O8 0.000000 0.511125 0.750000
O O9 0.060552 0.591976 0.940415
O O10 0.300526 0.462732 0.999620
O O11 0.500000 0.571185 0.750000
O O12 0.526790 0.698295 0.893652
O O13 0.831560 0.668889 0.946547
O O14 0.396112 0.186561 0.454766
O O15 0.150958 0.265237 0.222103
O O16 0.500000 0.000000 0.000000
#
# Coordination Sequence:
#
# PCOD8119023 Si02
#       7
#     4   4   4   4   4   4   4
#     4  11  24  38  61  92 124 157 212 260 310 368
#     4  11  23  40  62  89 122 168 205 265 311 367
#     4  10  20  38  62  89 119 157 201 249 310 380
#     4  10  22  38  60  91 122 154 203 258 307 369
#     4  10  21  36  63  88 116 159 208 250 297 372
#     4  12  23  40  63  89 128 166 210 261 317 369
#     4  10  20  36  63  87 117 158 208 242 306 375
#
# _framework density 20.257131999999999
#
# number of rings (size 3 to 8) (size 9 to 14) (size 15 to 20)
#    0.000    1.429    4.286    1.286    2.000    0.000 
#    0.000    3.571    0.000    0.000    0.000    0.000 
#    0.000    0.000    0.000    0.000    0.000    0.000 
#
# Total GULP energy -346908.227550 kJ/mol
# GULP energy per Si atom -12389.579555 kJ/mol
# Density = 2.021103 g / cm^3
# Si number density = 20.257132 Si / 1000 Ang^3
#
#
#
# Elastic Constant Matrix: (Units=GPa)
#
#
# Indices 1 2 3 4 5 6 
#
# 1 111.6584 21.7737 18.9197 0.0000 -1.8220 0.0000
# 2 21.7737 96.4943 37.9888 0.0000 -6.1564 0.0000
# 3 18.9197 37.9888 52.9290 0.0000 -4.1495 0.0000
# 4 0.0000 0.0000 0.0000 36.6432 0.0000 -0.7924
# 5 -1.8220 -6.1564 -4.1495 0.0000 26.4877 0.0000
# 6 0.0000 0.0000 0.0000 -0.7924 0.0000 19.4592
#
#
#
# Elastic Compliance Matrix: (Units=1/GPa)
#
#
# Indices 1 2 3 4 5 6 
#
# 1 0.009622 -0.001140 -0.002623 0.000000 -0.000014 0.000000
# 2 -0.001140 0.014661 -0.009977 0.000000 0.001766 0.000000
# 3 -0.002623 -0.009977 0.027129 0.000000 0.001751 0.000000
# 4 0.000000 0.000000 0.000000 0.027314 0.000000 0.001112
# 5 -0.000014 0.001766 0.001751 0.000000 0.038437 0.000000
# 6 0.000000 0.000000 0.000000 0.001112 0.000000 0.051435
#
#
# Mechanical properties :
#
#
# Convention : Reuss Voigt Hill
#
# Bulk Modulus (GPa) = 41.78212 46.49400 44.13806
# Shear Modulus (GPa) = 24.50331 28.67798 26.59065
#
# Velocity S-wave (km/s) = 3.48172 3.76666 3.62699
# Velocity P-wave (km/s) = 6.06909 6.47446 6.27505
#
# Compressibility (1/GPa) = 0.02393368
#
# Stress axis : x y z
#
# Youngs Moduli (GPa) = 103.92544 68.20871 36.86148
#
# Poissons Ratio (x) = 0.07773 0.09668
# Poissons Ratio (y) = 0.11843 0.36776
# Poissons Ratio (z) = 0.27256 0.68050
#
# Static dielectric constant tensor:
#      x y z
#    x 3.894740 0.000000 -0.060970 
#    y 0.000000 3.665900 0.000000 
#    z -0.060970 0.000000 3.854440 
# 
# 
# High freq. dielectric constant tensor:
#      x y z
#    x 1.813260 0.000000 -0.000100 
#    y 0.000000 1.786710 0.000000 
#    z -0.000100 0.000000 1.755450 
# 
# From -- ./inp_files/30256.got.cif
#   From: 2010.06.25/outbox.cif.g09.slc.cpg/sg13_16_cif.got.tgz:30256.got - 2010.06.28 04:50:58.
