data_PCOD8119121
_publ_section_title
;
Structure prediction by ZEFSAII (Michael W. Deem and Ramdas Pophale) SiO2 
 PCOD8119121
Probable space group: P 2/C
;
_chemical_formula_sum "Si O2"
_cell_formula_units_Z 32
_cell_length_a 8.961502
_cell_length_b 11.684330
_cell_length_c 19.434079
_cell_angle_alpha 90.000000
_cell_angle_beta 123.278625
_cell_angle_gamma 90.000000
_cell_volume 1701.222664
_symmetry_space_group_name_H-M "P 2/C"
_symmetry_group_IT_number 13
_symmetry_cell_setting 'monoclinic'
loop_
_space_group_symop_operation_xyz
x,y,z
-x,y,1/2-z
-x,-y,-z
x,-y,1/2+z
loop_
_atom_site_type_symbol
_atom_site_label
_atom_site_fract_x
_atom_site_fract_y
_atom_site_fract_z
Si Si1 0.293688 0.032122 0.523969
Si Si2 0.983804 0.220741 0.084745
Si Si3 0.467031 0.694593 0.594461
Si Si4 0.385646 0.837343 0.448721
Si Si5 0.082656 0.615300 0.490297
Si Si6 0.115781 0.647010 0.348221
Si Si7 0.658128 0.881824 0.836108
Si Si8 0.833744 0.605502 0.658182
O O1 0.136045 0.115740 0.466665
O O2 0.481849 0.100101 0.570485
O O3 0.276355 0.933700 0.462094
O O4 0.272343 0.978763 0.594104
O O5 0.881715 0.306532 0.109584
O O6 0.169766 0.167974 0.162327
O O7 0.027825 0.281192 0.024488
O O8 0.498108 0.765101 0.532275
O O9 0.299876 0.607172 0.543522
O O10 0.436890 0.776653 0.650528
O O11 0.655067 0.633520 0.655333
O O12 0.254397 0.751357 0.375278
O O13 0.010918 0.651293 0.395510
O O14 0.000000 0.500000 0.500000
O O15 0.206188 0.522206 0.378614
O O16 0.000000 0.654435 0.250000
O O17 0.500000 0.935978 0.750000
O O18 0.000000 0.605239 0.750000
#
# Coordination Sequence:
#
# PCOD8119121 Si02
#       8
#     4   4   4   4   4   4   4   4
#     4  10  20  38  60  83 112 151 203 245 285 351
#     4  11  21  37  62  87 115 153 202 244 291 353
#     4   9  19  35  58  82 111 154 196 239 288 348
#     4   9  19  38  60  80 112 152 197 244 285 346
#     4  10  20  37  60  88 118 156 194 238 292 355
#     4  10  22  39  58  86 124 155 192 241 297 351
#     4  10  21  37  54  82 123 151 186 249 306 345
#     4  11  21  35  60  89 119 153 199 246 291 354
#
# _framework density 18.810001
#
# number of rings (size 3 to 8) (size 9 to 14) (size 15 to 20)
#    0.000    2.000    2.500    1.875    0.000    3.000 
#    4.500    0.000    0.000    1.500    0.000    0.000 
#    0.000    0.000    0.000    0.000    0.000    0.000 
#
# Total GULP energy -396532.701768 kJ/mol
# GULP energy per Si atom -12391.646930 kJ/mol
# Density = 1.876719 g / cm^3
# Si number density = 18.810001 Si / 1000 Ang^3
#
#
#
# Elastic Constant Matrix: (Units=GPa)
#
#
# Indices 1 2 3 4 5 6 
#
# 1 80.5104 46.0338 39.2183 0.0000 8.3382 0.0000
# 2 46.0338 117.7169 42.5171 0.0000 21.0464 0.0000
# 3 39.2183 42.5171 91.2854 0.0000 10.8454 0.0000
# 4 0.0000 0.0000 0.0000 11.4659 0.0000 19.5132
# 5 8.3382 21.0464 10.8454 0.0000 21.2146 0.0000
# 6 0.0000 0.0000 0.0000 19.5132 0.0000 15.1000
#
#
#
# Elastic Compliance Matrix: (Units=1/GPa)
#
#
# Indices 1 2 3 4 5 6 
#
# 1 0.017939 -0.005232 -0.005375 0.000000 0.000888 0.000000
# 2 -0.005232 0.013281 -0.002786 0.000000 -0.009695 0.000000
# 3 -0.005375 -0.002786 0.014886 0.000000 -0.002734 0.000000
# 4 0.000000 0.000000 0.000000 -0.072725 0.000000 0.093980
# 5 0.000888 -0.009695 -0.002734 0.000000 0.057804 0.000000
# 6 0.000000 0.000000 0.000000 0.093980 0.000000 -0.055222
#
#
# Mechanical properties :
#
#
# Convention : Reuss Voigt Hill
#
# Bulk Modulus (GPa) = 51.76371 60.56124 56.16247
# Shear Modulus (GPa) = 544.08233 20.33898 282.21066
#
# Velocity S-wave (km/s) = 17.02585 3.29186 12.26205
# Velocity P-wave (km/s) = 20.34908 6.83481 15.17893
#
# Compressibility (1/GPa) = 0.01931855
#
# Stress axis : x y z
#
# Youngs Moduli (GPa) = 55.74436 75.29792 67.17543
#
# Poissons Ratio (x) = 0.39399 0.36110
# Poissons Ratio (y) = 0.29168 0.18714
# Poissons Ratio (z) = 0.29965 0.20977
#
# Static dielectric constant tensor:
#      x y z
#    x 3.601270 0.000000 -0.016830 
#    y 0.000000 3.794540 0.000000 
#    z -0.016830 0.000000 3.335390 
# 
# 
# High freq. dielectric constant tensor:
#      x y z
#    x 1.732160 0.000000 0.001540 
#    y 0.000000 1.739590 0.000000 
#    z 0.001540 0.000000 1.715190 
# 
# From -- ./inp_files/76452.got.cif
#   From: 2010.06.25/outbox.cif.g09.slc.cpg/sg13_39_cif.got.tgz:76452.got - 2010.06.28 04:50:58.
