data_PCOD8119781
_publ_section_title
;
Structure prediction by ZEFSAII (Michael W. Deem and Ramdas Pophale) SiO2 
 PCOD8119781
Probable space group: P 2/C
;
_chemical_formula_sum "Si O2"
_cell_formula_units_Z 26
_cell_length_a 8.478198
_cell_length_b 10.284964
_cell_length_c 15.823205
_cell_angle_alpha 90.000000
_cell_angle_beta 59.938262
_cell_angle_gamma 90.000000
_cell_volume 1194.155548
_symmetry_space_group_name_H-M "P 2/C"
_symmetry_group_IT_number 13
_symmetry_cell_setting 'monoclinic'
loop_
_space_group_symop_operation_xyz
x,y,z
-x,y,1/2-z
-x,-y,-z
x,-y,1/2+z
loop_
_atom_site_type_symbol
_atom_site_label
_atom_site_fract_x
_atom_site_fract_y
_atom_site_fract_z
Si Si1 0.848111 0.245458 0.532949
Si Si2 0.500000 0.921509 0.750000
Si Si3 0.712004 0.565379 0.199920
Si Si4 0.000000 0.877663 0.750000
Si Si5 0.395056 0.971820 0.443939
Si Si6 0.000000 0.309361 0.750000
Si Si7 0.195085 0.271341 0.323137
Si Si8 0.072101 0.100765 0.600505
O O1 0.800625 0.381889 0.589688
O O2 0.676165 0.177718 0.533662
O O3 0.008428 0.276245 0.425395
O O4 0.895511 0.138538 0.593000
O O5 0.667192 0.832861 0.675713
O O6 0.472670 0.010633 0.673564
O O7 0.500000 0.612408 0.250000
O O8 0.838119 0.610135 0.246458
O O9 0.711446 0.410735 0.201985
O O10 0.159766 0.779525 0.736739
O O11 0.048825 0.965108 0.656056
O O12 0.500000 0.000000 0.500000
O O13 0.231817 0.077912 0.490092
O O14 0.111818 0.218656 0.654461
#
# Coordination Sequence:
#
# PCOD8119781 Si02
#       8
#     4   2   4   2   4   2   4   4
#     4  11  24  44  69  93 139 186 228 279 365 424
#     4  12  26  40  68 100 140 182 226 292 358 414
#     4  11  25  45  70 100 135 186 245 294 345 418
#     4  11  21  36  72  96 127 179 224 280 360 421
#     4  12  25  41  66 107 140 174 228 295 357 433
#     4   9  23  42  72 100 135 189 230 296 362 421
#     4  12  23  45  65  94 136 185 229 286 350 421
#     4  10  20  42  66  96 138 175 221 286 361 425
#
# _framework density 21.772708000000002
#
# number of rings (size 3 to 8) (size 9 to 14) (size 15 to 20)
#    0.000    0.923    3.846    3.231    3.231    1.231 
#    0.000    0.000    0.000    5.538    0.000    0.000 
#    0.000    0.000    0.000    0.000    0.000    0.000 
#
# Total GULP energy -322141.099625 kJ/mol
# GULP energy per Si atom -12390.042293 kJ/mol
# Density = 2.172315 g / cm^3
# Si number density = 21.772708 Si / 1000 Ang^3
#
#
#
# Elastic Constant Matrix: (Units=GPa)
#
#
# Indices 1 2 3 4 5 6 
#
# 1 108.8968 27.3043 20.0957 0.0000 8.8392 0.0000
# 2 27.3043 74.8550 20.0899 0.0000 0.2600 0.0000
# 3 20.0957 20.0899 93.7168 0.0000 2.4846 0.0000
# 4 0.0000 0.0000 0.0000 26.6237 0.0000 0.1664
# 5 8.8392 0.2600 2.4846 0.0000 34.0240 0.0000
# 6 0.0000 0.0000 0.0000 0.1664 0.0000 30.1063
#
#
#
# Elastic Compliance Matrix: (Units=1/GPa)
#
#
# Indices 1 2 3 4 5 6 
#
# 1 0.010525 -0.003441 -0.001450 0.000000 -0.002602 0.000000
# 2 -0.003441 0.015300 -0.002568 0.000000 0.000964 0.000000
# 3 -0.001450 -0.002568 0.011544 0.000000 -0.000447 0.000000
# 4 0.000000 0.000000 0.000000 0.037562 0.000000 -0.000208
# 5 -0.002602 0.000964 -0.000447 0.000000 0.030092 0.000000
# 6 0.000000 0.000000 0.000000 -0.000208 0.000000 0.033217
#
#
# Mechanical properties :
#
#
# Convention : Reuss Voigt Hill
#
# Bulk Modulus (GPa) = 44.54122 45.82760 45.18441
# Shear Modulus (GPa) = 31.12557 32.14940 31.63749
#
# Velocity S-wave (km/s) = 3.78506 3.84681 3.81606
# Velocity P-wave (km/s) = 6.29318 6.38941 6.34147
#
# Compressibility (1/GPa) = 0.02245112
#
# Stress axis : x y z
#
# Youngs Moduli (GPa) = 95.01603 65.35966 86.62760
#
# Poissons Ratio (x) = 0.22488 0.12563
# Poissons Ratio (y) = 0.32692 0.22242
# Poissons Ratio (z) = 0.13779 0.16782
#
# Static dielectric constant tensor:
#      x y z
#    x 3.625590 0.000000 0.441090 
#    y 0.000000 3.881420 0.000000 
#    z 0.441090 0.000000 3.710220 
# 
# 
# High freq. dielectric constant tensor:
#      x y z
#    x 1.858670 0.000000 0.009810 
#    y 0.000000 1.849200 0.000000 
#    z 0.009810 0.000000 1.858740 
# 
# From -- ./inp_files/46816.got.cif
#   From: 2010.06.25/outbox.cif.g09.slc.cpg/sg13_24_cif.got.tgz:46816.got - 2010.06.28 04:50:58.
