data_PCOD8119178
_publ_section_title
;
Structure prediction by ZEFSAII (Michael W. Deem and Ramdas Pophale) SiO2 
 PCOD8119178
Probable space group: P 2/C
;
_chemical_formula_sum "Si O2"
_cell_formula_units_Z 32
_cell_length_a 23.731158
_cell_length_b 9.235221
_cell_length_c 14.812247
_cell_angle_alpha 90.000000
_cell_angle_beta 151.483377
_cell_angle_gamma 90.000000
_cell_volume 1549.822828
_symmetry_space_group_name_H-M "P 2/C"
_symmetry_group_IT_number 13
_symmetry_cell_setting 'monoclinic'
loop_
_space_group_symop_operation_xyz
x,y,z
-x,y,1/2-z
-x,-y,-z
x,-y,1/2+z
loop_
_atom_site_type_symbol
_atom_site_label
_atom_site_fract_x
_atom_site_fract_y
_atom_site_fract_z
Si Si1 0.158247 0.328065 0.337895
Si Si2 0.831076 0.361812 0.443025
Si Si3 0.223243 0.067688 0.220262
Si Si4 0.379343 0.072808 0.799116
Si Si5 0.240272 0.331705 0.649305
Si Si6 0.368868 0.143610 0.585497
Si Si7 0.074061 0.815628 0.057134
Si Si8 0.090939 0.638845 0.254261
O O1 0.155666 0.316826 0.442677
O O2 0.283948 0.281130 0.475194
O O3 0.144760 0.493276 0.285880
O O4 0.058370 0.220386 0.159388
O O5 0.795976 0.236998 0.323824
O O6 0.738926 0.496328 0.304704
O O7 0.836774 0.308496 0.555390
O O8 0.960145 0.414258 0.595746
O O9 0.322572 0.044832 0.437423
O O10 0.268171 0.004001 0.188990
O O11 0.101918 0.987734 0.081806
O O12 0.364057 0.244337 0.805157
O O13 0.368070 0.049809 0.676114
O O14 0.500000 0.000000 0.000000
O O15 0.172837 0.268537 0.639829
O O16 0.500000 0.200681 0.750000
O O17 0.092966 0.771492 0.187737
#
# Coordination Sequence:
#
# PCOD8119178 Si02
#       8
#     4   4   4   4   4   4   4   4
#     4  10  20  37  63  89 123 168 203 257 307 377
#     4  10  21  40  57  91 129 164 200 252 317 371
#     4  11  25  39  63  95 126 164 205 266 315 378
#     4  10  21  43  65  88 123 166 211 262 315 364
#     4   9  20  37  63  89 123 165 206 248 314 385
#     4  11  23  40  65  88 122 167 215 250 307 371
#     4  11  21  36  61  96 124 161 205 250 320 380
#     4  10  21  36  61  87 131 164 198 251 317 381
#
# _framework density 20.647521999999999
#
# number of rings (size 3 to 8) (size 9 to 14) (size 15 to 20)
#    0.000    1.750    2.500    1.500    3.500    2.000 
#   11.250    0.625    0.000    0.750    0.000    0.000 
#    0.000    0.000    0.000    0.000    0.000    0.000 
#
# Total GULP energy -396684.179227 kJ/mol
# GULP energy per Si atom -12396.380601 kJ/mol
# Density = 2.060053 g / cm^3
# Si number density = 20.647522 Si / 1000 Ang^3
#
#
#
# Elastic Constant Matrix: (Units=GPa)
#
#
# Indices 1 2 3 4 5 6 
#
# 1 95.3630 34.6978 42.8754 0.0000 -6.7577 0.0000
# 2 34.6978 129.7518 55.8520 0.0000 -4.6230 0.0000
# 3 42.8754 55.8520 103.5556 0.0000 0.0910 0.0000
# 4 0.0000 0.0000 0.0000 29.2115 0.0000 -0.1096
# 5 -6.7577 -4.6230 0.0910 0.0000 36.1628 0.0000
# 6 0.0000 0.0000 0.0000 -0.1096 0.0000 28.5559
#
#
#
# Elastic Compliance Matrix: (Units=1/GPa)
#
#
# Indices 1 2 3 4 5 6 
#
# 1 0.013302 -0.001437 -0.004734 0.000000 0.002314 0.000000
# 2 -0.001437 0.010254 -0.004936 0.000000 0.001055 0.000000
# 3 -0.004734 -0.004936 0.014281 0.000000 -0.001552 0.000000
# 4 0.000000 0.000000 0.000000 0.034234 0.000000 0.000131
# 5 0.002314 0.001055 -0.001552 0.000000 0.028224 0.000000
# 6 0.000000 0.000000 0.000000 0.000131 0.000000 0.035020
#
#
# Mechanical properties :
#
#
# Convention : Reuss Voigt Hill
#
# Bulk Modulus (GPa) = 64.01676 66.16899 65.09287
# Shear Modulus (GPa) = 30.72485 31.80239 31.26362
#
# Velocity S-wave (km/s) = 3.86173 3.92886 3.89544
# Velocity P-wave (km/s) = 7.13833 7.25932 7.19908
#
# Compressibility (1/GPa) = 0.01562091
#
# Stress axis : x y z
#
# Youngs Moduli (GPa) = 75.17915 97.52627 70.02503
#
# Poissons Ratio (x) = 0.14011 0.33153
# Poissons Ratio (y) = 0.10801 0.34567
# Poissons Ratio (z) = 0.35593 0.48142
#
# Static dielectric constant tensor:
#      x y z
#    x 4.020650 0.000000 -0.176120 
#    y 0.000000 3.715270 0.000000 
#    z -0.176120 0.000000 3.600260 
# 
# 
# High freq. dielectric constant tensor:
#      x y z
#    x 1.827730 0.000000 -0.018090 
#    y 0.000000 1.797440 0.000000 
#    z -0.018090 0.000000 1.781430 
# 
# From -- ./inp_files/58827.got.cif
#   From: 2010.06.25/outbox.cif.g09.slc.cpg/sg13_30_cif.got.tgz:58827.got - 2010.06.28 04:50:58.
