data_PCOD8119259
_publ_section_title
;
Structure prediction by ZEFSAII (Michael W. Deem and Ramdas Pophale) SiO2 
 PCOD8119259
Probable space group: P 2/C
;
_chemical_formula_sum "Si O2"
_cell_formula_units_Z 22
_cell_length_a 17.993392
_cell_length_b 8.282864
_cell_length_c 12.062182
_cell_angle_alpha 90.000000
_cell_angle_beta 142.197264
_cell_angle_gamma 90.000000
_cell_volume 1101.896499
_symmetry_space_group_name_H-M "P 2/C"
_symmetry_group_IT_number 13
_symmetry_cell_setting 'monoclinic'
loop_
_space_group_symop_operation_xyz
x,y,z
-x,y,1/2-z
-x,-y,-z
x,-y,1/2+z
loop_
_atom_site_type_symbol
_atom_site_label
_atom_site_fract_x
_atom_site_fract_y
_atom_site_fract_z
Si Si1 0.587044 0.850215 0.637227
Si Si2 0.000000 0.574932 0.250000
Si Si3 0.132404 0.313890 0.273746
Si Si4 0.000000 0.929754 0.750000
Si Si5 0.133816 0.177261 0.042520
Si Si6 0.406532 0.381273 0.553260
Si Si7 0.500000 0.306787 0.250000
O O1 0.729092 0.891047 0.790703
O O2 0.563173 0.692341 0.531918
O O3 0.570587 0.807965 0.747435
O O4 0.500000 0.000000 0.500000
O O5 0.945816 0.470806 0.287034
O O6 0.113463 0.681540 0.427547
O O7 0.112556 0.178021 0.343231
O O8 0.087107 0.249327 0.102663
O O9 0.273710 0.344508 0.438535
O O10 0.954612 0.031326 0.591820
O O11 0.500000 0.299344 0.750000
O O12 0.418067 0.577189 0.573857
#
# Coordination Sequence:
#
# PCOD8119259 Si02
#       7
#     4   2   4   2   4   4   2
#     4  11  24  38  61  91 121 160 198 247 302 351
#     4  10  20  38  62  84 112 154 194 240 288 342
#     4  10  20  38  59  87 112 153 196 241 287 343
#     4  10  22  36  60  84 118 156 190 234 298 338
#     4  10  22  38  57  86 119 149 195 240 289 351
#     4   9  22  39  62  85 124 154 200 244 296 352
#     4  10  22  40  60  86 120 160 200 238 302 350
#
# _framework density 19.965579999999999
#
# number of rings (size 3 to 8) (size 9 to 14) (size 15 to 20)
#    0.545    1.455    0.000    2.727    3.818    1.455 
#    0.000    1.818    0.000    0.000    0.000    0.000 
#    0.000    0.000    0.000    0.000    0.000    0.000 
#
# Total GULP energy -272618.982716 kJ/mol
# GULP energy per Si atom -12391.771942 kJ/mol
# Density = 1.992014 g / cm^3
# Si number density = 19.965580 Si / 1000 Ang^3
#
#
#
# Elastic Constant Matrix: (Units=GPa)
#
#
# Indices 1 2 3 4 5 6 
#
# 1 109.3247 37.8218 22.4301 0.0000 -0.9588 0.0000
# 2 37.8218 98.4730 28.1727 0.0000 5.8092 0.0000
# 3 22.4301 28.1727 81.9659 0.0000 7.7003 0.0000
# 4 0.0000 0.0000 0.0000 217.4829 0.0000 160.1535
# 5 -0.9588 5.8092 7.7003 0.0000 30.7979 0.0000
# 6 0.0000 0.0000 0.0000 160.1535 0.0000 175.6524
#
#
#
# Elastic Compliance Matrix: (Units=1/GPa)
#
#
# Indices 1 2 3 4 5 6 
#
# 1 0.010822 -0.003724 -0.001822 0.000000 0.001495 0.000000
# 2 -0.003724 0.012586 -0.003147 0.000000 -0.001703 0.000000
# 3 -0.001822 -0.003147 0.014060 0.000000 -0.002979 0.000000
# 4 0.000000 0.000000 0.000000 0.013994 0.000000 -0.012759
# 5 0.001495 -0.001703 -0.002979 0.000000 0.033582 0.000000
# 6 0.000000 0.000000 0.000000 -0.012759 0.000000 0.017326
#
#
# Mechanical properties :
#
#
# Convention : Reuss Voigt Hill
#
# Bulk Modulus (GPa) = 49.79286 51.84589 50.81937
# Shear Modulus (GPa) = 39.54118 98.20924 68.87521
#
# Velocity S-wave (km/s) = 4.45507 7.02112 5.87978
# Velocity P-wave (km/s) = 7.17336 9.57873 8.46195
#
# Compressibility (1/GPa) = 0.02008320
#
# Stress axis : x y z
#
# Youngs Moduli (GPa) = 92.40270 79.45322 71.12214
#
# Poissons Ratio (x) = 0.29584 0.12959
# Poissons Ratio (y) = 0.34406 0.22382
# Poissons Ratio (z) = 0.16837 0.25004
#
# Static dielectric constant tensor:
#      x y z
#    x 3.558140 0.000000 -0.118830 
#    y 0.000000 3.645770 0.000000 
#    z -0.118830 0.000000 3.599890 
# 
# 
# High freq. dielectric constant tensor:
#      x y z
#    x 1.783030 0.000000 -0.005960 
#    y 0.000000 1.777600 0.000000 
#    z -0.005960 0.000000 1.774280 
# 
# From -- ./inp_files/32257.got.cif
#   From: 2010.06.25/outbox.cif.g09.slc.cpg/sg13_17_cif.got.tgz:32257.got - 2010.06.28 04:50:58.
