data_PCOD8119006
_publ_section_title
;
Structure prediction by ZEFSAII (Michael W. Deem and Ramdas Pophale) SiO2 
 PCOD8119006
Probable space group: P 2/C
;
_chemical_formula_sum "Si O2"
_cell_formula_units_Z 28
_cell_length_a 18.130082
_cell_length_b 8.467413
_cell_length_c 14.673835
_cell_angle_alpha 90.000000
_cell_angle_beta 142.674803
_cell_angle_gamma 90.000000
_cell_volume 1365.869004
_symmetry_space_group_name_H-M "P 2/C"
_symmetry_group_IT_number 13
_symmetry_cell_setting 'monoclinic'
loop_
_space_group_symop_operation_xyz
x,y,z
-x,y,1/2-z
-x,-y,-z
x,-y,1/2+z
loop_
_atom_site_type_symbol
_atom_site_label
_atom_site_fract_x
_atom_site_fract_y
_atom_site_fract_z
Si Si1 0.743578 0.171539 0.128617
Si Si2 0.152730 0.120459 0.575052
Si Si3 0.673555 0.140262 0.249374
Si Si4 0.214584 0.723831 0.459027
Si Si5 0.939255 0.913361 0.324076
Si Si6 0.142612 0.630479 0.909538
Si Si7 0.426916 0.109505 0.086804
O O1 0.716023 0.240927 0.202529
O O2 0.767567 0.312115 0.082145
O O3 0.867860 0.076263 0.250427
O O4 0.633356 0.058958 0.991440
O O5 0.087607 0.174042 0.605489
O O6 0.169686 0.272442 0.528100
O O7 0.285322 0.043696 0.726945
O O8 0.078100 0.974598 0.453959
O O9 0.742517 0.193254 0.407255
O O10 0.527038 0.154030 0.109149
O O11 0.094414 0.800009 0.293826
O O12 0.182835 0.549077 0.459324
O O13 0.325808 0.750225 0.495920
O O14 0.000000 0.646042 0.750000
O O15 0.500000 0.084651 0.250000
#
# Coordination Sequence:
#
# PCOD8119006 Si02
#       7
#     4   4   4   4   4   4   4
#     4  10  20  38  61  90 118 147 201 246 292 338
#     4  10  20  36  62  87 115 145 205 241 296 331
#     4  10  21  37  64  88 113 156 198 247 286 344
#     4  10  23  37  56  84 123 156 193 228 304 351
#     4   9  19  38  60  86 113 155 189 253 283 350
#     4  12  24  37  55  89 123 157 188 241 296 360
#     4   9  18  39  62  86 113 154 201 243 284 343
#
# _framework density 20.499770000000002
#
# number of rings (size 3 to 8) (size 9 to 14) (size 15 to 20)
#    0.000    2.000    1.429    3.000    2.000    1.143 
#    0.000    8.571    0.000    0.000    0.000    0.000 
#    0.000    0.000    0.000    0.000    0.000    0.000 
#
# Total GULP energy -346944.104841 kJ/mol
# GULP energy per Si atom -12390.860887 kJ/mol
# Density = 2.045311 g / cm^3
# Si number density = 20.499770 Si / 1000 Ang^3
#
#
#
# Elastic Constant Matrix: (Units=GPa)
#
#
# Indices 1 2 3 4 5 6 
#
# 1 108.2088 40.1716 19.8804 0.0000 9.9968 0.0000
# 2 40.1716 67.8814 14.4047 0.0000 8.1999 0.0000
# 3 19.8804 14.4047 60.4622 0.0000 6.7366 0.0000
# 4 0.0000 0.0000 0.0000 11.0305 0.0000 6.1901
# 5 9.9968 8.1999 6.7366 0.0000 24.0771 0.0000
# 6 0.0000 0.0000 0.0000 6.1901 0.0000 15.8996
#
#
#
# Elastic Compliance Matrix: (Units=1/GPa)
#
#
# Indices 1 2 3 4 5 6 
#
# 1 0.012281 -0.006522 -0.002233 0.000000 -0.002253 0.000000
# 2 -0.006522 0.019442 -0.002117 0.000000 -0.003321 0.000000
# 3 -0.002233 -0.002117 0.018161 0.000000 -0.003433 0.000000
# 4 0.000000 0.000000 0.000000 0.116002 0.000000 -0.045162
# 5 -0.002253 -0.003321 -0.003433 0.000000 0.044560 0.000000
# 6 0.000000 0.000000 0.000000 -0.045162 0.000000 0.080477
#
#
# Mechanical properties :
#
#
# Convention : Reuss Voigt Hill
#
# Bulk Modulus (GPa) = 35.53884 42.82955 39.18420
# Shear Modulus (GPa) = 15.52571 21.00780 18.26675
#
# Velocity S-wave (km/s) = 2.75500 3.20469 2.98832
# Velocity P-wave (km/s) = 5.24346 5.88485 5.57339
#
# Compressibility (1/GPa) = 0.02813823
#
# Stress axis : x y z
#
# Youngs Moduli (GPa) = 81.42671 51.43620 55.06445
#
# Poissons Ratio (x) = 0.33545 0.12298
# Poissons Ratio (y) = 0.53104 0.11660
# Poissons Ratio (z) = 0.18185 0.10891
#
# Static dielectric constant tensor:
#      x y z
#    x 4.251990 0.000000 0.137150 
#    y 0.000000 3.308870 0.000000 
#    z 0.137150 0.000000 3.943590 
# 
# 
# High freq. dielectric constant tensor:
#      x y z
#    x 1.824510 0.000000 0.000160 
#    y 0.000000 1.749710 0.000000 
#    z 0.000160 0.000000 1.809890 
# 
# From -- ./inp_files/55311.got.cif
#   From: 2010.06.25/outbox.cif.g09.slc.cpg/sg13_28_cif.got.tgz:55311.got - 2010.06.28 04:50:58.
