data_PCOD8119084
_publ_section_title
;
Structure prediction by ZEFSAII (Michael W. Deem and Ramdas Pophale) SiO2 
 PCOD8119084
Probable space group: P 2/C
;
_chemical_formula_sum "Si O2"
_cell_formula_units_Z 28
_cell_length_a 14.299529
_cell_length_b 20.105111
_cell_length_c 5.085941
_cell_angle_alpha 90.000000
_cell_angle_beta 112.878690
_cell_angle_gamma 90.000000
_cell_volume 1347.146326
_symmetry_space_group_name_H-M "P 2/C"
_symmetry_group_IT_number 13
_symmetry_cell_setting 'monoclinic'
loop_
_space_group_symop_operation_xyz
x,y,z
-x,y,1/2-z
-x,-y,-z
x,-y,1/2+z
loop_
_atom_site_type_symbol
_atom_site_label
_atom_site_fract_x
_atom_site_fract_y
_atom_site_fract_z
Si Si1 0.298588 0.685413 0.998477
Si Si2 0.780638 0.545868 0.522937
Si Si3 0.500000 0.749281 0.250000
Si Si4 0.401576 0.143805 0.008824
Si Si5 0.000000 0.545280 0.750000
Si Si6 0.933862 0.145326 0.923905
Si Si7 0.764077 0.760787 0.051414
Si Si8 0.758134 0.955775 0.297284
O O1 0.296809 0.605611 0.013128
O O2 0.222905 0.716339 0.696233
O O3 0.412908 0.702869 0.029878
O O4 0.273841 0.714452 0.255584
O O5 0.764638 0.509799 0.227640
O O6 0.892097 0.583467 0.643655
O O7 0.447382 0.795281 0.403159
O O8 0.500000 0.109041 0.250000
O O9 0.315171 0.178293 0.099681
O O10 0.343246 0.088868 0.770675
O O11 0.000000 0.500000 0.500000
O O12 0.872633 0.209196 0.750871
O O13 0.859236 0.087434 0.942862
O O14 0.000000 0.118640 0.750000
O O15 0.000000 0.166112 0.250000
O O16 0.756048 0.014875 0.502404
#
# Coordination Sequence:
#
# PCOD8119084 Si02
#       8
#     4   4   2   4   2   4   4   4
#     4  11  21  38  62  89 122 157 205 253 299 364
#     4  10  20  37  58  85 120 160 199 246 305 355
#     4  10  22  38  64  90 116 164 208 242 310 380
#     4  10  21  39  64  84 121 158 198 247 312 356
#     4   8  16  32  54  74 106 150 192 224 276 354
#     4  11  23  42  66  86 123 165 198 251 312 360
#     4  10  22  39  60  91 119 154 204 255 298 360
#     4  11  26  41  60  93 124 156 206 251 294 366
#
# _framework density 20.784678
#
# number of rings (size 3 to 8) (size 9 to 14) (size 15 to 20)
#    0.000    1.714    1.429    2.571    2.000    4.571 
#    3.857    0.714    0.000    0.000    0.000    0.000 
#    0.000    0.000    0.000    0.000    0.000    0.000 
#
# Total GULP energy -347013.177271 kJ/mol
# GULP energy per Si atom -12393.327760 kJ/mol
# Density = 2.073737 g / cm^3
# Si number density = 20.784678 Si / 1000 Ang^3
#
#
#
# Elastic Constant Matrix: (Units=GPa)
#
#
# Indices 1 2 3 4 5 6 
#
# 1 87.5555 37.6561 36.8575 0.0000 17.8621 0.0000
# 2 37.6561 90.7673 26.0955 0.0000 15.8498 0.0000
# 3 36.8575 26.0955 105.7672 0.0000 6.6041 0.0000
# 4 0.0000 0.0000 0.0000 42.2459 0.0000 -5.1197
# 5 17.8621 15.8498 6.6041 0.0000 39.0454 0.0000
# 6 0.0000 0.0000 0.0000 -5.1197 0.0000 27.0666
#
#
#
# Elastic Compliance Matrix: (Units=1/GPa)
#
#
# Indices 1 2 3 4 5 6 
#
# 1 0.016168 -0.004668 -0.004183 0.000000 -0.004794 0.000000
# 2 -0.004668 0.013991 -0.001621 0.000000 -0.003270 0.000000
# 3 -0.004183 -0.001621 0.011271 0.000000 0.000665 0.000000
# 4 0.000000 0.000000 0.000000 0.024226 0.000000 0.004582
# 5 -0.004794 -0.003270 0.000665 0.000000 0.029019 0.000000
# 6 0.000000 0.000000 0.000000 0.004582 0.000000 0.037813
#
#
# Mechanical properties :
#
#
# Convention : Reuss Voigt Hill
#
# Bulk Modulus (GPa) = 48.81502 53.92312 51.36907
# Shear Modulus (GPa) = 31.19938 33.90365 32.55152
#
# Velocity S-wave (km/s) = 3.87858 4.04317 3.96173
# Velocity P-wave (km/s) = 6.60264 6.91349 6.75985
#
# Compressibility (1/GPa) = 0.02048550
#
# Stress axis : x y z
#
# Youngs Moduli (GPa) = 61.85151 71.47628 88.72421
#
# Poissons Ratio (x) = 0.33363 0.37114
# Poissons Ratio (y) = 0.28870 0.14383
# Poissons Ratio (z) = 0.25873 0.11587
#
# Static dielectric constant tensor:
#      x y z
#    x 4.481350 0.000000 0.232980 
#    y 0.000000 3.524080 0.000000 
#    z 0.232980 0.000000 4.460910 
# 
# 
# High freq. dielectric constant tensor:
#      x y z
#    x 1.817530 0.000000 0.003590 
#    y 0.000000 1.792690 0.000000 
#    z 0.003590 0.000000 1.821680 
# 
# From -- ./inp_files/5402.got.cif
#   From: 2010.06.25/outbox.cif.g09.slc.cpg/sg13_3_cif.got.tgz:5402.got - 2010.06.28 04:50:58.
