data_PCOD8119032
_publ_section_title
;
Structure prediction by ZEFSAII (Michael W. Deem and Ramdas Pophale) SiO2 
 PCOD8119032
Probable space group: P 2/C
;
_chemical_formula_sum "Si O2"
_cell_formula_units_Z 20
_cell_length_a 23.633240
_cell_length_b 8.430978
_cell_length_c 15.896407
_cell_angle_alpha 90.000000
_cell_angle_beta 16.272908
_cell_angle_gamma 90.000000
_cell_volume 887.540592
_symmetry_space_group_name_H-M "P 2/C"
_symmetry_group_IT_number 13
_symmetry_cell_setting 'monoclinic'
loop_
_space_group_symop_operation_xyz
x,y,z
-x,y,1/2-z
-x,-y,-z
x,-y,1/2+z
loop_
_atom_site_type_symbol
_atom_site_label
_atom_site_fract_x
_atom_site_fract_y
_atom_site_fract_z
Si Si1 0.327712 0.846166 0.308536
Si Si2 0.231872 0.874925 0.766338
Si Si3 0.500000 0.390066 0.250000
Si Si4 0.000000 0.101907 0.750000
Si Si5 0.807247 0.340317 0.338364
Si Si6 0.763959 0.233370 0.743474
O O1 0.283299 0.734666 0.449591
O O2 0.287034 0.746301 0.281818
O O3 0.557891 0.902593 0.985362
O O4 0.185042 0.996904 0.518082
O O5 0.254618 0.761128 0.655169
O O6 0.163579 0.053435 0.837568
O O7 0.075736 0.800666 0.059219
O O8 0.299728 0.489856 0.514137
O O9 0.436627 0.278395 0.418302
O O10 0.050231 0.351378 0.998139
#
# Coordination Sequence:
#
# PCOD8119032 Si02
#       6
#     4   4   2   2   4   4
#     4  11  21  42  68  96 130 164 218 274 330 379
#     4  11  23  40  72  99 130 162 224 276 334 381
#     4  12  28  42  66  94 140 176 230 258 322 398
#     4  10  20  36  64 102 122 164 208 276 330 384
#     4  12  23  45  67  97 134 174 217 277 322 389
#     4  11  25  43  68  96 129 179 218 270 331 389
#
# _framework density 22.534181
#
# number of rings (size 3 to 8) (size 9 to 14) (size 15 to 20)
#    0.000    0.800    6.000    3.600    2.800    2.400 
#    0.000    0.000    0.000    0.000    0.000    0.000 
#    0.000    0.000    0.000    0.000    0.000    0.000 
#
# Total GULP energy -247975.269227 kJ/mol
# GULP energy per Si atom -12398.763461 kJ/mol
# Density = 2.248289 g / cm^3
# Si number density = 22.534181 Si / 1000 Ang^3
#
#
#
# Elastic Constant Matrix: (Units=GPa)
#
#
# Indices 1 2 3 4 5 6 
#
# 1 138.6653 23.5964 46.4620 0.0000 19.9921 0.0000
# 2 23.5964 35.6402 16.6931 0.0000 14.7273 0.0000
# 3 46.4620 16.6931 136.0255 0.0000 6.7475 0.0000
# 4 0.0000 0.0000 0.0000 32.9995 0.0000 -0.1261
# 5 19.9921 14.7273 6.7475 0.0000 54.3167 0.0000
# 6 0.0000 0.0000 0.0000 -0.1261 0.0000 1.0431
#
#
#
# Elastic Compliance Matrix: (Units=1/GPa)
#
#
# Indices 1 2 3 4 5 6 
#
# 1 0.009003 -0.004002 -0.002489 0.000000 -0.001920 0.000000
# 2 -0.004002 0.035098 -0.002557 0.000000 -0.007726 0.000000
# 3 -0.002489 -0.002557 0.008488 0.000000 0.000555 0.000000
# 4 0.000000 0.000000 0.000000 0.030317 0.000000 0.003664
# 5 -0.001920 -0.007726 0.000555 0.000000 0.021143 0.000000
# 6 0.000000 0.000000 0.000000 0.003664 0.000000 0.959111
#
#
# Mechanical properties :
#
#
# Convention : Reuss Voigt Hill
#
# Bulk Modulus (GPa) = 28.99106 53.75934 41.37520
# Shear Modulus (GPa) = 4.57560 32.57717 18.57638
#
# Velocity S-wave (km/s) = 1.42651 3.80633 2.87429
# Velocity P-wave (km/s) = 3.95051 6.57466 5.42368
#
# Compressibility (1/GPa) = 0.03449339
#
# Stress axis : x y z
#
# Youngs Moduli (GPa) = 111.07031 28.49179 117.81380
#
# Poissons Ratio (x) = 0.11402 0.29323
# Poissons Ratio (y) = 0.44449 0.30126
# Poissons Ratio (z) = 0.27644 0.07286
#
# Static dielectric constant tensor:
#      x y z
#    x 4.336060 0.000000 0.240050 
#    y 0.000000 3.612000 0.000000 
#    z 0.240050 0.000000 4.550700 
# 
# 
# High freq. dielectric constant tensor:
#      x y z
#    x 1.905020 0.000000 0.013060 
#    y 0.000000 1.846020 0.000000 
#    z 0.013060 0.000000 1.917630 
# 
# From -- ./inp_files/57167.got.cif
#   From: 2010.06.25/outbox.cif.g09.slc.cpg/sg13_29_cif.got.tgz:57167.got - 2010.06.28 04:50:58.
