data_PCOD8119399
_publ_section_title
;
Structure prediction by ZEFSAII (Michael W. Deem and Ramdas Pophale) SiO2 
 PCOD8119399
Probable space group: P 2/C
;
_chemical_formula_sum "Si O2"
_cell_formula_units_Z 16
_cell_length_a 8.140411
_cell_length_b 4.838581
_cell_length_c 13.751543
_cell_angle_alpha 90.000000
_cell_angle_beta 74.582086
_cell_angle_gamma 90.000000
_cell_volume 522.153709
_symmetry_space_group_name_H-M "P 2/C"
_symmetry_group_IT_number 13
_symmetry_cell_setting 'monoclinic'
loop_
_space_group_symop_operation_xyz
x,y,z
-x,y,1/2-z
-x,-y,-z
x,-y,1/2+z
loop_
_atom_site_type_symbol
_atom_site_label
_atom_site_fract_x
_atom_site_fract_y
_atom_site_fract_z
Si Si1 0.674193 0.029517 0.409421
Si Si2 0.119015 0.505742 0.573008
Si Si3 0.370999 0.763744 0.359584
Si Si4 0.198765 0.247996 0.309398
O O1 0.809711 0.781786 0.397531
O O2 0.482327 0.900258 0.434195
O O3 0.725566 0.276475 0.480724
O O4 0.712254 0.226638 0.309965
O O5 0.000000 0.500000 0.500000
O O6 0.995852 0.648015 0.673041
O O7 0.500000 0.807860 0.250000
O O8 0.309826 0.444861 0.366362
O O9 0.204916 0.952255 0.362390
#
# Coordination Sequence:
#
# PCOD8119399 Si02
#       4
#     4   4   4   4
#     4  11  23  42  67  95 127 172 217 265 323 383
#     4  12  26  44  63  96 137 174 213 264 320 384
#     4  10  20  38  64  96 123 155 211 273 316 368
#     4  11  22  40  66  95 123 163 213 264 317 379
#
# _framework density 30.642318
#
# number of rings (size 3 to 8) (size 9 to 14) (size 15 to 20)
#    0.000    1.000    0.000    9.750    0.000    4.000 
#    0.000    7.500    0.000    0.000    0.000    0.000 
#    0.000    0.000    0.000    0.000    0.000    0.000 
#
# Total GULP energy -198333.402414 kJ/mol
# GULP energy per Si atom -12395.837651 kJ/mol
# Density = 3.057257 g / cm^3
# Si number density = 30.642318 Si / 1000 Ang^3
#
#
#
# Elastic Constant Matrix: (Units=GPa)
#
#
# Indices 1 2 3 4 5 6 
#
# 1 158.7527 59.0985 47.3233 0.0000 7.3894 0.0000
# 2 59.0985 187.5915 41.3853 0.0000 9.3642 0.0000
# 3 47.3233 41.3853 125.2991 0.0000 9.9207 0.0000
# 4 0.0000 0.0000 0.0000 60.3026 0.0000 16.8359
# 5 7.3894 9.3642 9.9207 0.0000 42.0664 0.0000
# 6 0.0000 0.0000 0.0000 16.8359 0.0000 68.0760
#
#
#
# Elastic Compliance Matrix: (Units=1/GPa)
#
#
# Indices 1 2 3 4 5 6 
#
# 1 0.007698 -0.001910 -0.002245 0.000000 -0.000398 0.000000
# 2 -0.001910 0.006253 -0.001284 0.000000 -0.000754 0.000000
# 3 -0.002245 -0.001284 0.009374 0.000000 -0.001530 0.000000
# 4 0.000000 0.000000 0.000000 0.017813 0.000000 -0.004405
# 5 -0.000398 -0.000754 -0.001530 0.000000 0.024371 0.000000
# 6 0.000000 0.000000 0.000000 -0.004405 0.000000 0.015779
#
#
# Mechanical properties :
#
#
# Convention : Reuss Voigt Hill
#
# Bulk Modulus (GPa) = 80.34285 85.25086 82.79685
# Shear Modulus (GPa) = 51.91263 55.67807 53.79535
#
# Velocity S-wave (km/s) = 4.12047 4.26729 4.19452
# Velocity P-wave (km/s) = 6.99387 7.22228 7.10899
#
# Compressibility (1/GPa) = 0.01244666
#
# Stress axis : x y z
#
# Youngs Moduli (GPa) = 129.90611 159.91217 106.67553
#
# Poissons Ratio (x) = 0.30543 0.23949
# Poissons Ratio (y) = 0.24812 0.13702
# Poissons Ratio (z) = 0.29164 0.20539
#
# Static dielectric constant tensor:
#      x y z
#    x 8.065610 0.000000 -1.020600 
#    y 0.000000 5.758220 0.000000 
#    z -1.020600 0.000000 7.745570 
# 
# 
# High freq. dielectric constant tensor:
#      x y z
#    x 2.293660 0.000000 -0.014260 
#    y 0.000000 2.260690 0.000000 
#    z -0.014260 0.000000 2.336760 
# 
# From -- ./inp_files/61961.got.cif
#   From: 2010.06.25/outbox.cif.g09.slc.cpg/sg13_31_cif.got.tgz:61961.got - 2010.06.28 04:50:58.
