data_PCOD8119433
_publ_section_title
;
Structure prediction by ZEFSAII (Michael W. Deem and Ramdas Pophale) SiO2 
 PCOD8119433
Probable space group: P 2/C
;
_chemical_formula_sum "Si O2"
_cell_formula_units_Z 16
_cell_length_a 8.459981
_cell_length_b 6.268985
_cell_length_c 18.236080
_cell_angle_alpha 90.000000
_cell_angle_beta 136.266749
_cell_angle_gamma 90.000000
_cell_volume 668.599170
_symmetry_space_group_name_H-M "P 2/C"
_symmetry_group_IT_number 13
_symmetry_cell_setting 'monoclinic'
loop_
_space_group_symop_operation_xyz
x,y,z
-x,y,1/2-z
-x,-y,-z
x,-y,1/2+z
loop_
_atom_site_type_symbol
_atom_site_label
_atom_site_fract_x
_atom_site_fract_y
_atom_site_fract_z
Si Si1 0.000000 0.625799 0.250000
Si Si2 0.358509 0.327467 0.054644
Si Si3 0.722226 0.298691 0.066730
Si Si4 0.952708 0.919356 0.364278
Si Si5 0.500000 0.856796 0.750000
O O1 0.802405 0.483391 0.149317
O O2 0.882961 0.772820 0.272468
O O3 0.496731 0.210895 0.033589
O O4 0.489819 0.295745 0.175410
O O5 0.332134 0.581154 0.028690
O O6 0.110098 0.212341 0.974343
O O7 0.913641 0.124753 0.120370
O O8 0.721271 0.992550 0.325533
#
# Coordination Sequence:
#
# PCOD8119433 Si02
#       5
#     2   4   4   4   2
#     4  10  20  38  66  94 122 166 216 260 308 368
#     4  10  23  41  64  94 127 165 212 263 315 371
#     4  10  21  42  68  94 122 164 219 263 306 370
#     4  11  23  41  64  93 130 167 209 260 314 376
#     4  12  24  40  62  94 134 172 204 254 324 380
#
# _framework density 23.930629
#
# number of rings (size 3 to 8) (size 9 to 14) (size 15 to 20)
#    0.000    1.500    0.000    5.250    0.000    5.000 
#    0.000   15.000    0.000    0.000    0.000    0.000 
#    0.000    0.000    0.000    0.000    0.000    0.000 
#
# Total GULP energy -198395.142386 kJ/mol
# GULP energy per Si atom -12399.696399 kJ/mol
# Density = 2.387616 g / cm^3
# Si number density = 23.930629 Si / 1000 Ang^3
#
#
#
# Elastic Constant Matrix: (Units=GPa)
#
#
# Indices 1 2 3 4 5 6 
#
# 1 95.5148 19.0981 28.9492 0.0000 16.5971 0.0000
# 2 19.0981 58.5173 24.5910 0.0000 -7.9324 0.0000
# 3 28.9492 24.5910 109.4923 0.0000 -14.4713 0.0000
# 4 0.0000 0.0000 0.0000 21.5652 0.0000 -1.1672
# 5 16.5971 -7.9324 -14.4713 0.0000 42.1712 0.0000
# 6 0.0000 0.0000 0.0000 -1.1672 0.0000 24.8229
#
#
#
# Elastic Compliance Matrix: (Units=1/GPa)
#
#
# Indices 1 2 3 4 5 6 
#
# 1 0.013656 -0.003898 -0.003711 0.000000 -0.007381 0.000000
# 2 -0.003898 0.020179 -0.002930 0.000000 0.004324 0.000000
# 3 -0.003711 -0.002930 0.011410 0.000000 0.004825 0.000000
# 4 0.000000 0.000000 0.000000 0.046489 0.000000 0.002186
# 5 -0.007381 0.004324 0.004825 0.000000 0.029087 0.000000
# 6 0.000000 0.000000 0.000000 0.002186 0.000000 0.040388
#
#
# Mechanical properties :
#
#
# Convention : Reuss Voigt Hill
#
# Bulk Modulus (GPa) = 41.37795 45.42232 43.40013
# Shear Modulus (GPa) = 26.26851 30.43760 28.35305
#
# Velocity S-wave (km/s) = 3.31674 3.57025 3.44583
# Velocity P-wave (km/s) = 5.65650 6.00147 5.83154
#
# Compressibility (1/GPa) = 0.02416746
#
# Stress axis : x y z
#
# Youngs Moduli (GPa) = 73.22645 49.55751 87.64385
#
# Poissons Ratio (x) = 0.19318 0.32522
# Poissons Ratio (y) = 0.28545 0.25677
# Poissons Ratio (z) = 0.27172 0.14519
#
# Static dielectric constant tensor:
#      x y z
#    x 4.099240 0.000000 0.072930 
#    y 0.000000 4.304620 0.000000 
#    z 0.072930 0.000000 4.461850 
# 
# 
# High freq. dielectric constant tensor:
#      x y z
#    x 1.939830 0.000000 0.011970 
#    y 0.000000 1.945300 0.000000 
#    z 0.011970 0.000000 1.958140 
# 
# From -- ./inp_files/44866.got.cif
#   From: 2010.06.25/outbox.cif.g09.slc.cpg/sg13_23_cif.got.tgz:44866.got - 2010.06.28 04:50:58.
