data_PCOD8119346
_publ_section_title
;
Structure prediction by ZEFSAII (Michael W. Deem and Ramdas Pophale) SiO2 
 PCOD8119346
Probable space group: P 2/C
;
_chemical_formula_sum "Si O2"
_cell_formula_units_Z 24
_cell_length_a 12.053948
_cell_length_b 8.591648
_cell_length_c 15.028749
_cell_angle_alpha 90.000000
_cell_angle_beta 47.367389
_cell_angle_gamma 90.000000
_cell_volume 1145.081214
_symmetry_space_group_name_H-M "P 2/C"
_symmetry_group_IT_number 13
_symmetry_cell_setting 'monoclinic'
loop_
_space_group_symop_operation_xyz
x,y,z
-x,y,1/2-z
-x,-y,-z
x,-y,1/2+z
loop_
_atom_site_type_symbol
_atom_site_label
_atom_site_fract_x
_atom_site_fract_y
_atom_site_fract_z
Si Si1 0.832696 0.544093 0.558978
Si Si2 0.826057 0.096180 0.344566
Si Si3 0.688885 0.587782 0.970283
Si Si4 0.804421 0.914979 0.184792
Si Si5 0.339836 0.589783 0.189293
Si Si6 0.156463 0.110868 0.499690
O O1 0.798622 0.432194 0.494630
O O2 0.723079 0.524533 0.701758
O O3 0.790699 0.714342 0.545117
O O4 0.000000 0.500000 0.500000
O O5 0.715796 0.237554 0.423718
O O6 0.000000 0.151865 0.250000
O O7 0.774224 0.041675 0.276332
O O8 0.802437 0.951816 0.424952
O O9 0.518278 0.571751 0.094545
O O10 0.724775 0.463734 0.871958
O O11 0.706551 0.764117 0.259707
O O12 0.978527 0.872235 0.084274
O O13 0.762217 0.992831 0.113364
#
# Coordination Sequence:
#
# PCOD8119346 Si02
#       6
#     4   4   4   4   4   4
#     4  12  24  40  68  94 126 171 213 267 317 377
#     4  10  22  37  63  93 125 161 209 269 312 378
#     4  11  26  42  63  95 131 171 215 260 324 385
#     4  10  20  38  62  89 124 160 207 261 316 374
#     4  11  24  44  64  92 133 171 212 264 319 390
#     4  10  21  37  60  95 122 155 214 263 314 371
#
# _framework density 20.959212000000001
#
# number of rings (size 3 to 8) (size 9 to 14) (size 15 to 20)
#    0.000    1.333    1.667    3.500    7.000    0.667 
#    0.000    3.333    0.000    0.000    0.000    0.000 
#    0.000    0.000    0.000    0.000    0.000    0.000 
#
# Total GULP energy -297607.339000 kJ/mol
# GULP energy per Si atom -12400.305792 kJ/mol
# Density = 2.091151 g / cm^3
# Si number density = 20.959212 Si / 1000 Ang^3
#
#
#
# Elastic Constant Matrix: (Units=GPa)
#
#
# Indices 1 2 3 4 5 6 
#
# 1 75.9364 9.4245 36.3418 0.0000 11.2155 0.0000
# 2 9.4245 89.9267 47.1468 0.0000 -14.7010 0.0000
# 3 36.3418 47.1468 135.9065 0.0000 10.5190 0.0000
# 4 0.0000 0.0000 0.0000 45.0798 0.0000 -4.1609
# 5 11.2155 -14.7010 10.5190 0.0000 21.1938 0.0000
# 6 0.0000 0.0000 0.0000 -4.1609 0.0000 12.3723
#
#
#
# Elastic Compliance Matrix: (Units=1/GPa)
#
#
# Indices 1 2 3 4 5 6 
#
# 1 0.016021 -0.001231 -0.003260 0.000000 -0.007714 0.000000
# 2 -0.001231 0.017624 -0.007052 0.000000 0.016376 0.000000
# 3 -0.003260 -0.007052 0.011358 0.000000 -0.008803 0.000000
# 4 0.000000 0.000000 0.000000 0.022894 0.000000 0.007699
# 5 -0.007714 0.016376 -0.008803 0.000000 0.066994 0.000000
# 6 0.000000 0.000000 0.000000 0.007699 0.000000 0.083415
#
#
# Mechanical properties :
#
#
# Convention : Reuss Voigt Hill
#
# Bulk Modulus (GPa) = 45.62836 54.17732 49.90284
# Shear Modulus (GPa) = 20.10481 29.65295 24.87888
#
# Velocity S-wave (km/s) = 3.10051 3.76545 3.44904
# Velocity P-wave (km/s) = 5.88514 6.69402 6.30257
#
# Compressibility (1/GPa) = 0.02191619
#
# Stress axis : x y z
#
# Youngs Moduli (GPa) = 62.41726 56.74232 88.04748
#
# Poissons Ratio (x) = 0.06985 0.28704
# Poissons Ratio (y) = 0.07683 0.62091
# Poissons Ratio (z) = 0.20348 0.40015
#
# Static dielectric constant tensor:
#      x y z
#    x 3.625680 0.000000 0.281190 
#    y 0.000000 3.767620 0.000000 
#    z 0.281190 0.000000 4.087940 
# 
# 
# High freq. dielectric constant tensor:
#      x y z
#    x 1.803020 0.000000 0.020140 
#    y 0.000000 1.830190 0.000000 
#    z 0.020140 0.000000 1.839490 
# 
# From -- ./inp_files/52872.got.cif
#   From: 2010.06.25/outbox.cif.g09.slc.cpg/sg13_27_cif.got.tgz:52872.got - 2010.06.28 04:50:58.
