data_PCOD8119257
_publ_section_title
;
Structure prediction by ZEFSAII (Michael W. Deem and Ramdas Pophale) SiO2 
 PCOD8119257
Probable space group: P 2/C
;
_chemical_formula_sum "Si O2"
_cell_formula_units_Z 30
_cell_length_a 24.899270
_cell_length_b 12.797790
_cell_length_c 13.582566
_cell_angle_alpha 90.000000
_cell_angle_beta 159.707307
_cell_angle_gamma 90.000000
_cell_volume 1501.075690
_symmetry_space_group_name_H-M "P 2/C"
_symmetry_group_IT_number 13
_symmetry_cell_setting 'monoclinic'
loop_
_space_group_symop_operation_xyz
x,y,z
-x,y,1/2-z
-x,-y,-z
x,-y,1/2+z
loop_
_atom_site_type_symbol
_atom_site_label
_atom_site_fract_x
_atom_site_fract_y
_atom_site_fract_z
Si Si1 0.500000 0.972191 0.750000
Si Si2 0.970322 0.705479 0.587432
Si Si3 0.658001 0.381733 0.463405
Si Si4 0.845132 0.435751 0.221573
Si Si5 0.251989 0.239777 0.337579
Si Si6 0.647419 0.168517 0.345846
Si Si7 0.978401 0.879796 0.439781
Si Si8 0.465202 0.157862 0.556849
O O1 0.382482 0.897963 0.606519
O O2 0.421734 0.046949 0.533581
O O3 0.000000 0.736604 0.750000
O O4 0.119210 0.633379 0.814037
O O5 0.975063 0.812233 0.534088
O O6 0.803728 0.647814 0.285010
O O7 0.500000 0.406277 0.250000
O O8 0.701446 0.483575 0.471692
O O9 0.624753 0.289798 0.329876
O O10 0.811523 0.356397 0.253912
O O11 0.000000 0.500000 0.500000
O O12 0.111941 0.157910 0.096212
O O13 0.335382 0.238888 0.374251
O O14 0.367979 0.201271 0.623828
O O15 0.534875 0.143653 0.060732
O O16 0.819758 0.140050 0.607998
O O17 0.000000 0.000000 0.500000
#
# Coordination Sequence:
#
# PCOD8119257 Si02
#       8
#     2   4   4   4   4   4   4   4
#     4  10  20  40  60  84 122 162 196 238 300 366
#     4   9  20  40  59  85 119 160 200 240 298 365
#     4  10  21  37  60  87 120 149 194 254 301 346
#     4   9  19  39  62  81 121 160 191 245 308 351
#     4   9  20  40  60  85 120 155 206 244 290 371
#     4  11  22  40  58  89 125 153 197 254 301 353
#     4  10  20  38  59  85 121 155 198 250 296 356
#     4  10  22  38  62  88 116 163 200 241 305 356
#
# _framework density 19.985668
#
# number of rings (size 3 to 8) (size 9 to 14) (size 15 to 20)
#    0.000    2.400    0.667    2.800    1.867    2.667 
#   12.000    1.333    0.000    0.000    0.000    0.000 
#    0.000    0.000    0.000    0.000    0.000    0.000 
#
# Total GULP energy -371745.195560 kJ/mol
# GULP energy per Si atom -12391.506519 kJ/mol
# Density = 1.994018 g / cm^3
# Si number density = 19.985668 Si / 1000 Ang^3
#
#
#
# Elastic Constant Matrix: (Units=GPa)
#
#
# Indices 1 2 3 4 5 6 
#
# 1 76.5987 35.2894 40.5521 0.0000 5.7151 0.0000
# 2 35.2894 139.0386 26.5826 0.0000 14.1297 0.0000
# 3 40.5521 26.5826 84.6607 0.0000 18.0346 0.0000
# 4 0.0000 0.0000 0.0000 25.8351 0.0000 9.7360
# 5 5.7151 14.1297 18.0346 0.0000 43.9441 0.0000
# 6 0.0000 0.0000 0.0000 9.7360 0.0000 22.0444
#
#
#
# Elastic Compliance Matrix: (Units=1/GPa)
#
#
# Indices 1 2 3 4 5 6 
#
# 1 0.018941 -0.003405 -0.008451 0.000000 0.002100 0.000000
# 2 -0.003405 0.008370 -0.000568 0.000000 -0.002015 0.000000
# 3 -0.008451 -0.000568 0.017275 0.000000 -0.005808 0.000000
# 4 0.000000 0.000000 0.000000 0.046436 0.000000 -0.020508
# 5 0.002100 -0.002015 -0.005808 0.000000 0.025515 0.000000
# 6 0.000000 0.000000 0.000000 -0.020508 0.000000 0.054421
#
#
# Mechanical properties :
#
#
# Convention : Reuss Voigt Hill
#
# Bulk Modulus (GPa) = 50.66118 56.12735 53.39426
# Shear Modulus (GPa) = 24.70548 31.55631 28.13090
#
# Velocity S-wave (km/s) = 3.51972 3.97791 3.75581
# Velocity P-wave (km/s) = 6.47470 7.01734 6.75147
#
# Compressibility (1/GPa) = 0.01973898
#
# Stress axis : x y z
#
# Youngs Moduli (GPa) = 52.79528 119.47646 57.88616
#
# Poissons Ratio (x) = 0.40683 0.48919
# Poissons Ratio (y) = 0.17977 0.03286
# Poissons Ratio (z) = 0.44616 0.06782
#
# Static dielectric constant tensor:
#      x y z
#    x 3.885480 0.000000 0.853380 
#    y 0.000000 3.932830 0.000000 
#    z 0.853380 0.000000 4.331230 
# 
# 
# High freq. dielectric constant tensor:
#      x y z
#    x 1.766620 0.000000 0.031700 
#    y 0.000000 1.792740 0.000000 
#    z 0.031700 0.000000 1.765840 
# 
# From -- ./inp_files/59643.got.cif
#   From: 2010.06.25/outbox.cif.g09.slc.cpg/sg13_30_cif.got.tgz:59643.got - 2010.06.28 04:50:58.
