data_PCOD8119065
_publ_section_title
;
Structure prediction by ZEFSAII (Michael W. Deem and Ramdas Pophale) SiO2 
 PCOD8119065
Probable space group: P 2/C
;
_chemical_formula_sum "Si O2"
_cell_formula_units_Z 26
_cell_length_a 13.175029
_cell_length_b 15.793413
_cell_length_c 8.813568
_cell_angle_alpha 90.000000
_cell_angle_beta 44.516086
_cell_angle_gamma 90.000000
_cell_volume 1285.775582
_symmetry_space_group_name_H-M "P 2/C"
_symmetry_group_IT_number 13
_symmetry_cell_setting 'monoclinic'
loop_
_space_group_symop_operation_xyz
x,y,z
-x,y,1/2-z
-x,-y,-z
x,-y,1/2+z
loop_
_atom_site_type_symbol
_atom_site_label
_atom_site_fract_x
_atom_site_fract_y
_atom_site_fract_z
Si Si1 0.000000 0.493837 0.750000
Si Si2 0.672948 0.784575 0.928186
Si Si3 0.362936 0.266769 0.697107
Si Si4 0.973108 0.224961 0.957163
Si Si5 0.787536 0.106876 0.721769
Si Si6 0.863743 0.388702 0.641543
Si Si7 0.339027 0.965504 0.446669
O O1 0.112061 0.435928 0.724838
O O2 0.099491 0.549442 0.535305
O O3 0.803597 0.772624 0.673088
O O4 0.704898 0.750353 0.063108
O O5 0.536436 0.731756 0.010395
O O6 0.635956 0.884539 0.970980
O O7 0.310334 0.190225 0.644855
O O8 0.302634 0.356582 0.698485
O O9 0.045132 0.138640 0.947367
O O10 0.036873 0.305817 0.975815
O O11 0.000000 0.231261 0.750000
O O12 0.749607 0.062885 0.604977
O O13 0.760076 0.038945 0.881109
O O14 0.500000 0.002835 0.250000
#
# Coordination Sequence:
#
# PCOD8119065 Si02
#       7
#     2   4   4   4   4   4   4
#     4  10  20  36  70  98 132 162 196 256 314 386
#     4  10  20  38  62  88 121 166 216 257 316 358
#     4   9  19  39  64  90 117 165 209 258 304 385
#     4  11  24  40  59  91 125 162 213 265 307 379
#     4  10  23  37  58  83 121 164 212 261 316 361
#     4  10  20  39  64  97 125 163 206 245 315 377
#     4  11  21  38  60  88 122 167 217 267 316 370
#
# _framework density 20.221259
#
# number of rings (size 3 to 8) (size 9 to 14) (size 15 to 20)
#    0.000    1.846    3.846    1.385    2.154    5.538 
#    0.000    2.308    0.000   16.615    0.000    0.000 
#    0.000    0.000    0.000    0.000    0.000    0.000 
#
# Total GULP energy -322362.052255 kJ/mol
# GULP energy per Si atom -12398.540471 kJ/mol
# Density = 2.017523 g / cm^3
# Si number density = 20.221259 Si / 1000 Ang^3
#
#
#
# Elastic Constant Matrix: (Units=GPa)
#
#
# Indices 1 2 3 4 5 6 
#
# 1 117.7568 65.8022 62.7280 0.0000 -10.7945 0.0000
# 2 65.8022 126.3772 49.1740 0.0000 -2.4910 0.0000
# 3 62.7280 49.1740 124.6876 0.0000 -15.9721 0.0000
# 4 0.0000 0.0000 0.0000 19.5452 0.0000 -6.1726
# 5 -10.7945 -2.4910 -15.9721 0.0000 28.5192 0.0000
# 6 0.0000 0.0000 0.0000 -6.1726 0.0000 31.5542
#
#
#
# Elastic Compliance Matrix: (Units=1/GPa)
#
#
# Indices 1 2 3 4 5 6 
#
# 1 0.014335 -0.005584 -0.004715 0.000000 0.002297 0.000000
# 2 -0.005584 0.011570 -0.002042 0.000000 -0.002246 0.000000
# 3 -0.004715 -0.002042 0.011792 0.000000 0.004641 0.000000
# 4 0.000000 0.000000 0.000000 0.054532 0.000000 0.010668
# 5 0.002297 -0.002246 0.004641 0.000000 0.038337 0.000000
# 6 0.000000 0.000000 0.000000 0.010668 0.000000 0.033778
#
#
# Mechanical properties :
#
#
# Convention : Reuss Voigt Hill
#
# Bulk Modulus (GPa) = 76.83111 80.46998 78.65055
# Shear Modulus (GPa) = 25.85802 28.66488 27.26145
#
# Velocity S-wave (km/s) = 3.57985 3.76914 3.67571
# Velocity P-wave (km/s) = 7.42730 7.66961 7.54943
#
# Compressibility (1/GPa) = 0.01301556
#
# Stress axis : x y z
#
# Youngs Moduli (GPa) = 69.76166 86.42772 84.80462
#
# Poissons Ratio (x) = 0.48259 0.39986
# Poissons Ratio (y) = 0.38953 0.17315
# Poissons Ratio (z) = 0.32893 0.17646
#
# Static dielectric constant tensor:
#      x y z
#    x 3.810570 0.000000 0.010310 
#    y 0.000000 3.825400 0.000000 
#    z 0.010310 0.000000 3.392120 
# 
# 
# High freq. dielectric constant tensor:
#      x y z
#    x 1.799830 0.000000 0.002620 
#    y 0.000000 1.786400 0.000000 
#    z 0.002620 0.000000 1.763670 
# 
# From -- ./inp_files/19834.got.cif
#   From: 2010.06.25/outbox.cif.g09.slc.cpg/sg13_10_cif.got.tgz:19834.got - 2010.06.28 04:50:58.
