data_PCOD8119644
_publ_section_title
;
Structure prediction by ZEFSAII (Michael W. Deem and Ramdas Pophale) SiO2 
 PCOD8119644
Probable space group: P 2/C
;
_chemical_formula_sum "Si O2"
_cell_formula_units_Z 28
_cell_length_a 7.964152
_cell_length_b 14.057317
_cell_length_c 12.285622
_cell_angle_alpha 90.000000
_cell_angle_beta 73.651829
_cell_angle_gamma 90.000000
_cell_volume 1319.821898
_symmetry_space_group_name_H-M "P 2/C"
_symmetry_group_IT_number 13
_symmetry_cell_setting 'monoclinic'
loop_
_space_group_symop_operation_xyz
x,y,z
-x,y,1/2-z
-x,-y,-z
x,-y,1/2+z
loop_
_atom_site_type_symbol
_atom_site_label
_atom_site_fract_x
_atom_site_fract_y
_atom_site_fract_z
Si Si1 0.231682 0.908941 0.304449
Si Si2 0.500000 0.617510 0.750000
Si Si3 0.043515 0.641707 0.432079
Si Si4 0.880266 0.831020 0.399309
Si Si5 0.884418 0.440493 0.171724
Si Si6 0.564877 0.222177 0.071522
Si Si7 0.599587 0.736440 0.125438
Si Si8 0.500000 0.072122 0.250000
O O1 0.233888 0.858913 0.185404
O O2 0.344527 0.844509 0.363607
O O3 0.031076 0.911890 0.384958
O O4 0.322063 0.011587 0.290645
O O5 0.323518 0.556503 0.759673
O O6 0.447275 0.680783 0.861657
O O7 0.046955 0.546644 0.360746
O O8 0.239791 0.667561 0.433677
O O9 0.970402 0.726977 0.369682
O O10 0.921764 0.626183 0.560409
O O11 0.759320 0.824127 0.528038
O O12 0.000000 0.398800 0.250000
O O13 0.458681 0.138880 0.152532
O O14 0.517749 0.254264 0.959305
O O15 0.500000 0.694358 0.250000
#
# Coordination Sequence:
#
# PCOD8119644 Si02
#       8
#     4   2   4   4   4   4   4   2
#     4  10  21  37  62  94 123 159 211 268 319 396
#     4  11  24  46  63  98 136 180 227 256 342 403
#     4  10  24  42  63  98 130 170 219 269 331 383
#     4  10  20  40  65  90 128 167 207 266 333 387
#     4  11  24  43  67  97 137 174 220 282 317 398
#     4  11  23  41  68  87 131 176 207 277 324 401
#     4  11  21  38  65  96 121 169 216 265 333 386
#     4  11  24  42  59  96 128 166 221 260 336 387
#
# _framework density 21.214984999999999
#
# number of rings (size 3 to 8) (size 9 to 14) (size 15 to 20)
#    0.000    1.429    3.571    0.857    5.000    2.857 
#    0.000    6.429    6.286    0.000    0.000    0.000 
#    0.000    0.000    0.000    0.000    0.000    0.000 
#
# Total GULP energy -346979.743621 kJ/mol
# GULP energy per Si atom -12392.133701 kJ/mol
# Density = 2.116670 g / cm^3
# Si number density = 21.214985 Si / 1000 Ang^3
#
#
#
# Elastic Constant Matrix: (Units=GPa)
#
#
# Indices 1 2 3 4 5 6 
#
# 1 100.0329 16.6287 47.0242 0.0000 -8.8184 0.0000
# 2 16.6287 65.6271 20.8786 0.0000 3.8530 0.0000
# 3 47.0242 20.8786 106.1326 0.0000 -5.8085 0.0000
# 4 0.0000 0.0000 0.0000 -0.0163 0.0000 -7.4931
# 5 -8.8184 3.8530 -5.8085 0.0000 41.5356 0.0000
# 6 0.0000 0.0000 0.0000 -7.4931 0.0000 29.1750
#
#
#
# Elastic Compliance Matrix: (Units=1/GPa)
#
#
# Indices 1 2 3 4 5 6 
#
# 1 0.012959 -0.001731 -0.005282 0.000000 0.002173 0.000000
# 2 -0.001731 0.016648 -0.002633 0.000000 -0.002280 0.000000
# 3 -0.005282 -0.002633 0.012327 0.000000 0.000847 0.000000
# 4 0.000000 0.000000 0.000000 -0.515250 0.000000 -0.132334
# 5 0.002173 -0.002280 0.000847 0.000000 0.024867 0.000000
# 6 0.000000 0.000000 0.000000 -0.132334 0.000000 0.000288
#
#
# Mechanical properties :
#
#
# Convention : Reuss Voigt Hill
#
# Bulk Modulus (GPa) = 44.16626 48.98397 46.57511
# Shear Modulus (GPa) = -11.86741 26.62292 7.37775
#
# Velocity S-wave (km/s) = -2.36770 3.54632 1.86686
# Velocity P-wave (km/s) = 3.65909 6.31727 5.16221
#
# Compressibility (1/GPa) = 0.02264172
#
# Stress axis : x y z
#
# Youngs Moduli (GPa) = 77.16539 60.06862 81.12307
#
# Poissons Ratio (x) = 0.10396 0.42853
# Poissons Ratio (y) = 0.13355 0.21359
# Poissons Ratio (z) = 0.40762 0.15816
#
# Static dielectric constant tensor:
#      x y z
#    x 3.902350 0.000000 -0.298060 
#    y 0.000000 3.597750 0.000000 
#    z -0.298060 0.000000 3.888400 
# 
# 
# High freq. dielectric constant tensor:
#      x y z
#    x 1.835520 0.000000 -0.015590 
#    y 0.000000 1.816910 0.000000 
#    z -0.015590 0.000000 1.834940 
# 
# From -- ./inp_files/30123.got.cif
#   From: 2010.06.25/outbox.cif.g09.slc.cpg/sg13_16_cif.got.tgz:30123.got - 2010.06.28 04:50:58.
