data_PCOD8119960
_publ_section_title
;
Structure prediction by ZEFSAII (Michael W. Deem and Ramdas Pophale) SiO2 
 PCOD8119960
Probable space group: P 2/C
;
_chemical_formula_sum "Si O2"
_cell_formula_units_Z 24
_cell_length_a 20.637542
_cell_length_b 5.090524
_cell_length_c 12.919482
_cell_angle_alpha 90.000000
_cell_angle_beta 69.347530
_cell_angle_gamma 90.000000
_cell_volume 1270.045655
_symmetry_space_group_name_H-M "P 2/C"
_symmetry_group_IT_number 13
_symmetry_cell_setting 'monoclinic'
loop_
_space_group_symop_operation_xyz
x,y,z
-x,y,1/2-z
-x,-y,-z
x,-y,1/2+z
loop_
_atom_site_type_symbol
_atom_site_label
_atom_site_fract_x
_atom_site_fract_y
_atom_site_fract_z
Si Si1 0.814023 0.231728 0.690164
Si Si2 0.480490 0.231219 0.643971
Si Si3 0.586186 0.265523 0.406066
Si Si4 0.919597 0.267254 0.809256
Si Si5 0.852995 0.769354 0.934107
Si Si6 0.747321 0.266301 0.315284
O O1 0.884179 0.241665 0.717225
O O2 0.833658 0.290145 0.562055
O O3 0.759836 0.448441 0.759870
O O4 0.778035 0.948836 0.719412
O O5 0.500000 0.291244 0.750000
O O6 0.550686 0.236773 0.537836
O O7 0.426815 0.448585 0.634058
O O8 0.444002 0.948998 0.656272
O O9 0.666772 0.219470 0.377874
O O10 0.907536 0.553784 0.863796
O O11 0.000000 0.215273 0.750000
O O12 0.888344 0.053380 0.905494
O O13 0.782818 0.758639 0.907174
#
# Coordination Sequence:
#
# PCOD8119960 Si02
#       6
#     4   4   4   4   4   4
#     4  10  21  37  55  79 112 142 179 225 265 316
#     4  10  21  38  56  80 110 140 177 222 268 318
#     4  10  21  36  56  80 108 140 179 222 266 320
#     4  10  21  36  56  82 110 142 181 222 266 318
#     4  10  21  37  55  79 110 142 179 223 267 316
#     4  10  21  36  54  80 108 140 181 222 266 318
#
# _framework density 18.896957
#
# number of rings (size 3 to 8) (size 9 to 14) (size 15 to 20)
#    0.000    2.000    0.000    3.000    0.000    4.000 
#    0.000    0.000    0.000    0.000    0.000    0.000 
#    0.000    0.000    0.000    0.000    0.000    0.000 
#
# Total GULP energy -297751.079788 kJ/mol
# GULP energy per Si atom -12406.294991 kJ/mol
# Density = 1.885395 g / cm^3
# Si number density = 18.896957 Si / 1000 Ang^3
#
#
#
# Elastic Constant Matrix: (Units=GPa)
#
#
# Indices 1 2 3 4 5 6 
#
# 1 112.9097 18.4300 61.0931 0.0000 -15.5257 0.0000
# 2 18.4300 72.8589 15.2899 0.0000 2.9414 0.0000
# 3 61.0931 15.2899 97.1942 0.0000 6.6921 0.0000
# 4 0.0000 0.0000 0.0000 17.2841 0.0000 2.0612
# 5 -15.5257 2.9414 6.6921 0.0000 17.8794 0.0000
# 6 0.0000 0.0000 0.0000 2.0612 0.0000 17.1301
#
#
#
# Elastic Compliance Matrix: (Units=1/GPa)
#
#
# Indices 1 2 3 4 5 6 
#
# 1 0.019823 -0.003092 -0.013543 0.000000 0.022791 0.000000
# 2 -0.003092 0.014718 -0.000020 0.000000 -0.005099 0.000000
# 3 -0.013543 -0.000020 0.020133 0.000000 -0.019292 0.000000
# 4 0.000000 0.000000 0.000000 0.058699 0.000000 -0.007063
# 5 0.022791 -0.005099 -0.019292 0.000000 0.083781 0.000000
# 6 0.000000 0.000000 0.000000 -0.007063 0.000000 0.059227
#
#
# Mechanical properties :
#
#
# Convention : Reuss Voigt Hill
#
# Bulk Modulus (GPa) = 46.81203 52.50988 49.66095
# Shear Modulus (GPa) = 16.84569 23.00204 19.92387
#
# Velocity S-wave (km/s) = 2.98895 3.49268 3.25059
# Velocity P-wave (km/s) = 6.06117 6.64175 6.35809
#
# Compressibility (1/GPa) = 0.02136203
#
# Stress axis : x y z
#
# Youngs Moduli (GPa) = 50.44620 67.94622 49.67011
#
# Poissons Ratio (x) = 0.21012 0.67268
# Poissons Ratio (y) = 0.15600 0.00101
# Poissons Ratio (z) = 0.68319 0.00139
#
# Static dielectric constant tensor:
#      x y z
#    x 3.351740 0.000000 0.037890 
#    y 0.000000 3.697340 0.000000 
#    z 0.037890 0.000000 3.273590 
# 
# 
# High freq. dielectric constant tensor:
#      x y z
#    x 1.732030 0.000000 -0.000690 
#    y 0.000000 1.756490 0.000000 
#    z -0.000690 0.000000 1.728570 
# 
# From -- ./inp_files/38137.got.cif
#   From: 2010.06.25/outbox.cif.g09.slc.cpg/sg13_20_cif.got.tgz:38137.got - 2010.06.28 04:50:58.
