data_PCOD8119273
_publ_section_title
;
Structure prediction by ZEFSAII (Michael W. Deem and Ramdas Pophale) SiO2 
 PCOD8119273
Probable space group: P 2/C
;
_chemical_formula_sum "Si O2"
_cell_formula_units_Z 28
_cell_length_a 24.725878
_cell_length_b 8.350268
_cell_length_c 20.068618
_cell_angle_alpha 90.000000
_cell_angle_beta 160.155083
_cell_angle_gamma 90.000000
_cell_volume 1406.623718
_symmetry_space_group_name_H-M "P 2/C"
_symmetry_group_IT_number 13
_symmetry_cell_setting 'monoclinic'
loop_
_space_group_symop_operation_xyz
x,y,z
-x,y,1/2-z
-x,-y,-z
x,-y,1/2+z
loop_
_atom_site_type_symbol
_atom_site_label
_atom_site_fract_x
_atom_site_fract_y
_atom_site_fract_z
Si Si1 0.663789 0.179398 0.973237
Si Si2 0.843645 0.910527 0.113242
Si Si3 0.908960 0.761310 0.330740
Si Si4 0.340626 0.974186 0.403363
Si Si5 0.726957 0.724504 0.748040
Si Si6 0.597394 0.725833 0.734918
Si Si7 0.330409 0.517169 0.939170
O O1 0.500000 0.221001 0.750000
O O2 0.723589 0.351196 0.068816
O O3 0.785834 0.091019 0.064093
O O4 0.624322 0.062708 0.987479
O O5 0.890762 0.813857 0.233218
O O6 0.000000 0.928201 0.250000
O O7 0.701360 0.812563 0.912104
O O8 0.833519 0.891747 0.293670
O O9 0.820229 0.595838 0.239031
O O10 0.089540 0.734261 0.560477
O O11 0.476991 0.841860 0.555887
O O12 0.344934 0.096430 0.346402
O O13 0.711046 0.667238 0.806186
O O14 0.640158 0.598880 0.598781
O O15 0.494440 0.579584 0.647250
#
# Coordination Sequence:
#
# PCOD8119273 Si02
#       7
#     4   4   4   4   4   4   4
#     4  10  20  38  60  83 116 148 199 243 290 348
#     4  11  22  40  61  89 115 155 198 251 301 343
#     4  10  21  37  61  85 121 157 197 241 289 361
#     4   9  20  35  60  87 111 157 200 241 282 342
#     4  11  20  38  58  88 122 153 199 238 296 347
#     4  11  21  38  60  88 121 152 197 245 296 354
#     4  10  24  37  59  87 118 161 191 243 298 357
#
# _framework density 19.905819999999999
#
# number of rings (size 3 to 8) (size 9 to 14) (size 15 to 20)
#    0.000    1.714    2.857    1.714    2.000    0.000 
#    0.000    2.143    0.000    0.000    0.000    0.000 
#    0.000    0.000    0.000    0.000    0.000    0.000 
#
# Total GULP energy -347090.618851 kJ/mol
# GULP energy per Si atom -12396.093530 kJ/mol
# Density = 1.986051 g / cm^3
# Si number density = 19.905820 Si / 1000 Ang^3
#
#
#
# Elastic Constant Matrix: (Units=GPa)
#
#
# Indices 1 2 3 4 5 6 
#
# 1 60.2055 35.2050 10.2602 0.0000 5.2356 0.0000
# 2 35.2050 111.2049 18.3544 0.0000 0.5503 0.0000
# 3 10.2602 18.3544 64.3408 0.0000 -1.2257 0.0000
# 4 0.0000 0.0000 0.0000 -49.3551 0.0000 37.2961
# 5 5.2356 0.5503 -1.2257 0.0000 22.3001 0.0000
# 6 0.0000 0.0000 0.0000 37.2961 0.0000 1.4258
#
#
#
# Elastic Compliance Matrix: (Units=1/GPa)
#
#
# Indices 1 2 3 4 5 6 
#
# 1 0.021033 -0.006365 -0.001631 0.000000 -0.004871 0.000000
# 2 -0.006365 0.011366 -0.002207 0.000000 0.001093 0.000000
# 3 -0.001631 -0.002207 0.016457 0.000000 0.001342 0.000000
# 4 0.000000 0.000000 0.000000 -0.000976 0.000000 0.025521
# 5 -0.004871 0.001093 0.001342 0.000000 0.046033 0.000000
# 6 0.000000 0.000000 0.000000 0.025521 0.000000 0.033773
#
#
# Mechanical properties :
#
#
# Convention : Reuss Voigt Hill
#
# Bulk Modulus (GPa) = 35.14804 40.37670 37.76237
# Shear Modulus (GPa) = 31.73037 6.33627 19.03332
#
# Velocity S-wave (km/s) = 3.99686 1.78607 3.09555
# Velocity P-wave (km/s) = 6.24462 4.95795 5.63811
#
# Compressibility (1/GPa) = 0.02845109
#
# Stress axis : x y z
#
# Youngs Moduli (GPa) = 47.54321 87.97897 60.76303
#
# Poissons Ratio (x) = 0.56002 0.09911
# Poissons Ratio (y) = 0.30263 0.13408
# Poissons Ratio (z) = 0.07755 0.19413
#
# Static dielectric constant tensor:
#      x y z
#    x 4.970670 0.000000 0.412890 
#    y 0.000000 3.808070 0.000000 
#    z 0.412890 0.000000 3.630750 
# 
# 
# High freq. dielectric constant tensor:
#      x y z
#    x 1.772000 0.000000 0.000290 
#    y 0.000000 1.779390 0.000000 
#    z 0.000290 0.000000 1.775740 
# 
# From -- ./inp_files/82140.got.cif
#   From: 2010.06.25/outbox.cif.g09.slc.cpg/sg13_42_cif.got.tgz:82140.got - 2010.06.28 04:50:58.
