data_PCOD8119937
_publ_section_title
;
Structure prediction by ZEFSAII (Michael W. Deem and Ramdas Pophale) SiO2 
 PCOD8119937
Probable space group: P 2/C
;
_chemical_formula_sum "Si O2"
_cell_formula_units_Z 26
_cell_length_a 8.382829
_cell_length_b 9.113526
_cell_length_c 17.849067
_cell_angle_alpha 90.000000
_cell_angle_beta 109.789145
_cell_angle_gamma 90.000000
_cell_volume 1283.088963
_symmetry_space_group_name_H-M "P 2/C"
_symmetry_group_IT_number 13
_symmetry_cell_setting 'monoclinic'
loop_
_space_group_symop_operation_xyz
x,y,z
-x,y,1/2-z
-x,-y,-z
x,-y,1/2+z
loop_
_atom_site_type_symbol
_atom_site_label
_atom_site_fract_x
_atom_site_fract_y
_atom_site_fract_z
Si Si1 0.454439 0.271916 0.599626
Si Si2 0.883632 0.130590 0.452549
Si Si3 0.500000 0.548395 0.250000
Si Si4 0.395722 0.662900 0.853105
Si Si5 0.159015 0.653288 0.946417
Si Si6 0.546322 0.031217 0.338083
Si Si7 0.302760 0.645485 0.486904
O O1 0.412673 0.348811 0.673121
O O2 0.287879 0.267936 0.522958
O O3 0.612765 0.348370 0.582190
O O4 0.501982 0.101024 0.614463
O O5 0.746761 0.067712 0.372795
O O6 0.783511 0.199429 0.507531
O O7 0.980670 0.264249 0.426494
O O8 0.000000 0.000000 0.500000
O O9 0.627012 0.439507 0.224483
O O10 0.220635 0.666996 0.870537
O O11 0.432024 0.828968 0.836757
O O12 0.551436 0.601916 0.929440
O O13 0.156707 0.479374 0.965383
O O14 0.500000 0.970476 0.250000
#
# Coordination Sequence:
#
# PCOD8119937 Si02
#       7
#     4   4   2   4   4   4   4
#     4  11  21  35  66  91 121 158 216 257 302 370
#     4  11  24  38  61  89 126 162 207 257 309 371
#     4  12  18  36  62  96 116 154 208 256 306 364
#     4  10  21  35  64  89 122 156 210 251 300 379
#     4  11  20  40  60  92 121 161 210 257 305 360
#     4  11  23  39  60  92 122 167 203 258 317 368
#     4  10  21  38  60  92 118 164 210 255 303 363
#
# _framework density 20.263598999999999
#
# number of rings (size 3 to 8) (size 9 to 14) (size 15 to 20)
#    0.000    1.231    6.154    1.385    2.154    1.846 
#    0.000    0.769    0.000    6.462    0.000    0.000 
#    0.000    0.000    0.000    0.000    0.000    0.000 
#
# Total GULP energy -322306.499183 kJ/mol
# GULP energy per Si atom -12396.403815 kJ/mol
# Density = 2.021748 g / cm^3
# Si number density = 20.263599 Si / 1000 Ang^3
#
#
#
# Elastic Constant Matrix: (Units=GPa)
#
#
# Indices 1 2 3 4 5 6 
#
# 1 74.1081 32.6686 35.0863 0.0000 -9.0692 0.0000
# 2 32.6686 117.6822 33.4039 0.0000 -3.1843 0.0000
# 3 35.0863 33.4039 96.9934 0.0000 -20.2026 0.0000
# 4 0.0000 0.0000 0.0000 28.1819 0.0000 -0.8880
# 5 -9.0692 -3.1843 -20.2026 0.0000 25.0572 0.0000
# 6 0.0000 0.0000 0.0000 -0.8880 0.0000 38.4652
#
#
#
# Elastic Compliance Matrix: (Units=1/GPa)
#
#
# Indices 1 2 3 4 5 6 
#
# 1 0.017505 -0.003469 -0.004699 0.000000 0.002106 0.000000
# 2 -0.003469 0.010166 -0.002691 0.000000 -0.002133 0.000000
# 3 -0.004699 -0.002691 0.015036 0.000000 0.010080 0.000000
# 4 0.000000 0.000000 0.000000 0.035510 0.000000 0.000820
# 5 0.002106 -0.002133 0.010080 0.000000 0.048527 0.000000
# 6 0.000000 0.000000 0.000000 0.000820 0.000000 0.026016
#
#
# Mechanical properties :
#
#
# Convention : Reuss Voigt Hill
#
# Bulk Modulus (GPa) = 47.63961 54.56683 51.10322
# Shear Modulus (GPa) = 27.55196 30.84918 29.20057
#
# Velocity S-wave (km/s) = 3.69138 3.90602 3.80022
# Velocity P-wave (km/s) = 6.45983 6.87965 6.67304
#
# Compressibility (1/GPa) = 0.02099094
#
# Stress axis : x y z
#
# Youngs Moduli (GPa) = 57.12518 98.36306 66.50668
#
# Poissons Ratio (x) = 0.34119 0.31252
# Poissons Ratio (y) = 0.19815 0.17895
# Poissons Ratio (z) = 0.26843 0.26467
#
# Static dielectric constant tensor:
#      x y z
#    x 3.444480 0.000000 -0.193670 
#    y 0.000000 3.885160 0.000000 
#    z -0.193670 0.000000 3.681440 
# 
# 
# High freq. dielectric constant tensor:
#      x y z
#    x 1.757140 0.000000 -0.019940 
#    y 0.000000 1.822800 0.000000 
#    z -0.019940 0.000000 1.779180 
# 
# From -- ./inp_files/63757.got.cif
#   From: 2010.06.25/outbox.cif.g09.slc.cpg/sg13_32_cif.got.tgz:63757.got - 2010.06.28 04:50:58.
