data_PCOD8119824
_publ_section_title
;
Structure prediction by ZEFSAII (Michael W. Deem and Ramdas Pophale) SiO2 
 PCOD8119824
Probable space group: P 2/C
;
_chemical_formula_sum "Si O2"
_cell_formula_units_Z 24
_cell_length_a 16.802637
_cell_length_b 7.754338
_cell_length_c 12.144632
_cell_angle_alpha 90.000000
_cell_angle_beta 136.284676
_cell_angle_gamma 90.000000
_cell_volume 1093.533731
_symmetry_space_group_name_H-M "P 2/C"
_symmetry_group_IT_number 13
_symmetry_cell_setting 'monoclinic'
loop_
_space_group_symop_operation_xyz
x,y,z
-x,y,1/2-z
-x,-y,-z
x,-y,1/2+z
loop_
_atom_site_type_symbol
_atom_site_label
_atom_site_fract_x
_atom_site_fract_y
_atom_site_fract_z
Si Si1 0.571840 0.367013 0.142468
Si Si2 0.247579 0.553152 0.496266
Si Si3 0.000000 0.631507 0.250000
Si Si4 0.928160 0.867013 0.998789
Si Si5 0.500000 0.131507 0.250000
Si Si6 0.750000 0.250000 0.164847
Si Si7 0.252421 0.946849 0.501107
O O1 0.668401 0.466355 0.314259
O O2 0.482912 0.259743 0.128409
O O3 0.638053 0.229641 0.130560
O O4 0.500000 0.500000 0.000000
O O5 0.281692 0.418297 0.437243
O O6 0.250000 0.750000 0.455218
O O7 0.112116 0.513995 0.385873
O O8 0.017087 0.759743 0.162584
O O9 0.831599 0.966355 0.977456
O O10 0.861947 0.729641 0.854454
O O11 0.000000 0.000000 0.000000
O O12 0.612116 0.013995 0.338359
O O13 0.781692 0.081705 0.126140
#
# Coordination Sequence:
#
# PCOD8119824 Si02
#       7
#     4   4   2   4   2   4   4
#     4  11  22  43  71 101 141 189 231 297 361 418
#     4  10  23  44  65 104 141 176 240 291 340 439
#     4  10  20  44  66  92 146 174 230 302 334 426
#     4  11  22  43  71 101 141 189 231 297 361 418
#     4  10  20  44  66  92 146 174 230 302 334 426
#     4  12  24  44  72 102 138 190 238 280 380 418
#     4  10  23  44  65 104 141 176 240 291 340 439
#
# _framework density 21.947195000000001
#
# number of rings (size 3 to 8) (size 9 to 14) (size 15 to 20)
#    0.000    1.333    5.000    4.000    0.000    4.000 
#    9.000    0.000    0.000    0.000    0.000    0.000 
#    0.000    0.000    0.000    0.000    0.000    0.000 
#
# Total GULP energy -297328.693323 kJ/mol
# GULP energy per Si atom -12388.695555 kJ/mol
# Density = 2.189724 g / cm^3
# Si number density = 21.947195 Si / 1000 Ang^3
#
#
#
# Elastic Constant Matrix: (Units=GPa)
#
#
# Indices 1 2 3 4 5 6 
#
# 1 143.9501 28.4171 41.5111 0.0000 -1.4510 0.0000
# 2 28.4171 77.3552 33.9312 0.0000 -19.4935 0.0000
# 3 41.5111 33.9312 144.1283 0.0000 0.8180 0.0000
# 4 0.0000 0.0000 0.0000 20.5983 0.0000 9.7058
# 5 -1.4510 -19.4935 0.8180 0.0000 43.4036 0.0000
# 6 0.0000 0.0000 0.0000 9.7058 0.0000 23.3441
#
#
#
# Elastic Compliance Matrix: (Units=1/GPa)
#
#
# Indices 1 2 3 4 5 6 
#
# 1 0.007896 -0.002336 -0.001720 0.000000 -0.000753 0.000000
# 2 -0.002336 0.017237 -0.003429 0.000000 0.007728 0.000000
# 3 -0.001720 -0.003429 0.008251 0.000000 -0.001753 0.000000
# 4 0.000000 0.000000 0.000000 0.060376 0.000000 -0.025102
# 5 -0.000753 0.007728 -0.001753 0.000000 0.026518 0.000000
# 6 0.000000 0.000000 0.000000 -0.025102 0.000000 0.053274
#
#
# Mechanical properties :
#
#
# Convention : Reuss Voigt Hill
#
# Bulk Modulus (GPa) = 54.30608 63.68360 58.99484
# Shear Modulus (GPa) = 25.68571 34.90750 30.29660
#
# Velocity S-wave (km/s) = 3.42474 3.99246 3.71945
# Velocity P-wave (km/s) = 6.35894 7.09456 6.73680
#
# Compressibility (1/GPa) = 0.01841415
#
# Stress axis : x y z
#
# Youngs Moduli (GPa) = 126.63940 58.01420 121.19886
#
# Poissons Ratio (x) = 0.13552 0.20847
# Poissons Ratio (y) = 0.29583 0.41560
# Poissons Ratio (z) = 0.21783 0.19894
#
# Static dielectric constant tensor:
#      x y z
#    x 4.389420 0.000000 0.219930 
#    y 0.000000 3.517050 0.000000 
#    z 0.219930 0.000000 4.327190 
# 
# 
# High freq. dielectric constant tensor:
#      x y z
#    x 1.879600 0.000000 0.009700 
#    y 0.000000 1.821710 0.000000 
#    z 0.009700 0.000000 1.876860 
# 
# From -- ./inp_files/38637.got.cif
#   From: 2010.06.25/outbox.cif.g09.slc.cpg/sg13_20_cif.got.tgz:38637.got - 2010.06.28 04:50:58.
