data_PCOD8119255
_publ_section_title
;
Structure prediction by ZEFSAII (Michael W. Deem and Ramdas Pophale) SiO2 
 PCOD8119255
Probable space group: P 2/C
;
_chemical_formula_sum "Si O2"
_cell_formula_units_Z 20
_cell_length_a 32.481320
_cell_length_b 7.653784
_cell_length_c 29.518864
_cell_angle_alpha 90.000000
_cell_angle_beta 172.111242
_cell_angle_gamma 90.000000
_cell_volume 1007.215694
_symmetry_space_group_name_H-M "P 2/C"
_symmetry_group_IT_number 13
_symmetry_cell_setting 'monoclinic'
loop_
_space_group_symop_operation_xyz
x,y,z
-x,y,1/2-z
-x,-y,-z
x,-y,1/2+z
loop_
_atom_site_type_symbol
_atom_site_label
_atom_site_fract_x
_atom_site_fract_y
_atom_site_fract_z
Si Si1 0.841235 0.922868 0.283590
Si Si2 0.658297 0.437362 0.560565
Si Si3 0.104330 0.695245 0.414562
Si Si4 0.075546 0.600016 0.946748
Si Si5 0.156973 0.991832 0.034748
O O1 0.048782 0.960795 0.466783
O O2 0.817102 0.712124 0.263700
O O3 0.515917 0.009258 0.923855
O O4 0.000000 0.000000 0.500000
O O5 0.899348 0.566855 0.801299
O O6 0.464791 0.335211 0.310517
O O7 0.426814 0.551174 0.338655
O O8 0.946316 0.526026 0.265990
O O9 0.000000 0.717479 0.250000
O O10 0.016848 0.870781 0.346529
O O11 0.039226 0.800280 0.892332
#
# Coordination Sequence:
#
# PCOD8119255 Si02
#       5
#     4   4   4   4   4
#     4  11  21  40  63  87 118 160 197 241 298 352
#     4   9  19  39  58  80 121 149 187 246 290 336
#     4   9  21  38  63  82 120 153 196 235 302 346
#     4  10  20  38  59  83 121 148 192 238 292 336
#     4  11  22  39  62  88 120 155 195 249 285 351
#
# _framework density 19.856719999999999
#
# number of rings (size 3 to 8) (size 9 to 14) (size 15 to 20)
#    1.200    0.800    2.000    1.800    0.000    1.600 
#    0.000    6.000    8.800    0.000    0.000    0.000 
#    0.000    0.000    0.000    0.000    0.000    0.000 
#
# Total GULP energy -247848.177130 kJ/mol
# GULP energy per Si atom -12392.408856 kJ/mol
# Density = 1.981152 g / cm^3
# Si number density = 19.856720 Si / 1000 Ang^3
#
#
#
# Elastic Constant Matrix: (Units=GPa)
#
#
# Indices 1 2 3 4 5 6 
#
# 1 63.5402 11.9966 17.8413 0.0000 18.0163 0.0000
# 2 11.9966 144.1484 3.2583 0.0000 10.5080 0.0000
# 3 17.8413 3.2583 46.6677 0.0000 21.2395 0.0000
# 4 0.0000 0.0000 0.0000 18.9701 0.0000 12.7745
# 5 18.0163 10.5080 21.2395 0.0000 36.6007 0.0000
# 6 0.0000 0.0000 0.0000 12.7745 0.0000 19.7735
#
#
#
# Elastic Compliance Matrix: (Units=1/GPa)
#
#
# Indices 1 2 3 4 5 6 
#
# 1 0.018979 -0.001001 -0.004165 0.000000 -0.006638 0.000000
# 2 -0.001001 0.007150 0.000807 0.000000 -0.002028 0.000000
# 3 -0.004165 0.000807 0.030081 0.000000 -0.015638 0.000000
# 4 0.000000 0.000000 0.000000 0.093308 0.000000 -0.060280
# 5 -0.006638 -0.002028 -0.015638 0.000000 0.040246 0.000000
# 6 0.000000 0.000000 0.000000 -0.060280 0.000000 0.089516
#
#
# Mechanical properties :
#
#
# Convention : Reuss Voigt Hill
#
# Bulk Modulus (GPa) = 21.05671 35.61651 28.33661
# Shear Modulus (GPa) = 16.45661 29.81953 23.13807
#
# Velocity S-wave (km/s) = 2.88196 3.87943 3.41728
# Velocity P-wave (km/s) = 4.65849 6.16784 5.46552
#
# Compressibility (1/GPa) = 0.04749079
#
# Stress axis : x y z
#
# Youngs Moduli (GPa) = 52.69089 139.85544 33.24348
#
# Poissons Ratio (x) = 0.14006 0.13845
# Poissons Ratio (y) = 0.05277 -0.02681
# Poissons Ratio (z) = 0.21944 -0.11281
#
# Static dielectric constant tensor:
#      x y z
#    x 3.408190 0.000000 0.330860 
#    y 0.000000 3.764900 0.000000 
#    z 0.330860 0.000000 3.445370 
# 
# 
# High freq. dielectric constant tensor:
#      x y z
#    x 1.755740 0.000000 0.031860 
#    y 0.000000 1.788520 0.000000 
#    z 0.031860 0.000000 1.755420 
# 
# From -- ./inp_files/94398.got.cif
#   From: 2010.06.25/outbox.cif.g09.slc.cpg/sg13_48_cif.got.tgz:94398.got - 2010.06.28 04:50:58.
