data_PCOD8119698
_publ_section_title
;
Structure prediction by ZEFSAII (Michael W. Deem and Ramdas Pophale) SiO2 
 PCOD8119698
Probable space group: P 2/C
;
_chemical_formula_sum "Si O2"
_cell_formula_units_Z 22
_cell_length_a 20.977212
_cell_length_b 8.136004
_cell_length_c 8.804054
_cell_angle_alpha 90.000000
_cell_angle_beta 141.362106
_cell_angle_gamma 90.000000
_cell_volume 938.214123
_symmetry_space_group_name_H-M "P 2/C"
_symmetry_group_IT_number 13
_symmetry_cell_setting 'monoclinic'
loop_
_space_group_symop_operation_xyz
x,y,z
-x,y,1/2-z
-x,-y,-z
x,-y,1/2+z
loop_
_atom_site_type_symbol
_atom_site_label
_atom_site_fract_x
_atom_site_fract_y
_atom_site_fract_z
Si Si1 0.000000 0.979946 0.750000
Si Si2 0.713866 0.588246 0.251900
Si Si3 0.500000 0.035339 0.250000
Si Si4 0.843364 0.416943 0.710620
Si Si5 0.949111 0.234205 0.423434
Si Si6 0.500000 0.540855 0.250000
Si Si7 0.409968 0.793846 0.292776
O O1 0.926976 0.099886 0.513719
O O2 0.933433 0.859133 0.733716
O O3 0.763157 0.425249 0.420981
O O4 0.788547 0.651511 0.259182
O O5 0.701732 0.724838 0.365764
O O6 0.601678 0.563013 0.972619
O O7 0.541726 0.141759 0.462881
O O8 0.407430 0.926260 0.151171
O O9 0.880362 0.604644 0.806885
O O10 0.933073 0.292246 0.837823
O O11 0.481267 0.646177 0.367085
#
# Coordination Sequence:
#
# PCOD8119698 Si02
#       7
#     2   4   2   4   4   2   4
#     4  10  20  40  76  90 134 170 216 262 352 392
#     4  12  23  39  64  99 126 169 218 280 320 387
#     4   9  21  40  66  82 127 181 212 264 334 399
#     4  11  24  41  68  97 136 170 225 271 341 393
#     4  10  22  44  68  99 129 175 211 280 330 406
#     4  11  23  40  64  92 127 167 220 274 314 373
#     4  10  21  40  62  87 121 171 215 264 328 378
#
# _framework density 23.448803999999999
#
# number of rings (size 3 to 8) (size 9 to 14) (size 15 to 20)
#    0.000    1.455    1.818    3.273    2.545    2.909 
#    0.000    7.273    0.000    0.000    0.000    0.000 
#    0.000    0.000    0.000    0.000    0.000    0.000 
#
# Total GULP energy -272560.495483 kJ/mol
# GULP energy per Si atom -12389.113431 kJ/mol
# Density = 2.339543 g / cm^3
# Si number density = 23.448804 Si / 1000 Ang^3
#
#
#
# Elastic Constant Matrix: (Units=GPa)
#
#
# Indices 1 2 3 4 5 6 
#
# 1 130.0265 33.2479 34.9008 0.0000 -8.1541 0.0000
# 2 33.2479 89.8582 21.3730 0.0000 -0.8224 0.0000
# 3 34.9008 21.3730 90.3009 0.0000 -1.5504 0.0000
# 4 0.0000 0.0000 0.0000 30.7008 0.0000 -6.7709
# 5 -8.1541 -0.8224 -1.5504 0.0000 39.5979 0.0000
# 6 0.0000 0.0000 0.0000 -6.7709 0.0000 58.9004
#
#
#
# Elastic Compliance Matrix: (Units=1/GPa)
#
#
# Indices 1 2 3 4 5 6 
#
# 1 0.009278 -0.002725 -0.002911 0.000000 0.001740 0.000000
# 2 -0.002725 0.012593 -0.001934 0.000000 -0.000375 0.000000
# 3 -0.002911 -0.001934 0.012655 0.000000 -0.000144 0.000000
# 4 0.000000 0.000000 0.000000 0.033420 0.000000 0.003842
# 5 0.001740 -0.000375 -0.000144 0.000000 0.025599 0.000000
# 6 0.000000 0.000000 0.000000 0.003842 0.000000 0.017419
#
#
# Mechanical properties :
#
#
# Convention : Reuss Voigt Hill
#
# Bulk Modulus (GPa) = 51.58293 54.35877 52.97085
# Shear Modulus (GPa) = 37.71731 40.55077 39.13404
#
# Velocity S-wave (km/s) = 4.01496 4.16304 4.08967
# Velocity P-wave (km/s) = 6.59841 6.80735 6.70370
#
# Compressibility (1/GPa) = 0.01938626
#
# Stress axis : x y z
#
# Youngs Moduli (GPa) = 107.78297 79.40721 79.02317
#
# Poissons Ratio (x) = 0.21635 0.23005
# Poissons Ratio (y) = 0.29366 0.15284
# Poissons Ratio (z) = 0.31377 0.15358
#
# Static dielectric constant tensor:
#      x y z
#    x 4.730550 0.000000 -0.108640 
#    y 0.000000 4.481130 0.000000 
#    z -0.108640 0.000000 4.137510 
# 
# 
# High freq. dielectric constant tensor:
#      x y z
#    x 1.945850 0.000000 -0.026020 
#    y 0.000000 1.925540 0.000000 
#    z -0.026020 0.000000 1.905380 
# 
# From -- ./inp_files/17954.got.cif
#   From: 2010.06.25/outbox.cif.g09.slc.cpg/sg13_9_cif.got.tgz:17954.got - 2010.06.28 04:50:58.
