data_PCOD8119884
_publ_section_title
;
Structure prediction by ZEFSAII (Michael W. Deem and Ramdas Pophale) SiO2 
 PCOD8119884
Probable space group: P 2/C
;
_chemical_formula_sum "Si O2"
_cell_formula_units_Z 26
_cell_length_a 9.060277
_cell_length_b 8.632841
_cell_length_c 25.911948
_cell_angle_alpha 90.000000
_cell_angle_beta 42.467015
_cell_angle_gamma 90.000000
_cell_volume 1368.376535
_symmetry_space_group_name_H-M "P 2/C"
_symmetry_group_IT_number 13
_symmetry_cell_setting 'monoclinic'
loop_
_space_group_symop_operation_xyz
x,y,z
-x,y,1/2-z
-x,-y,-z
x,-y,1/2+z
loop_
_atom_site_type_symbol
_atom_site_label
_atom_site_fract_x
_atom_site_fract_y
_atom_site_fract_z
Si Si1 0.039879 0.513921 0.626530
Si Si2 0.390734 0.674103 0.978194
Si Si3 0.000000 0.559384 0.250000
Si Si4 0.274933 0.202996 0.031982
Si Si5 0.696786 0.700205 0.164190
Si Si6 0.061536 0.919767 0.037446
Si Si7 0.476071 0.374433 0.616606
O O1 0.255344 0.407557 0.559925
O O2 0.008826 0.543349 0.695677
O O3 0.074250 0.676282 0.588497
O O4 0.824409 0.436213 0.659991
O O5 0.577924 0.783868 0.954357
O O6 0.501898 0.545077 0.913854
O O7 0.231067 0.778792 0.984229
O O8 0.779450 0.663641 0.306029
O O9 0.169883 0.034822 0.051359
O O10 0.426406 0.239566 0.943913
O O11 0.500000 0.759288 0.250000
O O12 0.614841 0.625412 0.132680
O O13 0.842039 0.852371 0.118577
O O14 0.000000 0.000000 0.000000
#
# Coordination Sequence:
#
# PCOD8119884 Si02
#       7
#     4   4   2   4   4   4   4
#     4  10  21  34  64  87 114 146 201 245 295 344
#     4  10  21  38  59  89 111 154 198 246 287 343
#     4  12  18  36  60  96 110 146 192 254 302 346
#     4  11  20  40  59  88 115 156 197 244 287 347
#     4  11  23  39  58  90 118 157 191 248 300 350
#     4  11  24  38  59  83 121 161 199 232 287 362
#     4  11  21  36  65  86 118 144 201 246 296 348
#
# _framework density 19.000617999999999
#
# number of rings (size 3 to 8) (size 9 to 14) (size 15 to 20)
#    0.000    1.231    6.154    1.385    2.154    1.846 
#    0.000    2.308    0.000    1.846    0.000    0.000 
#    0.000    0.000    0.000    0.000    0.000    0.000 
#
# Total GULP energy -322390.286949 kJ/mol
# GULP energy per Si atom -12399.626421 kJ/mol
# Density = 1.895737 g / cm^3
# Si number density = 19.000618 Si / 1000 Ang^3
#
#
#
# Elastic Constant Matrix: (Units=GPa)
#
#
# Indices 1 2 3 4 5 6 
#
# 1 117.9487 41.2264 52.5630 0.0000 -3.8299 0.0000
# 2 41.2264 78.5650 45.5358 0.0000 -9.3261 0.0000
# 3 52.5630 45.5358 121.8509 0.0000 -13.1998 0.0000
# 4 0.0000 0.0000 0.0000 16.3994 0.0000 -3.5483
# 5 -3.8299 -9.3261 -13.1998 0.0000 33.9342 0.0000
# 6 0.0000 0.0000 0.0000 -3.5483 0.0000 31.9433
#
#
#
# Elastic Compliance Matrix: (Units=1/GPa)
#
#
# Indices 1 2 3 4 5 6 
#
# 1 0.011449 -0.004101 -0.003537 0.000000 -0.001211 0.000000
# 2 -0.004101 0.017875 -0.004624 0.000000 0.002651 0.000000
# 3 -0.003537 -0.004624 0.011776 0.000000 0.002911 0.000000
# 4 0.000000 0.000000 0.000000 0.062480 0.000000 0.006940
# 5 -0.001211 0.002651 0.002911 0.000000 0.031193 0.000000
# 6 0.000000 0.000000 0.000000 0.006940 0.000000 0.032076
#
#
# Mechanical properties :
#
#
# Convention : Reuss Voigt Hill
#
# Bulk Modulus (GPa) = 60.33018 66.33498 63.33258
# Shear Modulus (GPa) = 25.39393 28.39133 26.89263
#
# Velocity S-wave (km/s) = 3.65975 3.86972 3.76620
# Velocity P-wave (km/s) = 7.04833 7.41311 7.23302
#
# Compressibility (1/GPa) = 0.01657545
#
# Stress axis : x y z
#
# Youngs Moduli (GPa) = 87.34558 55.94440 84.92056
#
# Poissons Ratio (x) = 0.22944 0.30038
# Poissons Ratio (y) = 0.35823 0.39263
# Poissons Ratio (z) = 0.30896 0.25866
#
# Static dielectric constant tensor:
#      x y z
#    x 3.683630 0.000000 -0.140300 
#    y 0.000000 3.292430 0.000000 
#    z -0.140300 0.000000 3.576840 
# 
# 
# High freq. dielectric constant tensor:
#      x y z
#    x 1.760280 0.000000 -0.009270 
#    y 0.000000 1.709310 0.000000 
#    z -0.009270 0.000000 1.737080 
# 
# From -- ./inp_files/63410.got.cif
#   From: 2010.06.25/outbox.cif.g09.slc.cpg/sg13_32_cif.got.tgz:63410.got - 2010.06.28 04:50:58.
