data_PCOD8119005
_publ_section_title
;
Structure prediction by ZEFSAII (Michael W. Deem and Ramdas Pophale) SiO2 
 PCOD8119005
Probable space group: P 2/C
;
_chemical_formula_sum "Si O2"
_cell_formula_units_Z 28
_cell_length_a 7.783855
_cell_length_b 9.272299
_cell_length_c 20.385904
_cell_angle_alpha 90.000000
_cell_angle_beta 80.436235
_cell_angle_gamma 90.000000
_cell_volume 1450.887284
_symmetry_space_group_name_H-M "P 2/C"
_symmetry_group_IT_number 13
_symmetry_cell_setting 'monoclinic'
loop_
_space_group_symop_operation_xyz
x,y,z
-x,y,1/2-z
-x,-y,-z
x,-y,1/2+z
loop_
_atom_site_type_symbol
_atom_site_label
_atom_site_fract_x
_atom_site_fract_y
_atom_site_fract_z
Si Si1 0.570191 0.142987 0.029561
Si Si2 0.264661 0.206664 0.609003
Si Si3 0.157064 0.113821 0.372253
Si Si4 0.084535 0.834017 0.310815
Si Si5 0.327148 0.618075 0.228826
Si Si6 0.194491 0.690603 0.750864
Si Si7 0.754878 0.878752 0.875468
O O1 0.731567 0.117156 0.068611
O O2 0.395971 0.209404 0.074706
O O3 0.653092 0.244076 0.967342
O O4 0.500000 0.000000 0.000000
O O5 0.335614 0.326697 0.653953
O O6 0.054464 0.215594 0.625049
O O7 0.312854 0.043095 0.627431
O O8 0.218244 0.245731 0.322307
O O9 0.946429 0.127329 0.397968
O O10 0.201107 0.960759 0.334655
O O11 0.177864 0.688662 0.282610
O O12 0.000000 0.903425 0.250000
O O13 0.500000 0.675268 0.250000
O O14 0.318185 0.445752 0.232476
O O15 0.241163 0.815830 0.697246
O O16 0.000000 0.635146 0.750000
#
# Coordination Sequence:
#
# PCOD8119005 Si02
#       7
#     4   4   4   4   4   4   4
#     4  10  22  35  56  87 121 150 187 228 279 339
#     4   9  19  39  55  80 116 146 182 230 278 337
#     4  10  20  36  62  86 113 150 189 230 290 337
#     4   9  18  36  58  83 113 144 186 240 286 333
#     4  11  23  34  56  86 110 145 191 234 288 334
#     4  10  20  38  61  82 112 148 188 241 286 330
#     4   9  20  37  60  88 115 146 190 238 284 331
#
# _framework density 19.298535999999999
#
# number of rings (size 3 to 8) (size 9 to 14) (size 15 to 20)
#    0.000    2.286    0.000    4.286    6.000    5.143 
#    0.000    0.714    0.000    2.571    0.000    0.000 
#    0.000    0.000    0.000    0.000    0.000    0.000 
#
# Total GULP energy -346914.494175 kJ/mol
# GULP energy per Si atom -12389.803363 kJ/mol
# Density = 1.925461 g / cm^3
# Si number density = 19.298536 Si / 1000 Ang^3
#
#
#
# Elastic Constant Matrix: (Units=GPa)
#
#
# Indices 1 2 3 4 5 6 
#
# 1 93.3175 23.6652 59.5356 0.0000 4.6400 0.0000
# 2 23.6652 73.0524 32.0696 0.0000 12.2278 0.0000
# 3 59.5356 32.0696 106.3457 0.0000 -2.7172 0.0000
# 4 0.0000 0.0000 0.0000 13.7633 0.0000 -0.9801
# 5 4.6400 12.2278 -2.7172 0.0000 35.2059 0.0000
# 6 0.0000 0.0000 0.0000 -0.9801 0.0000 20.0124
#
#
#
# Elastic Compliance Matrix: (Units=1/GPa)
#
#
# Indices 1 2 3 4 5 6 
#
# 1 0.017034 -0.000996 -0.009302 0.000000 -0.002617 0.000000
# 2 -0.000996 0.017142 -0.004770 0.000000 -0.006190 0.000000
# 3 -0.009302 -0.004770 0.016155 0.000000 0.004129 0.000000
# 4 0.000000 0.000000 0.000000 0.072911 0.000000 0.003571
# 5 -0.002617 -0.006190 0.004129 0.000000 0.031218 0.000000
# 6 0.000000 0.000000 0.000000 0.003571 0.000000 0.050144
#
#
# Mechanical properties :
#
#
# Convention : Reuss Voigt Hill
#
# Bulk Modulus (GPa) = 49.52083 55.91737 52.71910
# Shear Modulus (GPa) = 20.70642 24.29269 22.49955
#
# Velocity S-wave (km/s) = 3.27915 3.55178 3.41819
# Velocity P-wave (km/s) = 6.32876 6.77186 6.55405
#
# Compressibility (1/GPa) = 0.02019352
#
# Stress axis : x y z
#
# Youngs Moduli (GPa) = 58.70701 58.33772 61.90068
#
# Poissons Ratio (x) = 0.05812 0.57583
# Poissons Ratio (y) = 0.05849 0.29524
# Poissons Ratio (z) = 0.54612 0.27825
#
# Static dielectric constant tensor:
#      x y z
#    x -8.302200 0.000000 0.753180 
#    y 0.000000 3.186020 0.000000 
#    z 0.753180 0.000000 3.716570 
# 
# 
# High freq. dielectric constant tensor:
#      x y z
#    x 1.753490 0.000000 -0.015650 
#    y 0.000000 1.722920 0.000000 
#    z -0.015650 0.000000 1.747690 
# 
# From -- ./inp_files/63745.got.cif
#   From: 2010.06.25/outbox.cif.g09.slc.cpg/sg13_32_cif.got.tgz:63745.got - 2010.06.28 04:50:58.
