data_PCOD8119838
_publ_section_title
;
Structure prediction by ZEFSAII (Michael W. Deem and Ramdas Pophale) SiO2 
 PCOD8119838
Probable space group: P 2/C
;
_chemical_formula_sum "Si O2"
_cell_formula_units_Z 30
_cell_length_a 14.065344
_cell_length_b 8.736995
_cell_length_c 11.289166
_cell_angle_alpha 90.000000
_cell_angle_beta 111.671300
_cell_angle_gamma 90.000000
_cell_volume 1289.254028
_symmetry_space_group_name_H-M "P 2/C"
_symmetry_group_IT_number 13
_symmetry_cell_setting 'monoclinic'
loop_
_space_group_symop_operation_xyz
x,y,z
-x,y,1/2-z
-x,-y,-z
x,-y,1/2+z
loop_
_atom_site_type_symbol
_atom_site_label
_atom_site_fract_x
_atom_site_fract_y
_atom_site_fract_z
Si Si1 0.595641 0.069488 0.479341
Si Si2 0.708120 0.569003 0.779896
Si Si3 0.778654 0.933652 0.446811
Si Si4 0.866487 0.281235 0.181681
Si Si5 0.132302 0.404508 0.936926
Si Si6 0.063871 0.154182 0.053253
Si Si7 0.749288 0.250384 0.706958
Si Si8 0.500000 0.708495 0.750000
O O1 0.670628 0.133946 0.612616
O O2 0.553690 0.197823 0.376275
O O3 0.500000 0.000000 0.500000
O O4 0.659712 0.947001 0.429764
O O5 0.764563 0.674029 0.708099
O O6 0.692040 0.399819 0.724125
O O7 0.590352 0.611669 0.735485
O O8 0.770495 0.567187 0.932021
O O9 0.843965 0.855064 0.580711
O O10 0.799347 0.831794 0.341829
O O11 0.820422 0.103808 0.432126
O O12 0.908617 0.432168 0.131518
O O13 0.947640 0.211434 0.315362
O O14 0.160967 0.296254 0.840663
O O15 0.042617 0.307814 0.964172
O O16 0.000000 0.000000 0.000000
#
# Coordination Sequence:
#
# PCOD8119838 Si02
#       8
#     4   4   4   4   4   4   4   2
#     4  12  24  38  59  94 140 186 234 288 351 410
#     4  10  21  39  68  92 135 186 239 288 349 418
#     4  12  23  43  69 100 140 183 233 290 357 424
#     4  10  22  43  73 100 135 186 231 282 355 429
#     4  10  20  47  71 100 137 186 232 285 355 426
#     4  11  25  45  76 109 138 175 232 291 359 425
#     4  11  22  40  67  94 130 186 234 283 353 410
#     4  12  22  38  56  94 140 178 242 306 342 410
#
# _framework density 23.269271
#
# number of rings (size 3 to 8) (size 9 to 14) (size 15 to 20)
#    0.000    1.067    4.000    3.200    0.000    2.133 
#    0.000    0.667    5.867    0.000    0.000    0.000 
#    0.000    0.000    0.000    0.000    0.000    0.000 
#
# Total GULP energy -371902.574060 kJ/mol
# GULP energy per Si atom -12396.752469 kJ/mol
# Density = 2.321631 g / cm^3
# Si number density = 23.269271 Si / 1000 Ang^3
#
#
#
# Elastic Constant Matrix: (Units=GPa)
#
#
# Indices 1 2 3 4 5 6 
#
# 1 59.0001 27.3860 30.2988 0.0000 -8.6960 0.0000
# 2 27.3860 121.1982 57.2688 0.0000 -16.2999 0.0000
# 3 30.2988 57.2688 137.3951 0.0000 -21.0454 0.0000
# 4 0.0000 0.0000 0.0000 72.0718 0.0000 -13.3577
# 5 -8.6960 -16.2999 -21.0454 0.0000 36.8625 0.0000
# 6 0.0000 0.0000 0.0000 -13.3577 0.0000 46.4527
#
#
#
# Elastic Compliance Matrix: (Units=1/GPa)
#
#
# Indices 1 2 3 4 5 6 
#
# 1 0.020071 -0.002906 -0.002944 0.000000 0.001769 0.000000
# 2 -0.002906 0.010876 -0.003573 0.000000 0.002084 0.000000
# 3 -0.002944 -0.003573 0.009938 0.000000 0.003399 0.000000
# 4 0.000000 0.000000 0.000000 0.014656 0.000000 0.004214
# 5 0.001769 0.002084 0.003399 0.000000 0.030407 0.000000
# 6 0.000000 0.000000 0.000000 0.004214 0.000000 0.022739
#
#
# Mechanical properties :
#
#
# Convention : Reuss Voigt Hill
#
# Bulk Modulus (GPa) = 45.37672 60.83342 53.10507
# Shear Modulus (GPa) = 37.07014 44.58672 40.82843
#
# Velocity S-wave (km/s) = 3.99569 4.38210 4.19335
# Velocity P-wave (km/s) = 6.38987 7.19748 6.80566
#
# Compressibility (1/GPa) = 0.02203773
#
# Stress axis : x y z
#
# Youngs Moduli (GPa) = 49.82422 91.94224 100.62866
#
# Poissons Ratio (x) = 0.26721 0.29622
# Poissons Ratio (y) = 0.14480 0.35959
# Poissons Ratio (z) = 0.14667 0.32855
#
# Static dielectric constant tensor:
#      x y z
#    x 4.198420 0.000000 -0.135740 
#    y 0.000000 4.576550 0.000000 
#    z -0.135740 0.000000 4.364540 
# 
# 
# High freq. dielectric constant tensor:
#      x y z
#    x 1.921330 0.000000 -0.022520 
#    y 0.000000 1.936490 0.000000 
#    z -0.022520 0.000000 1.932850 
# 
# From -- ./inp_files/36475.got.cif
#   From: 2010.06.25/outbox.cif.g09.slc.cpg/sg13_19_cif.got.tgz:36475.got - 2010.06.28 04:50:58.
