data_PCOD8119208
_publ_section_title
;
Structure prediction by ZEFSAII (Michael W. Deem and Ramdas Pophale) SiO2 
 PCOD8119208
Probable space group: P 2/C
;
_chemical_formula_sum "Si O2"
_cell_formula_units_Z 28
_cell_length_a 21.545776
_cell_length_b 10.235357
_cell_length_c 18.426803
_cell_angle_alpha 90.000000
_cell_angle_beta 18.774336
_cell_angle_gamma 90.000000
_cell_volume 1307.848260
_symmetry_space_group_name_H-M "P 2/C"
_symmetry_group_IT_number 13
_symmetry_cell_setting 'monoclinic'
loop_
_space_group_symop_operation_xyz
x,y,z
-x,y,1/2-z
-x,-y,-z
x,-y,1/2+z
loop_
_atom_site_type_symbol
_atom_site_label
_atom_site_fract_x
_atom_site_fract_y
_atom_site_fract_z
Si Si1 0.425384 0.119149 0.671590
Si Si2 0.225585 0.227812 0.625327
Si Si3 0.222180 0.056130 0.497203
Si Si4 0.203001 0.302708 0.421757
Si Si5 0.780675 0.040175 0.741871
Si Si6 0.492072 0.464968 0.337269
Si Si7 0.580950 0.621164 0.954317
O O1 0.288017 0.053970 0.764095
O O2 0.422719 0.273853 0.657633
O O3 0.334863 0.076406 0.849449
O O4 0.646133 0.069845 0.427037
O O5 0.282444 0.107828 0.509681
O O6 0.227979 0.176487 0.704955
O O7 0.395127 0.327916 0.430315
O O8 0.029047 0.301697 0.818264
O O9 0.271762 0.166567 0.381433
O O10 0.000000 0.019522 0.750000
O O11 0.297740 0.427241 0.359602
O O12 0.262065 0.306961 0.270507
O O13 0.000000 0.000000 0.500000
O O14 0.500000 0.536557 0.250000
O O15 0.354390 0.554085 0.541349
O O16 0.500000 0.500000 0.000000
#
# Coordination Sequence:
#
# PCOD8119208 Si02
#       7
#     4   4   4   4   4   4   4
#     4  11  22  40  62  88 135 166 198 271 325 365
#     4  11  22  37  67  93 123 161 210 264 312 382
#     4  10  20  37  65  95 123 164 208 262 329 385
#     4  10  20  39  64  94 125 155 208 267 318 373
#     4  11  22  37  63 100 124 159 210 261 327 388
#     4  11  22  39  63  90 122 168 220 254 306 378
#     4  10  22  41  64  87 124 174 211 254 309 373
#
# _framework density 21.409210999999999
#
# number of rings (size 3 to 8) (size 9 to 14) (size 15 to 20)
#    0.000    1.429    1.429    6.857    0.000    0.571 
#    2.571    2.857    6.286    0.000    0.000    0.000 
#    0.000    0.000    0.000    0.000    0.000    0.000 
#
# Total GULP energy -346897.396726 kJ/mol
# GULP energy per Si atom -12389.192740 kJ/mol
# Density = 2.136048 g / cm^3
# Si number density = 21.409211 Si / 1000 Ang^3
#
#
#
# Elastic Constant Matrix: (Units=GPa)
#
#
# Indices 1 2 3 4 5 6 
#
# 1 104.1048 17.6965 43.8455 0.0000 20.3653 0.0000
# 2 17.6965 73.3103 36.3448 0.0000 11.8886 0.0000
# 3 43.8455 36.3448 100.4084 0.0000 9.6663 0.0000
# 4 0.0000 0.0000 0.0000 27.0437 0.0000 23.9939
# 5 20.3653 11.8886 9.6663 0.0000 41.3063 0.0000
# 6 0.0000 0.0000 0.0000 23.9939 0.0000 33.8588
#
#
#
# Elastic Compliance Matrix: (Units=1/GPa)
#
#
# Indices 1 2 3 4 5 6 
#
# 1 0.012745 0.000334 -0.005189 0.000000 -0.005165 0.000000
# 2 0.000334 0.017129 -0.005990 0.000000 -0.003693 0.000000
# 3 -0.005189 -0.005990 0.014303 0.000000 0.000935 0.000000
# 4 0.000000 0.000000 0.000000 0.099597 0.000000 -0.070579
# 5 -0.005165 -0.003693 0.000935 0.000000 0.027600 0.000000
# 6 0.000000 0.000000 0.000000 -0.070579 0.000000 0.079550
#
#
# Mechanical properties :
#
#
# Convention : Reuss Voigt Hill
#
# Bulk Modulus (GPa) = 44.47210 52.62190 48.54700
# Shear Modulus (GPa) = 17.85007 32.43754 25.14380
#
# Velocity S-wave (km/s) = 2.89062 3.89668 3.43073
# Velocity P-wave (km/s) = 5.65318 6.69910 6.19824
#
# Compressibility (1/GPa) = 0.02248601
#
# Stress axis : x y z
#
# Youngs Moduli (GPa) = 78.46344 58.38146 69.91354
#
# Poissons Ratio (x) = -0.01948 0.36277
# Poissons Ratio (y) = -0.02618 0.41880
# Poissons Ratio (z) = 0.40713 0.34972
#
# Static dielectric constant tensor:
#      x y z
#    x 3.534810 0.000000 0.100590 
#    y 0.000000 3.333340 0.000000 
#    z 0.100590 0.000000 3.849900 
# 
# 
# High freq. dielectric constant tensor:
#      x y z
#    x 1.847490 0.000000 0.015260 
#    y 0.000000 1.815830 0.000000 
#    z 0.015260 0.000000 1.833880 
# 
# From -- ./inp_files/70676.got.cif
#   From: 2010.06.25/outbox.cif.g09.slc.cpg/sg13_36_cif.got.tgz:70676.got - 2010.06.28 04:50:58.
