data_PCOD8119711
_publ_section_title
;
Structure prediction by ZEFSAII (Michael W. Deem and Ramdas Pophale) SiO2 
 PCOD8119711
Probable space group: P 2/C
;
_chemical_formula_sum "Si O2"
_cell_formula_units_Z 28
_cell_length_a 26.478433
_cell_length_b 8.875848
_cell_length_c 9.107641
_cell_angle_alpha 90.000000
_cell_angle_beta 140.411297
_cell_angle_gamma 90.000000
_cell_volume 1364.058244
_symmetry_space_group_name_H-M "P 2/C"
_symmetry_group_IT_number 13
_symmetry_cell_setting 'monoclinic'
loop_
_space_group_symop_operation_xyz
x,y,z
-x,y,1/2-z
-x,-y,-z
x,-y,1/2+z
loop_
_atom_site_type_symbol
_atom_site_label
_atom_site_fract_x
_atom_site_fract_y
_atom_site_fract_z
Si Si1 0.870767 0.845274 0.126563
Si Si2 0.449922 0.186131 0.012504
Si Si3 0.714063 0.343399 0.295525
Si Si4 0.855610 0.162524 0.248412
Si Si5 0.297504 0.351640 0.565055
Si Si6 0.992170 0.337781 0.410174
Si Si7 0.563274 0.146944 0.005594
O O1 0.944645 0.773878 0.376291
O O2 0.857579 0.008040 0.165120
O O3 0.794346 0.748267 0.991979
O O4 0.886627 0.854653 0.986245
O O5 0.500000 0.270994 0.250000
O O6 0.520244 0.147244 0.061756
O O7 0.383292 0.297410 0.807388
O O8 0.412696 0.025671 0.983009
O O9 0.727138 0.495531 0.413020
O O10 0.642032 0.245348 0.195549
O O11 0.696594 0.389954 0.091383
O O12 0.906358 0.279665 0.266819
O O13 0.765695 0.220754 0.046176
O O14 0.000000 0.344394 0.250000
O O15 0.000000 0.500000 0.500000
O O16 0.500000 0.216163 0.750000
#
# Coordination Sequence:
#
# PCOD8119711 Si02
#       7
#     4   4   4   4   4   4   4
#     4  11  24  44  68  97 129 168 215 260 316 374
#     4  10  22  39  63  91 117 164 209 259 313 376
#     4  11  25  41  62  90 126 166 206 262 313 375
#     4  11  24  44  69  96 129 168 213 264 312 379
#     4  11  25  42  60  91 127 163 211 256 318 373
#     4  12  25  44  69 100 135 171 210 257 315 374
#     4  10  20  41  63  86 124 159 208 259 314 369
#
# _framework density 20.526982
#
# number of rings (size 3 to 8) (size 9 to 14) (size 15 to 20)
#    0.000    1.143    1.429    4.286    2.000    5.714 
#    0.000    0.000    0.000    0.000    0.000    0.000 
#    0.000    0.000    0.000    0.000    0.000    0.000 
#
# Total GULP energy -347160.536183 kJ/mol
# GULP energy per Si atom -12398.590578 kJ/mol
# Density = 2.048026 g / cm^3
# Si number density = 20.526982 Si / 1000 Ang^3
#
#
#
# Elastic Constant Matrix: (Units=GPa)
#
#
# Indices 1 2 3 4 5 6 
#
# 1 112.2265 45.6660 44.3972 0.0000 -15.7482 0.0000
# 2 45.6660 115.1720 25.5745 0.0000 -14.9526 0.0000
# 3 44.3972 25.5745 90.6383 0.0000 -16.2534 0.0000
# 4 0.0000 0.0000 0.0000 36.2504 0.0000 -2.0928
# 5 -15.7482 -14.9526 -16.2534 0.0000 34.5321 0.0000
# 6 0.0000 0.0000 0.0000 -2.0928 0.0000 47.8504
#
#
#
# Elastic Compliance Matrix: (Units=1/GPa)
#
#
# Indices 1 2 3 4 5 6 
#
# 1 0.012561 -0.003674 -0.004777 0.000000 0.001889 0.000000
# 2 -0.003674 0.010639 -0.000739 0.000000 0.002583 0.000000
# 3 -0.004777 -0.000739 0.014344 0.000000 0.004253 0.000000
# 4 0.000000 0.000000 0.000000 0.027656 0.000000 0.001210
# 5 0.001889 0.002583 0.004253 0.000000 0.032940 0.000000
# 6 0.000000 0.000000 0.000000 0.001210 0.000000 0.020951
#
#
# Mechanical properties :
#
#
# Convention : Reuss Voigt Hill
#
# Bulk Modulus (GPa) = 52.18408 61.03469 56.60938
# Shear Modulus (GPa) = 34.75630 37.21986 35.98808
#
# Velocity S-wave (km/s) = 4.11932 4.26281 4.19168
# Velocity P-wave (km/s) = 6.93559 7.35032 7.14596
#
# Compressibility (1/GPa) = 0.01916293
#
# Stress axis : x y z
#
# Youngs Moduli (GPa) = 79.61458 93.99387 69.71602
#
# Poissons Ratio (x) = 0.34536 0.33304
# Poissons Ratio (y) = 0.29253 0.05151
# Poissons Ratio (z) = 0.38032 0.06945
#
# Static dielectric constant tensor:
#      x y z
#    x 3.883080 0.000000 -0.044120 
#    y 0.000000 3.807040 0.000000 
#    z -0.044120 0.000000 3.794230 
# 
# 
# High freq. dielectric constant tensor:
#      x y z
#    x 1.816240 0.000000 -0.002590 
#    y 0.000000 1.807900 0.000000 
#    z -0.002590 0.000000 1.816890 
# 
# From -- ./inp_files/24594.got.cif
#   From: 2010.06.25/outbox.cif.g09.slc.cpg/sg13_13_cif.got.tgz:24594.got - 2010.06.28 04:50:58.
