data_PCOD8119765
_publ_section_title
;
Structure prediction by ZEFSAII (Michael W. Deem and Ramdas Pophale) SiO2 
 PCOD8119765
Probable space group: P 2/C
;
_chemical_formula_sum "Si O2"
_cell_formula_units_Z 26
_cell_length_a 15.409360
_cell_length_b 9.104371
_cell_length_c 13.471158
_cell_angle_alpha 90.000000
_cell_angle_beta 43.970410
_cell_angle_gamma 90.000000
_cell_volume 1312.134559
_symmetry_space_group_name_H-M "P 2/C"
_symmetry_group_IT_number 13
_symmetry_cell_setting 'monoclinic'
loop_
_space_group_symop_operation_xyz
x,y,z
-x,y,1/2-z
-x,-y,-z
x,-y,1/2+z
loop_
_atom_site_type_symbol
_atom_site_label
_atom_site_fract_x
_atom_site_fract_y
_atom_site_fract_z
Si Si1 0.202088 0.041914 0.820734
Si Si2 0.754117 0.499967 0.401199
Si Si3 0.378234 0.446458 0.294097
Si Si4 0.613620 0.298336 0.865095
Si Si5 0.660547 0.756178 0.849427
Si Si6 0.036356 0.913527 0.116212
Si Si7 0.000000 0.634516 0.250000
O O1 0.294809 0.178286 0.757712
O O2 0.082666 0.089989 0.857011
O O3 0.274436 0.913523 0.703851
O O4 0.155638 0.991175 0.967944
O O5 0.722963 0.498897 0.543505
O O6 0.675523 0.625253 0.409551
O O7 0.730086 0.340933 0.374830
O O8 0.901398 0.533881 0.272445
O O9 0.500000 0.386575 0.250000
O O10 0.419515 0.581517 0.190332
O O11 0.321997 0.317268 0.272938
O O12 0.485126 0.223254 0.004892
O O13 0.070521 0.742887 0.113011
O O14 0.000000 0.995485 0.250000
#
# Coordination Sequence:
#
# PCOD8119765 Si02
#       7
#     4   4   4   4   4   4   2
#     4  11  22  40  62  91 122 162 200 248 313 362
#     4  11  21  41  61  90 122 160 205 253 298 361
#     4  11  20  39  62  84 124 164 200 247 306 357
#     4  11  21  40  63  88 128 160 194 256 308 363
#     4  11  23  37  62  95 123 156 204 253 306 363
#     4   9  21  42  62  80 124 162 203 248 299 357
#     4  10  20  42  64  86 116 170 204 254 294 364
#
# _framework density 19.81504
#
# number of rings (size 3 to 8) (size 9 to 14) (size 15 to 20)
#    0.462    0.923    4.615    2.308    0.000    1.231 
#    6.923    3.077    0.000    0.000    0.000    0.000 
#    0.000    0.000    0.000    0.000    0.000    0.000 
#
# Total GULP energy -322397.982636 kJ/mol
# GULP energy per Si atom -12399.922409 kJ/mol
# Density = 1.976994 g / cm^3
# Si number density = 19.815040 Si / 1000 Ang^3
#
#
#
# Elastic Constant Matrix: (Units=GPa)
#
#
# Indices 1 2 3 4 5 6 
#
# 1 72.7072 7.7825 20.7794 0.0000 -0.1531 0.0000
# 2 7.7825 53.5526 9.3680 0.0000 -10.9555 0.0000
# 3 20.7794 9.3680 89.1074 0.0000 6.5341 0.0000
# 4 0.0000 0.0000 0.0000 32.4059 0.0000 -5.9253
# 5 -0.1531 -10.9555 6.5341 0.0000 34.0441 0.0000
# 6 0.0000 0.0000 0.0000 -5.9253 0.0000 13.0059
#
#
#
# Elastic Compliance Matrix: (Units=1/GPa)
#
#
# Indices 1 2 3 4 5 6 
#
# 1 0.014868 -0.001537 -0.003321 0.000000 0.000210 0.000000
# 2 -0.001537 0.020765 -0.002347 0.000000 0.007126 0.000000
# 3 -0.003321 -0.002347 0.012476 0.000000 -0.003165 0.000000
# 4 0.000000 0.000000 0.000000 0.033663 0.000000 0.015336
# 5 0.000210 0.007126 -0.003165 0.000000 0.032275 0.000000
# 6 0.000000 0.000000 0.000000 0.015336 0.000000 0.083875
#
#
# Mechanical properties :
#
#
# Convention : Reuss Voigt Hill
#
# Bulk Modulus (GPa) = 29.67489 32.35857 31.01673
# Shear Modulus (GPa) = 22.36494 27.72034 25.04264
#
# Velocity S-wave (km/s) = 3.36324 3.74432 3.55888
# Velocity P-wave (km/s) = 5.48546 5.92106 5.70742
#
# Compressibility (1/GPa) = 0.03369852
#
# Stress axis : x y z
#
# Youngs Moduli (GPa) = 67.25926 48.15820 80.15607
#
# Poissons Ratio (x) = 0.07401 0.26619
# Poissons Ratio (y) = 0.10337 0.18814
# Poissons Ratio (z) = 0.22336 0.11304
#
# Static dielectric constant tensor:
#      x y z
#    x 3.569310 0.000000 0.113610 
#    y 0.000000 3.415400 0.000000 
#    z 0.113610 0.000000 3.677240 
# 
# 
# High freq. dielectric constant tensor:
#      x y z
#    x 1.774610 0.000000 0.000660 
#    y 0.000000 1.755510 0.000000 
#    z 0.000660 0.000000 1.778830 
# 
# From -- ./inp_files/53323.got.cif
#   From: 2010.06.25/outbox.cif.g09.slc.cpg/sg13_27_cif.got.tgz:53323.got - 2010.06.28 04:50:58.
