data_PCOD8119199
_publ_section_title
;
Structure prediction by ZEFSAII (Michael W. Deem and Ramdas Pophale) SiO2 
 PCOD8119199
Probable space group: P 2/C
;
_chemical_formula_sum "Si O2"
_cell_formula_units_Z 28
_cell_length_a 9.270237
_cell_length_b 14.291653
_cell_length_c 13.782686
_cell_angle_alpha 90.000000
_cell_angle_beta 51.752275
_cell_angle_gamma 90.000000
_cell_volume 1434.054698
_symmetry_space_group_name_H-M "P 2/C"
_symmetry_group_IT_number 13
_symmetry_cell_setting 'monoclinic'
loop_
_space_group_symop_operation_xyz
x,y,z
-x,y,1/2-z
-x,-y,-z
x,-y,1/2+z
loop_
_atom_site_type_symbol
_atom_site_label
_atom_site_fract_x
_atom_site_fract_y
_atom_site_fract_z
Si Si1 0.926337 0.081429 0.386767
Si Si2 0.492790 0.333539 0.099316
Si Si3 0.163846 0.289360 0.105874
Si Si4 0.500000 0.506413 0.750000
Si Si5 0.088810 0.726645 0.110209
Si Si6 0.826682 0.094630 0.033224
Si Si7 0.500000 0.807317 0.750000
Si Si8 0.878107 0.410193 0.565394
O O1 0.815990 0.179536 0.430593
O O2 0.000000 0.056516 0.250000
O O3 0.093999 0.078662 0.392637
O O4 0.799373 0.997018 0.477820
O O5 0.354926 0.332724 0.065752
O O6 0.502594 0.433371 0.149415
O O7 0.398952 0.261190 0.215168
O O8 0.696215 0.303308 0.979499
O O9 0.000000 0.302452 0.250000
O O10 0.111547 0.347120 0.033800
O O11 0.673562 0.438321 0.679918
O O12 0.000000 0.745276 0.250000
O O13 0.966536 0.645771 0.116175
O O14 0.057557 0.824000 0.066879
O O15 0.622117 0.127877 0.133300
O O16 0.000000 0.500000 0.500000
#
# Coordination Sequence:
#
# PCOD8119199 Si02
#       8
#     4   4   4   2   4   4   2   4
#     4  10  20  37  64  92 125 163 209 254 314 377
#     4  10  22  41  66  89 123 170 212 261 316 376
#     4  11  23  40  65  95 125 163 214 262 316 375
#     4  11  24  42  65  90 134 166 223 264 321 378
#     4  11  24  43  64  92 129 171 210 261 325 379
#     4  10  20  39  62  93 125 168 205 257 316 382
#     4   9  18  36  63  86 122 164 205 250 305 370
#     4  12  25  43  64  93 126 169 214 269 314 383
#
# _framework density 19.525058000000001
#
# number of rings (size 3 to 8) (size 9 to 14) (size 15 to 20)
#    0.000    1.429    2.857    3.000    4.000    2.286 
#    0.000   10.000    0.000    0.000    0.000    0.000 
#    0.000    0.000    0.000    0.000    0.000    0.000 
#
# Total GULP energy -347101.442571 kJ/mol
# GULP energy per Si atom -12396.480092 kJ/mol
# Density = 1.948062 g / cm^3
# Si number density = 19.525058 Si / 1000 Ang^3
#
#
#
# Elastic Constant Matrix: (Units=GPa)
#
#
# Indices 1 2 3 4 5 6 
#
# 1 88.3744 30.9703 38.4130 0.0000 -0.2331 0.0000
# 2 30.9703 112.8812 57.5568 0.0000 -1.8686 0.0000
# 3 38.4130 57.5568 122.9600 0.0000 3.6978 0.0000
# 4 0.0000 0.0000 0.0000 24.5341 0.0000 1.3545
# 5 -0.2331 -1.8686 3.6978 0.0000 37.1412 0.0000
# 6 0.0000 0.0000 0.0000 1.3545 0.0000 27.5326
#
#
#
# Elastic Compliance Matrix: (Units=1/GPa)
#
#
# Indices 1 2 3 4 5 6 
#
# 1 0.013442 -0.002019 -0.003264 0.000000 0.000308 0.000000
# 2 -0.002019 0.011987 -0.005013 0.000000 0.001089 0.000000
# 3 -0.003264 -0.005013 0.011542 0.000000 -0.001422 0.000000
# 4 0.000000 0.000000 0.000000 0.040871 0.000000 -0.002011
# 5 0.000308 0.001089 -0.001422 0.000000 0.027123 0.000000
# 6 0.000000 0.000000 0.000000 -0.002011 0.000000 0.036420
#
#
# Mechanical properties :
#
#
# Convention : Reuss Voigt Hill
#
# Bulk Modulus (GPa) = 61.05102 64.23286 62.64194
# Shear Modulus (GPa) = 29.86236 30.99327 30.42781
#
# Velocity S-wave (km/s) = 3.91505 3.98849 3.95194
# Velocity P-wave (km/s) = 7.19532 7.36069 7.27848
#
# Compressibility (1/GPa) = 0.01637974
#
# Stress axis : x y z
#
# Youngs Moduli (GPa) = 74.39143 83.42435 86.64279
#
# Poissons Ratio (x) = 0.16842 0.28277
# Poissons Ratio (y) = 0.15019 0.43435
# Poissons Ratio (z) = 0.24279 0.41821
#
# Static dielectric constant tensor:
#      x y z
#    x 3.480990 0.000000 0.143970 
#    y 0.000000 3.943410 0.000000 
#    z 0.143970 0.000000 3.540570 
# 
# 
# High freq. dielectric constant tensor:
#      x y z
#    x 1.758870 0.000000 0.010610 
#    y 0.000000 1.773770 0.000000 
#    z 0.010610 0.000000 1.760430 
# 
# From -- ./inp_files/47649.got.cif
#   From: 2010.06.25/outbox.cif.g09.slc.cpg/sg13_24_cif.got.tgz:47649.got - 2010.06.28 04:50:58.
