data_PCOD8119600
_publ_section_title
;
Structure prediction by ZEFSAII (Michael W. Deem and Ramdas Pophale) SiO2 
 PCOD8119600
Probable space group: P 2/C
;
_chemical_formula_sum "Si O2"
_cell_formula_units_Z 16
_cell_length_a 7.493631
_cell_length_b 16.438252
_cell_length_c 8.966687
_cell_angle_alpha 90.000000
_cell_angle_beta 55.726950
_cell_angle_gamma 90.000000
_cell_volume 912.748130
_symmetry_space_group_name_H-M "P 2/C"
_symmetry_group_IT_number 13
_symmetry_cell_setting 'monoclinic'
loop_
_space_group_symop_operation_xyz
x,y,z
-x,y,1/2-z
-x,-y,-z
x,-y,1/2+z
loop_
_atom_site_type_symbol
_atom_site_label
_atom_site_fract_x
_atom_site_fract_y
_atom_site_fract_z
Si Si1 0.923116 0.579410 0.952665
Si Si2 0.500000 0.364516 0.750000
Si Si3 0.241492 0.097292 0.882143
Si Si4 0.000000 0.994633 0.750000
Si Si5 0.118933 0.729325 0.347233
O O1 0.000000 0.576483 0.750000
O O2 0.660782 0.579805 0.076310
O O3 0.000000 0.500000 0.000000
O O4 0.010780 0.661862 0.992656
O O5 0.359022 0.307455 0.704393
O O6 0.500000 0.097789 0.750000
O O7 0.141587 0.187513 0.927542
O O8 0.162686 0.059278 0.074716
O O9 0.151527 0.048755 0.783047
O O10 0.000000 0.746603 0.250000
#
# Coordination Sequence:
#
# PCOD8119600 Si02
#       5
#     4   2   4   2   4
#     4  10  21  39  60  86 116 147 192 239 279 343
#     4   8  22  38  60  84 116 152 188 236 292 324
#     4  11  20  39  60  83 121 150 193 237 291 336
#     4  10  24  34  60  90 112 154 192 240 286 348
#     4  10  20  40  61  82 119 156 190 236 286 339
#
# _framework density 17.529482000000002
#
# number of rings (size 3 to 8) (size 9 to 14) (size 15 to 20)
#    1.500    0.500    2.500    1.500    1.750    1.000 
#    0.000    0.000    0.000    0.000    0.000    0.000 
#    0.000    0.000    0.000    0.000    0.000    0.000 
#
# Total GULP energy -198228.032348 kJ/mol
# GULP energy per Si atom -12389.252022 kJ/mol
# Density = 1.748958 g / cm^3
# Si number density = 17.529482 Si / 1000 Ang^3
#
#
#
# Elastic Constant Matrix: (Units=GPa)
#
#
# Indices 1 2 3 4 5 6 
#
# 1 97.5675 47.1774 45.2307 0.0000 -0.9996 0.0000
# 2 47.1774 154.8134 65.3264 0.0000 3.6686 0.0000
# 3 45.2307 65.3264 129.6115 0.0000 3.2780 0.0000
# 4 0.0000 0.0000 0.0000 26.0705 0.0000 -7.2276
# 5 -0.9996 3.6686 3.2780 0.0000 24.7229 0.0000
# 6 0.0000 0.0000 0.0000 -7.2276 0.0000 41.5525
#
#
#
# Elastic Compliance Matrix: (Units=1/GPa)
#
#
# Indices 1 2 3 4 5 6 
#
# 1 0.013048 -0.002632 -0.003261 0.000000 0.001350 0.000000
# 2 -0.002632 0.008746 -0.003466 0.000000 -0.000945 0.000000
# 3 -0.003261 -0.003466 0.010626 0.000000 -0.001026 0.000000
# 4 0.000000 0.000000 0.000000 0.040301 0.000000 0.007010
# 5 0.001350 -0.000945 -0.001026 0.000000 0.040779 0.000000
# 6 0.000000 0.000000 0.000000 0.007010 0.000000 0.025285
#
#
# Mechanical properties :
#
#
# Convention : Reuss Voigt Hill
#
# Bulk Modulus (GPa) = 72.97948 77.49570 75.23759
# Shear Modulus (GPa) = 30.85082 33.41971 32.13526
#
# Velocity S-wave (km/s) = 4.19971 4.37107 4.28625
# Velocity P-wave (km/s) = 8.07710 8.35343 8.21643
#
# Compressibility (1/GPa) = 0.01370248
#
# Stress axis : x y z
#
# Youngs Moduli (GPa) = 76.64303 114.33296 94.10807
#
# Poissons Ratio (x) = 0.30094 0.30686
# Poissons Ratio (y) = 0.20174 0.32617
# Poissons Ratio (z) = 0.24991 0.39627
#
# Static dielectric constant tensor:
#      x y z
#    x 3.225150 0.000000 -0.059730 
#    y 0.000000 3.972900 0.000000 
#    z -0.059730 0.000000 3.042090 
# 
# 
# High freq. dielectric constant tensor:
#      x y z
#    x 1.679390 0.000000 0.001430 
#    y 0.000000 1.693990 0.000000 
#    z 0.001430 0.000000 1.661230 
# 
# From -- ./inp_files/8925.got.cif
#   From: 2010.06.25/outbox.cif.g09.slc.cpg/sg13_5_cif.got.tgz:8925.got - 2010.06.28 04:50:58.
