data_PCOD8119453
_publ_section_title
;
Structure prediction by ZEFSAII (Michael W. Deem and Ramdas Pophale) SiO2 
 PCOD8119453
Probable space group: P 2/C
;
_chemical_formula_sum "Si O2"
_cell_formula_units_Z 26
_cell_length_a 18.974235
_cell_length_b 9.341657
_cell_length_c 8.606821
_cell_angle_alpha 90.000000
_cell_angle_beta 53.108066
_cell_angle_gamma 90.000000
_cell_volume 1220.100557
_symmetry_space_group_name_H-M "P 2/C"
_symmetry_group_IT_number 13
_symmetry_cell_setting 'monoclinic'
loop_
_space_group_symop_operation_xyz
x,y,z
-x,y,1/2-z
-x,-y,-z
x,-y,1/2+z
loop_
_atom_site_type_symbol
_atom_site_label
_atom_site_fract_x
_atom_site_fract_y
_atom_site_fract_z
Si Si1 0.266230 0.625340 0.780022
Si Si2 0.780183 0.936445 0.126881
Si Si3 0.133270 0.829892 0.801126
Si Si4 0.500000 0.956708 0.750000
Si Si5 0.614855 0.870369 0.869160
Si Si6 0.021358 0.653675 0.404433
Si Si7 0.226845 0.334616 0.681801
O O1 0.180739 0.693171 0.814153
O O2 0.353857 0.713299 0.613230
O O3 0.265246 0.458749 0.741009
O O4 0.267847 0.639420 0.961778
O O5 0.739687 0.814973 0.292200
O O6 0.856810 0.028388 0.108105
O O7 0.699731 0.042014 0.192259
O O8 0.824739 0.860020 0.921461
O O9 0.031604 0.778986 0.932745
O O10 0.544666 0.857501 0.822125
O O11 0.573424 0.056673 0.574742
O O12 0.122385 0.680124 0.307989
O O13 0.000000 0.661459 0.250000
O O14 0.000000 0.500000 0.500000
#
# Coordination Sequence:
#
# PCOD8119453 Si02
#       7
#     4   4   4   2   4   4   4
#     4  11  22  40  64  92 124 173 220 264 315 402
#     4  11  24  41  65  95 130 172 219 272 323 394
#     4  11  23  41  62  89 129 170 225 274 328 370
#     4  10  20  38  72 102 128 160 196 266 336 392
#     4  10  21  41  67  98 129 161 208 259 326 401
#     4  12  25  42  62  88 128 174 228 285 317 375
#     4  12  23  40  64  89 127 176 222 272 327 368
#
# _framework density 21.309719999999999
#
# number of rings (size 3 to 8) (size 9 to 14) (size 15 to 20)
#    0.000    0.923    3.077    5.538    2.154    0.615 
#    0.000    0.000    0.000   15.692    0.000    0.000 
#    0.000    0.000    0.000    0.000    0.000    0.000 
#
# Total GULP energy -322402.019466 kJ/mol
# GULP energy per Si atom -12400.077672 kJ/mol
# Density = 2.126122 g / cm^3
# Si number density = 21.309720 Si / 1000 Ang^3
#
#
#
# Elastic Constant Matrix: (Units=GPa)
#
#
# Indices 1 2 3 4 5 6 
#
# 1 76.3326 34.8655 15.9562 0.0000 -1.6340 0.0000
# 2 34.8655 124.2038 16.5085 0.0000 -2.7615 0.0000
# 3 15.9562 16.5085 93.4655 0.0000 5.7455 0.0000
# 4 0.0000 0.0000 0.0000 16.3244 0.0000 -13.6062
# 5 -1.6340 -2.7615 5.7455 0.0000 36.6038 0.0000
# 6 0.0000 0.0000 0.0000 -13.6062 0.0000 3.4503
#
#
#
# Elastic Compliance Matrix: (Units=1/GPa)
#
#
# Indices 1 2 3 4 5 6 
#
# 1 0.015368 -0.004039 -0.001952 0.000000 0.000688 0.000000
# 2 -0.004039 0.009333 -0.001001 0.000000 0.000681 0.000000
# 3 -0.001952 -0.001001 0.011329 0.000000 -0.001941 0.000000
# 4 0.000000 0.000000 0.000000 -0.026786 0.000000 -0.105633
# 5 0.000688 0.000681 -0.001941 0.000000 0.027706 0.000000
# 6 0.000000 0.000000 0.000000 -0.105633 0.000000 -0.126735
#
#
# Mechanical properties :
#
#
# Convention : Reuss Voigt Hill
#
# Bulk Modulus (GPa) = 45.36153 47.62916 46.49534
# Shear Modulus (GPa) = -73.04454 26.38712 -23.32871
#
# Velocity S-wave (km/s) = -5.86106 3.52272 -3.31228
# Velocity P-wave (km/s) = 4.94668 6.24063 2.69034
#
# Compressibility (1/GPa) = 0.02204511
#
# Stress axis : x y z
#
# Youngs Moduli (GPa) = 65.06853 107.14299 88.27264
#
# Poissons Ratio (x) = 0.43278 0.17235
# Poissons Ratio (y) = 0.26283 0.08834
# Poissons Ratio (z) = 0.12705 0.10723
#
# Static dielectric constant tensor:
#      x y z
#    x 3.888980 0.000000 0.055110 
#    y 0.000000 4.372930 0.000000 
#    z 0.055110 0.000000 3.881000 
# 
# 
# High freq. dielectric constant tensor:
#      x y z
#    x 1.832330 0.000000 0.012120 
#    y 0.000000 1.837120 0.000000 
#    z 0.012120 0.000000 1.838050 
# 
# From -- ./inp_files/22730.got.cif
#   From: 2010.06.25/outbox.cif.g09.slc.cpg/sg13_12_cif.got.tgz:22730.got - 2010.06.28 04:50:58.
