data_PCOD8119738
_publ_section_title
;
Structure prediction by ZEFSAII (Michael W. Deem and Ramdas Pophale) SiO2 
 PCOD8119738
Probable space group: P 2/C
;
_chemical_formula_sum "Si O2"
_cell_formula_units_Z 28
_cell_length_a 18.117840
_cell_length_b 9.220063
_cell_length_c 14.016231
_cell_angle_alpha 90.000000
_cell_angle_beta 32.407657
_cell_angle_gamma 90.000000
_cell_volume 1254.837313
_symmetry_space_group_name_H-M "P 2/C"
_symmetry_group_IT_number 13
_symmetry_cell_setting 'monoclinic'
loop_
_space_group_symop_operation_xyz
x,y,z
-x,y,1/2-z
-x,-y,-z
x,-y,1/2+z
loop_
_atom_site_type_symbol
_atom_site_label
_atom_site_fract_x
_atom_site_fract_y
_atom_site_fract_z
Si Si1 0.249356 0.208166 0.607734
Si Si2 0.280941 0.396677 0.396808
Si Si3 0.737809 0.310871 0.302319
Si Si4 0.349388 0.105015 0.955962
Si Si5 0.038326 0.669427 0.473501
Si Si6 0.437008 0.560158 0.970686
Si Si7 0.849366 0.303982 0.451292
O O1 0.250493 0.265343 0.499154
O O2 0.100092 0.250724 0.813643
O O3 0.373556 0.277483 0.536518
O O4 0.268490 0.038014 0.575652
O O5 0.270099 0.330792 0.302320
O O6 0.438381 0.451352 0.240772
O O7 0.181920 0.527521 0.534419
O O8 0.635895 0.191646 0.459579
O O9 0.696171 0.459114 0.404471
O O10 0.891698 0.260939 0.162485
O O11 0.500000 0.069965 0.750000
O O12 0.262947 0.196040 0.971499
O O13 0.149718 0.703115 0.434383
O O14 0.000000 0.500000 0.500000
O O15 0.500000 0.500000 0.000000
O O16 0.000000 0.263878 0.250000
#
# Coordination Sequence:
#
# PCOD8119738 Si02
#       7
#     4   4   4   4   4   4   4
#     4  12  26  44  70 104 149 190 239 302 369 449
#     4  11  23  40  72 104 135 187 251 308 365 428
#     4  11  23  43  70 102 140 190 245 306 367 426
#     4  12  28  49  69 104 153 198 238 299 375 451
#     4  12  22  46  74 106 140 185 251 311 362 427
#     4  10  20  41  68 100 132 180 245 302 353 417
#     4  12  24  45  74 106 141 190 245 304 371 438
#
# _framework density 22.313649999999999
#
# number of rings (size 3 to 8) (size 9 to 14) (size 15 to 20)
#    0.000    0.571    4.286    4.714    0.000    2.857 
#    2.571    4.286    0.000    0.000    0.000    0.000 
#    0.000    0.000    0.000    0.000    0.000    0.000 
#
# Total GULP energy -346899.964708 kJ/mol
# GULP energy per Si atom -12389.284454 kJ/mol
# Density = 2.226286 g / cm^3
# Si number density = 22.313650 Si / 1000 Ang^3
#
#
#
# Elastic Constant Matrix: (Units=GPa)
#
#
# Indices 1 2 3 4 5 6 
#
# 1 111.4052 45.1421 18.4739 0.0000 4.9933 0.0000
# 2 45.1421 134.0255 43.7337 0.0000 14.4860 0.0000
# 3 18.4739 43.7337 121.5665 0.0000 -10.6468 0.0000
# 4 0.0000 0.0000 0.0000 37.8266 0.0000 -1.5330
# 5 4.9933 14.4860 -10.6468 0.0000 33.2299 0.0000
# 6 0.0000 0.0000 0.0000 -1.5330 0.0000 22.5335
#
#
#
# Elastic Compliance Matrix: (Units=1/GPa)
#
#
# Indices 1 2 3 4 5 6 
#
# 1 0.010411 -0.003352 -0.000396 0.000000 -0.000230 0.000000
# 2 -0.003352 0.010347 -0.003667 0.000000 -0.005182 0.000000
# 3 -0.000396 -0.003667 0.010032 0.000000 0.004872 0.000000
# 4 0.000000 0.000000 0.000000 0.026510 0.000000 0.001803
# 5 -0.000230 -0.005182 0.004872 0.000000 0.033948 0.000000
# 6 0.000000 0.000000 0.000000 0.001803 0.000000 0.044501
#
#
# Mechanical properties :
#
#
# Convention : Reuss Voigt Hill
#
# Bulk Modulus (GPa) = 62.66024 64.63295 63.64659
# Shear Modulus (GPa) = 32.07224 36.02782 34.05003
#
# Velocity S-wave (km/s) = 3.79534 4.02258 3.91061
# Velocity P-wave (km/s) = 6.88103 7.11361 6.99829
#
# Compressibility (1/GPa) = 0.01595908
#
# Stress axis : x y z
#
# Youngs Moduli (GPa) = 96.05554 96.64708 99.68147
#
# Poissons Ratio (x) = 0.32400 0.03949
# Poissons Ratio (y) = 0.32201 0.36550
# Poissons Ratio (z) = 0.03805 0.35437
#
# Static dielectric constant tensor:
#      x y z
#    x 4.325430 0.000000 -0.241330 
#    y 0.000000 3.802310 0.000000 
#    z -0.241330 0.000000 4.629410 
# 
# 
# High freq. dielectric constant tensor:
#      x y z
#    x 1.882350 0.000000 0.003380 
#    y 0.000000 1.852240 0.000000 
#    z 0.003380 0.000000 1.907400 
# 
# From -- ./inp_files/57448.got.cif
#   From: 2010.06.25/outbox.cif.g09.slc.cpg/sg13_29_cif.got.tgz:57448.got - 2010.06.28 04:50:58.
