data_PCOD8119034
_publ_section_title
;
Structure prediction by ZEFSAII (Michael W. Deem and Ramdas Pophale) SiO2 
 PCOD8119034
Probable space group: P 2/C
;
_chemical_formula_sum "Si O2"
_cell_formula_units_Z 22
_cell_length_a 23.408595
_cell_length_b 8.579195
_cell_length_c 9.748921
_cell_angle_alpha 90.000000
_cell_angle_beta 37.988493
_cell_angle_gamma 90.000000
_cell_volume 1205.060234
_symmetry_space_group_name_H-M "P 2/C"
_symmetry_group_IT_number 13
_symmetry_cell_setting 'monoclinic'
loop_
_space_group_symop_operation_xyz
x,y,z
-x,y,1/2-z
-x,-y,-z
x,-y,1/2+z
loop_
_atom_site_type_symbol
_atom_site_label
_atom_site_fract_x
_atom_site_fract_y
_atom_site_fract_z
Si Si1 0.093541 0.570493 0.759691
Si Si2 0.990843 0.140265 0.418219
Si Si3 0.500000 0.614154 0.250000
Si Si4 0.834501 0.379224 0.660954
Si Si5 0.374625 0.677226 0.987217
Si Si6 0.499902 0.815451 0.974326
O O1 0.177764 0.508352 0.695021
O O2 0.112693 0.531630 0.563588
O O3 0.081008 0.756092 0.785486
O O4 0.000000 0.500000 0.000000
O O5 0.894885 0.237124 0.609390
O O6 0.000000 0.070423 0.250000
O O7 0.000000 0.000000 0.500000
O O8 0.590159 0.501884 0.078763
O O9 0.500344 0.723943 0.382044
O O10 0.735881 0.316130 0.799391
O O11 0.409689 0.767256 0.056522
O O12 0.409583 0.765838 0.784370
O O13 0.500000 0.000000 0.000000
#
# Coordination Sequence:
#
# PCOD8119034 Si02
#       6
#     4   4   2   4   4   4
#     4   9  19  36  57  80 114 152 183 236 286 333
#     4   9  19  37  55  77 115 153 183 224 287 338
#     4  10  20  36  64  82 114 154 192 230 298 344
#     4  10  21  35  58  87 113 141 201 240 274 342
#     4  10  21  37  58  88 116 148 199 244 283 346
#     4  10  21  40  60  81 121 157 183 237 305 359
#
# _framework density 18.256347999999999
#
# number of rings (size 3 to 8) (size 9 to 14) (size 15 to 20)
#    0.000    2.545    0.000    4.909    5.091    2.909 
#    6.545    1.818    0.000    0.000    0.000    0.000 
#    0.000    0.000    0.000    0.000    0.000    0.000 
#
# Total GULP energy -272581.707115 kJ/mol
# GULP energy per Si atom -12390.077596 kJ/mol
# Density = 1.821480 g / cm^3
# Si number density = 18.256348 Si / 1000 Ang^3
#
#
#
# Elastic Constant Matrix: (Units=GPa)
#
#
# Indices 1 2 3 4 5 6 
#
# 1 128.2658 76.7542 68.1037 0.0000 12.9550 0.0000
# 2 76.7542 137.3172 54.4119 0.0000 29.2090 0.0000
# 3 68.1037 54.4119 85.6564 0.0000 13.8453 0.0000
# 4 0.0000 0.0000 0.0000 23.8958 0.0000 16.2275
# 5 12.9550 29.2090 13.8453 0.0000 44.3877 0.0000
# 6 0.0000 0.0000 0.0000 16.2275 0.0000 35.4479
#
#
#
# Elastic Compliance Matrix: (Units=1/GPa)
#
#
# Indices 1 2 3 4 5 6 
#
# 1 0.015970 -0.005597 -0.009460 0.000000 0.001973 0.000000
# 2 -0.005597 0.012730 -0.002681 0.000000 -0.005907 0.000000
# 3 -0.009460 -0.002681 0.021239 0.000000 -0.002099 0.000000
# 4 0.000000 0.000000 0.000000 0.060727 0.000000 -0.027800
# 5 0.001973 -0.005907 -0.002099 0.000000 0.026495 0.000000
# 6 0.000000 0.000000 0.000000 -0.027800 0.000000 0.040937
#
#
# Mechanical properties :
#
#
# Convention : Reuss Voigt Hill
#
# Bulk Modulus (GPa) = 69.15535 83.30877 76.23206
# Shear Modulus (GPa) = 22.89421 30.87759 26.88590
#
# Velocity S-wave (km/s) = 3.54509 4.11705 3.84172
# Velocity P-wave (km/s) = 7.39725 8.26631 7.84382
#
# Compressibility (1/GPa) = 0.01446020
#
# Stress axis : x y z
#
# Youngs Moduli (GPa) = 62.61934 78.55420 47.08317
#
# Poissons Ratio (x) = 0.43969 0.44543
# Poissons Ratio (y) = 0.35050 0.12625
# Poissons Ratio (z) = 0.59240 0.21064
#
# Static dielectric constant tensor:
#      x y z
#    x 3.647630 0.000000 0.131230 
#    y 0.000000 3.416950 0.000000 
#    z 0.131230 0.000000 4.006880 
# 
# 
# High freq. dielectric constant tensor:
#      x y z
#    x 1.713720 0.000000 0.019890 
#    y 0.000000 1.699030 0.000000 
#    z 0.019890 0.000000 1.703690 
# 
# From -- ./inp_files/17942.got.cif
#   From: 2010.06.25/outbox.cif.g09.slc.cpg/sg13_9_cif.got.tgz:17942.got - 2010.06.28 04:50:58.
