data_PCOD8119432
_publ_section_title
;
Structure prediction by ZEFSAII (Michael W. Deem and Ramdas Pophale) SiO2 
 PCOD8119432
Probable space group: P 2/C
;
_chemical_formula_sum "Si O2"
_cell_formula_units_Z 20
_cell_length_a 8.597705
_cell_length_b 6.742899
_cell_length_c 19.783070
_cell_angle_alpha 90.000000
_cell_angle_beta 125.518370
_cell_angle_gamma 90.000000
_cell_volume 933.489766
_symmetry_space_group_name_H-M "P 2/C"
_symmetry_group_IT_number 13
_symmetry_cell_setting 'monoclinic'
loop_
_space_group_symop_operation_xyz
x,y,z
-x,y,1/2-z
-x,-y,-z
x,-y,1/2+z
loop_
_atom_site_type_symbol
_atom_site_label
_atom_site_fract_x
_atom_site_fract_y
_atom_site_fract_z
Si Si1 0.168858 0.958193 0.444182
Si Si2 0.206447 0.963854 0.303636
Si Si3 0.614017 0.070945 0.872543
Si Si4 0.084048 0.604780 0.086387
Si Si5 0.181803 0.205461 0.169060
O O1 0.257040 0.015869 0.393632
O O2 0.331755 0.979582 0.541044
O O3 0.083370 0.734454 0.421336
O O4 0.997169 0.109853 0.417229
O O5 0.000000 0.846300 0.250000
O O6 0.391940 0.854509 0.318904
O O7 0.174492 0.156347 0.247278
O O8 0.635971 0.894275 0.822737
O O9 0.734831 0.262661 0.885956
O O10 0.167824 0.441708 0.159215
O O11 0.000000 0.500000 0.000000
#
# Coordination Sequence:
#
# PCOD8119432 Si02
#       5
#     4   4   4   4   4
#     4  10  20  38  66  93 129 161 206 262 316 379
#     4  10  23  41  57  85 133 171 201 255 324 362
#     4  11  20  38  67  92 123 168 216 256 308 385
#     4  11  19  38  71  98 117 156 216 265 314 371
#     4  10  20  40  63  93 126 161 210 259 313 380
#
# _framework density 21.424980000000001
#
# number of rings (size 3 to 8) (size 9 to 14) (size 15 to 20)
#    0.000    1.600    4.000    2.400    0.000    0.000 
#    0.000   32.000    0.000    0.000    0.000    0.000 
#    0.000    0.000    0.000    0.000    0.000    0.000 
#
# Total GULP energy -247796.108667 kJ/mol
# GULP energy per Si atom -12389.805433 kJ/mol
# Density = 2.137622 g / cm^3
# Si number density = 21.424980 Si / 1000 Ang^3
#
#
#
# Elastic Constant Matrix: (Units=GPa)
#
#
# Indices 1 2 3 4 5 6 
#
# 1 126.3758 41.7302 50.8861 0.0000 11.5336 0.0000
# 2 41.7302 130.0998 45.3383 0.0000 -2.0515 0.0000
# 3 50.8861 45.3383 107.6222 0.0000 -19.8565 0.0000
# 4 0.0000 0.0000 0.0000 25.4375 0.0000 -6.1892
# 5 11.5336 -2.0515 -19.8565 0.0000 39.8700 0.0000
# 6 0.0000 0.0000 0.0000 -6.1892 0.0000 11.3688
#
#
#
# Elastic Compliance Matrix: (Units=1/GPa)
#
#
# Indices 1 2 3 4 5 6 
#
# 1 0.011402 -0.001727 -0.005824 0.000000 -0.006288 0.000000
# 2 -0.001727 0.009361 -0.003244 0.000000 -0.000634 0.000000
# 3 -0.005824 -0.003244 0.015077 0.000000 0.009027 0.000000
# 4 0.000000 0.000000 0.000000 0.045314 0.000000 0.024669
# 5 -0.006288 -0.000634 0.009027 0.000000 0.031363 0.000000
# 6 0.000000 0.000000 0.000000 0.024669 0.000000 0.101390
#
#
# Mechanical properties :
#
#
# Convention : Reuss Voigt Hill
#
# Bulk Modulus (GPa) = 70.17037 71.11188 70.64112
# Shear Modulus (GPa) = 20.81191 30.41146 25.61168
#
# Velocity S-wave (km/s) = 3.12009 3.77163 3.46122
# Velocity P-wave (km/s) = 6.76777 7.22704 7.00117
#
# Compressibility (1/GPa) = 0.01425103
#
# Stress axis : x y z
#
# Youngs Moduli (GPa) = 87.70458 106.82839 66.32456
#
# Poissons Ratio (x) = 0.18448 0.38625
# Poissons Ratio (y) = 0.15146 0.21516
# Poissons Ratio (z) = 0.51076 0.34655
#
# Static dielectric constant tensor:
#      x y z
#    x 4.076030 0.000000 -0.004380 
#    y 0.000000 3.664080 0.000000 
#    z -0.004380 0.000000 4.039740 
# 
# 
# High freq. dielectric constant tensor:
#      x y z
#    x 1.845870 0.000000 -0.003050 
#    y 0.000000 1.794920 0.000000 
#    z -0.003050 0.000000 1.861790 
# 
# From -- ./inp_files/62467.got.cif
#   From: 2010.06.25/outbox.cif.g09.slc.cpg/sg13_32_cif.got.tgz:62467.got - 2010.06.28 04:50:58.
