data_PCOD8119476
_publ_section_title
;
Structure prediction by ZEFSAII (Michael W. Deem and Ramdas Pophale) SiO2 
 PCOD8119476
Probable space group: P 2/C
;
_chemical_formula_sum "Si O2"
_cell_formula_units_Z 28
_cell_length_a 11.521438
_cell_length_b 16.658289
_cell_length_c 9.753752
_cell_angle_alpha 90.000000
_cell_angle_beta 51.241703
_cell_angle_gamma 90.000000
_cell_volume 1459.783954
_symmetry_space_group_name_H-M "P 2/C"
_symmetry_group_IT_number 13
_symmetry_cell_setting 'monoclinic'
loop_
_space_group_symop_operation_xyz
x,y,z
-x,y,1/2-z
-x,-y,-z
x,-y,1/2+z
loop_
_atom_site_type_symbol
_atom_site_label
_atom_site_fract_x
_atom_site_fract_y
_atom_site_fract_z
Si Si1 0.131580 0.194340 0.747662
Si Si2 0.612496 0.080421 0.551922
Si Si3 0.858444 0.798746 0.947956
Si Si4 0.412160 0.901244 0.942646
Si Si5 0.134445 0.616745 0.243071
Si Si6 0.391702 0.511257 0.954562
Si Si7 0.852007 0.615518 0.951649
O O1 0.286913 0.158783 0.584595
O O2 0.139469 0.288708 0.723905
O O3 0.000000 0.158670 0.750000
O O4 0.102572 0.171654 0.927341
O O5 0.500000 0.111162 0.750000
O O6 0.750724 0.139226 0.454435
O O7 0.539063 0.087295 0.459800
O O8 0.659989 0.987771 0.543242
O O9 0.795931 0.707819 0.994311
O O10 0.000000 0.800130 0.750000
O O11 0.500000 0.863081 0.750000
O O12 0.112352 0.589258 0.417677
O O13 0.000000 0.580885 0.250000
O O14 0.287670 0.586419 0.065096
O O15 0.500000 0.532004 0.750000
O O16 0.500000 0.500000 0.000000
O O17 0.286961 0.434072 0.005027
O O18 0.000000 0.602764 0.750000
#
# Coordination Sequence:
#
# PCOD8119476 Si02
#       7
#     4   4   4   4   4   4   4
#     4  10  22  41  60  87 120 152 195 244 291 341
#     4  10  20  39  60  85 116 157 198 238 289 349
#     4  10  22  40  63  87 113 156 202 240 284 343
#     4  10  22  37  59  87 120 154 193 239 296 350
#     4  10  23  42  63  85 118 159 194 236 294 351
#     4  12  25  40  60  92 121 150 195 245 291 342
#     4  10  23  42  63  86 117 157 198 237 288 352
#
# _framework density 19.180918999999999
#
# number of rings (size 3 to 8) (size 9 to 14) (size 15 to 20)
#    0.000    1.714    2.857    0.429    4.000    4.000 
#    0.000    1.429    0.000    0.000    0.000    0.000 
#    0.000    0.000    0.000    0.000    0.000    0.000 
#
# Total GULP energy -347186.701158 kJ/mol
# GULP energy per Si atom -12399.525041 kJ/mol
# Density = 1.913726 g / cm^3
# Si number density = 19.180919 Si / 1000 Ang^3
#
#
#
# Elastic Constant Matrix: (Units=GPa)
#
#
# Indices 1 2 3 4 5 6 
#
# 1 122.8896 39.2635 48.3619 0.0000 12.0952 0.0000
# 2 39.2635 43.0554 27.6043 0.0000 3.6550 0.0000
# 3 48.3619 27.6043 151.5713 0.0000 11.3141 0.0000
# 4 0.0000 0.0000 0.0000 28.1806 0.0000 -9.0585
# 5 12.0952 3.6550 11.3141 0.0000 28.0729 0.0000
# 6 0.0000 0.0000 0.0000 -9.0585 0.0000 42.6732
#
#
#
# Elastic Compliance Matrix: (Units=1/GPa)
#
#
# Indices 1 2 3 4 5 6 
#
# 1 0.012322 -0.009731 -0.001915 0.000000 -0.003270 0.000000
# 2 -0.009731 0.034046 -0.003173 0.000000 0.001039 0.000000
# 3 -0.001915 -0.003173 0.007933 0.000000 -0.001959 0.000000
# 4 0.000000 0.000000 0.000000 0.038084 0.000000 0.008084
# 5 -0.003270 0.001039 -0.001959 0.000000 0.037685 0.000000
# 6 0.000000 0.000000 0.000000 0.008084 0.000000 0.025150
#
#
# Mechanical properties :
#
#
# Convention : Reuss Voigt Hill
#
# Bulk Modulus (GPa) = 40.54851 60.88619 50.71735
# Shear Modulus (GPa) = 25.89598 33.27114 29.58356
#
# Velocity S-wave (km/s) = 3.67834 4.16937 3.93153
# Velocity P-wave (km/s) = 6.26308 7.41554 6.86354
#
# Compressibility (1/GPa) = 0.02466182
#
# Stress axis : x y z
#
# Youngs Moduli (GPa) = 81.15454 29.37165 126.05956
#
# Poissons Ratio (x) = 0.28583 0.24143
# Poissons Ratio (y) = 0.78975 0.40000
# Poissons Ratio (z) = 0.15543 0.09320
#
# Static dielectric constant tensor:
#      x y z
#    x 3.418760 0.000000 0.135100 
#    y 0.000000 3.596750 0.000000 
#    z 0.135100 0.000000 3.650840 
# 
# 
# High freq. dielectric constant tensor:
#      x y z
#    x 1.748440 0.000000 0.010090 
#    y 0.000000 1.744380 0.000000 
#    z 0.010090 0.000000 1.763070 
# 
# From -- ./inp_files/16670.got.cif
#   From: 2010.06.25/outbox.cif.g09.slc.cpg/sg13_9_cif.got.tgz:16670.got - 2010.06.28 04:50:58.
