data_PCOD8119657
_publ_section_title
;
Structure prediction by ZEFSAII (Michael W. Deem and Ramdas Pophale) SiO2 
 PCOD8119657
Probable space group: P 2/C
;
_chemical_formula_sum "Si O2"
_cell_formula_units_Z 24
_cell_length_a 12.038066
_cell_length_b 10.951472
_cell_length_c 10.034404
_cell_angle_alpha 90.000000
_cell_angle_beta 71.278823
_cell_angle_gamma 90.000000
_cell_volume 1252.889690
_symmetry_space_group_name_H-M "P 2/C"
_symmetry_group_IT_number 13
_symmetry_cell_setting 'monoclinic'
loop_
_space_group_symop_operation_xyz
x,y,z
-x,y,1/2-z
-x,-y,-z
x,-y,1/2+z
loop_
_atom_site_type_symbol
_atom_site_label
_atom_site_fract_x
_atom_site_fract_y
_atom_site_fract_z
Si Si1 0.947163 0.671611 0.411233
Si Si2 0.418019 0.971459 0.409575
Si Si3 0.906615 0.393778 0.403213
Si Si4 0.309681 0.756990 0.599794
Si Si5 0.524832 0.395463 0.096518
Si Si6 0.723056 0.212787 0.090192
O O1 0.889850 0.537178 0.434889
O O2 0.850823 0.774545 0.476908
O O3 0.000000 0.706684 0.250000
O O4 0.049222 0.675501 0.482216
O O5 0.500000 0.942765 0.250000
O O6 0.330316 0.860145 0.479526
O O7 0.500000 0.000000 0.500000
O O8 0.336111 0.087341 0.425377
O O9 0.776199 0.346002 0.424748
O O10 0.000000 0.369373 0.250000
O O11 0.437326 0.711662 0.592250
O O12 0.254298 0.798675 0.760465
O O13 0.500000 0.455260 0.250000
O O14 0.651230 0.330285 0.060714
O O15 0.500000 0.500000 0.000000
#
# Coordination Sequence:
#
# PCOD8119657 Si02
#       6
#     4   4   4   4   4   4
#     4  10  22  39  64  95 126 159 207 254 304 372
#     4  12  23  42  64  91 123 167 210 255 312 370
#     4  10  20  40  66  91 124 169 201 244 316 377
#     4  11  22  40  64  89 122 166 209 248 313 373
#     4  10  21  37  58  89 123 155 197 258 315 368
#     4  11  21  41  64  86 125 163 205 259 311 362
#
# _framework density 19.155716000000002
#
# number of rings (size 3 to 8) (size 9 to 14) (size 15 to 20)
#    0.000    1.333    5.000    1.500    0.000    2.000 
#    3.000    1.667    0.000    0.000    0.000    0.000 
#    0.000    0.000    0.000    0.000    0.000    0.000 
#
# Total GULP energy -297459.469211 kJ/mol
# GULP energy per Si atom -12394.144550 kJ/mol
# Density = 1.911212 g / cm^3
# Si number density = 19.155716 Si / 1000 Ang^3
#
#
#
# Elastic Constant Matrix: (Units=GPa)
#
#
# Indices 1 2 3 4 5 6 
#
# 1 84.9727 21.9648 42.3972 0.0000 2.8884 0.0000
# 2 21.9648 68.3105 37.3343 0.0000 0.6502 0.0000
# 3 42.3972 37.3343 133.7786 0.0000 6.7387 0.0000
# 4 0.0000 0.0000 0.0000 17.8222 0.0000 -2.4753
# 5 2.8884 0.6502 6.7387 0.0000 34.1049 0.0000
# 6 0.0000 0.0000 0.0000 -2.4753 0.0000 34.6531
#
#
#
# Elastic Compliance Matrix: (Units=1/GPa)
#
#
# Indices 1 2 3 4 5 6 
#
# 1 0.014340 -0.002519 -0.003821 0.000000 -0.000411 0.000000
# 2 -0.002519 0.017729 -0.004185 0.000000 0.000702 0.000000
# 3 -0.003821 -0.004185 0.009932 0.000000 -0.001559 0.000000
# 4 0.000000 0.000000 0.000000 0.056672 0.000000 0.004048
# 5 -0.000411 0.000702 -0.001559 0.000000 0.029651 0.000000
# 6 0.000000 0.000000 0.000000 0.004048 0.000000 0.029147
#
#
# Mechanical properties :
#
#
# Convention : Reuss Voigt Hill
#
# Bulk Modulus (GPa) = 47.72693 54.49496 51.11095
# Shear Modulus (GPa) = 26.95346 29.67376 28.31361
#
# Velocity S-wave (km/s) = 3.75516 3.94011 3.84875
# Velocity P-wave (km/s) = 6.61597 7.01494 6.81837
#
# Compressibility (1/GPa) = 0.02095253
#
# Stress axis : x y z
#
# Youngs Moduli (GPa) = 69.73484 56.40319 100.67991
#
# Poissons Ratio (x) = 0.14206 0.38470
# Poissons Ratio (y) = 0.17564 0.42135
# Poissons Ratio (z) = 0.26646 0.23605
#
# Static dielectric constant tensor:
#      x y z
#    x 3.614890 0.000000 0.190890 
#    y 0.000000 3.103990 0.000000 
#    z 0.190890 0.000000 3.722990 
# 
# 
# High freq. dielectric constant tensor:
#      x y z
#    x 1.751730 0.000000 0.010110 
#    y 0.000000 1.727830 0.000000 
#    z 0.010110 0.000000 1.755260 
# 
# From -- ./inp_files/15789.got.cif
#   From: 2010.06.25/outbox.cif.g09.slc.cpg/sg13_8_cif.got.tgz:15789.got - 2010.06.28 04:50:58.
