data_PCOD8119420
_publ_section_title
;
Structure prediction by ZEFSAII (Michael W. Deem and Ramdas Pophale) SiO2 
 PCOD8119420
Probable space group: P 2/C
;
_chemical_formula_sum "Si O2"
_cell_formula_units_Z 28
_cell_length_a 7.472857
_cell_length_b 8.838304
_cell_length_c 26.595516
_cell_angle_alpha 90.000000
_cell_angle_beta 49.505784
_cell_angle_gamma 90.000000
_cell_volume 1335.817055
_symmetry_space_group_name_H-M "P 2/C"
_symmetry_group_IT_number 13
_symmetry_cell_setting 'monoclinic'
loop_
_space_group_symop_operation_xyz
x,y,z
-x,y,1/2-z
-x,-y,-z
x,-y,1/2+z
loop_
_atom_site_type_symbol
_atom_site_label
_atom_site_fract_x
_atom_site_fract_y
_atom_site_fract_z
Si Si1 0.752280 0.555411 0.310731
Si Si2 0.256434 0.134234 0.265155
Si Si3 0.123085 0.636859 0.102817
Si Si4 0.514626 0.170842 0.477620
Si Si5 0.990676 0.698126 0.605216
Si Si6 0.749678 0.804717 0.225604
Si Si7 0.526097 0.264025 0.129740
O O1 0.753318 0.619758 0.366278
O O2 0.722607 0.695948 0.278365
O O3 0.533673 0.441284 0.351255
O O4 0.000000 0.475310 0.250000
O O5 0.500000 0.139163 0.250000
O O6 0.317978 0.180384 0.197423
O O7 0.080671 0.251794 0.325080
O O8 0.136657 0.968284 0.282658
O O9 0.036399 0.480636 0.094234
O O10 0.889973 0.734483 0.153465
O O11 0.303699 0.723855 0.034745
O O12 0.762947 0.226000 0.454260
O O13 0.496631 0.191959 0.421028
O O14 0.500000 0.000000 0.500000
O O15 0.792345 0.754408 0.601899
O O16 0.500000 0.845190 0.250000
#
# Coordination Sequence:
#
# PCOD8119420 Si02
#       7
#     4   4   4   4   4   4   4
#     4  10  21  38  63  97 127 165 213 268 329 381
#     4   9  20  38  64  98 128 163 215 271 326 382
#     4  11  23  43  61  95 132 167 219 269 323 398
#     4  12  28  45  63  93 134 176 217 270 330 397
#     4  11  23  45  69  93 132 167 223 275 317 398
#     4  10  20  38  65  97 129 163 211 272 327 386
#     4  11  24  42  69  97 125 178 218 264 335 383
#
# _framework density 20.960954000000001
#
# number of rings (size 3 to 8) (size 9 to 14) (size 15 to 20)
#    0.000    1.429    1.429    3.857    2.000    2.286 
#    5.143    0.000    0.000    0.000    0.000    0.000 
#    0.000    0.000    0.000    0.000    0.000    0.000 
#
# Total GULP energy -347009.227337 kJ/mol
# GULP energy per Si atom -12393.186691 kJ/mol
# Density = 2.091325 g / cm^3
# Si number density = 20.960954 Si / 1000 Ang^3
#
#
#
# Elastic Constant Matrix: (Units=GPa)
#
#
# Indices 1 2 3 4 5 6 
#
# 1 66.3503 25.4890 28.7615 0.0000 1.4766 0.0000
# 2 25.4890 155.1693 63.7548 0.0000 -5.9057 0.0000
# 3 28.7615 63.7548 101.7050 0.0000 2.7070 0.0000
# 4 0.0000 0.0000 0.0000 40.6522 0.0000 -4.0413
# 5 1.4766 -5.9057 2.7070 0.0000 36.9952 0.0000
# 6 0.0000 0.0000 0.0000 -4.0413 0.0000 29.9290
#
#
#
# Elastic Compliance Matrix: (Units=1/GPa)
#
#
# Indices 1 2 3 4 5 6 
#
# 1 0.017333 -0.001160 -0.004159 0.000000 -0.000573 0.000000
# 2 -0.001160 0.008877 -0.005286 0.000000 0.001850 0.000000
# 3 -0.004159 -0.005286 0.014368 0.000000 -0.001729 0.000000
# 4 0.000000 0.000000 0.000000 0.024934 0.000000 0.003367
# 5 -0.000573 0.001850 -0.001729 0.000000 0.027475 0.000000
# 6 0.000000 0.000000 0.000000 0.003367 0.000000 0.033867
#
#
# Mechanical properties :
#
#
# Convention : Reuss Voigt Hill
#
# Bulk Modulus (GPa) = 51.63208 62.13724 56.88466
# Shear Modulus (GPa) = 32.35804 35.19656 33.77730
#
# Velocity S-wave (km/s) = 3.93329 4.10219 4.01863
# Velocity P-wave (km/s) = 6.73155 7.22121 6.98067
#
# Compressibility (1/GPa) = 0.01936780
#
# Stress axis : x y z
#
# Youngs Moduli (GPa) = 57.69398 112.64459 69.59809
#
# Poissons Ratio (x) = 0.13068 0.28947
# Poissons Ratio (y) = 0.06693 0.36790
# Poissons Ratio (z) = 0.23996 0.59545
#
# Static dielectric constant tensor:
#      x y z
#    x 3.757080 0.000000 -0.128730 
#    y 0.000000 4.226770 0.000000 
#    z -0.128730 0.000000 3.938880 
# 
# 
# High freq. dielectric constant tensor:
#      x y z
#    x 1.818720 0.000000 -0.007230 
#    y 0.000000 1.831830 0.000000 
#    z -0.007230 0.000000 1.824610 
# 
# From -- ./inp_files/95918.got.cif
#   From: 2010.06.25/outbox.cif.g09.slc.cpg/sg13_48_cif.got.tgz:95918.got - 2010.06.28 04:50:58.
