data_PCOD8119936
_publ_section_title
;
Structure prediction by ZEFSAII (Michael W. Deem and Ramdas Pophale) SiO2 
 PCOD8119936
Probable space group: P 2/C
;
_chemical_formula_sum "Si O2"
_cell_formula_units_Z 28
_cell_length_a 24.407429
_cell_length_b 8.951127
_cell_length_c 9.350080
_cell_angle_alpha 90.000000
_cell_angle_beta 41.970971
_cell_angle_gamma 90.000000
_cell_volume 1366.096807
_symmetry_space_group_name_H-M "P 2/C"
_symmetry_group_IT_number 13
_symmetry_cell_setting 'monoclinic'
loop_
_space_group_symop_operation_xyz
x,y,z
-x,y,1/2-z
-x,-y,-z
x,-y,1/2+z
loop_
_atom_site_type_symbol
_atom_site_label
_atom_site_fract_x
_atom_site_fract_y
_atom_site_fract_z
Si Si1 0.908011 0.210520 0.948460
Si Si2 0.595453 0.351817 0.037149
Si Si3 0.763279 0.156899 0.415769
Si Si4 0.055057 0.464485 0.027012
Si Si5 0.713027 0.910079 0.330219
Si Si6 0.685829 0.472023 0.602711
Si Si7 0.807741 0.723411 0.375669
O O1 0.853205 0.187112 0.912951
O O2 0.000000 0.141031 0.750000
O O3 0.858099 0.136993 0.178092
O O4 0.913796 0.386761 0.956984
O O5 0.500000 0.349004 0.250000
O O6 0.642264 0.465120 0.048182
O O7 0.628140 0.181758 0.989790
O O8 0.613546 0.414883 0.845291
O O9 0.753518 0.088357 0.593975
O O10 0.743833 0.332650 0.452211
O O11 0.702381 0.077550 0.415857
O O12 0.131280 0.365770 0.842699
O O13 0.000000 0.375504 0.250000
O O14 0.000000 0.500000 0.000000
O O15 0.771276 0.842801 0.338451
O O16 0.740461 0.604992 0.566334
#
# Coordination Sequence:
#
# PCOD8119936 Si02
#       7
#     4   4   4   4   4   4   4
#     4  11  22  35  58  86 122 153 198 251 298 332
#     4  10  21  40  62  94 121 145 186 240 292 350
#     4  11  22  42  58  84 118 158 203 238 284 357
#     4  11  21  32  53  87 121 151 194 253 302 337
#     4  10  25  40  63  83 117 160 197 236 295 353
#     4  10  21  35  64  88 116 154 189 236 291 345
#     4  11  21  37  58  88 116 155 198 246 291 353
#
# _framework density 20.496351000000001
#
# number of rings (size 3 to 8) (size 9 to 14) (size 15 to 20)
#    0.000    1.429    4.286    2.143    6.000    1.143 
#    0.000    7.143    0.000    0.000    0.000    0.000 
#    0.000    0.000    0.000    0.000    0.000    0.000 
#
# Total GULP energy -347039.546347 kJ/mol
# GULP energy per Si atom -12394.269512 kJ/mol
# Density = 2.044970 g / cm^3
# Si number density = 20.496351 Si / 1000 Ang^3
#
#
#
# Elastic Constant Matrix: (Units=GPa)
#
#
# Indices 1 2 3 4 5 6 
#
# 1 73.7499 13.3640 36.9950 0.0000 8.4306 0.0000
# 2 13.3640 47.6156 20.7245 0.0000 6.0107 0.0000
# 3 36.9950 20.7245 140.8474 0.0000 -0.9805 0.0000
# 4 0.0000 0.0000 0.0000 18.7980 0.0000 5.2756
# 5 8.4306 6.0107 -0.9805 0.0000 35.2434 0.0000
# 6 0.0000 0.0000 0.0000 5.2756 0.0000 21.7344
#
#
#
# Elastic Compliance Matrix: (Units=1/GPa)
#
#
# Indices 1 2 3 4 5 6 
#
# 1 0.016407 -0.002416 -0.003979 0.000000 -0.003624 0.000000
# 2 -0.002416 0.023349 -0.002825 0.000000 -0.003483 0.000000
# 3 -0.003979 -0.002825 0.008572 0.000000 0.001672 0.000000
# 4 0.000000 0.000000 0.000000 0.057086 0.000000 -0.013856
# 5 -0.003624 -0.003483 0.001672 0.000000 0.029881 0.000000
# 6 0.000000 0.000000 0.000000 -0.013856 0.000000 0.049373
#
#
# Mechanical properties :
#
#
# Convention : Reuss Voigt Hill
#
# Bulk Modulus (GPa) = 33.45803 44.93109 39.19456
# Shear Modulus (GPa) = 23.46617 27.89713 25.68165
#
# Velocity S-wave (km/s) = 3.38730 3.69328 3.54360
# Velocity P-wave (km/s) = 5.62652 6.33689 5.99224
#
# Compressibility (1/GPa) = 0.02988819
#
# Stress axis : x y z
#
# Youngs Moduli (GPa) = 60.94799 42.82865 116.65242
#
# Poissons Ratio (x) = 0.10346 0.46420
# Poissons Ratio (y) = 0.14722 0.32958
# Poissons Ratio (z) = 0.24254 0.12101
#
# Static dielectric constant tensor:
#      x y z
#    x 3.648480 0.000000 0.088190 
#    y 0.000000 3.626230 0.000000 
#    z 0.088190 0.000000 3.979030 
# 
# 
# High freq. dielectric constant tensor:
#      x y z
#    x 1.791560 0.000000 0.015490 
#    y 0.000000 1.794090 0.000000 
#    z 0.015490 0.000000 1.812570 
# 
# From -- ./inp_files/24551.got.cif
#   From: 2010.06.25/outbox.cif.g09.slc.cpg/sg13_13_cif.got.tgz:24551.got - 2010.06.28 04:50:58.
