data_PCOD8119648
_publ_section_title
;
Structure prediction by ZEFSAII (Michael W. Deem and Ramdas Pophale) SiO2 
 PCOD8119648
Probable space group: P 2/C
;
_chemical_formula_sum "Si O2"
_cell_formula_units_Z 22
_cell_length_a 9.117594
_cell_length_b 8.818630
_cell_length_c 13.719117
_cell_angle_alpha 90.000000
_cell_angle_beta 107.538136
_cell_angle_gamma 90.000000
_cell_volume 1051.806340
_symmetry_space_group_name_H-M "P 2/C"
_symmetry_group_IT_number 13
_symmetry_cell_setting 'monoclinic'
loop_
_space_group_symop_operation_xyz
x,y,z
-x,y,1/2-z
-x,-y,-z
x,-y,1/2+z
loop_
_atom_site_type_symbol
_atom_site_label
_atom_site_fract_x
_atom_site_fract_y
_atom_site_fract_z
Si Si1 0.535350 0.131239 0.081646
Si Si2 0.264794 0.720872 0.459966
Si Si3 0.914401 0.726620 0.381362
Si Si4 0.225700 0.629386 0.944727
Si Si5 0.000000 0.523404 0.750000
Si Si6 0.647182 0.128728 0.720275
O O1 0.635410 0.260384 0.050894
O O2 0.617911 0.050929 0.190447
O O3 0.366871 0.206688 0.068681
O O4 0.500000 0.000000 0.000000
O O5 0.279342 0.541483 0.473968
O O6 0.340494 0.768230 0.372760
O O7 0.090382 0.784349 0.425850
O O8 0.863241 0.683625 0.478339
O O9 0.802951 0.857120 0.315845
O O10 0.907346 0.581946 0.308049
O O11 0.114536 0.633932 0.829228
O O12 0.500000 0.191826 0.750000
#
# Coordination Sequence:
#
# PCOD8119648 Si02
#       6
#     4   4   4   4   2   4
#     4  10  23  42  59  92 133 170 218 261 316 392
#     4  10  20  42  69  94 126 166 220 277 322 378
#     4  11  20  41  72  94 132 169 211 266 344 379
#     4  11  22  42  71  96 132 165 218 276 331 376
#     4  10  20  40  66 106 124 158 222 280 314 390
#     4  11  22  42  62  92 135 178 212 261 325 393
#
# _framework density 20.916398000000001
#
# number of rings (size 3 to 8) (size 9 to 14) (size 15 to 20)
#    0.000    1.455    3.636    4.909    0.000    0.000 
#   13.091    5.455    0.000    0.000    0.000    0.000 
#    0.000    0.000    0.000    0.000    0.000    0.000 
#
# Total GULP energy -272626.904876 kJ/mol
# GULP energy per Si atom -12392.132040 kJ/mol
# Density = 2.086879 g / cm^3
# Si number density = 20.916398 Si / 1000 Ang^3
#
#
#
# Elastic Constant Matrix: (Units=GPa)
#
#
# Indices 1 2 3 4 5 6 
#
# 1 168.7861 70.2087 68.8935 0.0000 21.1923 0.0000
# 2 70.2087 94.8507 42.2179 0.0000 35.1867 0.0000
# 3 68.8935 42.2179 104.3259 0.0000 19.2695 0.0000
# 4 0.0000 0.0000 0.0000 39.0169 0.0000 16.6748
# 5 21.1923 35.1867 19.2695 0.0000 37.1477 0.0000
# 6 0.0000 0.0000 0.0000 16.6748 0.0000 21.7333
#
#
#
# Elastic Compliance Matrix: (Units=1/GPa)
#
#
# Indices 1 2 3 4 5 6 
#
# 1 0.010150 -0.006487 -0.004582 0.000000 0.002731 0.000000
# 2 -0.006487 0.022185 -0.001655 0.000000 -0.016455 0.000000
# 3 -0.004582 -0.001655 0.013834 0.000000 -0.002995 0.000000
# 4 0.000000 0.000000 0.000000 0.038134 0.000000 -0.029259
# 5 0.002731 -0.016455 -0.002995 0.000000 0.042502 0.000000
# 6 0.000000 0.000000 0.000000 -0.029259 0.000000 0.068461
#
#
# Mechanical properties :
#
#
# Convention : Reuss Voigt Hill
#
# Bulk Modulus (GPa) = 48.25781 81.17810 64.71795
# Shear Modulus (GPa) = 21.96624 32.02240 26.99432
#
# Velocity S-wave (km/s) = 3.24418 3.91701 3.59636
# Velocity P-wave (km/s) = 6.09547 7.70404 6.94648
#
# Compressibility (1/GPa) = 0.02072204
#
# Stress axis : x y z
#
# Youngs Moduli (GPa) = 98.51788 45.07491 72.28483
#
# Poissons Ratio (x) = 0.29239 0.33124
# Poissons Ratio (y) = 0.63906 0.11962
# Poissons Ratio (z) = 0.45145 0.07459
#
# Static dielectric constant tensor:
#      x y z
#    x 4.085950 0.000000 0.420460 
#    y 0.000000 3.992470 0.000000 
#    z 0.420460 0.000000 4.270790 
# 
# 
# High freq. dielectric constant tensor:
#      x y z
#    x 1.829020 0.000000 0.012550 
#    y 0.000000 1.804140 0.000000 
#    z 0.012550 0.000000 1.822600 
# 
# From -- ./inp_files/46212.got.cif
#   From: 2010.06.25/outbox.cif.g09.slc.cpg/sg13_24_cif.got.tgz:46212.got - 2010.06.28 04:50:58.
