data_PCOD8119558
_publ_section_title
;
Structure prediction by ZEFSAII (Michael W. Deem and Ramdas Pophale) SiO2 
 PCOD8119558
Probable space group: P 2/C
;
_chemical_formula_sum "Si O2"
_cell_formula_units_Z 28
_cell_length_a 15.174066
_cell_length_b 8.895205
_cell_length_c 14.490342
_cell_angle_alpha 90.000000
_cell_angle_beta 134.906625
_cell_angle_gamma 90.000000
_cell_volume 1385.250087
_symmetry_space_group_name_H-M "P 2/C"
_symmetry_group_IT_number 13
_symmetry_cell_setting 'monoclinic'
loop_
_space_group_symop_operation_xyz
x,y,z
-x,y,1/2-z
-x,-y,-z
x,-y,1/2+z
loop_
_atom_site_type_symbol
_atom_site_label
_atom_site_fract_x
_atom_site_fract_y
_atom_site_fract_z
Si Si1 0.282248 0.802274 0.689989
Si Si2 0.349390 0.158360 0.539401
Si Si3 0.372350 0.877858 0.264006
Si Si4 0.797455 0.127135 0.556338
Si Si5 0.022074 0.155162 0.965014
Si Si6 0.370210 0.590239 0.902529
Si Si7 0.217051 0.309718 0.774111
O O1 0.304461 0.810292 0.594900
O O2 0.373340 0.690627 0.811546
O O3 0.136703 0.758968 0.600975
O O4 0.298968 0.972417 0.737624
O O5 0.483015 0.081960 0.623825
O O6 0.332625 0.194452 0.635854
O O7 0.344109 0.308802 0.473924
O O8 0.245692 0.034657 0.434482
O O9 0.340639 0.757566 0.318895
O O10 0.806160 0.248704 0.641687
O O11 0.932184 0.113253 0.605655
O O12 0.903338 0.266469 0.876940
O O13 0.000000 0.000000 0.000000
O O14 0.247769 0.485417 0.805378
O O15 0.500000 0.500000 0.000000
#
# Coordination Sequence:
#
# PCOD8119558 Si02
#       7
#     4   4   4   4   4   4   4
#     4   9  22  41  62  96 120 168 227 269 326 373
#     4  10  21  40  63  96 125 167 229 269 325 385
#     4  10  20  39  67  93 124 169 225 282 312 385
#     4   9  22  40  68  93 124 169 225 282 317 381
#     4  10  20  42  70  94 124 166 230 276 321 370
#     4  12  26  40  61  99 139 178 209 267 345 413
#     4  12  22  39  64  93 137 175 208 266 342 399
#
# _framework density 20.212955999999998
#
# number of rings (size 3 to 8) (size 9 to 14) (size 15 to 20)
#    0.857    0.857    2.857    1.286    2.000    2.857 
#    0.000    0.000    6.286    0.000    0.000    0.000 
#    0.000    0.000    0.000    0.000    0.000    0.000 
#
# Total GULP energy -346891.139832 kJ/mol
# GULP energy per Si atom -12388.969280 kJ/mol
# Density = 2.016695 g / cm^3
# Si number density = 20.212956 Si / 1000 Ang^3
#
#
#
# Elastic Constant Matrix: (Units=GPa)
#
#
# Indices 1 2 3 4 5 6 
#
# 1 90.9455 39.2656 20.2395 0.0000 -4.7905 0.0000
# 2 39.2656 115.5162 54.5880 0.0000 -4.2284 0.0000
# 3 20.2395 54.5880 75.5300 0.0000 1.7609 0.0000
# 4 0.0000 0.0000 0.0000 43.2912 0.0000 -3.1754
# 5 -4.7905 -4.2284 1.7609 0.0000 32.6452 0.0000
# 6 0.0000 0.0000 0.0000 -3.1754 0.0000 18.8772
#
#
#
# Elastic Compliance Matrix: (Units=1/GPa)
#
#
# Indices 1 2 3 4 5 6 
#
# 1 0.012959 -0.004096 -0.000545 0.000000 0.001401 0.000000
# 2 -0.004096 0.014604 -0.009499 0.000000 0.001803 0.000000
# 3 -0.000545 -0.009499 0.020307 0.000000 -0.002406 0.000000
# 4 0.000000 0.000000 0.000000 0.023388 0.000000 0.003934
# 5 0.001401 0.001803 -0.002406 0.000000 0.031201 0.000000
# 6 0.000000 0.000000 0.000000 0.003934 0.000000 0.053636
#
#
# Mechanical properties :
#
#
# Convention : Reuss Voigt Hill
#
# Bulk Modulus (GPa) = 51.04655 56.68643 53.86649
# Shear Modulus (GPa) = 26.19090 30.15595 28.17342
#
# Velocity S-wave (km/s) = 3.60355 3.86672 3.73745
# Velocity P-wave (km/s) = 6.52866 6.93115 6.73291
#
# Compressibility (1/GPa) = 0.01958996
#
# Stress axis : x y z
#
# Youngs Moduli (GPa) = 77.16535 68.47386 49.24354
#
# Poissons Ratio (x) = 0.28049 0.02682
# Poissons Ratio (y) = 0.31609 0.46778
# Poissons Ratio (z) = 0.04203 0.65045
#
# Static dielectric constant tensor:
#      x y z
#    x 3.623900 0.000000 0.039750 
#    y 0.000000 3.449370 0.000000 
#    z 0.039750 0.000000 3.790660 
# 
# 
# High freq. dielectric constant tensor:
#      x y z
#    x 1.787460 0.000000 -0.002000 
#    y 0.000000 1.766210 0.000000 
#    z -0.002000 0.000000 1.791540 
# 
# From -- ./inp_files/53121.got.cif
#   From: 2010.06.25/outbox.cif.g09.slc.cpg/sg13_27_cif.got.tgz:53121.got - 2010.06.28 04:50:58.
