data_PCOD8119190
_publ_section_title
;
Structure prediction by ZEFSAII (Michael W. Deem and Ramdas Pophale) SiO2 
 PCOD8119190
Probable space group: P 2/C
;
_chemical_formula_sum "Si O2"
_cell_formula_units_Z 22
_cell_length_a 8.939655
_cell_length_b 9.878795
_cell_length_c 26.939652
_cell_angle_alpha 90.000000
_cell_angle_beta 26.535361
_cell_angle_gamma 90.000000
_cell_volume 1062.872876
_symmetry_space_group_name_H-M "P 2/C"
_symmetry_group_IT_number 13
_symmetry_cell_setting 'monoclinic'
loop_
_space_group_symop_operation_xyz
x,y,z
-x,y,1/2-z
-x,-y,-z
x,-y,1/2+z
loop_
_atom_site_type_symbol
_atom_site_label
_atom_site_fract_x
_atom_site_fract_y
_atom_site_fract_z
Si Si1 0.500000 0.447664 0.250000
Si Si2 0.641991 0.566716 0.104690
Si Si3 0.535459 0.877994 0.638240
Si Si4 0.744913 0.856099 0.034185
Si Si5 0.957949 0.748436 0.874977
Si Si6 0.644578 0.652947 0.875253
O O1 0.476858 0.538027 0.207337
O O2 0.834017 0.355664 0.151838
O O3 0.633155 0.725821 0.098761
O O4 0.442110 0.497154 0.118230
O O5 0.000000 0.500000 0.000000
O O6 0.215593 0.842253 0.767433
O O7 0.605524 0.762599 0.575562
O O8 0.866071 0.891124 0.572996
O O9 0.491416 0.023208 0.624368
O O10 0.723444 0.835244 0.981226
O O11 0.684603 0.666356 0.922722
O O12 0.000000 0.699977 0.750000
#
# Coordination Sequence:
#
# PCOD8119190 Si02
#       6
#     2   4   4   4   4   4
#     4  12  20  38  64  88 118 166 192 246 310 362
#     4  12  21  40  62  94 118 154 205 256 293 360
#     4  10  20  39  60  86 117 163 198 242 292 364
#     4  11  22  37  62  89 121 150 208 250 289 355
#     4  11  19  39  65  83 117 171 195 234 313 363
#     4  10  20  37  64  86 121 162 201 238 303 366
#
# _framework density 20.698618
#
# number of rings (size 3 to 8) (size 9 to 14) (size 15 to 20)
#    0.000    1.091    9.091    0.000    0.000    1.455 
#    6.545    2.727    0.000    0.000    0.000    0.000 
#    0.000    0.000    0.000    0.000    0.000    0.000 
#
# Total GULP energy -272650.531247 kJ/mol
# GULP energy per Si atom -12393.205966 kJ/mol
# Density = 2.065151 g / cm^3
# Si number density = 20.698618 Si / 1000 Ang^3
#
#
#
# Elastic Constant Matrix: (Units=GPa)
#
#
# Indices 1 2 3 4 5 6 
#
# 1 107.1429 19.7237 20.3579 0.0000 20.6986 0.0000
# 2 19.7237 126.0748 31.3197 0.0000 23.1399 0.0000
# 3 20.3579 31.3197 51.4382 0.0000 18.8353 0.0000
# 4 0.0000 0.0000 0.0000 24.1761 0.0000 3.1213
# 5 20.6986 23.1399 18.8353 0.0000 27.4687 0.0000
# 6 0.0000 0.0000 0.0000 3.1213 0.0000 25.5299
#
#
#
# Elastic Compliance Matrix: (Units=1/GPa)
#
#
# Indices 1 2 3 4 5 6 
#
# 1 0.011043 0.000020 -0.001775 0.000000 -0.007121 0.000000
# 2 0.000020 0.009962 -0.003999 0.000000 -0.005665 0.000000
# 3 -0.001775 -0.003999 0.027847 0.000000 -0.014388 0.000000
# 4 0.000000 0.000000 0.000000 0.042027 0.000000 -0.005138
# 5 -0.007121 -0.005665 -0.014388 0.000000 0.056409 0.000000
# 6 0.000000 0.000000 0.000000 -0.005138 0.000000 0.039798
#
#
# Mechanical properties :
#
#
# Convention : Reuss Voigt Hill
#
# Bulk Modulus (GPa) = 26.77872 47.49538 37.13705
# Shear Modulus (GPa) = 23.69207 29.65190 26.67199
#
# Velocity S-wave (km/s) = 3.38690 3.78902 3.59358
# Velocity P-wave (km/s) = 5.31604 6.49139 5.93289
#
# Compressibility (1/GPa) = 0.03734309
#
# Stress axis : x y z
#
# Youngs Moduli (GPa) = 90.55895 100.38259 35.91048
#
# Poissons Ratio (x) = -0.00205 0.06375
# Poissons Ratio (y) = -0.00185 0.14362
# Poissons Ratio (z) = 0.16077 0.40146
#
# Static dielectric constant tensor:
#      x y z
#    x 5.526770 0.000000 0.089800 
#    y 0.000000 3.897870 0.000000 
#    z 0.089800 0.000000 3.521930 
# 
# 
# High freq. dielectric constant tensor:
#      x y z
#    x 1.824730 0.000000 0.009780 
#    y 0.000000 1.799150 0.000000 
#    z 0.009780 0.000000 1.779100 
# 
# From -- ./inp_files/91199.got.cif
#   From: 2010.06.25/outbox.cif.g09.slc.cpg/sg13_46_cif.got.tgz:91199.got - 2010.06.28 04:50:58.
