data_PCOD8119281
_publ_section_title
;
Structure prediction by ZEFSAII (Michael W. Deem and Ramdas Pophale) SiO2 
 PCOD8119281
Probable space group: P 2/C
;
_chemical_formula_sum "Si O2"
_cell_formula_units_Z 18
_cell_length_a 9.400920
_cell_length_b 8.916597
_cell_length_c 14.623629
_cell_angle_alpha 90.000000
_cell_angle_beta 128.387389
_cell_angle_gamma 90.000000
_cell_volume 960.830152
_symmetry_space_group_name_H-M "P 2/C"
_symmetry_group_IT_number 13
_symmetry_cell_setting 'monoclinic'
loop_
_space_group_symop_operation_xyz
x,y,z
-x,y,1/2-z
-x,-y,-z
x,-y,1/2+z
loop_
_atom_site_type_symbol
_atom_site_label
_atom_site_fract_x
_atom_site_fract_y
_atom_site_fract_z
Si Si1 0.000000 0.817758 0.750000
Si Si2 0.738373 0.369831 0.266797
Si Si3 0.705215 0.948267 0.075561
Si Si4 0.211709 0.644277 0.329373
Si Si5 0.339574 0.697558 0.566729
O O1 0.090819 0.712378 0.710308
O O2 0.153690 0.916786 0.860130
O O3 0.714477 0.541271 0.223345
O O4 0.764573 0.368039 0.386821
O O5 0.554055 0.283973 0.168351
O O6 0.740117 0.820661 0.168470
O O7 0.734111 0.864886 0.988762
O O8 0.500000 0.000000 0.000000
O O9 0.298360 0.591319 0.461945
O O10 0.000000 0.620415 0.250000
#
# Coordination Sequence:
#
# PCOD8119281 Si02
#       5
#     2   4   4   4   4
#     4  12  20  36  64  86 118 168 196 242 318 344
#     4  11  21  38  63  87 118 157 206 245 296 361
#     4  10  20  38  61  85 123 159 194 244 306 361
#     4  10  20  38  60  87 119 156 199 250 296 349
#     4   9  22  38  61  86 121 153 200 250 295 353
#
# _framework density 18.733799000000001
#
# number of rings (size 3 to 8) (size 9 to 14) (size 15 to 20)
#    1.333    0.444    4.444    0.667    0.000    1.778 
#    0.000    0.000    9.778    0.000    0.000    0.000 
#    0.000    0.000    0.000    0.000    0.000    0.000 
#
# Total GULP energy -222985.812563 kJ/mol
# GULP energy per Si atom -12388.100698 kJ/mol
# Density = 1.869116 g / cm^3
# Si number density = 18.733799 Si / 1000 Ang^3
#
#
#
# Elastic Constant Matrix: (Units=GPa)
#
#
# Indices 1 2 3 4 5 6 
#
# 1 108.1564 39.5393 35.8828 0.0000 -7.8184 0.0000
# 2 39.5393 90.4807 17.0788 0.0000 -6.9252 0.0000
# 3 35.8828 17.0788 73.8645 0.0000 -1.4873 0.0000
# 4 0.0000 0.0000 0.0000 16.7633 0.0000 -16.0687
# 5 -7.8184 -6.9252 -1.4873 0.0000 36.2922 0.0000
# 6 0.0000 0.0000 0.0000 -16.0687 0.0000 8.3261
#
#
#
# Elastic Compliance Matrix: (Units=1/GPa)
#
#
# Indices 1 2 3 4 5 6 
#
# 1 0.012687 -0.004453 -0.005100 0.000000 0.001674 0.000000
# 2 -0.004453 0.013281 -0.000877 0.000000 0.001539 0.000000
# 3 -0.005100 -0.000877 0.016206 0.000000 -0.000602 0.000000
# 4 0.000000 0.000000 0.000000 -0.070185 0.000000 -0.135452
# 5 0.001674 0.001539 -0.000602 0.000000 0.028184 0.000000
# 6 0.000000 0.000000 0.000000 -0.135452 0.000000 -0.141307
#
#
# Mechanical properties :
#
#
# Convention : Reuss Voigt Hill
#
# Bulk Modulus (GPa) = 46.91463 50.83373 48.87418
# Shear Modulus (GPa) = -44.18161 24.27636 -9.95263
#
# Velocity S-wave (km/s) = -4.86159 3.60371 -2.30742
# Velocity P-wave (km/s) = 2.53305 6.67153 4.36423
#
# Compressibility (1/GPa) = 0.02131531
#
# Stress axis : x y z
#
# Youngs Moduli (GPa) = 78.82166 75.29345 61.70442
#
# Poissons Ratio (x) = 0.33530 0.31468
# Poissons Ratio (y) = 0.35101 0.05409
# Poissons Ratio (z) = 0.40197 0.06600
#
# Static dielectric constant tensor:
#      x y z
#    x 3.297780 0.000000 -0.024980 
#    y 0.000000 3.611490 0.000000 
#    z -0.024980 0.000000 3.600980 
# 
# 
# High freq. dielectric constant tensor:
#      x y z
#    x 1.705250 0.000000 0.016930 
#    y 0.000000 1.720180 0.000000 
#    z 0.016930 0.000000 1.735690 
# 
# From -- ./inp_files/62766.got.cif
#   From: 2010.06.25/outbox.cif.g09.slc.cpg/sg13_32_cif.got.tgz:62766.got - 2010.06.28 04:50:58.
