data_PCOD8119576
_publ_section_title
;
Structure prediction by ZEFSAII (Michael W. Deem and Ramdas Pophale) SiO2 
 PCOD8119576
Probable space group: P 2/C
;
_chemical_formula_sum "Si O2"
_cell_formula_units_Z 28
_cell_length_a 15.106387
_cell_length_b 12.291996
_cell_length_c 9.459548
_cell_angle_alpha 90.000000
_cell_angle_beta 118.720095
_cell_angle_gamma 90.000000
_cell_volume 1540.429915
_symmetry_space_group_name_H-M "P 2/C"
_symmetry_group_IT_number 13
_symmetry_cell_setting 'monoclinic'
loop_
_space_group_symop_operation_xyz
x,y,z
-x,y,1/2-z
-x,-y,-z
x,-y,1/2+z
loop_
_atom_site_type_symbol
_atom_site_label
_atom_site_fract_x
_atom_site_fract_y
_atom_site_fract_z
Si Si1 0.215282 0.189347 0.696350
Si Si2 0.610705 0.116279 0.504443
Si Si3 0.383393 0.104340 0.317795
Si Si4 0.073711 0.998386 0.185443
Si Si5 0.945379 0.362353 0.841034
Si Si6 0.917471 0.395531 0.295735
Si Si7 0.789664 0.802050 0.636244
O O1 0.166400 0.080949 0.724684
O O2 0.141435 0.290407 0.658063
O O3 0.240355 0.177814 0.549927
O O4 0.317764 0.207182 0.866650
O O5 0.495027 0.156221 0.417780
O O6 0.645542 0.091414 0.370202
O O7 0.622340 0.011508 0.612148
O O8 0.306384 0.183317 0.336964
O O9 0.000000 0.954584 0.250000
O O10 0.118451 0.117473 0.253228
O O11 0.000000 0.000000 0.000000
O O12 0.893549 0.476634 0.755014
O O13 0.000000 0.305124 0.750000
O O14 0.039512 0.379691 0.015774
O O15 0.819449 0.322603 0.190910
O O16 0.000000 0.352814 0.250000
#
# Coordination Sequence:
#
# PCOD8119576 Si02
#       7
#     4   4   4   4   4   4   4
#     4  12  23  37  57  84 113 151 192 231 281 340
#     4  10  22  39  58  82 113 146 192 234 282 343
#     4  10  22  39  58  82 112 149 188 236 284 338
#     4  12  24  35  49  79 119 153 181 218 276 335
#     4  10  22  37  59  85 111 153 196 238 275 333
#     4  10  20  40  59  80 116 152 195 234 280 331
#     4  12  23  37  58  82 114 154 187 233 285 334
#
# _framework density 18.176742999999998
#
# number of rings (size 3 to 8) (size 9 to 14) (size 15 to 20)
#    0.000    1.143    4.286    2.571    4.000    1.714 
#    0.000    0.000    0.000    0.857    0.000    0.000 
#    0.000    0.000    0.000    0.000    0.000    0.000 
#
# Total GULP energy -347153.917809 kJ/mol
# GULP energy per Si atom -12398.354207 kJ/mol
# Density = 1.813537 g / cm^3
# Si number density = 18.176743 Si / 1000 Ang^3
#
#
#
# Elastic Constant Matrix: (Units=GPa)
#
#
# Indices 1 2 3 4 5 6 
#
# 1 111.0176 22.2866 50.7515 0.0000 -17.3830 0.0000
# 2 22.2866 58.5405 19.6746 0.0000 0.2696 0.0000
# 3 50.7515 19.6746 135.1455 0.0000 -13.4289 0.0000
# 4 0.0000 0.0000 0.0000 20.7632 0.0000 -0.9166
# 5 -17.3830 0.2696 -13.4289 0.0000 36.5847 0.0000
# 6 0.0000 0.0000 0.0000 -0.9166 0.0000 16.5231
#
#
#
# Elastic Compliance Matrix: (Units=1/GPa)
#
#
# Indices 1 2 3 4 5 6 
#
# 1 0.012017 -0.003392 -0.003580 0.000000 0.004421 0.000000
# 2 -0.003392 0.018964 -0.001724 0.000000 -0.002384 0.000000
# 3 -0.003580 -0.001724 0.009161 0.000000 0.001675 0.000000
# 4 0.000000 0.000000 0.000000 0.048280 0.000000 0.002678
# 5 0.004421 -0.002384 0.001675 0.000000 0.030067 0.000000
# 6 0.000000 0.000000 0.000000 0.002678 0.000000 0.060670
#
#
# Mechanical properties :
#
#
# Convention : Reuss Voigt Hill
#
# Bulk Modulus (GPa) = 43.95472 54.45877 49.20675
# Shear Modulus (GPa) = 24.49367 28.90693 26.70030
#
# Velocity S-wave (km/s) = 3.67485 3.99221 3.83682
# Velocity P-wave (km/s) = 6.49926 7.16073 6.83800
#
# Compressibility (1/GPa) = 0.02275069
#
# Stress axis : x y z
#
# Youngs Moduli (GPa) = 83.21358 52.73159 109.15741
#
# Poissons Ratio (x) = 0.17888 0.39075
# Poissons Ratio (y) = 0.28228 0.18817
# Poissons Ratio (z) = 0.29788 0.09090
#
# Static dielectric constant tensor:
#      x y z
#    x 3.560490 0.000000 -0.029580 
#    y 0.000000 3.029070 0.000000 
#    z -0.029580 0.000000 3.610600 
# 
# 
# High freq. dielectric constant tensor:
#      x y z
#    x 1.706520 0.000000 -0.016470 
#    y 0.000000 1.675340 0.000000 
#    z -0.016470 0.000000 1.722540 
# 
# From -- ./inp_files/18755.got.cif
#   From: 2010.06.25/outbox.cif.g09.slc.cpg/sg13_10_cif.got.tgz:18755.got - 2010.06.28 04:50:58.
