data_PCOD8119207
_publ_section_title
;
Structure prediction by ZEFSAII (Michael W. Deem and Ramdas Pophale) SiO2 
 PCOD8119207
Probable space group: P 2/C
;
_chemical_formula_sum "Si O2"
_cell_formula_units_Z 20
_cell_length_a 25.103055
_cell_length_b 6.860152
_cell_length_c 17.476998
_cell_angle_alpha 90.000000
_cell_angle_beta 18.847914
_cell_angle_gamma 90.000000
_cell_volume 972.314159
_symmetry_space_group_name_H-M "P 2/C"
_symmetry_group_IT_number 13
_symmetry_cell_setting 'monoclinic'
loop_
_space_group_symop_operation_xyz
x,y,z
-x,y,1/2-z
-x,-y,-z
x,-y,1/2+z
loop_
_atom_site_type_symbol
_atom_site_label
_atom_site_fract_x
_atom_site_fract_y
_atom_site_fract_z
Si Si1 0.324650 0.902237 0.240518
Si Si2 0.875383 0.565591 0.234832
Si Si3 0.155612 0.707642 0.944490
Si Si4 0.268068 0.561344 0.424095
Si Si5 0.634723 0.422517 0.935861
O O1 0.299647 0.779065 0.351712
O O2 0.305907 0.758165 0.195073
O O3 0.189391 0.070833 0.421419
O O4 0.500000 0.000000 0.000000
O O5 0.822334 0.406984 0.371341
O O6 0.706402 0.629102 0.422754
O O7 0.000000 0.500000 0.000000
O O8 0.974864 0.723830 0.150285
O O9 0.157101 0.567036 0.016805
O O10 0.289405 0.622493 0.702031
O O11 0.438586 0.442712 0.203846
#
# Coordination Sequence:
#
# PCOD8119207 Si02
#       5
#     4   4   4   4   4
#     4  11  19  37  69  95 116 155 211 262 311 368
#     4  10  23  40  58  86 129 169 200 253 318 365
#     4  10  20  39  62  92 124 156 208 261 308 375
#     4  11  20  38  66  91 117 165 215 253 307 381
#     4  10  20  37  65  90 123 161 205 257 315 372
#
# _framework density 20.569482000000001
#
# number of rings (size 3 to 8) (size 9 to 14) (size 15 to 20)
#    0.000    1.600    4.000    2.400    0.000    0.800 
#    0.000   16.000    0.000    0.000    0.000    0.000 
#    0.000    0.000    0.000    0.000    0.000    0.000 
#
# Total GULP energy -247789.038072 kJ/mol
# GULP energy per Si atom -12389.451904 kJ/mol
# Density = 2.052267 g / cm^3
# Si number density = 20.569482 Si / 1000 Ang^3
#
#
#
# Elastic Constant Matrix: (Units=GPa)
#
#
# Indices 1 2 3 4 5 6 
#
# 1 160.3155 47.6346 62.3471 0.0000 -3.4033 0.0000
# 2 47.6346 121.2291 35.4006 0.0000 5.0473 0.0000
# 3 62.3471 35.4006 80.2663 0.0000 15.3766 0.0000
# 4 0.0000 0.0000 0.0000 16.0934 0.0000 -5.9564
# 5 -3.4033 5.0473 15.3766 0.0000 48.0759 0.0000
# 6 0.0000 0.0000 0.0000 -5.9564 0.0000 22.9642
#
#
#
# Elastic Compliance Matrix: (Units=1/GPa)
#
#
# Indices 1 2 3 4 5 6 
#
# 1 0.009704 -0.001797 -0.007364 0.000000 0.003231 0.000000
# 2 -0.001797 0.009807 -0.002884 0.000000 -0.000234 0.000000
# 3 -0.007364 -0.002884 0.020765 0.000000 -0.006860 0.000000
# 4 0.000000 0.000000 0.000000 0.068736 0.000000 0.017828
# 5 0.003231 -0.000234 -0.006860 0.000000 0.023248 0.000000
# 6 0.000000 0.000000 0.000000 0.017828 0.000000 0.048170
#
#
# Mechanical properties :
#
#
# Convention : Reuss Voigt Hill
#
# Bulk Modulus (GPa) = 61.78664 72.50837 67.14751
# Shear Modulus (GPa) = 23.81897 31.85527 27.83712
#
# Velocity S-wave (km/s) = 3.40660 3.93958 3.68274
# Velocity P-wave (km/s) = 6.75103 7.48470 7.12731
#
# Compressibility (1/GPa) = 0.01618473
#
# Stress axis : x y z
#
# Youngs Moduli (GPa) = 103.04818 101.96727 48.15810
#
# Poissons Ratio (x) = 0.18325 0.35464
# Poissons Ratio (y) = 0.18520 0.13891
# Poissons Ratio (z) = 0.75886 0.29412
#
# Static dielectric constant tensor:
#      x y z
#    x 4.420150 0.000000 -0.196660 
#    y 0.000000 4.477700 0.000000 
#    z -0.196660 0.000000 3.895310 
# 
# 
# High freq. dielectric constant tensor:
#      x y z
#    x 1.823120 0.000000 -0.008650 
#    y 0.000000 1.766510 0.000000 
#    z -0.008650 0.000000 1.813620 
# 
# From -- ./inp_files/65045.got.cif
#   From: 2010.06.25/outbox.cif.g09.slc.cpg/sg13_33_cif.got.tgz:65045.got - 2010.06.28 04:50:58.
