data_PCOD8119944
_publ_section_title
;
Structure prediction by ZEFSAII (Michael W. Deem and Ramdas Pophale) SiO2 
 PCOD8119944
Probable space group: P 2/C
;
_chemical_formula_sum "Si O2"
_cell_formula_units_Z 32
_cell_length_a 16.823234
_cell_length_b 16.811762
_cell_length_c 5.261486
_cell_angle_alpha 90.000000
_cell_angle_beta 88.279038
_cell_angle_gamma 90.000000
_cell_volume 1487.425425
_symmetry_space_group_name_H-M "P 2/C"
_symmetry_group_IT_number 13
_symmetry_cell_setting 'monoclinic'
loop_
_space_group_symop_operation_xyz
x,y,z
-x,y,1/2-z
-x,-y,-z
x,-y,1/2+z
loop_
_atom_site_type_symbol
_atom_site_label
_atom_site_fract_x
_atom_site_fract_y
_atom_site_fract_z
Si Si1 0.093780 0.042957 0.701043
Si Si2 0.645222 0.203674 0.927423
Si Si3 0.171641 0.208691 0.579393
Si Si4 0.588688 0.532987 0.987958
Si Si5 0.410824 0.966777 0.017508
Si Si6 0.642420 0.299272 0.420938
Si Si7 0.033964 0.590420 0.499566
Si Si8 0.824267 0.689785 0.919130
O O1 0.117477 0.131203 0.611080
O O2 0.000000 0.039036 0.750000
O O3 0.127355 0.984474 0.473774
O O4 0.737065 0.180653 0.959279
O O5 0.589022 0.127759 0.963517
O O6 0.618515 0.264400 0.149789
O O7 0.630204 0.236456 0.647047
O O8 0.147644 0.262707 0.337309
O O9 0.159311 0.256584 0.838639
O O10 0.634083 0.502226 0.236290
O O11 0.500000 0.500000 0.000000
O O12 0.584254 0.627801 0.981104
O O13 0.365881 0.995589 0.766172
O O14 0.500000 0.000000 0.000000
O O15 0.732157 0.333044 0.405438
O O16 0.128467 0.606218 0.528480
O O17 0.000000 0.632898 0.250000
O O18 0.000000 0.500000 0.500000
O O19 0.000000 0.634992 0.750000
#
# Coordination Sequence:
#
# PCOD8119944 Si02
#       8
#     4   4   4   4   4   4   4   4
#     4  10  21  36  53  80 115 147 192 238 289 345
#     4  10  21  38  61  85 118 156 199 247 292 355
#     4  10  21  36  59  85 111 153 199 239 297 340
#     4  10  21  40  60  88 119 146 190 246 299 361
#     4  10  21  38  56  84 123 154 199 242 293 357
#     4  10  21  40  61  87 117 155 203 246 299 352
#     4  10  21  38  56  82 120 150 191 236 289 350
#     4  10  21  38  58  85 116 152 198 244 286 356
#
# _framework density 21.513681999999999
#
# number of rings (size 3 to 8) (size 9 to 14) (size 15 to 20)
#    0.000    2.000    0.000    3.000    0.000    2.500 
#    4.500   15.000    0.000    0.000    0.000    0.000 
#    0.000    0.000    0.000    0.000    0.000    0.000 
#
# Total GULP energy -396485.091590 kJ/mol
# GULP energy per Si atom -12390.159112 kJ/mol
# Density = 2.146472 g / cm^3
# Si number density = 21.513682 Si / 1000 Ang^3
#
#
#
# Elastic Constant Matrix: (Units=GPa)
#
#
# Indices 1 2 3 4 5 6 
#
# 1 51.6473 43.3198 20.2043 0.0000 -2.7704 0.0000
# 2 43.3198 112.9913 36.2260 0.0000 -8.4444 0.0000
# 3 20.2043 36.2260 196.5224 0.0000 -6.9624 0.0000
# 4 0.0000 0.0000 0.0000 29.4729 0.0000 -3.6137
# 5 -2.7704 -8.4444 -6.9624 0.0000 10.1810 0.0000
# 6 0.0000 0.0000 0.0000 -3.6137 0.0000 37.1219
#
#
#
# Elastic Compliance Matrix: (Units=1/GPa)
#
#
# Indices 1 2 3 4 5 6 
#
# 1 0.028749 -0.010833 -0.001025 0.000000 -0.001863 0.000000
# 2 -0.010833 0.013968 -0.001184 0.000000 0.007828 0.000000
# 3 -0.001025 -0.001184 0.005501 0.000000 0.002501 0.000000
# 4 0.000000 0.000000 0.000000 0.034339 0.000000 0.003343
# 5 -0.001863 0.007828 0.002501 0.000000 0.105919 0.000000
# 6 0.000000 0.000000 0.000000 0.003343 0.000000 0.027264
#
#
# Mechanical properties :
#
#
# Convention : Reuss Voigt Hill
#
# Bulk Modulus (GPa) = 45.17708 62.29568 53.73638
# Shear Modulus (GPa) = 20.06414 32.78254 26.42334
#
# Velocity S-wave (km/s) = 3.05720 3.90782 3.50839
# Velocity P-wave (km/s) = 5.78850 7.02713 6.43768
#
# Compressibility (1/GPa) = 0.02213512
#
# Stress axis : x y z
#
# Youngs Moduli (GPa) = 34.78352 71.59219 181.79681
#
# Poissons Ratio (x) = 0.77555 0.18631
# Poissons Ratio (y) = 0.37680 0.21520
# Poissons Ratio (z) = 0.03565 0.08475
#
# Static dielectric constant tensor:
#      x y z
#    x 3.664730 0.000000 -0.097440 
#    y 0.000000 3.640280 0.000000 
#    z -0.097440 0.000000 5.976890 
# 
# 
# High freq. dielectric constant tensor:
#      x y z
#    x 1.813380 0.000000 -0.003780 
#    y 0.000000 1.831450 0.000000 
#    z -0.003780 0.000000 1.886890 
# 
# From -- ./inp_files/6271.got.cif
#   From: 2010.06.25/outbox.cif.g09.slc.cpg/sg13_4_cif.got.tgz:6271.got - 2010.06.28 04:50:58.
