data_PCOD8119389
_publ_section_title
;
Structure prediction by ZEFSAII (Michael W. Deem and Ramdas Pophale) SiO2 
 PCOD8119389
Probable space group: P 2/C
;
_chemical_formula_sum "Si O2"
_cell_formula_units_Z 26
_cell_length_a 6.444547
_cell_length_b 11.831969
_cell_length_c 19.526015
_cell_angle_alpha 90.000000
_cell_angle_beta 54.525803
_cell_angle_gamma 90.000000
_cell_volume 1212.518887
_symmetry_space_group_name_H-M "P 2/C"
_symmetry_group_IT_number 13
_symmetry_cell_setting 'monoclinic'
loop_
_space_group_symop_operation_xyz
x,y,z
-x,y,1/2-z
-x,-y,-z
x,-y,1/2+z
loop_
_atom_site_type_symbol
_atom_site_label
_atom_site_fract_x
_atom_site_fract_y
_atom_site_fract_z
Si Si1 0.723897 0.062009 0.660416
Si Si2 0.054469 0.827593 0.886480
Si Si3 0.000000 0.268457 0.250000
Si Si4 0.968645 0.264389 0.835936
Si Si5 0.694330 0.586900 0.150209
Si Si6 0.459580 0.346995 0.337028
Si Si7 0.409358 0.217451 0.933355
O O1 0.500000 0.009681 0.750000
O O2 0.621964 0.107014 0.607593
O O3 0.840735 0.163761 0.681731
O O4 0.918401 0.961151 0.606602
O O5 0.067595 0.807118 0.802625
O O6 0.277161 0.760896 0.886012
O O7 0.783936 0.787113 0.966476
O O8 0.742574 0.340405 0.317249
O O9 0.691066 0.221203 0.910723
O O10 0.000000 0.293563 0.750000
O O11 0.033373 0.376114 0.869039
O O12 0.500000 0.600702 0.250000
O O13 0.690510 0.462901 0.115620
O O14 0.623784 0.668778 0.102448
O O15 0.500000 0.357058 0.250000
#
# Coordination Sequence:
#
# PCOD8119389 Si02
#       7
#     4   4   2   4   4   4   4
#     4  11  22  39  64  90 122 163 203 256 315 371
#     4  11  25  41  61  90 130 166 209 256 309 369
#     4  10  22  42  64  88 124 172 214 248 308 376
#     4  11  20  37  63  93 123 158 204 252 311 374
#     4  10  20  38  64  90 121 161 204 261 313 364
#     4   9  21  41  62  89 121 166 212 256 306 370
#     4  11  23  39  61  95 125 162 206 259 315 365
#
# _framework density 21.442962999999999
#
# number of rings (size 3 to 8) (size 9 to 14) (size 15 to 20)
#    0.000    1.538    3.077    2.769    1.077    8.615 
#    1.385    1.538    0.000    0.000    0.000    0.000 
#    0.000    0.000    0.000    0.000    0.000    0.000 
#
# Total GULP energy -322315.596765 kJ/mol
# GULP energy per Si atom -12396.753722 kJ/mol
# Density = 2.139416 g / cm^3
# Si number density = 21.442963 Si / 1000 Ang^3
#
#
#
# Elastic Constant Matrix: (Units=GPa)
#
#
# Indices 1 2 3 4 5 6 
#
# 1 128.5637 40.4546 17.6935 0.0000 -20.7926 0.0000
# 2 40.4546 114.9607 8.9253 0.0000 2.2074 0.0000
# 3 17.6935 8.9253 72.2313 0.0000 -13.4588 0.0000
# 4 0.0000 0.0000 0.0000 50.3271 0.0000 -19.9449
# 5 -20.7926 2.2074 -13.4588 0.0000 30.2904 0.0000
# 6 0.0000 0.0000 0.0000 -19.9449 0.0000 24.1760
#
#
#
# Elastic Compliance Matrix: (Units=1/GPa)
#
#
# Indices 1 2 3 4 5 6 
#
# 1 0.010143 -0.003644 -0.000750 0.000000 0.006895 0.000000
# 2 -0.003644 0.010133 -0.001050 0.000000 -0.003706 0.000000
# 3 -0.000750 -0.001050 0.015347 0.000000 0.006381 0.000000
# 4 0.000000 0.000000 0.000000 0.029522 0.000000 0.024355
# 5 0.006895 -0.003706 0.006381 0.000000 0.040852 0.000000
# 6 0.000000 0.000000 0.000000 0.024355 0.000000 0.061456
#
#
# Mechanical properties :
#
#
# Convention : Reuss Voigt Hill
#
# Bulk Modulus (GPa) = 40.42604 49.98914 45.20759
# Shear Modulus (GPa) = 26.79731 37.53755 32.16743
#
# Velocity S-wave (km/s) = 3.53895 4.18853 3.87736
# Velocity P-wave (km/s) = 5.96595 6.83776 6.41668
#
# Compressibility (1/GPa) = 0.02473653
#
# Stress axis : x y z
#
# Youngs Moduli (GPa) = 98.58976 98.68281 65.16034
#
# Poissons Ratio (x) = 0.35955 0.04885
# Poissons Ratio (y) = 0.35921 0.06843
# Poissons Ratio (z) = 0.07391 0.10364
#
# Static dielectric constant tensor:
#      x y z
#    x 4.464460 0.000000 -0.336930 
#    y 0.000000 4.171750 0.000000 
#    z -0.336930 0.000000 3.736280 
# 
# 
# High freq. dielectric constant tensor:
#      x y z
#    x 1.844530 0.000000 -0.008920 
#    y 0.000000 1.839550 0.000000 
#    z -0.008920 0.000000 1.824310 
# 
# From -- ./inp_files/61118.got.cif
#   From: 2010.06.25/outbox.cif.g09.slc.cpg/sg13_31_cif.got.tgz:61118.got - 2010.06.28 04:50:58.
