data_PCOD8119872
_publ_section_title
;
Structure prediction by ZEFSAII (Michael W. Deem and Ramdas Pophale) SiO2 
 PCOD8119872
Probable space group: P 2/C
;
_chemical_formula_sum "Si O2"
_cell_formula_units_Z 32
_cell_length_a 13.478239
_cell_length_b 5.283163
_cell_length_c 26.806982
_cell_angle_alpha 90.000000
_cell_angle_beta 116.169639
_cell_angle_gamma 90.000000
_cell_volume 1713.190934
_symmetry_space_group_name_H-M "P 2/C"
_symmetry_group_IT_number 13
_symmetry_cell_setting 'monoclinic'
loop_
_space_group_symop_operation_xyz
x,y,z
-x,y,1/2-z
-x,-y,-z
x,-y,1/2+z
loop_
_atom_site_type_symbol
_atom_site_label
_atom_site_fract_x
_atom_site_fract_y
_atom_site_fract_z
Si Si1 0.316467 0.933362 0.828678
Si Si2 0.471173 0.175064 0.638527
Si Si3 0.781757 0.805184 0.793351
Si Si4 0.347414 0.439047 0.417083
Si Si5 0.853944 0.718487 0.172815
Si Si6 0.550791 0.200064 0.973972
Si Si7 0.901498 0.676474 0.295979
Si Si8 0.580286 0.675285 0.813064
O O1 0.292456 0.779228 0.772876
O O2 0.381660 0.761979 0.882434
O O3 0.393461 0.184573 0.837102
O O4 0.201076 0.007648 0.830182
O O5 0.408156 0.114332 0.571824
O O6 0.420479 0.427453 0.651617
O O7 0.460947 0.925291 0.669308
O O8 0.875332 0.587369 0.817800
O O9 0.703763 0.746634 0.822950
O O10 0.833237 0.088874 0.804616
O O11 0.226803 0.551223 0.379240
O O12 0.346776 0.327194 0.473505
O O13 0.450060 0.622256 0.436923
O O14 0.871310 0.610001 0.232143
O O15 0.969563 0.745949 0.169650
O O16 0.500000 0.000000 0.000000
O O17 0.500000 0.605588 0.750000
#
# Coordination Sequence:
#
# PCOD8119872 Si02
#       8
#     4   4   4   4   4   4   4   4
#     4  11  21  35  59  85 127 161 193 239 303 359
#     4  12  24  39  58  89 120 163 194 252 288 363
#     4  11  23  40  57  85 120 163 203 252 287 355
#     4  11  20  36  57  84 126 161 197 238 296 372
#     4  10  21  34  56  89 121 161 196 239 300 381
#     4  11  23  35  57  87 123 165 196 243 307 363
#     4  10  23  36  60  85 124 160 199 245 304 352
#     4  12  26  38  61  85 117 162 215 236 302 357
#
# _framework density 18.678595999999999
#
# number of rings (size 3 to 8) (size 9 to 14) (size 15 to 20)
#    0.000    1.000    5.000    1.875    7.000    1.000 
#    0.000    0.000    0.000    0.000    0.000    5.250 
#    0.000    0.000    0.000    0.000    0.000    0.000 
#
# Total GULP energy -396470.723096 kJ/mol
# GULP energy per Si atom -12389.710097 kJ/mol
# Density = 1.863608 g / cm^3
# Si number density = 18.678596 Si / 1000 Ang^3
#
#
#
# Elastic Constant Matrix: (Units=GPa)
#
#
# Indices 1 2 3 4 5 6 
#
# 1 74.3328 20.8194 41.1464 0.0000 9.6710 0.0000
# 2 20.8194 86.0179 32.5234 0.0000 2.1670 0.0000
# 3 41.1464 32.5234 92.4818 0.0000 2.0223 0.0000
# 4 0.0000 0.0000 0.0000 24.2975 0.0000 -0.7008
# 5 9.6710 2.1670 2.0223 0.0000 23.2929 0.0000
# 6 0.0000 0.0000 0.0000 -0.7008 0.0000 26.8024
#
#
#
# Elastic Compliance Matrix: (Units=1/GPa)
#
#
# Indices 1 2 3 4 5 6 
#
# 1 0.019133 -0.001490 -0.007833 0.000000 -0.007125 0.000000
# 2 -0.001490 0.013541 -0.004093 0.000000 -0.000286 0.000000
# 3 -0.007833 -0.004093 0.015688 0.000000 0.002271 0.000000
# 4 0.000000 0.000000 0.000000 0.041188 0.000000 0.001077
# 5 -0.007125 -0.000286 0.002271 0.000000 0.045719 0.000000
# 6 0.000000 0.000000 0.000000 0.001077 0.000000 0.037338
#
#
# Mechanical properties :
#
#
# Convention : Reuss Voigt Hill
#
# Bulk Modulus (GPa) = 46.44582 49.09010 47.76796
# Shear Modulus (GPa) = 24.19966 25.43477 24.81721
#
# Velocity S-wave (km/s) = 3.60332 3.69413 3.64901
# Velocity P-wave (km/s) = 6.49859 6.67338 6.58657
#
# Compressibility (1/GPa) = 0.02153046
#
# Stress axis : x y z
#
# Youngs Moduli (GPa) = 52.26537 73.85100 63.74468
#
# Poissons Ratio (x) = 0.11002 0.49930
# Poissons Ratio (y) = 0.07786 0.26090
# Poissons Ratio (z) = 0.40939 0.30226
#
# Static dielectric constant tensor:
#      x y z
#    x 3.374740 0.000000 0.007510 
#    y 0.000000 3.480360 0.000000 
#    z 0.007510 0.000000 3.527510 
# 
# 
# High freq. dielectric constant tensor:
#      x y z
#    x 1.705160 0.000000 -0.001860 
#    y 0.000000 1.738650 0.000000 
#    z -0.001860 0.000000 1.706430 
# 
# From -- ./inp_files/85992.got.cif
#   From: 2010.06.25/outbox.cif.g09.slc.cpg/sg13_43_cif.got.tgz:85992.got - 2010.06.28 04:50:58.
