data_PCOD8119550
_publ_section_title
;
Structure prediction by ZEFSAII (Michael W. Deem and Ramdas Pophale) SiO2 
 PCOD8119550
Probable space group: P 2/C
;
_chemical_formula_sum "Si O2"
_cell_formula_units_Z 22
_cell_length_a 4.998387
_cell_length_b 14.922758
_cell_length_c 13.906841
_cell_angle_alpha 90.000000
_cell_angle_beta 110.798997
_cell_angle_gamma 90.000000
_cell_volume 969.708012
_symmetry_space_group_name_H-M "P 2/C"
_symmetry_group_IT_number 13
_symmetry_cell_setting 'monoclinic'
loop_
_space_group_symop_operation_xyz
x,y,z
-x,y,1/2-z
-x,-y,-z
x,-y,1/2+z
loop_
_atom_site_type_symbol
_atom_site_label
_atom_site_fract_x
_atom_site_fract_y
_atom_site_fract_z
Si Si1 0.786721 0.580705 0.005304
Si Si2 0.702825 0.887681 0.478972
Si Si3 0.740493 0.000863 0.163131
Si Si4 0.760177 0.221327 0.467661
Si Si5 0.500000 0.843017 0.750000
Si Si6 0.684829 0.507854 0.680557
O O1 0.896607 0.681050 0.005844
O O2 0.493658 0.579747 0.904893
O O3 0.725636 0.574648 0.111914
O O4 0.000000 0.500000 0.000000
O O5 0.799143 0.969513 0.560867
O O6 0.515281 0.808895 0.505812
O O7 0.989281 0.846861 0.471554
O O8 0.528629 0.933172 0.368885
O O9 0.702010 0.093831 0.213798
O O10 0.000000 0.950356 0.250000
O O11 0.689911 0.218805 0.344699
O O12 0.500000 0.477957 0.750000
O O13 0.000000 0.545766 0.750000
#
# Coordination Sequence:
#
# PCOD8119550 Si02
#       6
#     4   4   4   4   2   4
#     4  11  26  45  76 104 143 190 243 295 358 425
#     4  10  24  39  64  94 138 177 212 288 339 410
#     4  10  20  39  66  93 132 176 225 264 357 418
#     4  11  25  42  63 106 137 171 231 292 343 402
#     4  10  22  38  68 100 132 164 224 294 346 410
#     4  11  24  44  71 104 134 193 239 289 359 429
#
# _framework density 22.687241
#
# number of rings (size 3 to 8) (size 9 to 14) (size 15 to 20)
#    0.000    1.455    3.636    0.000    8.909    2.182 
#    0.000    2.727    6.000    0.000    0.000    0.000 
#    0.000    0.000    0.000    0.000    0.000    0.000 
#
# Total GULP energy -272633.303749 kJ/mol
# GULP energy per Si atom -12392.422898 kJ/mol
# Density = 2.263560 g / cm^3
# Si number density = 22.687241 Si / 1000 Ang^3
#
#
#
# Elastic Constant Matrix: (Units=GPa)
#
#
# Indices 1 2 3 4 5 6 
#
# 1 94.5131 12.7255 40.8146 0.0000 12.3928 0.0000
# 2 12.7255 90.5449 22.6419 0.0000 10.1624 0.0000
# 3 40.8146 22.6419 121.2840 0.0000 18.2549 0.0000
# 4 0.0000 0.0000 0.0000 18.5237 0.0000 -1.1464
# 5 12.3928 10.1624 18.2549 0.0000 50.1406 0.0000
# 6 0.0000 0.0000 0.0000 -1.1464 0.0000 19.1297
#
#
#
# Elastic Compliance Matrix: (Units=1/GPa)
#
#
# Indices 1 2 3 4 5 6 
#
# 1 0.012540 -0.000619 -0.003869 0.000000 -0.001565 0.000000
# 2 -0.000619 0.011746 -0.001745 0.000000 -0.001592 0.000000
# 3 -0.003869 -0.001745 0.010237 0.000000 -0.002417 0.000000
# 4 0.000000 0.000000 0.000000 0.054186 0.000000 0.003247
# 5 -0.001565 -0.001592 -0.002417 0.000000 0.021534 0.000000
# 6 0.000000 0.000000 0.000000 0.003247 0.000000 0.052469
#
#
# Mechanical properties :
#
#
# Convention : Reuss Voigt Hill
#
# Bulk Modulus (GPa) = 45.33673 50.96732 48.15202
# Shear Modulus (GPa) = 27.39287 32.90280 30.14783
#
# Velocity S-wave (km/s) = 3.47855 3.81238 3.64929
# Velocity P-wave (km/s) = 6.01336 6.47248 6.24714
#
# Compressibility (1/GPa) = 0.02205717
#
# Stress axis : x y z
#
# Youngs Moduli (GPa) = 79.74581 85.13305 97.68934
#
# Poissons Ratio (x) = 0.05272 0.37793
# Poissons Ratio (y) = 0.04939 0.17045
# Poissons Ratio (z) = 0.30851 0.14854
#
# Static dielectric constant tensor:
#      x y z
#    x 4.070210 0.000000 0.156090 
#    y 0.000000 3.685920 0.000000 
#    z 0.156090 0.000000 4.601690 
# 
# 
# High freq. dielectric constant tensor:
#      x y z
#    x 1.897740 0.000000 0.009970 
#    y 0.000000 1.858360 0.000000 
#    z 0.009970 0.000000 1.907660 
# 
# From -- ./inp_files/44118.got.cif
#   From: 2010.06.25/outbox.cif.g09.slc.cpg/sg13_23_cif.got.tgz:44118.got - 2010.06.28 04:50:58.
