data_PCOD8119003
_publ_section_title
;
Structure prediction by ZEFSAII (Michael W. Deem and Ramdas Pophale) SiO2 
 PCOD8119003
Probable space group: P 2/C
;
_chemical_formula_sum "Si O2"
_cell_formula_units_Z 26
_cell_length_a 18.665631
_cell_length_b 10.922779
_cell_length_c 13.371710
_cell_angle_alpha 90.000000
_cell_angle_beta 152.554863
_cell_angle_gamma 90.000000
_cell_volume 1256.517635
_symmetry_space_group_name_H-M "P 2/C"
_symmetry_group_IT_number 13
_symmetry_cell_setting 'monoclinic'
loop_
_space_group_symop_operation_xyz
x,y,z
-x,y,1/2-z
-x,-y,-z
x,-y,1/2+z
loop_
_atom_site_type_symbol
_atom_site_label
_atom_site_fract_x
_atom_site_fract_y
_atom_site_fract_z
Si Si1 0.149668 0.108327 0.994028
Si Si2 0.417809 0.294677 0.306175
Si Si3 0.750867 0.709183 0.277415
Si Si4 0.830022 0.835974 0.558796
Si Si5 0.281480 0.434080 0.316323
Si Si6 0.500000 0.474057 0.250000
Si Si7 0.918152 0.786692 0.881292
O O1 0.300971 0.183115 0.149662
O O2 0.114272 0.117872 0.068790
O O3 0.000000 0.160745 0.750000
O O4 0.186244 0.971285 0.006238
O O5 0.597065 0.248458 0.526564
O O6 0.395812 0.369493 0.380417
O O7 0.390222 0.388296 0.181865
O O8 0.721832 0.745339 0.358843
O O9 0.776758 0.564047 0.298025
O O10 0.898625 0.784412 0.417319
O O11 0.808272 0.831150 0.652120
O O12 0.000000 0.782064 0.750000
O O13 0.380695 0.443547 0.540256
O O14 0.130677 0.350142 0.147085
#
# Coordination Sequence:
#
# PCOD8119003 Si02
#       7
#     4   4   4   4   4   2   4
#     4  10  23  42  61  85 123 157 208 253 294 358
#     4  10  23  39  59  92 121 161 199 249 306 354
#     4  10  20  38  62  89 125 152 202 249 298 364
#     4   9  21  39  63  87 120 161 198 250 300 355
#     4  10  22  37  60  90 125 157 201 246 301 367
#     4  10  20  36  62  84 126 162 192 248 312 352
#     4  10  22  40  63  93 115 165 204 243 308 356
#
# _framework density 20.69211
#
# number of rings (size 3 to 8) (size 9 to 14) (size 15 to 20)
#    0.000    2.154    0.000    2.308    8.615    6.154 
#    0.000    0.769    0.000    0.000    0.000    0.000 
#    0.000    0.000    0.000    0.000    0.000    0.000 
#
# Total GULP energy -322294.965406 kJ/mol
# GULP energy per Si atom -12395.960208 kJ/mol
# Density = 2.064501 g / cm^3
# Si number density = 20.692110 Si / 1000 Ang^3
#
#
#
# Elastic Constant Matrix: (Units=GPa)
#
#
# Indices 1 2 3 4 5 6 
#
# 1 103.2766 38.1120 48.1967 0.0000 -16.9462 0.0000
# 2 38.1120 101.0348 58.7608 0.0000 -10.3590 0.0000
# 3 48.1967 58.7608 100.0673 0.0000 -12.8551 0.0000
# 4 0.0000 0.0000 0.0000 25.4300 0.0000 -1.7628
# 5 -16.9462 -10.3590 -12.8551 0.0000 42.1012 0.0000
# 6 0.0000 0.0000 0.0000 -1.7628 0.0000 14.4407
#
#
#
# Elastic Compliance Matrix: (Units=1/GPa)
#
#
# Indices 1 2 3 4 5 6 
#
# 1 0.013164 -0.001799 -0.004851 0.000000 0.003375 0.000000
# 2 -0.001799 0.015321 -0.008055 0.000000 0.000586 0.000000
# 3 -0.004851 -0.008055 0.017230 0.000000 0.001327 0.000000
# 4 0.000000 0.000000 0.000000 0.039659 0.000000 0.004841
# 5 0.003375 0.000586 0.001327 0.000000 0.025660 0.000000
# 6 0.000000 0.000000 0.000000 0.004841 0.000000 0.069840
#
#
# Mechanical properties :
#
#
# Convention : Reuss Voigt Hill
#
# Bulk Modulus (GPa) = 61.32573 66.05753 63.69163
# Shear Modulus (GPa) = 23.17846 27.01501 25.09673
#
# Velocity S-wave (km/s) = 3.35051 3.61719 3.48640
# Velocity P-wave (km/s) = 6.68352 7.03127 6.85960
#
# Compressibility (1/GPa) = 0.01630637
#
# Stress axis : x y z
#
# Youngs Moduli (GPa) = 75.96535 65.27054 58.03840
#
# Poissons Ratio (x) = 0.11739 0.28152
# Poissons Ratio (y) = 0.13663 0.46750
# Poissons Ratio (z) = 0.36848 0.52576
#
# Static dielectric constant tensor:
#      x y z
#    x 4.013670 0.000000 -0.242560 
#    y 0.000000 3.551070 0.000000 
#    z -0.242560 0.000000 3.820400 
# 
# 
# High freq. dielectric constant tensor:
#      x y z
#    x 1.812710 0.000000 -0.015190 
#    y 0.000000 1.800980 0.000000 
#    z -0.015190 0.000000 1.810130 
# 
# From -- ./inp_files/39254.got.cif
#   From: 2010.06.25/outbox.cif.g09.slc.cpg/sg13_20_cif.got.tgz:39254.got - 2010.06.28 04:50:58.
