data_PCOD8119561
_publ_section_title
;
Structure prediction by ZEFSAII (Michael W. Deem and Ramdas Pophale) SiO2 
 PCOD8119561
Probable space group: P 2/C
;
_chemical_formula_sum "Si O2"
_cell_formula_units_Z 32
_cell_length_a 17.417321
_cell_length_b 9.426688
_cell_length_c 13.912735
_cell_angle_alpha 90.000000
_cell_angle_beta 135.299121
_cell_angle_gamma 90.000000
_cell_volume 1606.788920
_symmetry_space_group_name_H-M "P 2/C"
_symmetry_group_IT_number 13
_symmetry_cell_setting 'monoclinic'
loop_
_space_group_symop_operation_xyz
x,y,z
-x,y,1/2-z
-x,-y,-z
x,-y,1/2+z
loop_
_atom_site_type_symbol
_atom_site_label
_atom_site_fract_x
_atom_site_fract_y
_atom_site_fract_z
Si Si1 0.292460 0.652661 0.766833
Si Si2 0.872912 0.887829 0.880686
Si Si3 0.316745 0.902785 0.249572
Si Si4 0.288062 0.785868 0.421779
Si Si5 0.054311 0.106688 0.694424
Si Si6 0.353868 0.592678 0.210228
Si Si7 0.604676 0.521828 0.465012
Si Si8 0.390727 0.145057 0.202984
O O1 0.183982 0.739361 0.692264
O O2 0.267305 0.502351 0.692876
O O3 0.369000 0.736080 0.761462
O O4 0.354468 0.634334 0.921523
O O5 0.794874 0.005316 0.863231
O O6 0.909967 0.949994 0.810488
O O7 0.969723 0.842249 0.038076
O O8 0.342067 0.883211 0.385571
O O9 0.317495 0.752036 0.198735
O O10 0.406675 0.995155 0.272087
O O11 0.156806 0.782989 0.286986
O O12 0.348481 0.634301 0.468804
O O13 0.301229 0.859244 0.537743
O O14 0.000000 0.095757 0.750000
O O15 0.473966 0.540164 0.351095
O O16 0.342293 0.568325 0.087506
O O17 0.500000 0.195604 0.250000
#
# Coordination Sequence:
#
# PCOD8119561 Si02
#       8
#     4   4   4   4   4   4   4   4
#     4  11  21  40  64  88 125 166 207 257 311 375
#     4   9  22  41  62  98 117 158 209 268 321 370
#     4  10  23  39  60  93 127 164 209 263 312 370
#     4  11  22  41  63  93 121 170 214 257 320 385
#     4  10  20  39  68  87 122 159 211 262 332 373
#     4  11  23  39  62  92 129 175 209 249 305 382
#     4  11  24  38  63  92 133 171 213 246 314 378
#     4  11  24  38  60  94 129 164 217 263 307 373
#
# _framework density 19.915496000000001
#
# number of rings (size 3 to 8) (size 9 to 14) (size 15 to 20)
#    0.000    1.500    2.500    2.625    3.500    4.500 
#    0.000    0.625    0.000    0.750    0.000    0.000 
#    0.000    0.000    0.000    0.000    0.000    0.000 
#
# Total GULP energy -396539.219472 kJ/mol
# GULP energy per Si atom -12391.850609 kJ/mol
# Density = 1.987017 g / cm^3
# Si number density = 19.915496 Si / 1000 Ang^3
#
#
#
# Elastic Constant Matrix: (Units=GPa)
#
#
# Indices 1 2 3 4 5 6 
#
# 1 62.9392 11.2965 49.3665 0.0000 -9.5718 0.0000
# 2 11.2965 85.1390 55.0077 0.0000 -5.8939 0.0000
# 3 49.3665 55.0077 125.7501 0.0000 -18.9427 0.0000
# 4 0.0000 0.0000 0.0000 30.1297 0.0000 -2.6038
# 5 -9.5718 -5.8939 -18.9427 0.0000 26.8036 0.0000
# 6 0.0000 0.0000 0.0000 -2.6038 0.0000 27.9797
#
#
#
# Elastic Compliance Matrix: (Units=1/GPa)
#
#
# Indices 1 2 3 4 5 6 
#
# 1 0.023983 0.003976 -0.010892 0.000000 0.001741 0.000000
# 2 0.003976 0.017096 -0.009243 0.000000 -0.001353 0.000000
# 3 -0.010892 -0.009243 0.017212 0.000000 0.006242 0.000000
# 4 0.000000 0.000000 0.000000 0.033459 0.000000 0.003114
# 5 0.001741 -0.001353 0.006242 0.000000 0.042044 0.000000
# 6 0.000000 0.000000 0.000000 0.003114 0.000000 0.036030
#
#
# Mechanical properties :
#
#
# Convention : Reuss Voigt Hill
#
# Bulk Modulus (GPa) = 38.50322 56.12996 47.31659
# Shear Modulus (GPa) = 23.71929 27.52643 25.62286
#
# Velocity S-wave (km/s) = 3.45483 3.72178 3.59078
# Velocity P-wave (km/s) = 5.94051 6.83477 6.40327
#
# Compressibility (1/GPa) = 0.02597185
#
# Stress axis : x y z
#
# Youngs Moduli (GPa) = 41.69699 58.49252 58.10036
#
# Poissons Ratio (x) = -0.23254 0.63281
# Poissons Ratio (y) = -0.16577 0.53702
# Poissons Ratio (z) = 0.45415 0.54065
#
# Static dielectric constant tensor:
#      x y z
#    x 3.967210 0.000000 -0.223060 
#    y 0.000000 3.777560 0.000000 
#    z -0.223060 0.000000 3.798650 
# 
# 
# High freq. dielectric constant tensor:
#      x y z
#    x 1.785530 0.000000 -0.022140 
#    y 0.000000 1.771360 0.000000 
#    z -0.022140 0.000000 1.773930 
# 
# From -- ./inp_files/57283.got.cif
#   From: 2010.06.25/outbox.cif.g09.slc.cpg/sg13_29_cif.got.tgz:57283.got - 2010.06.28 04:50:58.
