data_PCOD8119135
_publ_section_title
;
Structure prediction by ZEFSAII (Michael W. Deem and Ramdas Pophale) SiO2 
 PCOD8119135
Probable space group: P 2/C
;
_chemical_formula_sum "Si O2"
_cell_formula_units_Z 20
_cell_length_a 8.495574
_cell_length_b 6.684983
_cell_length_c 17.846264
_cell_angle_alpha 90.000000
_cell_angle_beta 73.920141
_cell_angle_gamma 90.000000
_cell_volume 973.885624
_symmetry_space_group_name_H-M "P 2/C"
_symmetry_group_IT_number 13
_symmetry_cell_setting 'monoclinic'
loop_
_space_group_symop_operation_xyz
x,y,z
-x,y,1/2-z
-x,-y,-z
x,-y,1/2+z
loop_
_atom_site_type_symbol
_atom_site_label
_atom_site_fract_x
_atom_site_fract_y
_atom_site_fract_z
Si Si1 0.169369 0.767344 0.259723
Si Si2 0.564686 0.051739 0.322540
Si Si3 0.218045 0.036984 0.912253
Si Si4 0.966781 0.690507 0.953594
Si Si5 0.152485 0.655326 0.691220
O O1 0.181866 0.822633 0.345498
O O2 0.176641 0.531562 0.243870
O O3 0.000000 0.856533 0.250000
O O4 0.324347 0.854351 0.195001
O O5 0.500000 0.116061 0.250000
O O6 0.677982 0.228555 0.337608
O O7 0.410875 0.009775 0.396607
O O8 0.164682 0.158761 0.992491
O O9 0.129188 0.822047 0.916991
O O10 0.896081 0.596850 0.886666
O O11 0.000000 0.500000 0.000000
O O12 0.000000 0.778008 0.750000
#
# Coordination Sequence:
#
# PCOD8119135 Si02
#       5
#     4   4   4   4   4
#     4  10  20  37  61  87 116 154 199 245 292 352
#     4  10  21  37  59  87 119 154 198 249 296 347
#     4  10  23  40  60  87 124 160 198 250 306 358
#     4  11  23  41  63  88 121 163 202 246 304 364
#     4  11  22  37  62  89 116 155 203 247 294 356
#
# _framework density 20.536292
#
# number of rings (size 3 to 8) (size 9 to 14) (size 15 to 20)
#    0.000    1.600    0.000    6.600    0.000    6.400 
#    0.000    2.000    0.000    0.000    0.000    0.000 
#    0.000    0.000    0.000    0.000    0.000    0.000 
#
# Total GULP energy -247932.350165 kJ/mol
# GULP energy per Si atom -12396.617508 kJ/mol
# Density = 2.048955 g / cm^3
# Si number density = 20.536292 Si / 1000 Ang^3
#
#
#
# Elastic Constant Matrix: (Units=GPa)
#
#
# Indices 1 2 3 4 5 6 
#
# 1 141.7651 35.6658 55.6942 0.0000 -24.9015 0.0000
# 2 35.6658 94.1530 35.0263 0.0000 -2.5823 0.0000
# 3 55.6942 35.0263 89.3176 0.0000 -12.8511 0.0000
# 4 0.0000 0.0000 0.0000 31.8987 0.0000 -2.8810
# 5 -24.9015 -2.5823 -12.8511 0.0000 42.5388 0.0000
# 6 0.0000 0.0000 0.0000 -2.8810 0.0000 33.9894
#
#
#
# Elastic Compliance Matrix: (Units=1/GPa)
#
#
# Indices 1 2 3 4 5 6 
#
# 1 0.010279 -0.001901 -0.005034 0.000000 0.004381 0.000000
# 2 -0.001901 0.012810 -0.004063 0.000000 -0.001563 0.000000
# 3 -0.005034 -0.004063 0.016172 0.000000 0.001692 0.000000
# 4 0.000000 0.000000 0.000000 0.031591 0.000000 0.002678
# 5 0.004381 -0.001563 0.001692 0.000000 0.026489 0.000000
# 6 0.000000 0.000000 0.000000 0.002678 0.000000 0.029648
#
#
# Mechanical properties :
#
#
# Convention : Reuss Voigt Hill
#
# Bulk Modulus (GPa) = 57.91983 64.22314 61.07149
# Shear Modulus (GPa) = 32.31244 34.94201 33.62723
#
# Velocity S-wave (km/s) = 3.97095 4.12937 4.05094
# Velocity P-wave (km/s) = 7.02065 7.35367 7.18909
#
# Compressibility (1/GPa) = 0.01726525
#
# Stress axis : x y z
#
# Youngs Moduli (GPa) = 97.28203 78.06574 61.83692
#
# Poissons Ratio (x) = 0.14841 0.31128
# Poissons Ratio (y) = 0.18494 0.25123
# Poissons Ratio (z) = 0.48970 0.31716
#
# Static dielectric constant tensor:
#      x y z
#    x 3.985460 0.000000 -0.253690 
#    y 0.000000 3.609770 0.000000 
#    z -0.253690 0.000000 3.726070 
# 
# 
# High freq. dielectric constant tensor:
#      x y z
#    x 1.808170 0.000000 -0.009090 
#    y 0.000000 1.804230 0.000000 
#    z -0.009090 0.000000 1.802170 
# 
# From -- ./inp_files/74457.got.cif
#   From: 2010.06.25/outbox.cif.g09.slc.cpg/sg13_38_cif.got.tgz:74457.got - 2010.06.28 04:50:58.
