data_PCOD8119355
_publ_section_title
;
Structure prediction by ZEFSAII (Michael W. Deem and Ramdas Pophale) SiO2 
 PCOD8119355
Probable space group: P 2/C
;
_chemical_formula_sum "Si O2"
_cell_formula_units_Z 22
_cell_length_a 23.147277
_cell_length_b 7.866683
_cell_length_c 13.180403
_cell_angle_alpha 90.000000
_cell_angle_beta 156.859044
_cell_angle_gamma 90.000000
_cell_volume 943.206409
_symmetry_space_group_name_H-M "P 2/C"
_symmetry_group_IT_number 13
_symmetry_cell_setting 'monoclinic'
loop_
_space_group_symop_operation_xyz
x,y,z
-x,y,1/2-z
-x,-y,-z
x,-y,1/2+z
loop_
_atom_site_type_symbol
_atom_site_label
_atom_site_fract_x
_atom_site_fract_y
_atom_site_fract_z
Si Si1 0.210956 0.343766 0.865551
Si Si2 0.018009 0.476813 0.389176
Si Si3 0.630966 0.042822 0.634435
Si Si4 0.146441 0.019912 0.342164
Si Si5 0.500000 0.718683 0.750000
Si Si6 0.850101 0.158831 0.366439
O O1 0.098204 0.336474 0.587768
O O2 0.224453 0.156767 0.934716
O O3 0.147247 0.483716 0.839158
O O4 0.374293 0.400374 0.095697
O O5 0.109909 0.651558 0.535057
O O6 0.000000 0.395376 0.250000
O O7 0.579020 0.175681 0.466518
O O8 0.500000 0.000000 0.500000
O O9 0.697665 0.884309 0.677673
O O10 0.766598 0.105783 0.923844
O O11 0.162629 0.152936 0.276136
O O12 0.979303 0.975447 0.104464
#
# Coordination Sequence:
#
# PCOD8119355 Si02
#       6
#     4   4   4   4   2   4
#     4  10  21  44  62  94 130 164 210 259 308 379
#     4  10  22  42  69  89 127 169 214 256 311 371
#     4  12  21  36  63  93 129 164 205 257 327 365
#     4  10  20  38  62  94 124 164 207 261 309 366
#     4  12  24  42  60  96 134 162 206 268 314 384
#     4  10  20  38  62  96 125 157 212 262 301 375
#
# _framework density 23.324691999999999
#
# number of rings (size 3 to 8) (size 9 to 14) (size 15 to 20)
#    0.000    1.455    3.636    2.727    0.000    0.000 
#   13.091    3.636    0.000    0.000    0.000    0.000 
#    0.000    0.000    0.000    0.000    0.000    0.000 
#
# Total GULP energy -272609.645390 kJ/mol
# GULP energy per Si atom -12391.347518 kJ/mol
# Density = 2.327160 g / cm^3
# Si number density = 23.324692 Si / 1000 Ang^3
#
#
#
# Elastic Constant Matrix: (Units=GPa)
#
#
# Indices 1 2 3 4 5 6 
#
# 1 126.6378 14.6800 62.7070 0.0000 9.5070 0.0000
# 2 14.6800 41.3809 19.7468 0.0000 7.5210 0.0000
# 3 62.7070 19.7468 119.3120 0.0000 -4.4096 0.0000
# 4 0.0000 0.0000 0.0000 19.8609 0.0000 3.4438
# 5 9.5070 7.5210 -4.4096 0.0000 79.4303 0.0000
# 6 0.0000 0.0000 0.0000 3.4438 0.0000 8.8659
#
#
#
# Elastic Compliance Matrix: (Units=1/GPa)
#
#
# Indices 1 2 3 4 5 6 
#
# 1 0.010909 -0.000899 -0.005642 0.000000 -0.001534 0.000000
# 2 -0.000899 0.026917 -0.004081 0.000000 -0.002668 0.000000
# 3 -0.005642 -0.004081 0.012086 0.000000 0.001733 0.000000
# 4 0.000000 0.000000 0.000000 0.053986 0.000000 -0.020970
# 5 -0.001534 -0.002668 0.001733 0.000000 0.013122 0.000000
# 6 0.000000 0.000000 0.000000 -0.020970 0.000000 0.120937
#
#
# Mechanical properties :
#
#
# Convention : Reuss Voigt Hill
#
# Bulk Modulus (GPa) = 34.88099 53.51091 44.19595
# Shear Modulus (GPa) = 18.60418 34.31122 26.45770
#
# Velocity S-wave (km/s) = 2.82728 3.83956 3.37162
# Velocity P-wave (km/s) = 5.06409 6.53053 5.84349
#
# Compressibility (1/GPa) = 0.02866891
#
# Stress axis : x y z
#
# Youngs Moduli (GPa) = 91.66370 37.15130 82.74134
#
# Poissons Ratio (x) = 0.03341 0.46679
# Poissons Ratio (y) = 0.08243 0.33765
# Poissons Ratio (z) = 0.51712 0.15161
#
# Static dielectric constant tensor:
#      x y z
#    x 4.681870 0.000000 0.069360 
#    y 0.000000 3.643480 0.000000 
#    z 0.069360 0.000000 4.423440 
# 
# 
# High freq. dielectric constant tensor:
#      x y z
#    x 1.949710 0.000000 0.000420 
#    y 0.000000 1.880490 0.000000 
#    z 0.000420 0.000000 1.919190 
# 
# From -- ./inp_files/59469.got.cif
#   From: 2010.06.25/outbox.cif.g09.slc.cpg/sg13_30_cif.got.tgz:59469.got - 2010.06.28 04:50:58.
