data_PCOD8119926
_publ_section_title
;
Structure prediction by ZEFSAII (Michael W. Deem and Ramdas Pophale) SiO2 
 PCOD8119926
Probable space group: P 2/C
;
_chemical_formula_sum "Si O2"
_cell_formula_units_Z 28
_cell_length_a 21.845909
_cell_length_b 10.591168
_cell_length_c 11.797894
_cell_angle_alpha 90.000000
_cell_angle_beta 27.327690
_cell_angle_gamma 90.000000
_cell_volume 1253.158055
_symmetry_space_group_name_H-M "P 2/C"
_symmetry_group_IT_number 13
_symmetry_cell_setting 'monoclinic'
loop_
_space_group_symop_operation_xyz
x,y,z
-x,y,1/2-z
-x,-y,-z
x,-y,1/2+z
loop_
_atom_site_type_symbol
_atom_site_label
_atom_site_fract_x
_atom_site_fract_y
_atom_site_fract_z
Si Si1 0.270601 0.380786 0.212189
Si Si2 0.108011 0.851395 0.250148
Si Si3 0.401792 0.073586 0.313098
Si Si4 0.000000 0.662942 0.250000
Si Si5 0.540829 0.706450 0.915875
Si Si6 0.672013 0.792095 0.082845
Si Si7 0.062291 0.867832 0.763330
Si Si8 0.500000 0.440597 0.250000
O O1 0.112661 0.417595 0.493528
O O2 0.328264 0.349994 0.241477
O O3 0.275962 0.255668 0.124396
O O4 0.361422 0.483973 0.998749
O O5 0.094863 0.746876 0.174722
O O6 0.014784 0.806111 0.505417
O O7 0.057355 0.981268 0.278644
O O8 0.252789 0.868982 0.069783
O O9 0.500000 0.122160 0.250000
O O10 0.453053 0.141020 0.113252
O O11 0.405219 0.923171 0.308433
O O12 0.520171 0.640376 0.829845
O O13 0.422889 0.687051 0.202210
O O14 0.788806 0.815516 0.979862
O O15 0.000000 0.819345 0.750000
#
# Coordination Sequence:
#
# PCOD8119926 Si02
#       8
#     4   4   4   2   4   4   4   2
#     4  12  25  46  74  99 135 187 233 290 338 410
#     4  10  21  37  60  92 137 186 222 259 338 423
#     4  11  23  39  65 107 145 171 218 281 345 415
#     4  12  22  44  68  98 134 180 236 280 344 406
#     4  12  24  45  72 100 135 181 231 290 344 405
#     4  11  24  41  69 107 141 178 222 278 354 418
#     4  10  21  35  59  94 140 184 216 267 332 425
#     4  12  28  50  74  96 130 184 248 284 348 396
#
# _framework density 22.34355
#
# number of rings (size 3 to 8) (size 9 to 14) (size 15 to 20)
#    0.000    0.857    5.714    1.714    2.000    0.000 
#    0.000    0.714    4.714    0.000    0.000    0.000 
#    0.000    0.000    0.000    0.000    0.000    0.000 
#
# Total GULP energy -346959.281477 kJ/mol
# GULP energy per Si atom -12391.402910 kJ/mol
# Density = 2.229270 g / cm^3
# Si number density = 22.343550 Si / 1000 Ang^3
#
#
#
# Elastic Constant Matrix: (Units=GPa)
#
#
# Indices 1 2 3 4 5 6 
#
# 1 118.4466 22.9256 31.5582 0.0000 -6.8551 0.0000
# 2 22.9256 55.6408 33.8461 0.0000 3.9301 0.0000
# 3 31.5582 33.8461 153.3993 0.0000 0.6640 0.0000
# 4 0.0000 0.0000 0.0000 25.7207 0.0000 2.5850
# 5 -6.8551 3.9301 0.6640 0.0000 28.7387 0.0000
# 6 0.0000 0.0000 0.0000 2.5850 0.0000 10.1102
#
#
#
# Elastic Compliance Matrix: (Units=1/GPa)
#
#
# Indices 1 2 3 4 5 6 
#
# 1 0.009590 -0.003396 -0.001236 0.000000 0.002781 0.000000
# 2 -0.003396 0.022178 -0.004179 0.000000 -0.003746 0.000000
# 3 -0.001236 -0.004179 0.007695 0.000000 0.000099 0.000000
# 4 0.000000 0.000000 0.000000 0.039905 0.000000 -0.010203
# 5 0.002781 -0.003746 0.000099 0.000000 0.035970 0.000000
# 6 0.000000 0.000000 0.000000 -0.010203 0.000000 0.101519
#
#
# Mechanical properties :
#
#
# Convention : Reuss Voigt Hill
#
# Bulk Modulus (GPa) = 45.78276 56.01629 50.89953
# Shear Modulus (GPa) = 20.68185 28.85769 24.76977
#
# Velocity S-wave (km/s) = 3.04572 3.59771 3.33316
# Velocity P-wave (km/s) = 5.73615 6.51021 6.13540
#
# Compressibility (1/GPa) = 0.02184228
#
# Stress axis : x y z
#
# Youngs Moduli (GPa) = 104.27421 45.08944 129.96027
#
# Poissons Ratio (x) = 0.15313 0.16058
# Poissons Ratio (y) = 0.35413 0.54304
# Poissons Ratio (z) = 0.12884 0.18841
#
# Static dielectric constant tensor:
#      x y z
#    x 4.092550 0.000000 0.060100 
#    y 0.000000 3.788350 0.000000 
#    z 0.060100 0.000000 4.322970 
# 
# 
# High freq. dielectric constant tensor:
#      x y z
#    x 1.889610 0.000000 -0.001050 
#    y 0.000000 1.846410 0.000000 
#    z -0.001050 0.000000 1.894620 
# 
# From -- ./inp_files/40785.got.cif
#   From: 2010.06.25/outbox.cif.g09.slc.cpg/sg13_21_cif.got.tgz:40785.got - 2010.06.28 04:50:58.
