data_PCOD8119123
_publ_section_title
;
Structure prediction by ZEFSAII (Michael W. Deem and Ramdas Pophale) SiO2 
 PCOD8119123
Probable space group: P 2/C
;
_chemical_formula_sum "Si O2"
_cell_formula_units_Z 30
_cell_length_a 6.815631
_cell_length_b 8.167127
_cell_length_c 30.781127
_cell_angle_alpha 90.000000
_cell_angle_beta 115.756501
_cell_angle_gamma 90.000000
_cell_volume 1543.175918
_symmetry_space_group_name_H-M "P 2/C"
_symmetry_group_IT_number 13
_symmetry_cell_setting 'monoclinic'
loop_
_space_group_symop_operation_xyz
x,y,z
-x,y,1/2-z
-x,-y,-z
x,-y,1/2+z
loop_
_atom_site_type_symbol
_atom_site_label
_atom_site_fract_x
_atom_site_fract_y
_atom_site_fract_z
Si Si1 0.679969 0.946898 0.338403
Si Si2 0.339509 0.052559 0.521139
Si Si3 0.000000 0.557732 0.750000
Si Si4 0.105385 0.143319 0.066817
Si Si5 0.037548 0.668559 0.169050
Si Si6 0.255326 0.543033 0.617537
Si Si7 0.465945 0.730583 0.389434
Si Si8 0.558294 0.260931 0.208755
O O1 0.532796 0.834459 0.354245
O O2 0.808900 0.832429 0.315431
O O3 0.860184 0.043497 0.384711
O O4 0.504691 0.067541 0.298168
O O5 0.454569 0.199552 0.557370
O O6 0.123326 0.106433 0.476314
O O7 0.500000 0.000000 0.500000
O O8 0.294326 0.906828 0.550976
O O9 0.058230 0.438919 0.715050
O O10 0.804771 0.685130 0.721141
O O11 0.106996 0.338300 0.074068
O O12 0.791928 0.719845 0.137104
O O13 0.102717 0.565086 0.133203
O O14 0.414058 0.442727 0.601621
O O15 0.407460 0.659323 0.659315
O O16 0.500000 0.333645 0.250000
#
# Coordination Sequence:
#
# PCOD8119123 Si02
#       8
#     4   4   2   4   4   4   4   4
#     4   9  22  40  62  85 118 159 203 243 301 366
#     4  10  20  37  60  88 120 153 198 252 299 355
#     4  12  24  38  66  90 124 160 206 260 312 356
#     4   9  20  39  61  85 117 159 198 245 298 360
#     4  11  22  39  62  87 121 163 200 248 306 360
#     4  10  21  40  61  84 119 162 198 245 303 361
#     4  10  21  38  60  89 120 156 200 249 299 365
#     4  11  22  41  61  87 118 158 201 253 306 362
#
# _framework density 19.440427
#
# number of rings (size 3 to 8) (size 9 to 14) (size 15 to 20)
#    0.000    1.867    2.667    0.800    0.000    4.800 
#    2.400    1.333    0.000    0.000    0.000    0.000 
#    0.000    0.000    0.000    0.000    0.000    0.000 
#
# Total GULP energy -371827.756799 kJ/mol
# GULP energy per Si atom -12394.258560 kJ/mol
# Density = 1.939618 g / cm^3
# Si number density = 19.440427 Si / 1000 Ang^3
#
#
#
# Elastic Constant Matrix: (Units=GPa)
#
#
# Indices 1 2 3 4 5 6 
#
# 1 114.2685 58.0757 30.7230 0.0000 0.1059 0.0000
# 2 58.0757 127.4168 39.3400 0.0000 -1.9226 0.0000
# 3 30.7230 39.3400 71.0915 0.0000 -3.1279 0.0000
# 4 0.0000 0.0000 0.0000 24.3441 0.0000 -3.2304
# 5 0.1059 -1.9226 -3.1279 0.0000 31.9125 0.0000
# 6 0.0000 0.0000 0.0000 -3.2304 0.0000 24.7691
#
#
#
# Elastic Compliance Matrix: (Units=1/GPa)
#
#
# Indices 1 2 3 4 5 6 
#
# 1 0.011772 -0.004578 -0.002579 0.000000 -0.000568 0.000000
# 2 -0.004578 0.011246 -0.004233 0.000000 0.000278 0.000000
# 3 -0.002579 -0.004233 0.017588 0.000000 0.001477 0.000000
# 4 0.000000 0.000000 0.000000 0.041801 0.000000 0.005452
# 5 -0.000568 0.000278 0.001477 0.000000 0.031499 0.000000
# 6 0.000000 0.000000 0.000000 0.005452 0.000000 0.041084
#
#
# Mechanical properties :
#
#
# Convention : Reuss Voigt Hill
#
# Bulk Modulus (GPa) = 56.09487 63.22824 59.66156
# Shear Modulus (GPa) = 27.21664 28.51435 27.86550
#
# Velocity S-wave (km/s) = 3.74572 3.83398 3.79011
# Velocity P-wave (km/s) = 6.90106 7.22454 7.06465
#
# Compressibility (1/GPa) = 0.01782694
#
# Stress axis : x y z
#
# Youngs Moduli (GPa) = 84.94798 88.92218 56.85656
#
# Poissons Ratio (x) = 0.40707 0.14664
# Poissons Ratio (y) = 0.38888 0.24065
# Poissons Ratio (z) = 0.21909 0.37636
#
# Static dielectric constant tensor:
#      x y z
#    x 3.526350 0.000000 0.095240 
#    y 0.000000 3.842150 0.000000 
#    z 0.095240 0.000000 3.548220 
# 
# 
# High freq. dielectric constant tensor:
#      x y z
#    x 1.760910 0.000000 0.001490 
#    y 0.000000 1.762870 0.000000 
#    z 0.001490 0.000000 1.759350 
# 
# From -- ./inp_files/94863.got.cif
#   From: 2010.06.25/outbox.cif.g09.slc.cpg/sg13_48_cif.got.tgz:94863.got - 2010.06.28 04:50:58.
