data_PCOD8119705
_publ_section_title
;
Structure prediction by ZEFSAII (Michael W. Deem and Ramdas Pophale) SiO2 
 PCOD8119705
Probable space group: P 2/C
;
_chemical_formula_sum "Si O2"
_cell_formula_units_Z 18
_cell_length_a 7.519960
_cell_length_b 11.203067
_cell_length_c 11.042954
_cell_angle_alpha 90.000000
_cell_angle_beta 124.384433
_cell_angle_gamma 90.000000
_cell_volume 767.771857
_symmetry_space_group_name_H-M "P 2/C"
_symmetry_group_IT_number 13
_symmetry_cell_setting 'monoclinic'
loop_
_space_group_symop_operation_xyz
x,y,z
-x,y,1/2-z
-x,-y,-z
x,-y,1/2+z
loop_
_atom_site_type_symbol
_atom_site_label
_atom_site_fract_x
_atom_site_fract_y
_atom_site_fract_z
Si Si1 0.183174 0.346448 0.106557
Si Si2 0.829889 0.591323 0.292622
Si Si3 0.000000 0.072110 0.750000
Si Si4 0.316526 0.118431 0.278147
Si Si5 0.362537 0.760839 0.453377
O O1 0.262423 0.460075 0.215835
O O2 0.169988 0.230781 0.185948
O O3 0.361989 0.327595 0.069642
O O4 0.943900 0.363763 0.959267
O O5 0.642475 0.683989 0.174212
O O6 0.000000 0.582996 0.250000
O O7 0.147158 0.158631 0.887931
O O8 0.159000 0.993956 0.728413
O O9 0.500000 0.087503 0.250000
O O10 0.429494 0.152808 0.451626
#
# Coordination Sequence:
#
# PCOD8119705 Si02
#       5
#     4   4   2   4   4
#     4   9  18  35  59  92 121 164 206 259 317 378
#     4   9  17  34  64  89 126 165 205 257 329 374
#     4  12  22  42  68  88 130 178 206 270 306 368
#     4  10  24  39  64  95 127 164 220 255 315 379
#     4  10  20  41  61  94 128 165 211 264 315 371
#
# _framework density 23.444462999999999
#
# number of rings (size 3 to 8) (size 9 to 14) (size 15 to 20)
#    0.000    2.222    3.333    0.667    1.556    4.444 
#    0.000    0.000    0.000    0.000    0.000    0.000 
#    0.000    0.000    0.000    0.000    0.000    0.000 
#
# Total GULP energy -223076.708123 kJ/mol
# GULP energy per Si atom -12393.150451 kJ/mol
# Density = 2.339110 g / cm^3
# Si number density = 23.444463 Si / 1000 Ang^3
#
#
#
# Elastic Constant Matrix: (Units=GPa)
#
#
# Indices 1 2 3 4 5 6 
#
# 1 53.1441 45.0377 21.2745 0.0000 3.6390 0.0000
# 2 45.0377 154.8802 54.4609 0.0000 -3.3457 0.0000
# 3 21.2745 54.4609 110.6829 0.0000 -0.0194 0.0000
# 4 0.0000 0.0000 0.0000 20.3126 0.0000 -3.1459
# 5 3.6390 -3.3457 -0.0194 0.0000 14.0467 0.0000
# 6 0.0000 0.0000 0.0000 -3.1459 0.0000 18.6103
#
#
#
# Elastic Compliance Matrix: (Units=1/GPa)
#
#
# Indices 1 2 3 4 5 6 
#
# 1 0.026147 -0.007279 -0.001446 0.000000 -0.008509 0.000000
# 2 -0.007279 0.009882 -0.003463 0.000000 0.004235 0.000000
# 3 -0.001446 -0.003463 0.011016 0.000000 -0.000435 0.000000
# 4 0.000000 0.000000 0.000000 0.050554 0.000000 0.008546
# 5 -0.008509 0.004235 -0.000435 0.000000 0.074404 0.000000
# 6 0.000000 0.000000 0.000000 0.008546 0.000000 0.055178
#
#
# Mechanical properties :
#
#
# Convention : Reuss Voigt Hill
#
# Bulk Modulus (GPa) = 44.10913 62.25037 53.17975
# Shear Modulus (GPa) = 19.29665 23.78952 21.54309
#
# Velocity S-wave (km/s) = 2.87205 3.18892 3.03462
# Velocity P-wave (km/s) = 5.46382 6.33789 5.91702
#
# Compressibility (1/GPa) = 0.02267104
#
# Stress axis : x y z
#
# Youngs Moduli (GPa) = 38.24602 101.19171 90.77336
#
# Poissons Ratio (x) = 0.73653 0.13124
# Poissons Ratio (y) = 0.27838 0.31432
# Poissons Ratio (z) = 0.05529 0.35040
#
# Static dielectric constant tensor:
#      x y z
#    x 3.506030 0.000000 0.152070 
#    y 0.000000 4.469140 0.000000 
#    z 0.152070 0.000000 4.695520 
# 
# 
# High freq. dielectric constant tensor:
#      x y z
#    x 1.866950 0.000000 0.013290 
#    y 0.000000 1.941070 0.000000 
#    z 0.013290 0.000000 1.944770 
# 
# From -- ./inp_files/29183.got.cif
#   From: 2010.06.25/outbox.cif.g09.slc.cpg/sg13_15_cif.got.tgz:29183.got - 2010.06.28 04:50:58.
