data_PCOD8119533
_publ_section_title
;
Structure prediction by ZEFSAII (Michael W. Deem and Ramdas Pophale) SiO2 
 PCOD8119533
Probable space group: P 2/C
;
_chemical_formula_sum "Si O2"
_cell_formula_units_Z 26
_cell_length_a 9.039814
_cell_length_b 16.030408
_cell_length_c 8.041257
_cell_angle_alpha 90.000000
_cell_angle_beta 96.954728
_cell_angle_gamma 90.000000
_cell_volume 1156.699957
_symmetry_space_group_name_H-M "P 2/C"
_symmetry_group_IT_number 13
_symmetry_cell_setting 'monoclinic'
loop_
_space_group_symop_operation_xyz
x,y,z
-x,y,1/2-z
-x,-y,-z
x,-y,1/2+z
loop_
_atom_site_type_symbol
_atom_site_label
_atom_site_fract_x
_atom_site_fract_y
_atom_site_fract_z
Si Si1 0.176346 0.893243 0.792714
Si Si2 0.500000 0.864222 0.250000
Si Si3 0.331134 0.600127 0.199120
Si Si4 0.733379 0.942414 0.051193
Si Si5 0.000000 0.438823 0.250000
Si Si6 0.803158 0.553510 0.994455
Si Si7 0.000000 0.157023 0.750000
Si Si8 0.768834 0.765405 0.445975
O O1 0.268513 0.911324 0.638370
O O2 0.000000 0.904327 0.750000
O O3 0.236597 0.958082 0.941167
O O4 0.217203 0.800391 0.863862
O O5 0.575024 0.921509 0.116765
O O6 0.627248 0.805100 0.337896
O O7 0.500000 0.622184 0.250000
O O8 0.273383 0.612933 0.381571
O O9 0.310810 0.507846 0.120090
O O10 0.251652 0.665345 0.062353
O O11 0.871751 0.900807 0.161306
O O12 0.083762 0.498834 0.386545
O O13 0.113388 0.390274 0.139915
O O14 0.926792 0.214788 0.880507
#
# Coordination Sequence:
#
# PCOD8119533 Si02
#       8
#     4   2   4   4   2   4   2   4
#     4  12  23  41  68 103 130 174 225 281 312 387
#     4  10  24  44  64 100 132 184 210 270 332 394
#     4  11  22  42  65  96 126 173 211 272 328 405
#     4  11  22  40  70  97 136 172 230 262 318 382
#     4   8  16  35  60 103 120 146 202 274 310 371
#     4   9  19  36  67  92 127 159 213 266 327 389
#     4  10  20  39  64  97 130 186 210 270 316 387
#     4  11  24  41  65  92 139 171 223 268 342 382
#
# _framework density 22.477737999999999
#
# number of rings (size 3 to 8) (size 9 to 14) (size 15 to 20)
#    0.000    1.538    3.077    2.769    0.000    6.769 
#    1.385    6.154    6.769    0.000    0.000    0.000 
#    0.000    0.000    0.000    0.000    0.000    0.000 
#
# Total GULP energy -322155.575840 kJ/mol
# GULP energy per Si atom -12390.599071 kJ/mol
# Density = 2.242658 g / cm^3
# Si number density = 22.477738 Si / 1000 Ang^3
#
#
#
# Elastic Constant Matrix: (Units=GPa)
#
#
# Indices 1 2 3 4 5 6 
#
# 1 115.2584 25.0909 44.4031 0.0000 -32.0257 0.0000
# 2 25.0909 78.2451 31.1314 0.0000 -12.8173 0.0000
# 3 44.4031 31.1314 132.4324 0.0000 -40.1892 0.0000
# 4 0.0000 0.0000 0.0000 37.0343 0.0000 13.0639
# 5 -32.0257 -12.8173 -40.1892 0.0000 32.5571 0.0000
# 6 0.0000 0.0000 0.0000 13.0639 0.0000 8.6469
#
#
#
# Elastic Compliance Matrix: (Units=1/GPa)
#
#
# Indices 1 2 3 4 5 6 
#
# 1 0.012261 -0.002018 -0.000348 0.000000 0.010836 0.000000
# 2 -0.002018 0.014543 -0.002570 0.000000 0.000568 0.000000
# 3 -0.000348 -0.002570 0.012570 0.000000 0.014162 0.000000
# 4 0.000000 0.000000 0.000000 0.057813 0.000000 -0.087344
# 5 0.010836 0.000568 0.014162 0.000000 0.059081 0.000000
# 6 0.000000 0.000000 0.000000 -0.087344 0.000000 0.247609
#
#
# Mechanical properties :
#
#
# Convention : Reuss Voigt Hill
#
# Bulk Modulus (GPa) = 33.89602 58.57629 46.23616
# Shear Modulus (GPa) = 11.80412 30.66836 21.23624
#
# Velocity S-wave (km/s) = 2.29410 3.69777 3.07704
# Velocity P-wave (km/s) = 4.70422 6.65940 5.76530
#
# Compressibility (1/GPa) = 0.02950198
#
# Stress axis : x y z
#
# Youngs Moduli (GPa) = 81.56262 68.76189 79.55746
#
# Poissons Ratio (x) = 0.13877 0.02768
# Poissons Ratio (y) = 0.16460 0.20443
# Poissons Ratio (z) = 0.02837 0.17669
#
# Static dielectric constant tensor:
#      x y z
#    x 4.169140 0.000000 0.117390 
#    y 0.000000 3.744840 0.000000 
#    z 0.117390 0.000000 3.419980 
# 
# 
# High freq. dielectric constant tensor:
#      x y z
#    x 1.900650 0.000000 -0.005350 
#    y 0.000000 1.849170 0.000000 
#    z -0.005350 0.000000 1.894930 
# 
# From -- ./inp_files/13157.got.cif
#   From: 2010.06.25/outbox.cif.g09.slc.cpg/sg13_7_cif.got.tgz:13157.got - 2010.06.28 04:50:58.
