data_PCOD8119832
_publ_section_title
;
Structure prediction by ZEFSAII (Michael W. Deem and Ramdas Pophale) SiO2 
 PCOD8119832
Probable space group: P 2/C
;
_chemical_formula_sum "Si O2"
_cell_formula_units_Z 30
_cell_length_a 12.497408
_cell_length_b 15.141965
_cell_length_c 8.112551
_cell_angle_alpha 90.000000
_cell_angle_beta 70.307639
_cell_angle_gamma 90.000000
_cell_volume 1445.396808
_symmetry_space_group_name_H-M "P 2/C"
_symmetry_group_IT_number 13
_symmetry_cell_setting 'monoclinic'
loop_
_space_group_symop_operation_xyz
x,y,z
-x,y,1/2-z
-x,-y,-z
x,-y,1/2+z
loop_
_atom_site_type_symbol
_atom_site_label
_atom_site_fract_x
_atom_site_fract_y
_atom_site_fract_z
Si Si1 0.874665 0.383465 0.368848
Si Si2 0.259197 0.730311 0.063624
Si Si3 0.707584 0.239111 0.333990
Si Si4 0.259111 0.951508 0.767872
Si Si5 0.872918 0.569761 0.249411
Si Si6 0.500000 0.923567 0.750000
Si Si7 0.868962 0.098587 0.855361
Si Si8 0.518398 0.799093 0.425465
O O1 0.802782 0.297158 0.369154
O O2 0.830122 0.468946 0.291649
O O3 0.869955 0.403855 0.562657
O O4 0.000000 0.357464 0.250000
O O5 0.209627 0.632316 0.103286
O O6 0.160198 0.799292 0.166755
O O7 0.366072 0.741974 0.130155
O O8 0.300835 0.746779 0.856848
O O9 0.727968 0.134102 0.358586
O O10 0.587408 0.265595 0.477924
O O11 0.382099 0.977289 0.785398
O O12 0.217439 0.038929 0.702339
O O13 0.158048 0.923959 0.942918
O O14 0.000000 0.577269 0.250000
O O15 0.523297 0.871355 0.568196
O O16 0.000000 0.079045 0.750000
O O17 0.500000 0.838617 0.250000
#
# Coordination Sequence:
#
# PCOD8119832 Si02
#       8
#     4   4   4   4   4   2   4   4
#     4  11  22  38  61  92 124 162 208 257 317 380
#     4  11  21  41  62  88 126 167 205 263 318 373
#     4  10  21  41  62  89 125 163 200 266 316 371
#     4  10  23  41  62  89 126 168 208 267 324 367
#     4  11  22  38  61  92 122 164 208 258 313 379
#     4  10  20  46  58  92 130 156 224 272 314 378
#     4  11  23  39  60  90 127 166 213 258 318 388
#     4  11  20  38  66  91 122 163 211 262 319 377
#
# _framework density 20.755542999999999
#
# number of rings (size 3 to 8) (size 9 to 14) (size 15 to 20)
#    0.000    1.333    4.000    4.800    0.000    5.333 
#    1.200    0.667    0.000    0.000    0.000    0.000 
#    0.000    0.000    0.000    0.000    0.000    0.000 
#
# Total GULP energy -371900.044799 kJ/mol
# GULP energy per Si atom -12396.668160 kJ/mol
# Density = 2.070830 g / cm^3
# Si number density = 20.755543 Si / 1000 Ang^3
#
#
#
# Elastic Constant Matrix: (Units=GPa)
#
#
# Indices 1 2 3 4 5 6 
#
# 1 114.8049 50.0103 36.6230 0.0000 -1.3893 0.0000
# 2 50.0103 66.0136 18.4771 0.0000 -1.3970 0.0000
# 3 36.6230 18.4771 91.6101 0.0000 7.0976 0.0000
# 4 0.0000 0.0000 0.0000 15.2773 0.0000 9.0591
# 5 -1.3893 -1.3970 7.0976 0.0000 40.0881 0.0000
# 6 0.0000 0.0000 0.0000 9.0591 0.0000 18.2213
#
#
#
# Elastic Compliance Matrix: (Units=1/GPa)
#
#
# Indices 1 2 3 4 5 6 
#
# 1 0.014112 -0.009620 -0.003765 0.000000 0.000820 0.000000
# 2 -0.009620 0.022665 -0.000772 0.000000 0.000593 0.000000
# 3 -0.003765 -0.000772 0.012764 0.000000 -0.002417 0.000000
# 4 0.000000 0.000000 0.000000 0.092821 0.000000 -0.046148
# 5 0.000820 0.000593 -0.002417 0.000000 0.025422 0.000000
# 6 0.000000 0.000000 0.000000 -0.046148 0.000000 0.077824
#
#
# Mechanical properties :
#
#
# Convention : Reuss Voigt Hill
#
# Bulk Modulus (GPa) = 47.10751 53.62772 50.36762
# Shear Modulus (GPa) = 17.79388 25.87188 21.83288
#
# Velocity S-wave (km/s) = 2.93116 3.53442 3.24683
# Velocity P-wave (km/s) = 5.84818 6.52304 6.19480
#
# Compressibility (1/GPa) = 0.02122804
#
# Stress axis : x y z
#
# Youngs Moduli (GPa) = 70.86290 44.12184 78.34661
#
# Poissons Ratio (x) = 0.42443 0.29496
# Poissons Ratio (y) = 0.68167 0.06045
# Poissons Ratio (z) = 0.26679 0.03404
#
# Static dielectric constant tensor:
#      x y z
#    x 3.847600 0.000000 -0.131620 
#    y 0.000000 3.949710 0.000000 
#    z -0.131620 0.000000 3.922560 
# 
# 
# High freq. dielectric constant tensor:
#      x y z
#    x 1.814690 0.000000 -0.005530 
#    y 0.000000 1.795450 0.000000 
#    z -0.005530 0.000000 1.827440 
# 
# From -- ./inp_files/16736.got.cif
#   From: 2010.06.25/outbox.cif.g09.slc.cpg/sg13_9_cif.got.tgz:16736.got - 2010.06.28 04:50:58.
