data_PCOD8119145
_publ_section_title
;
Structure prediction by ZEFSAII (Michael W. Deem and Ramdas Pophale) SiO2 
 PCOD8119145
Probable space group: P 2/C
;
_chemical_formula_sum "Si O2"
_cell_formula_units_Z 24
_cell_length_a 9.085075
_cell_length_b 8.310856
_cell_length_c 17.966727
_cell_angle_alpha 90.000000
_cell_angle_beta 119.126652
_cell_angle_gamma 90.000000
_cell_volume 1185.028988
_symmetry_space_group_name_H-M "P 2/C"
_symmetry_group_IT_number 13
_symmetry_cell_setting 'monoclinic'
loop_
_space_group_symop_operation_xyz
x,y,z
-x,y,1/2-z
-x,-y,-z
x,-y,1/2+z
loop_
_atom_site_type_symbol
_atom_site_label
_atom_site_fract_x
_atom_site_fract_y
_atom_site_fract_z
Si Si1 0.830059 0.174234 0.163891
Si Si2 0.797869 0.337175 0.488520
Si Si3 0.868065 0.295973 0.007302
Si Si4 0.644262 0.885248 0.074302
Si Si5 0.500805 0.222704 0.166204
Si Si6 0.564985 0.845364 0.348227
O O1 0.838639 0.213571 0.078933
O O2 0.678099 0.262100 0.169955
O O3 0.000000 0.212386 0.250000
O O4 0.785302 0.986398 0.153327
O O5 0.851013 0.516408 0.522403
O O6 0.749446 0.230199 0.547360
O O7 0.630420 0.348092 0.399229
O O8 0.946714 0.253936 0.477820
O O9 0.747182 0.229026 0.911766
O O10 0.556199 0.776167 0.116404
O O11 0.500000 0.000000 0.000000
O O12 0.500000 0.275256 0.250000
O O13 0.435737 0.039065 0.141926
O O14 0.500000 0.795343 0.250000
#
# Coordination Sequence:
#
# PCOD8119145 Si02
#       6
#     4   4   4   4   4   4
#     4  11  22  39  64  94 122 158 209 259 315 374
#     4  11  23  39  61  85 127 167 207 257 320 374
#     4  11  24  40  58  91 125 167 206 255 316 385
#     4  11  20  42  63  93 121 162 212 261 313 371
#     4  10  20  37  61  90 121 158 206 260 307 371
#     4  10  21  39  63  91 122 159 211 256 314 373
#
# _framework density 20.252666999999999
#
# number of rings (size 3 to 8) (size 9 to 14) (size 15 to 20)
#    0.000    1.333    5.000    1.000    0.000   10.000 
#    0.000    4.167    0.000    0.000    0.000    0.000 
#    0.000    0.000    0.000    0.000    0.000    0.000 
#
# Total GULP energy -297378.888821 kJ/mol
# GULP energy per Si atom -12390.787034 kJ/mol
# Density = 2.020657 g / cm^3
# Si number density = 20.252667 Si / 1000 Ang^3
#
#
#
# Elastic Constant Matrix: (Units=GPa)
#
#
# Indices 1 2 3 4 5 6 
#
# 1 181.0047 26.2504 68.4590 0.0000 -1.5570 0.0000
# 2 26.2504 24.5496 3.7421 0.0000 6.0042 0.0000
# 3 68.4590 3.7421 132.4711 0.0000 -1.6258 0.0000
# 4 0.0000 0.0000 0.0000 20.4151 0.0000 2.0802
# 5 -1.5570 6.0042 -1.6258 0.0000 43.1365 0.0000
# 6 0.0000 0.0000 0.0000 2.0802 0.0000 31.5887
#
#
#
# Elastic Compliance Matrix: (Units=1/GPa)
#
#
# Indices 1 2 3 4 5 6 
#
# 1 0.008309 -0.008599 -0.004035 0.000000 0.001345 0.000000
# 2 -0.008599 0.051280 0.002905 0.000000 -0.007339 0.000000
# 3 -0.004035 0.002905 0.009550 0.000000 -0.000190 0.000000
# 4 0.000000 0.000000 0.000000 0.049314 0.000000 -0.003247
# 5 0.001345 -0.007339 -0.000190 0.000000 0.024245 0.000000
# 6 0.000000 0.000000 0.000000 -0.003247 0.000000 0.031871
#
#
# Mechanical properties :
#
#
# Convention : Reuss Voigt Hill
#
# Bulk Modulus (GPa) = 20.12791 59.43648 39.78220
# Shear Modulus (GPa) = 23.74316 34.99967 29.37142
#
# Velocity S-wave (km/s) = 3.42767 4.16161 3.81235
# Velocity P-wave (km/s) = 5.06213 7.24591 6.25014
#
# Compressibility (1/GPa) = 0.04968226
#
# Stress axis : x y z
#
# Youngs Moduli (GPa) = 120.34644 19.50063 104.71747
#
# Poissons Ratio (x) = 0.16768 0.42251
# Poissons Ratio (y) = 1.03484 -0.30422
# Poissons Ratio (z) = 0.48557 -0.05665
#
# Static dielectric constant tensor:
#      x y z
#    x 3.981090 0.000000 0.121270 
#    y 0.000000 3.350880 0.000000 
#    z 0.121270 0.000000 3.391120 
# 
# 
# High freq. dielectric constant tensor:
#      x y z
#    x 1.815020 0.000000 -0.010010 
#    y 0.000000 1.761780 0.000000 
#    z -0.010010 0.000000 1.794230 
# 
# From -- ./inp_files/75402.got.cif
#   From: 2010.06.25/outbox.cif.g09.slc.cpg/sg13_38_cif.got.tgz:75402.got - 2010.06.28 04:50:58.
