data_PCOD8119815
_publ_section_title
;
Structure prediction by ZEFSAII (Michael W. Deem and Ramdas Pophale) SiO2 
 PCOD8119815
Probable space group: P 2/C
;
_chemical_formula_sum "Si O2"
_cell_formula_units_Z 30
_cell_length_a 22.211873
_cell_length_b 10.851430
_cell_length_c 9.111290
_cell_angle_alpha 90.000000
_cell_angle_beta 139.493269
_cell_angle_gamma 90.000000
_cell_volume 1426.448743
_symmetry_space_group_name_H-M "P 2/C"
_symmetry_group_IT_number 13
_symmetry_cell_setting 'monoclinic'
loop_
_space_group_symop_operation_xyz
x,y,z
-x,y,1/2-z
-x,-y,-z
x,-y,1/2+z
loop_
_atom_site_type_symbol
_atom_site_label
_atom_site_fract_x
_atom_site_fract_y
_atom_site_fract_z
Si Si1 0.789657 0.848693 0.215476
Si Si2 0.541073 0.133446 0.471665
Si Si3 0.000000 0.468941 0.750000
Si Si4 0.287626 0.972435 0.716492
Si Si5 0.418135 0.224767 0.491102
Si Si6 0.647268 0.350367 0.580305
Si Si7 0.892239 0.630892 0.321422
Si Si8 0.684902 0.442330 0.360762
O O1 0.717332 0.749749 0.143017
O O2 0.886083 0.774757 0.363995
O O3 0.794123 0.961009 0.340716
O O4 0.756669 0.904190 0.001879
O O5 0.500000 0.066435 0.250000
O O6 0.462729 0.132742 0.450741
O O7 0.556171 0.278614 0.463146
O O8 0.637949 0.073916 0.700216
O O9 0.926462 0.553735 0.526353
O O10 0.955371 0.382405 0.793091
O O11 0.339443 0.866796 0.911720
O O12 0.367938 0.346200 0.340918
O O13 0.500000 0.266515 0.750000
O O14 0.629986 0.446575 0.414582
O O15 0.685743 0.422424 0.792336
O O16 0.791445 0.588962 0.084368
#
# Coordination Sequence:
#
# PCOD8119815 Si02
#       8
#     4   4   2   4   4   4   4   4
#     4  10  21  40  64  92 129 159 215 260 319 374
#     4  11  21  38  56  80 126 168 229 281 306 348
#     4  10  22  40  80 104 128 160 192 252 330 398
#     4  11  20  40  61  86 121 177 216 275 306 352
#     4  12  23  35  54  91 121 174 230 262 300 362
#     4  10  22  38  57  83 122 173 210 268 325 368
#     4  10  20  43  67 105 128 157 202 256 318 397
#     4  11  22  40  61  87 133 166 207 265 324 378
#
# _framework density 21.031251000000001
#
# number of rings (size 3 to 8) (size 9 to 14) (size 15 to 20)
#    0.000    1.333    4.000    4.000    1.867    1.067 
#    0.000    2.667    0.000    2.400    0.000    0.000 
#    0.000    0.000    0.000    0.000    0.000    0.000 
#
# Total GULP energy -371652.048086 kJ/mol
# GULP energy per Si atom -12388.401603 kJ/mol
# Density = 2.098338 g / cm^3
# Si number density = 21.031251 Si / 1000 Ang^3
#
#
#
# Elastic Constant Matrix: (Units=GPa)
#
#
# Indices 1 2 3 4 5 6 
#
# 1 79.7480 34.7056 18.8000 0.0000 -6.7813 0.0000
# 2 34.7056 52.5737 16.1710 0.0000 3.6301 0.0000
# 3 18.8000 16.1710 71.1176 0.0000 -1.9562 0.0000
# 4 0.0000 0.0000 0.0000 37.6411 0.0000 -4.9590
# 5 -6.7813 3.6301 -1.9562 0.0000 23.8096 0.0000
# 6 0.0000 0.0000 0.0000 -4.9590 0.0000 52.4565
#
#
#
# Elastic Compliance Matrix: (Units=1/GPa)
#
#
# Indices 1 2 3 4 5 6 
#
# 1 0.019036 -0.012443 -0.002006 0.000000 0.007154 0.000000
# 2 -0.012443 0.028882 -0.003504 0.000000 -0.008235 0.000000
# 3 -0.002006 -0.003504 0.015422 0.000000 0.001230 0.000000
# 4 0.000000 0.000000 0.000000 0.026902 0.000000 0.002543
# 5 0.007154 -0.008235 0.001230 0.000000 0.045394 0.000000
# 6 0.000000 0.000000 0.000000 0.002543 0.000000 0.019304
#
#
# Mechanical properties :
#
#
# Convention : Reuss Voigt Hill
#
# Bulk Modulus (GPa) = 36.45300 38.08806 37.27053
# Shear Modulus (GPa) = 25.00120 31.69895 28.35008
#
# Velocity S-wave (km/s) = 3.45159 3.88652 3.67549
# Velocity P-wave (km/s) = 5.76672 6.18786 5.98099
#
# Compressibility (1/GPa) = 0.02743259
#
# Stress axis : x y z
#
# Youngs Moduli (GPa) = 52.53238 34.62419 64.84174
#
# Poissons Ratio (x) = 0.43083 0.13007
# Poissons Ratio (y) = 0.65367 0.22723
# Poissons Ratio (z) = 0.10538 0.12134
#
# Static dielectric constant tensor:
#      x y z
#    x 4.240570 0.000000 -0.193610 
#    y 0.000000 4.317620 0.000000 
#    z -0.193610 0.000000 3.674490 
# 
# 
# High freq. dielectric constant tensor:
#      x y z
#    x 1.813400 0.000000 -0.022810 
#    y 0.000000 1.831520 0.000000 
#    z -0.022810 0.000000 1.805900 
# 
# From -- ./inp_files/24148.got.cif
#   From: 2010.06.25/outbox.cif.g09.slc.cpg/sg13_13_cif.got.tgz:24148.got - 2010.06.28 04:50:58.
