data_PCOD8119940
_publ_section_title
;
Structure prediction by ZEFSAII (Michael W. Deem and Ramdas Pophale) SiO2 
 PCOD8119940
Probable space group: P 2/C
;
_chemical_formula_sum "Si O2"
_cell_formula_units_Z 32
_cell_length_a 17.317736
_cell_length_b 11.124185
_cell_length_c 16.977840
_cell_angle_alpha 90.000000
_cell_angle_beta 146.427462
_cell_angle_gamma 90.000000
_cell_volume 1808.676144
_symmetry_space_group_name_H-M "P 2/C"
_symmetry_group_IT_number 13
_symmetry_cell_setting 'monoclinic'
loop_
_space_group_symop_operation_xyz
x,y,z
-x,y,1/2-z
-x,-y,-z
x,-y,1/2+z
loop_
_atom_site_type_symbol
_atom_site_label
_atom_site_fract_x
_atom_site_fract_y
_atom_site_fract_z
Si Si1 0.710248 0.540340 0.589291
Si Si2 0.357475 0.670947 0.806962
Si Si3 0.586321 0.434696 0.714464
Si Si4 0.653143 0.790228 0.359212
Si Si5 0.130956 0.148243 0.148473
Si Si6 0.182560 0.125447 0.651823
Si Si7 0.143953 0.239120 0.332241
Si Si8 0.655962 0.303359 0.612534
O O1 0.666022 0.600008 0.633126
O O2 0.581127 0.555657 0.419298
O O3 0.841572 0.616122 0.667993
O O4 0.742194 0.398714 0.630867
O O5 0.352232 0.570832 0.732574
O O6 0.236096 0.767582 0.687643
O O7 0.511547 0.732837 0.945019
O O8 0.648399 0.353354 0.837064
O O9 0.622774 0.368139 0.665301
O O10 0.500000 0.841311 0.250000
O O11 0.720703 0.860606 0.343030
O O12 0.738824 0.812870 0.510920
O O13 0.158853 0.166212 0.264349
O O14 0.167051 0.013787 0.156214
O O15 0.970736 0.182954 0.992964
O O16 0.250338 0.187243 0.787132
O O17 0.000000 0.209748 0.250000
#
# Coordination Sequence:
#
# PCOD8119940 Si02
#       8
#     4   4   4   4   4   4   4   4
#     4   8  14  28  49  72 102 127 152 202 258 308
#     4   8  15  29  50  74  98 126 162 206 251 301
#     4   8  14  28  49  74 100 127 154 198 261 308
#     4  11  20  34  55  79 103 135 175 220 269 323
#     4  10  21  36  52  73 108 143 181 224 263 310
#     4  10  21  36  52  75 104 144 186 219 262 310
#     4  11  20  34  51  79 105 135 174 219 277 318
#     4   8  15  29  50  74  96 125 168 205 246 303
#
# _framework density 17.692498000000001
#
# number of rings (size 3 to 8) (size 9 to 14) (size 15 to 20)
#    0.000    2.750    2.500    1.500    1.750    0.500 
#    2.250    2.500    0.000    3.000    0.000    0.000 
#    0.000    0.000    0.000    0.000    0.000    0.000 
#
# Total GULP energy -396464.937651 kJ/mol
# GULP energy per Si atom -12389.529302 kJ/mol
# Density = 1.765223 g / cm^3
# Si number density = 17.692498 Si / 1000 Ang^3
#
#
#
# Elastic Constant Matrix: (Units=GPa)
#
#
# Indices 1 2 3 4 5 6 
#
# 1 60.2603 33.7534 34.2577 0.0000 7.5623 0.0000
# 2 33.7534 75.1813 40.2557 0.0000 12.1839 0.0000
# 3 34.2577 40.2557 96.3688 0.0000 18.0410 0.0000
# 4 0.0000 0.0000 0.0000 28.4966 0.0000 2.7487
# 5 7.5623 12.1839 18.0410 0.0000 19.7789 0.0000
# 6 0.0000 0.0000 0.0000 2.7487 0.0000 23.3690
#
#
#
# Elastic Compliance Matrix: (Units=1/GPa)
#
#
# Indices 1 2 3 4 5 6 
#
# 1 0.024041 -0.008056 -0.005293 0.000000 0.000599 0.000000
# 2 -0.008056 0.020229 -0.004619 0.000000 -0.005168 0.000000
# 3 -0.005293 -0.004619 0.016010 0.000000 -0.009735 0.000000
# 4 0.000000 0.000000 0.000000 0.035495 0.000000 -0.004175
# 5 0.000599 -0.005168 -0.009735 0.000000 0.062393 0.000000
# 6 0.000000 0.000000 0.000000 -0.004175 0.000000 0.043283
#
#
# Mechanical properties :
#
#
# Convention : Reuss Voigt Hill
#
# Bulk Modulus (GPa) = 41.07812 49.81601 45.44706
# Shear Modulus (GPa) = 20.36651 22.56514 21.46583
#
# Velocity S-wave (km/s) = 3.39652 3.57516 3.48699
# Velocity P-wave (km/s) = 6.21692 6.72756 6.47727
#
# Compressibility (1/GPa) = 0.02434386
#
# Stress axis : x y z
#
# Youngs Moduli (GPa) = 41.59524 49.43459 62.46054
#
# Poissons Ratio (x) = 0.39827 0.33061
# Poissons Ratio (y) = 0.33511 0.28848
# Poissons Ratio (z) = 0.22016 0.22832
#
# Static dielectric constant tensor:
#      x y z
#    x 3.286780 0.000000 0.098200 
#    y 0.000000 3.307350 0.000000 
#    z 0.098200 0.000000 3.354710 
# 
# 
# High freq. dielectric constant tensor:
#      x y z
#    x 1.666540 0.000000 0.005070 
#    y 0.000000 1.663150 0.000000 
#    z 0.005070 0.000000 1.681370 
# 
# From -- ./inp_files/69861.got.cif
#   From: 2010.06.25/outbox.cif.g09.slc.cpg/sg13_35_cif.got.tgz:69861.got - 2010.06.28 04:50:58.
