data_PCOD8119157
_publ_section_title
;
Structure prediction by ZEFSAII (Michael W. Deem and Ramdas Pophale) SiO2 
 PCOD8119157
Probable space group: P 2/C
;
_chemical_formula_sum "Si O2"
_cell_formula_units_Z 28
_cell_length_a 20.744916
_cell_length_b 15.049427
_cell_length_c 8.938931
_cell_angle_alpha 90.000000
_cell_angle_beta 149.518894
_cell_angle_gamma 90.000000
_cell_volume 1415.607595
_symmetry_space_group_name_H-M "P 2/C"
_symmetry_group_IT_number 13
_symmetry_cell_setting 'monoclinic'
loop_
_space_group_symop_operation_xyz
x,y,z
-x,y,1/2-z
-x,-y,-z
x,-y,1/2+z
loop_
_atom_site_type_symbol
_atom_site_label
_atom_site_fract_x
_atom_site_fract_y
_atom_site_fract_z
Si Si1 0.504134 0.698833 0.081368
Si Si2 0.250000 0.398981 0.061298
Si Si3 0.000000 0.001960 0.250000
Si Si4 0.995865 0.301167 0.564829
Si Si5 0.392471 0.119526 0.784523
Si Si6 0.892471 0.119526 0.285362
Si Si7 0.250001 0.410599 0.414781
Si Si8 0.500000 0.001960 0.250000
O O1 0.500000 0.711110 0.250000
O O2 0.513644 0.796146 0.026724
O O3 0.624059 0.638677 0.273734
O O4 0.374872 0.655412 0.761596
O O5 0.250000 0.416579 0.236819
O O6 0.125126 0.344589 0.762104
O O7 0.250000 0.490714 0.975417
O O8 0.090664 0.063316 0.331262
O O9 0.087227 0.941557 0.529215
O O10 0.000000 0.288891 0.750000
O O11 0.986357 0.203854 0.472150
O O12 0.875938 0.361322 0.277491
O O13 0.250000 0.156690 0.491373
O O14 0.412773 0.058444 0.680305
O O15 0.409337 0.063315 0.968606
#
# Coordination Sequence:
#
# PCOD8119157 Si02
#       8
#     4   4   2   4   4   4   4   2
#     4  10  20  37  62  86 120 159 196 242 303 367
#     4  10  22  38  60  87 115 156 200 243 297 362
#     4  10  24  38  62  92 118 162 202 254 298 360
#     4  10  20  37  62  86 120 159 196 242 303 367
#     4  11  21  42  62  90 124 159 204 248 305 356
#     4  11  21  42  62  90 124 159 204 248 305 356
#     4  10  20  40  60  83 115 156 198 245 303 354
#     4  10  24  38  62  92 118 162 202 254 298 360
#
# _framework density 19.779491
#
# number of rings (size 3 to 8) (size 9 to 14) (size 15 to 20)
#    0.000    1.714    2.857    1.714    0.000    0.000 
#   18.000    0.000    0.000    0.000    0.000    0.000 
#    0.000    0.000    0.000    0.000    0.000    0.000 
#
# Total GULP energy -347306.740654 kJ/mol
# GULP energy per Si atom -12403.812166 kJ/mol
# Density = 1.973447 g / cm^3
# Si number density = 19.779491 Si / 1000 Ang^3
#
#
#
# Elastic Constant Matrix: (Units=GPa)
#
#
# Indices 1 2 3 4 5 6 
#
# 1 67.8211 56.3106 56.1535 0.0000 6.8052 0.0000
# 2 56.3106 173.4000 70.6817 0.0000 12.9724 0.0000
# 3 56.1535 70.6817 112.7270 0.0000 33.7261 0.0000
# 4 0.0000 0.0000 0.0000 32.0358 0.0000 12.3055
# 5 6.8052 12.9724 33.7261 0.0000 33.9005 0.0000
# 6 0.0000 0.0000 0.0000 12.3055 0.0000 18.4021
#
#
#
# Elastic Compliance Matrix: (Units=1/GPa)
#
#
# Indices 1 2 3 4 5 6 
#
# 1 0.030138 -0.004217 -0.015720 0.000000 0.011203 0.000000
# 2 -0.004217 0.008509 -0.003579 0.000000 0.001151 0.000000
# 3 -0.015720 -0.003579 0.025047 0.000000 -0.020393 0.000000
# 4 0.000000 0.000000 0.000000 0.042004 0.000000 -0.028088
# 5 0.011203 0.001151 -0.020393 0.000000 0.047097 0.000000
# 6 0.000000 0.000000 0.000000 -0.028088 0.000000 0.073125
#
#
# Mechanical properties :
#
#
# Convention : Reuss Voigt Hill
#
# Bulk Modulus (GPa) = 60.02003 80.02664 70.02334
# Shear Modulus (GPa) = 17.95281 28.25450 23.10365
#
# Velocity S-wave (km/s) = 3.01599 3.78362 3.42140
# Velocity P-wave (km/s) = 6.52217 7.72236 7.14750
#
# Compressibility (1/GPa) = 0.01666111
#
# Stress axis : x y z
#
# Youngs Moduli (GPa) = 33.18067 117.51765 39.92430
#
# Poissons Ratio (x) = 0.49561 0.62763
# Poissons Ratio (y) = 0.13993 0.14289
# Poissons Ratio (z) = 0.52162 0.42061
#
# Static dielectric constant tensor:
#      x y z
#    x 3.531840 0.000000 0.125010 
#    y 0.000000 3.625550 0.000000 
#    z 0.125010 0.000000 3.670330 
# 
# 
# High freq. dielectric constant tensor:
#      x y z
#    x 1.759070 0.000000 0.011180 
#    y 0.000000 1.786140 0.000000 
#    z 0.011180 0.000000 1.771450 
# 
# From -- ./inp_files/16900.got.cif
#   From: 2010.06.25/outbox.cif.g09.slc.cpg/sg13_9_cif.got.tgz:16900.got - 2010.06.28 04:50:58.
