data_PCOD8119905
_publ_section_title
;
Structure prediction by ZEFSAII (Michael W. Deem and Ramdas Pophale) SiO2 
 PCOD8119905
Probable space group: P 2/C
;
_chemical_formula_sum "Si O2"
_cell_formula_units_Z 24
_cell_length_a 5.955884
_cell_length_b 13.319560
_cell_length_c 16.095242
_cell_angle_alpha 90.000000
_cell_angle_beta 66.367482
_cell_angle_gamma 90.000000
_cell_volume 1169.750578
_symmetry_space_group_name_H-M "P 2/C"
_symmetry_group_IT_number 13
_symmetry_cell_setting 'monoclinic'
loop_
_space_group_symop_operation_xyz
x,y,z
-x,y,1/2-z
-x,-y,-z
x,-y,1/2+z
loop_
_atom_site_type_symbol
_atom_site_label
_atom_site_fract_x
_atom_site_fract_y
_atom_site_fract_z
Si Si1 0.210725 0.598434 0.369665
Si Si2 0.514086 0.780235 0.364494
Si Si3 0.000000 0.118455 0.750000
Si Si4 0.241547 0.284278 0.509155
Si Si5 0.937595 0.911869 0.072451
Si Si6 0.000000 0.508867 0.750000
Si Si7 0.512029 0.410703 0.345414
O O1 0.369950 0.698158 0.332591
O O2 0.356749 0.509818 0.395678
O O3 0.954844 0.625892 0.451340
O O4 0.162113 0.561214 0.284091
O O5 0.570942 0.726218 0.442793
O O6 0.345856 0.880245 0.397977
O O7 0.762377 0.810813 0.281004
O O8 0.996034 0.058257 0.661682
O O9 0.405914 0.312367 0.405742
O O10 0.107629 0.178964 0.516717
O O11 0.000000 0.000000 0.000000
O O12 0.201092 0.576112 0.670818
O O13 0.500000 0.388039 0.250000
#
# Coordination Sequence:
#
# PCOD8119905 Si02
#       7
#     4   4   2   4   4   2   4
#     4  10  21  35  56  84 117 154 194 236 281 334
#     4  10  22  37  60  89 117 148 189 239 291 343
#     4  10  22  39  64  91 120 148 182 239 302 351
#     4  10  22  38  59  84 113 150 193 240 290 344
#     4  10  23  43  64  88 116 148 192 242 296 353
#     4  10  22  33  52  81 118 160 198 233 276 335
#     4  10  22  38  53  78 119 159 196 234 280 339
#
# _framework density 20.517195000000001
#
# number of rings (size 3 to 8) (size 9 to 14) (size 15 to 20)
#    0.000    2.000    0.000    2.000    0.000   30.667 
#    0.000    3.333    0.000    1.000    0.000    0.000 
#    0.000    0.000    0.000    0.000    0.000    0.000 
#
# Total GULP energy -297470.219076 kJ/mol
# GULP energy per Si atom -12394.592462 kJ/mol
# Density = 2.047050 g / cm^3
# Si number density = 20.517195 Si / 1000 Ang^3
#
#
#
# Elastic Constant Matrix: (Units=GPa)
#
#
# Indices 1 2 3 4 5 6 
#
# 1 130.3784 41.5609 53.6856 0.0000 -17.6183 0.0000
# 2 41.5609 82.9794 65.9657 0.0000 -8.5864 0.0000
# 3 53.6856 65.9657 134.0626 0.0000 -5.9640 0.0000
# 4 0.0000 0.0000 0.0000 32.2887 0.0000 5.0804
# 5 -17.6183 -8.5864 -5.9640 0.0000 28.0088 0.0000
# 6 0.0000 0.0000 0.0000 5.0804 0.0000 10.3914
#
#
#
# Elastic Compliance Matrix: (Units=1/GPa)
#
#
# Indices 1 2 3 4 5 6 
#
# 1 0.010248 -0.002500 -0.002646 0.000000 0.005116 0.000000
# 2 -0.002500 0.020865 -0.009138 0.000000 0.002878 0.000000
# 3 -0.002646 -0.009138 0.012939 0.000000 -0.001711 0.000000
# 4 0.000000 0.000000 0.000000 0.033552 0.000000 -0.016403
# 5 0.005116 0.002878 -0.001711 0.000000 0.039440 0.000000
# 6 0.000000 0.000000 0.000000 -0.016403 0.000000 0.104253
#
#
# Mechanical properties :
#
#
# Convention : Reuss Voigt Hill
#
# Bulk Modulus (GPa) = 64.57911 74.42721 69.50316
# Shear Modulus (GPa) = 19.60596 26.55167 23.07882
#
# Velocity S-wave (km/s) = 3.09461 3.60129 3.35752
# Velocity P-wave (km/s) = 6.65678 7.32439 6.99855
#
# Compressibility (1/GPa) = 0.01548488
#
# Stress axis : x y z
#
# Youngs Moduli (GPa) = 97.58195 47.92688 77.28586
#
# Poissons Ratio (x) = 0.11980 0.20451
# Poissons Ratio (y) = 0.24392 0.70621
# Poissons Ratio (z) = 0.25822 0.43794
#
# Static dielectric constant tensor:
#      x y z
#    x 4.377390 0.000000 -0.172570 
#    y 0.000000 3.378310 0.000000 
#    z -0.172570 0.000000 3.612380 
# 
# 
# High freq. dielectric constant tensor:
#      x y z
#    x 1.827290 0.000000 -0.008820 
#    y 0.000000 1.762120 0.000000 
#    z -0.008820 0.000000 1.797940 
# 
# From -- ./inp_files/43832.got.cif
#   From: 2010.06.25/outbox.cif.g09.slc.cpg/sg13_22_cif.got.tgz:43832.got - 2010.06.28 04:50:58.
