data_PCOD8119126
_publ_section_title
;
Structure prediction by ZEFSAII (Michael W. Deem and Ramdas Pophale) SiO2 
 PCOD8119126
Probable space group: P 2/C
;
_chemical_formula_sum "Si O2"
_cell_formula_units_Z 32
_cell_length_a 9.300992
_cell_length_b 11.660989
_cell_length_c 14.320271
_cell_angle_alpha 90.000000
_cell_angle_beta 87.841214
_cell_angle_gamma 90.000000
_cell_volume 1552.056591
_symmetry_space_group_name_H-M "P 2/C"
_symmetry_group_IT_number 13
_symmetry_cell_setting 'monoclinic'
loop_
_space_group_symop_operation_xyz
x,y,z
-x,y,1/2-z
-x,-y,-z
x,-y,1/2+z
loop_
_atom_site_type_symbol
_atom_site_label
_atom_site_fract_x
_atom_site_fract_y
_atom_site_fract_z
Si Si1 0.275175 0.970362 0.019246
Si Si2 0.836650 0.749371 0.551629
Si Si3 0.471907 0.034521 0.851298
Si Si4 0.836094 0.220710 0.451686
Si Si5 0.634479 0.278135 0.620290
Si Si6 0.832965 0.300229 0.250108
Si Si7 0.384862 0.591113 0.044152
Si Si8 0.664294 0.521975 0.259229
O O1 0.371133 0.954112 0.108001
O O2 0.176414 0.083964 0.029580
O O3 0.176240 0.858996 0.014988
O O4 0.374271 0.961717 0.924078
O O5 0.800929 0.781000 0.661007
O O6 0.733773 0.642589 0.523895
O O7 0.006793 0.723205 0.540130
O O8 0.500000 0.975081 0.750000
O O9 0.385069 0.152840 0.835208
O O10 0.739088 0.285781 0.529109
O O11 0.775677 0.245054 0.348131
O O12 0.476352 0.306455 0.586369
O O13 0.693864 0.363359 0.698228
O O14 0.762689 0.419960 0.221996
O O15 0.000000 0.324807 0.250000
O O16 0.297380 0.536440 0.132386
O O17 0.500000 0.500000 0.000000
O O18 0.500000 0.483929 0.250000
#
# Coordination Sequence:
#
# PCOD8119126 Si02
#       8
#     4   4   4   4   4   4   4   4
#     4  10  22  38  61  90 120 159 204 249 315 369
#     4  11  22  40  61  87 120 160 203 255 307 370
#     4  10  20  37  60  92 119 151 195 255 309 359
#     4  10  23  41  60  85 122 162 203 250 307 374
#     4  10  20  38  60  84 121 152 195 250 298 362
#     4  10  23  40  58  84 120 158 201 248 301 366
#     4  11  21  36  61  89 119 154 201 252 305 358
#     4  10  21  38  60  90 117 157 197 248 303 361
#
# _framework density 20.617804
#
# number of rings (size 3 to 8) (size 9 to 14) (size 15 to 20)
#    0.000    1.750    1.250    3.750    1.750    1.000 
#    0.000    3.125    0.000    0.000    0.000    0.000 
#    0.000    0.000    0.000    0.000    0.000    0.000 
#
# Total GULP energy -396547.167610 kJ/mol
# GULP energy per Si atom -12392.098988 kJ/mol
# Density = 2.057088 g / cm^3
# Si number density = 20.617804 Si / 1000 Ang^3
#
#
#
# Elastic Constant Matrix: (Units=GPa)
#
#
# Indices 1 2 3 4 5 6 
#
# 1 54.0488 18.8300 35.3278 0.0000 5.9522 0.0000
# 2 18.8300 62.0221 14.1412 0.0000 7.0716 0.0000
# 3 35.3278 14.1412 133.8418 0.0000 -4.2589 0.0000
# 4 0.0000 0.0000 0.0000 22.7432 0.0000 0.6555
# 5 5.9522 7.0716 -4.2589 0.0000 29.8192 0.0000
# 6 0.0000 0.0000 0.0000 0.6555 0.0000 27.8960
#
#
#
# Elastic Compliance Matrix: (Units=1/GPa)
#
#
# Indices 1 2 3 4 5 6 
#
# 1 0.024989 -0.005671 -0.006141 0.000000 -0.004520 0.000000
# 2 -0.005671 0.018346 -0.000546 0.000000 -0.003297 0.000000
# 3 -0.006141 -0.000546 0.009235 0.000000 0.002674 0.000000
# 4 0.000000 0.000000 0.000000 0.043999 0.000000 -0.001034
# 5 -0.004520 -0.003297 0.002674 0.000000 0.035601 0.000000
# 6 0.000000 0.000000 0.000000 -0.001034 0.000000 0.035872
#
#
# Mechanical properties :
#
#
# Convention : Reuss Voigt Hill
#
# Bulk Modulus (GPa) = 35.90213 42.94565 39.42389
# Shear Modulus (GPa) = 24.74726 28.19924 26.47325
#
# Velocity S-wave (km/s) = 3.46827 3.70227 3.58718
# Velocity P-wave (km/s) = 5.78701 6.25703 6.02660
#
# Compressibility (1/GPa) = 0.02785350
#
# Stress axis : x y z
#
# Youngs Moduli (GPa) = 40.01761 54.50919 108.28232
#
# Poissons Ratio (x) = 0.30914 0.66491
# Poissons Ratio (y) = 0.22695 0.05915
# Poissons Ratio (z) = 0.24573 0.02978
#
# Static dielectric constant tensor:
#      x y z
#    x 3.567570 0.000000 0.022190 
#    y 0.000000 3.537550 0.000000 
#    z 0.022190 0.000000 4.068420 
# 
# 
# High freq. dielectric constant tensor:
#      x y z
#    x 1.792240 0.000000 -0.000700 
#    y 0.000000 1.795850 0.000000 
#    z -0.000700 0.000000 1.823950 
# 
# From -- ./inp_files/47240.got.cif
#   From: 2010.06.25/outbox.cif.g09.slc.cpg/sg13_24_cif.got.tgz:47240.got - 2010.06.28 04:50:58.
