data_PCOD8119925
_publ_section_title
;
Structure prediction by ZEFSAII (Michael W. Deem and Ramdas Pophale) SiO2 
 PCOD8119925
Probable space group: P 2/C
;
_chemical_formula_sum "Si O2"
_cell_formula_units_Z 20
_cell_length_a 21.276761
_cell_length_b 5.057924
_cell_length_c 14.075421
_cell_angle_alpha 90.000000
_cell_angle_beta 35.360337
_cell_angle_gamma 90.000000
_cell_volume 876.607676
_symmetry_space_group_name_H-M "P 2/C"
_symmetry_group_IT_number 13
_symmetry_cell_setting 'monoclinic'
loop_
_space_group_symop_operation_xyz
x,y,z
-x,y,1/2-z
-x,-y,-z
x,-y,1/2+z
loop_
_atom_site_type_symbol
_atom_site_label
_atom_site_fract_x
_atom_site_fract_y
_atom_site_fract_z
Si Si1 0.606501 0.023537 0.556721
Si Si2 0.683438 0.537896 0.371486
Si Si3 0.153965 0.398663 0.473626
Si Si4 0.026159 0.084104 0.109586
Si Si5 0.818170 0.793627 0.351819
O O1 0.500000 0.996888 0.750000
O O2 0.608511 0.799805 0.470844
O O3 0.711123 0.979073 0.497022
O O4 0.608951 0.303526 0.502254
O O5 0.726979 0.483215 0.211333
O O6 0.792339 0.577631 0.302021
O O7 0.124333 0.116985 0.461790
O O8 0.156999 0.374801 0.583826
O O9 0.062236 0.612399 0.553442
O O10 0.000000 0.021538 0.250000
O O11 0.916141 0.984462 0.192452
#
# Coordination Sequence:
#
# PCOD8119925 Si02
#       5
#     4   4   4   4   4
#     4  10  22  43  63  84 120 162 205 260 305 348
#     4  10  23  39  63  90 121 154 211 247 301 362
#     4  11  22  38  60  91 127 155 199 249 289 368
#     4  10  21  35  59  89 125 161 193 236 297 364
#     4   9  24  39  64  87 127 164 201 238 314 349
#
# _framework density 22.815223
#
# number of rings (size 3 to 8) (size 9 to 14) (size 15 to 20)
#    1.200    0.800    0.000    3.600    8.400    1.600 
#    0.000    2.000    0.000    0.000    0.000    0.000 
#    0.000    0.000    0.000    0.000    0.000    0.000 
#
# Total GULP energy -247767.272087 kJ/mol
# GULP energy per Si atom -12388.363604 kJ/mol
# Density = 2.276329 g / cm^3
# Si number density = 22.815223 Si / 1000 Ang^3
#
#
#
# Elastic Constant Matrix: (Units=GPa)
#
#
# Indices 1 2 3 4 5 6 
#
# 1 12.9034 8.1042 -11.0128 0.0000 1.8971 0.0000
# 2 8.1042 113.3651 2.1861 0.0000 -1.0978 0.0000
# 3 -11.0128 2.1861 85.9623 0.0000 -3.8556 0.0000
# 4 0.0000 0.0000 0.0000 44.5908 0.0000 -8.2730
# 5 1.8971 -1.0978 -3.8556 0.0000 26.0165 0.0000
# 6 0.0000 0.0000 0.0000 -8.2730 0.0000 24.1846
#
#
#
# Elastic Compliance Matrix: (Units=1/GPa)
#
#
# Indices 1 2 3 4 5 6 
#
# 1 0.092698 -0.006906 0.011814 0.000000 -0.005300 0.000000
# 2 -0.006906 0.009343 -0.001089 0.000000 0.000736 0.000000
# 3 0.011814 -0.001089 0.013221 0.000000 0.001052 0.000000
# 4 0.000000 0.000000 0.000000 0.023946 0.000000 0.008191
# 5 -0.005300 0.000736 0.001052 0.000000 0.039011 0.000000
# 6 0.000000 0.000000 0.000000 0.008191 0.000000 0.044151
#
#
# Mechanical properties :
#
#
# Convention : Reuss Voigt Hill
#
# Bulk Modulus (GPa) = 8.13674 23.42065 15.77870
# Shear Modulus (GPa) = 19.55422 33.15527 26.35474
#
# Velocity S-wave (km/s) = 2.93075 3.81623 3.40242
# Velocity P-wave (km/s) = 3.87640 5.45030 4.72929
#
# Compressibility (1/GPa) = 0.12289931
#
# Stress axis : x y z
#
# Youngs Moduli (GPa) = 10.78769 107.03334 75.63513
#
# Poissons Ratio (x) = 0.73917 -0.89353
# Poissons Ratio (y) = 0.07450 0.08239
# Poissons Ratio (z) = -0.12744 0.11659
#
# Static dielectric constant tensor:
#      x y z
#    x 3.687910 0.000000 -0.064520 
#    y 0.000000 4.143040 0.000000 
#    z -0.064520 0.000000 3.968690 
# 
# 
# High freq. dielectric constant tensor:
#      x y z
#    x 1.851480 0.000000 0.004510 
#    y 0.000000 1.914030 0.000000 
#    z 0.004510 0.000000 1.900760 
# 
# From -- ./inp_files/58142.got.cif
#   From: 2010.06.25/outbox.cif.g09.slc.cpg/sg13_30_cif.got.tgz:58142.got - 2010.06.28 04:50:58.
