data_PCOD8119454
_publ_section_title
;
Structure prediction by ZEFSAII (Michael W. Deem and Ramdas Pophale) SiO2 
 PCOD8119454
Probable space group: P 2/C
;
_chemical_formula_sum "Si O2"
_cell_formula_units_Z 28
_cell_length_a 16.674515
_cell_length_b 9.640081
_cell_length_c 8.279855
_cell_angle_alpha 90.000000
_cell_angle_beta 89.547784
_cell_angle_gamma 90.000000
_cell_volume 1330.892869
_symmetry_space_group_name_H-M "P 2/C"
_symmetry_group_IT_number 13
_symmetry_cell_setting 'monoclinic'
loop_
_space_group_symop_operation_xyz
x,y,z
-x,y,1/2-z
-x,-y,-z
x,-y,1/2+z
loop_
_atom_site_type_symbol
_atom_site_label
_atom_site_fract_x
_atom_site_fract_y
_atom_site_fract_z
Si Si1 0.886995 0.393324 0.508671
Si Si2 0.468228 0.856864 0.066406
Si Si3 0.284003 0.105037 0.633159
Si Si4 0.000000 0.511238 0.750000
Si Si5 0.500000 0.674500 0.750000
Si Si6 0.745914 0.817418 0.007870
Si Si7 0.667215 0.415229 0.328526
Si Si8 0.758554 0.374643 0.010603
O O1 0.955417 0.383741 0.371824
O O2 0.832797 0.255867 0.512192
O O3 0.836040 0.532603 0.477251
O O4 0.933615 0.409375 0.675448
O O5 0.500000 0.822113 0.250000
O O6 0.372668 0.869223 0.064934
O O7 0.495256 0.753638 0.921791
O O8 0.500000 0.000000 0.000000
O O9 0.282640 0.126637 0.822043
O O10 0.226186 0.216445 0.544457
O O11 0.251439 0.949635 0.609381
O O12 0.421600 0.577701 0.742701
O O13 0.677094 0.708048 0.958454
O O14 0.684252 0.564845 0.406164
O O15 0.736128 0.381078 0.197884
#
# Coordination Sequence:
#
# PCOD8119454 Si02
#       8
#     4   4   4   2   2   4   4   4
#     4  10  21  41  68 100 126 166 199 264 305 407
#     4  12  24  39  61  89 128 178 233 291 349 390
#     4  12  23  41  63  92 121 175 222 275 323 394
#     4  10  20  38  72 102 130 156 206 240 334 388
#     4  12  24  42  60  88 136 174 232 298 338 390
#     4  11  24  40  65  93 129 163 223 265 326 386
#     4  11  23  41  61  90 125 173 221 276 331 385
#     4  11  22  41  65  91 129 167 222 259 324 389
#
# _framework density 21.038508
#
# number of rings (size 3 to 8) (size 9 to 14) (size 15 to 20)
#    0.000    0.857    2.143    7.714    0.000    0.571 
#    1.286    0.000    0.000   14.571    0.000    0.000 
#    0.000    0.000    0.000    0.000    0.000    0.000 
#
# Total GULP energy -347121.422137 kJ/mol
# GULP energy per Si atom -12397.193648 kJ/mol
# Density = 2.099062 g / cm^3
# Si number density = 21.038508 Si / 1000 Ang^3
#
#
#
# Elastic Constant Matrix: (Units=GPa)
#
#
# Indices 1 2 3 4 5 6 
#
# 1 98.9143 30.6668 13.8129 0.0000 9.9662 0.0000
# 2 30.6668 77.6010 3.0008 0.0000 8.1481 0.0000
# 3 13.8129 3.0008 109.0127 0.0000 2.1241 0.0000
# 4 0.0000 0.0000 0.0000 30.0096 0.0000 5.6808
# 5 9.9662 8.1481 2.1241 0.0000 34.2660 0.0000
# 6 0.0000 0.0000 0.0000 5.6808 0.0000 24.7360
#
#
#
# Elastic Compliance Matrix: (Units=1/GPa)
#
#
# Indices 1 2 3 4 5 6 
#
# 1 0.011898 -0.004405 -0.001341 0.000000 -0.002330 0.000000
# 2 -0.004405 0.014858 0.000193 0.000000 -0.002264 0.000000
# 3 -0.001341 0.000193 0.009342 0.000000 -0.000235 0.000000
# 4 0.000000 0.000000 0.000000 0.034837 0.000000 -0.008001
# 5 -0.002330 -0.002264 -0.000235 0.000000 0.030414 0.000000
# 6 0.000000 0.000000 0.000000 -0.008001 0.000000 0.042264
#
#
# Mechanical properties :
#
#
# Convention : Reuss Voigt Hill
#
# Bulk Modulus (GPa) = 40.01303 42.27652 41.14478
# Shear Modulus (GPa) = 30.66563 33.67217 32.16890
#
# Velocity S-wave (km/s) = 3.82199 4.00497 3.91455
# Velocity P-wave (km/s) = 6.20782 6.44397 6.32700
#
# Compressibility (1/GPa) = 0.02499186
#
# Stress axis : x y z
#
# Youngs Moduli (GPa) = 84.05116 67.30587 107.03881
#
# Poissons Ratio (x) = 0.29650 0.14352
# Poissons Ratio (y) = 0.37027 -0.02069
# Poissons Ratio (z) = 0.11270 -0.01301
#
# Static dielectric constant tensor:
#      x y z
#    x 3.814050 0.000000 0.132370 
#    y 0.000000 3.774480 0.000000 
#    z 0.132370 0.000000 4.034780 
# 
# 
# High freq. dielectric constant tensor:
#      x y z
#    x 1.816250 0.000000 0.001310 
#    y 0.000000 1.808780 0.000000 
#    z 0.001310 0.000000 1.852030 
# 
# From -- ./inp_files/21142.got.cif
#   From: 2010.06.25/outbox.cif.g09.slc.cpg/sg13_11_cif.got.tgz:21142.got - 2010.06.28 04:50:58.
