data_PCOD8119938
_publ_section_title
;
Structure prediction by ZEFSAII (Michael W. Deem and Ramdas Pophale) SiO2 
 PCOD8119938
Probable space group: P 2/C
;
_chemical_formula_sum "Si O2"
_cell_formula_units_Z 24
_cell_length_a 8.513433
_cell_length_b 11.535169
_cell_length_c 11.870288
_cell_angle_alpha 90.000000
_cell_angle_beta 82.617935
_cell_angle_gamma 90.000000
_cell_volume 1156.046382
_symmetry_space_group_name_H-M "P 2/C"
_symmetry_group_IT_number 13
_symmetry_cell_setting 'monoclinic'
loop_
_space_group_symop_operation_xyz
x,y,z
-x,y,1/2-z
-x,-y,-z
x,-y,1/2+z
loop_
_atom_site_type_symbol
_atom_site_label
_atom_site_fract_x
_atom_site_fract_y
_atom_site_fract_z
Si Si1 0.788438 0.676350 0.148012
Si Si2 0.167065 0.215742 0.270349
Si Si3 0.296099 0.089992 0.467822
Si Si4 0.848158 0.437525 0.072009
Si Si5 0.653769 0.835420 0.971117
Si Si6 0.837262 0.279245 0.886451
O O1 0.745330 0.541064 0.133824
O O2 0.741804 0.708820 0.279267
O O3 0.976106 0.697307 0.126777
O O4 0.685203 0.747359 0.069606
O O5 0.247925 0.122991 0.345545
O O6 0.126832 0.341636 0.330835
O O7 0.275818 0.222121 0.148713
O O8 0.000000 0.161411 0.250000
O O9 0.470302 0.140042 0.471611
O O10 0.180927 0.149111 0.568598
O O11 0.268542 0.955432 0.495395
O O12 0.755662 0.370015 0.981160
O O13 0.000000 0.500000 0.000000
#
# Coordination Sequence:
#
# PCOD8119938 Si02
#       6
#     4   4   4   4   4   4
#     4  10  21  35  64  94 122 161 206 257 307 373
#     4  11  23  39  68  96 121 160 209 265 311 369
#     4  10  24  44  60  88 128 169 206 257 311 380
#     4   9  19  36  62  93 126 157 199 254 317 369
#     4  11  24  41  65  88 126 169 210 252 320 372
#     4   9  20  38  59  91 126 158 207 258 306 366
#
# _framework density 20.760411999999999
#
# number of rings (size 3 to 8) (size 9 to 14) (size 15 to 20)
#    0.000    2.000    0.000    3.500    9.333    3.333 
#    0.000    3.333    7.333    0.000    0.000    0.000 
#    0.000    0.000    0.000    0.000    0.000    0.000 
#
# Total GULP energy -297325.006685 kJ/mol
# GULP energy per Si atom -12388.541945 kJ/mol
# Density = 2.071316 g / cm^3
# Si number density = 20.760412 Si / 1000 Ang^3
#
#
#
# Elastic Constant Matrix: (Units=GPa)
#
#
# Indices 1 2 3 4 5 6 
#
# 1 37.9886 26.5787 28.8777 0.0000 15.9498 0.0000
# 2 26.5787 123.8982 51.5730 0.0000 18.2244 0.0000
# 3 28.8777 51.5730 154.8418 0.0000 24.1512 0.0000
# 4 0.0000 0.0000 0.0000 29.5226 0.0000 -4.5078
# 5 15.9498 18.2244 24.1512 0.0000 32.5952 0.0000
# 6 0.0000 0.0000 0.0000 -4.5078 0.0000 17.1874
#
#
#
# Elastic Compliance Matrix: (Units=1/GPa)
#
#
# Indices 1 2 3 4 5 6 
#
# 1 0.037821 -0.004738 -0.003394 0.000000 -0.013343 0.000000
# 2 -0.004738 0.010290 -0.002270 0.000000 -0.001753 0.000000
# 3 -0.003394 -0.002270 0.008356 0.000000 -0.003261 0.000000
# 4 0.000000 0.000000 0.000000 0.035285 0.000000 0.009254
# 5 -0.013343 -0.001753 -0.003261 0.000000 0.040605 0.000000
# 6 0.000000 0.000000 0.000000 0.009254 0.000000 0.060609
#
#
# Mechanical properties :
#
#
# Convention : Reuss Voigt Hill
#
# Bulk Modulus (GPa) = 28.04096 58.97639 43.50868
# Shear Modulus (GPa) = 22.15731 29.84100 25.99916
#
# Velocity S-wave (km/s) = 3.27048 3.79542 3.54269
# Velocity P-wave (km/s) = 5.27235 6.90483 6.14306
#
# Compressibility (1/GPa) = 0.03566211
#
# Stress axis : x y z
#
# Youngs Moduli (GPa) = 26.44045 97.17791 119.67331
#
# Poissons Ratio (x) = 0.46041 0.40621
# Poissons Ratio (y) = 0.12527 0.27171
# Poissons Ratio (z) = 0.08975 0.22063
#
# Static dielectric constant tensor:
#      x y z
#    x 3.498290 0.000000 0.026240 
#    y 0.000000 4.086640 0.000000 
#    z 0.026240 0.000000 4.289700 
# 
# 
# High freq. dielectric constant tensor:
#      x y z
#    x 1.781850 0.000000 0.008290 
#    y 0.000000 1.822310 0.000000 
#    z 0.008290 0.000000 1.833960 
# 
# From -- ./inp_files/29448.got.cif
#   From: 2010.06.25/outbox.cif.g09.slc.cpg/sg13_15_cif.got.tgz:29448.got - 2010.06.28 04:50:58.
