data_PCOD8119888
_publ_section_title
;
Structure prediction by ZEFSAII (Michael W. Deem and Ramdas Pophale) SiO2 
 PCOD8119888
Probable space group: P 2/C
;
_chemical_formula_sum "Si O2"
_cell_formula_units_Z 24
_cell_length_a 22.781975
_cell_length_b 11.110836
_cell_length_c 9.184263
_cell_angle_alpha 90.000000
_cell_angle_beta 31.120209
_cell_angle_gamma 90.000000
_cell_volume 1201.529948
_symmetry_space_group_name_H-M "P 2/C"
_symmetry_group_IT_number 13
_symmetry_cell_setting 'monoclinic'
loop_
_space_group_symop_operation_xyz
x,y,z
-x,y,1/2-z
-x,-y,-z
x,-y,1/2+z
loop_
_atom_site_type_symbol
_atom_site_label
_atom_site_fract_x
_atom_site_fract_y
_atom_site_fract_z
Si Si1 0.777326 0.779469 0.805372
Si Si2 0.976652 0.382183 0.960277
Si Si3 0.641352 0.402544 0.086300
Si Si4 0.913681 0.976523 0.057957
Si Si5 0.809135 0.754680 0.410831
Si Si6 0.391141 0.642920 0.174961
O O1 0.851048 0.673666 0.726280
O O2 0.746873 0.759891 0.699822
O O3 0.841939 0.905339 0.672401
O O4 0.662712 0.767535 0.146248
O O5 0.000000 0.425780 0.750000
O O6 0.060571 0.278911 0.836882
O O7 0.000000 0.500000 0.000000
O O8 0.634182 0.540736 0.150752
O O9 0.525522 0.333797 0.375800
O O10 0.746896 0.340778 0.941046
O O11 0.660239 0.396451 0.872225
O O12 0.816950 0.879916 0.306522
O O13 0.000000 0.932414 0.750000
O O14 0.000000 0.000000 0.000000
#
# Coordination Sequence:
#
# PCOD8119888 Si02
#       6
#     4   4   4   4   4   4
#     4  11  22  39  59  85 120 156 200 247 295 356
#     4  10  21  35  51  81 118 147 187 238 292 352
#     4  10  22  40  62  91 120 159 200 245 302 357
#     4  12  23  42  62  87 121 163 202 245 299 358
#     4  11  23  38  60  87 118 158 201 244 298 356
#     4  10  22  40  63  89 123 157 199 248 300 358
#
# _framework density 19.974533999999998
#
# number of rings (size 3 to 8) (size 9 to 14) (size 15 to 20)
#    0.000    1.333    3.333    2.500    2.333    6.667 
#    0.000    0.833    0.000    0.000    0.000    0.000 
#    0.000    0.000    0.000    0.000    0.000    0.000 
#
# Total GULP energy -297464.148899 kJ/mol
# GULP energy per Si atom -12394.339537 kJ/mol
# Density = 1.992907 g / cm^3
# Si number density = 19.974534 Si / 1000 Ang^3
#
#
#
# Elastic Constant Matrix: (Units=GPa)
#
#
# Indices 1 2 3 4 5 6 
#
# 1 92.8316 8.2932 26.1954 0.0000 15.3200 0.0000
# 2 8.2932 64.9778 22.4665 0.0000 9.7623 0.0000
# 3 26.1954 22.4665 98.5900 0.0000 17.4319 0.0000
# 4 0.0000 0.0000 0.0000 71.2742 0.0000 20.4106
# 5 15.3200 9.7623 17.4319 0.0000 28.7041 0.0000
# 6 0.0000 0.0000 0.0000 20.4106 0.0000 33.6414
#
#
#
# Elastic Compliance Matrix: (Units=1/GPa)
#
#
# Indices 1 2 3 4 5 6 
#
# 1 0.012283 0.000019 -0.002361 0.000000 -0.005128 0.000000
# 2 0.000019 0.017080 -0.003213 0.000000 -0.003868 0.000000
# 3 -0.002361 -0.003213 0.012420 0.000000 -0.005190 0.000000
# 4 0.000000 0.000000 0.000000 0.016981 0.000000 -0.010302
# 5 -0.005128 -0.003868 -0.005190 0.000000 0.042042 0.000000
# 6 0.000000 0.000000 0.000000 -0.010302 0.000000 0.035976
#
#
# Mechanical properties :
#
#
# Convention : Reuss Voigt Hill
#
# Bulk Modulus (GPa) = 32.60294 41.14552 36.87423
# Shear Modulus (GPa) = 31.62230 40.02022 35.82126
#
# Velocity S-wave (km/s) = 3.98317 4.48097 4.23939
# Velocity P-wave (km/s) = 6.12470 6.88592 6.51643
#
# Compressibility (1/GPa) = 0.03067208
#
# Stress axis : x y z
#
# Youngs Moduli (GPa) = 81.41267 58.54962 80.51371
#
# Poissons Ratio (x) = -0.00112 0.19011
# Poissons Ratio (y) = -0.00156 0.25872
# Poissons Ratio (z) = 0.19224 0.18814
#
# Static dielectric constant tensor:
#      x y z
#    x 6.379380 0.000000 2.694270 
#    y 0.000000 3.106370 0.000000 
#    z 2.694270 0.000000 6.254700 
# 
# 
# High freq. dielectric constant tensor:
#      x y z
#    x 1.793330 0.000000 0.011640 
#    y 0.000000 1.762900 0.000000 
#    z 0.011640 0.000000 1.779260 
# 
# From -- ./inp_files/15856.got.cif
#   From: 2010.06.25/outbox.cif.g09.slc.cpg/sg13_8_cif.got.tgz:15856.got - 2010.06.28 04:50:58.
