data_PCOD8119856
_publ_section_title
;
Structure prediction by ZEFSAII (Michael W. Deem and Ramdas Pophale) SiO2 
 PCOD8119856
Probable space group: P 2/C
;
_chemical_formula_sum "Si O2"
_cell_formula_units_Z 32
_cell_length_a 20.865453
_cell_length_b 9.624619
_cell_length_c 25.640736
_cell_angle_alpha 90.000000
_cell_angle_beta 159.583533
_cell_angle_gamma 90.000000
_cell_volume 1796.262842
_symmetry_space_group_name_H-M "P 2/C"
_symmetry_group_IT_number 13
_symmetry_cell_setting 'monoclinic'
loop_
_space_group_symop_operation_xyz
x,y,z
-x,y,1/2-z
-x,-y,-z
x,-y,1/2+z
loop_
_atom_site_type_symbol
_atom_site_label
_atom_site_fract_x
_atom_site_fract_y
_atom_site_fract_z
Si Si1 0.018625 0.169530 0.566922
Si Si2 0.870004 0.704971 0.192078
Si Si3 0.118180 0.067070 0.933942
Si Si4 0.659617 0.303929 0.121031
Si Si5 0.256780 0.605232 0.298416
Si Si6 0.630977 0.074688 0.464216
Si Si7 0.881828 0.846241 0.708632
Si Si8 0.252207 0.090955 0.223325
O O1 0.110562 0.318986 0.649048
O O2 0.872439 0.123948 0.500067
O O3 0.910121 0.176105 0.429657
O O4 0.179962 0.056290 0.688693
O O5 0.813716 0.605251 0.195878
O O6 0.000000 0.621156 0.250000
O O7 0.993460 0.833656 0.303928
O O8 0.687232 0.771178 0.027180
O O9 0.318337 0.060405 0.058815
O O10 0.020215 0.916837 0.856112
O O11 0.723740 0.442886 0.200780
O O12 0.782343 0.278971 0.163127
O O13 0.673682 0.175079 0.170853
O O14 0.450843 0.316858 0.942216
O O15 0.413509 0.060110 0.305193
O O16 0.729950 0.954557 0.572728
O O17 0.000000 0.787367 0.750000
#
# Coordination Sequence:
#
# PCOD8119856 Si02
#       8
#     4   4   4   4   4   4   4   4
#     4  10  21  35  50  75 103 135 172 208 252 298
#     4   8  14  27  48  72  98 126 158 202 251 292
#     4   8  15  29  49  73 102 127 160 206 252 297
#     4  11  21  33  52  77 102 134 172 209 251 303
#     4  10  21  34  50  74 105 135 169 212 252 296
#     4   9  16  28  50  78 101 127 159 206 257 292
#     4   9  17  30  51  78 104 129 162 208 257 299
#     4  11  21  32  53  77 102 133 171 211 251 304
#
# _framework density 17.814764
#
# number of rings (size 3 to 8) (size 9 to 14) (size 15 to 20)
#    0.000    2.500    2.500    2.250    0.000    2.500 
#    0.000    0.000    0.000    0.000    0.000    0.000 
#   11.250    0.000    0.000    0.000    0.000    0.000 
#
# Total GULP energy -396643.979338 kJ/mol
# GULP energy per Si atom -12395.124354 kJ/mol
# Density = 1.777422 g / cm^3
# Si number density = 17.814764 Si / 1000 Ang^3
#
#
#
# Elastic Constant Matrix: (Units=GPa)
#
#
# Indices 1 2 3 4 5 6 
#
# 1 65.3851 10.6181 22.4975 0.0000 21.9015 0.0000
# 2 10.6181 43.3152 22.1272 0.0000 6.3660 0.0000
# 3 22.4975 22.1272 50.4676 0.0000 15.5856 0.0000
# 4 0.0000 0.0000 0.0000 19.9444 0.0000 0.9209
# 5 21.9015 6.3660 15.5856 0.0000 30.3376 0.0000
# 6 0.0000 0.0000 0.0000 0.9209 0.0000 16.6630
#
#
#
# Elastic Compliance Matrix: (Units=1/GPa)
#
#
# Indices 1 2 3 4 5 6 
#
# 1 0.021476 -0.000657 -0.005396 0.000000 -0.012594 0.000000
# 2 -0.000657 0.029777 -0.013050 0.000000 0.000930 0.000000
# 3 -0.005396 -0.013050 0.030776 0.000000 -0.009177 0.000000
# 4 0.000000 0.000000 0.000000 0.050268 0.000000 -0.002778
# 5 -0.012594 0.000930 -0.009177 0.000000 0.046574 0.000000
# 6 0.000000 0.000000 0.000000 -0.002778 0.000000 0.060167
#
#
# Mechanical properties :
#
#
# Convention : Reuss Voigt Hill
#
# Bulk Modulus (GPa) = 22.81924 29.96150 26.39037
# Shear Modulus (GPa) = 17.13200 20.31733 18.72467
#
# Velocity S-wave (km/s) = 3.10445 3.38076 3.24555
# Velocity P-wave (km/s) = 5.06825 5.66518 5.37501
#
# Compressibility (1/GPa) = 0.04382266
#
# Stress axis : x y z
#
# Youngs Moduli (GPa) = 46.56380 33.58248 32.49288
#
# Poissons Ratio (x) = 0.02206 0.17534
# Poissons Ratio (y) = 0.03059 0.42404
# Poissons Ratio (z) = 0.25127 0.43826
#
# Static dielectric constant tensor:
#      x y z
#    x 3.551450 0.000000 0.282920 
#    y 0.000000 2.983400 0.000000 
#    z 0.282920 0.000000 3.074890 
# 
# 
# High freq. dielectric constant tensor:
#      x y z
#    x 1.697510 0.000000 0.022660 
#    y 0.000000 1.660290 0.000000 
#    z 0.022660 0.000000 1.669530 
# 
# From -- ./inp_files/93584.got.cif
#   From: 2010.06.25/outbox.cif.g09.slc.cpg/sg13_47_cif.got.tgz:93584.got - 2010.06.28 04:50:58.
