data_PCOD8119575
_publ_section_title
;
Structure prediction by ZEFSAII (Michael W. Deem and Ramdas Pophale) SiO2 
 PCOD8119575
Probable space group: P 2/C
;
_chemical_formula_sum "Si O2"
_cell_formula_units_Z 32
_cell_length_a 10.553513
_cell_length_b 11.705161
_cell_length_c 12.559929
_cell_angle_alpha 90.000000
_cell_angle_beta 92.837896
_cell_angle_gamma 90.000000
_cell_volume 1549.632385
_symmetry_space_group_name_H-M "P 2/C"
_symmetry_group_IT_number 13
_symmetry_cell_setting 'monoclinic'
loop_
_space_group_symop_operation_xyz
x,y,z
-x,y,1/2-z
-x,-y,-z
x,-y,1/2+z
loop_
_atom_site_type_symbol
_atom_site_label
_atom_site_fract_x
_atom_site_fract_y
_atom_site_fract_z
Si Si1 0.100581 0.066634 0.937911
Si Si2 0.503793 0.877526 0.548742
Si Si3 0.259149 0.793492 0.616270
Si Si4 0.794046 0.650591 0.484115
Si Si5 0.227574 0.846541 0.851070
Si Si6 0.717055 0.597686 0.036777
Si Si7 0.035892 0.699517 0.364496
Si Si8 0.476170 0.306086 0.624454
O O1 0.029917 0.161867 0.863933
O O2 0.172995 0.973802 0.868023
O O3 0.185867 0.134738 0.024823
O O4 0.000000 0.000000 0.000000
O O5 0.394251 0.854726 0.629309
O O6 0.623977 0.851070 0.624651
O O7 0.486144 0.803518 0.441633
O O8 0.500000 0.000000 0.500000
O O9 0.194323 0.803794 0.729812
O O10 0.278027 0.660688 0.579542
O O11 0.822025 0.751527 0.569211
O O12 0.762356 0.532104 0.538711
O O13 0.930535 0.641341 0.434799
O O14 0.673796 0.670372 0.400191
O O15 0.575943 0.598133 0.084761
O O16 0.819470 0.663877 0.111216
O O17 0.000000 0.651087 0.250000
O O18 0.500000 0.285052 0.750000
#
# Coordination Sequence:
#
# PCOD8119575 Si02
#       8
#     4   4   4   4   4   4   4   4
#     4  11  23  41  58  89 127 159 207 259 309 372
#     4  10  20  40  58  91 129 159 207 256 312 378
#     4  10  23  40  62  91 126 166 204 259 322 376
#     4  11  23  43  65  93 129 167 217 266 314 380
#     4  11  23  38  65  92 123 168 210 255 321 386
#     4  10  23  45  63  93 134 162 214 276 309 374
#     4  11  24  41  66  92 126 169 210 260 323 379
#     4  10  22  39  66  96 125 167 212 259 324 377
#
# _framework density 20.650058999999999
#
# number of rings (size 3 to 8) (size 9 to 14) (size 15 to 20)
#    0.000    1.500    2.500    1.875    1.750    3.000 
#    0.000    0.000    0.000    0.000    0.000    0.000 
#    0.000    0.000    0.000    0.000    0.000    0.000 
#
# Total GULP energy -396492.603211 kJ/mol
# GULP energy per Si atom -12390.393850 kJ/mol
# Density = 2.060306 g / cm^3
# Si number density = 20.650059 Si / 1000 Ang^3
#
#
#
# Elastic Constant Matrix: (Units=GPa)
#
#
# Indices 1 2 3 4 5 6 
#
# 1 72.6146 -1.4697 9.6721 0.0000 -7.9648 0.0000
# 2 -1.4697 86.1359 5.1307 0.0000 1.0025 0.0000
# 3 9.6721 5.1307 98.9435 0.0000 3.2050 0.0000
# 4 0.0000 0.0000 0.0000 11.7544 0.0000 -3.0222
# 5 -7.9648 1.0025 3.2050 0.0000 21.2988 0.0000
# 6 0.0000 0.0000 0.0000 -3.0222 0.0000 33.9184
#
#
#
# Elastic Compliance Matrix: (Units=1/GPa)
#
#
# Indices 1 2 3 4 5 6 
#
# 1 0.014619 0.000280 -0.001628 0.000000 0.005699 0.000000
# 2 0.000280 0.011655 -0.000620 0.000000 -0.000351 0.000000
# 3 -0.001628 -0.000620 0.010367 0.000000 -0.002140 0.000000
# 4 0.000000 0.000000 0.000000 0.087069 0.000000 0.007758
# 5 0.005699 -0.000351 -0.002140 0.000000 0.049420 0.000000
# 6 0.000000 0.000000 0.000000 0.007758 0.000000 0.030174
#
#
# Mechanical properties :
#
#
# Convention : Reuss Voigt Hill
#
# Bulk Modulus (GPa) = 30.57657 31.59555 31.08606
# Shear Modulus (GPa) = 22.92064 29.68505 26.30284
#
# Velocity S-wave (km/s) = 3.33521 3.79559 3.57282
# Velocity P-wave (km/s) = 5.44708 5.87727 5.66626
#
# Compressibility (1/GPa) = 0.03270478
#
# Stress axis : x y z
#
# Youngs Moduli (GPa) = 68.40439 85.79731 96.45604
#
# Poissons Ratio (x) = -0.02403 0.15705
# Poissons Ratio (y) = -0.01916 0.05984
# Poissons Ratio (z) = 0.11137 0.05323
#
# Static dielectric constant tensor:
#      x y z
#    x 3.985950 0.000000 -0.057500 
#    y 0.000000 3.954420 0.000000 
#    z -0.057500 0.000000 3.638160 
# 
# 
# High freq. dielectric constant tensor:
#      x y z
#    x 1.825150 0.000000 0.000890 
#    y 0.000000 1.809280 0.000000 
#    z 0.000890 0.000000 1.797990 
# 
# From -- ./inp_files/33855.got.cif
#   From: 2010.06.25/outbox.cif.g09.slc.cpg/sg13_17_cif.got.tgz:33855.got - 2010.06.28 04:50:58.
