data_PCOD8119555
_publ_section_title
;
Structure prediction by ZEFSAII (Michael W. Deem and Ramdas Pophale) SiO2 
 PCOD8119555
Probable space group: P 2/C
;
_chemical_formula_sum "Si O2"
_cell_formula_units_Z 28
_cell_length_a 11.712693
_cell_length_b 11.309449
_cell_length_c 17.782179
_cell_angle_alpha 90.000000
_cell_angle_beta 37.448444
_cell_angle_gamma 90.000000
_cell_volume 1432.255679
_symmetry_space_group_name_H-M "P 2/C"
_symmetry_group_IT_number 13
_symmetry_cell_setting 'monoclinic'
loop_
_space_group_symop_operation_xyz
x,y,z
-x,y,1/2-z
-x,-y,-z
x,-y,1/2+z
loop_
_atom_site_type_symbol
_atom_site_label
_atom_site_fract_x
_atom_site_fract_y
_atom_site_fract_z
Si Si1 0.803486 0.445646 0.330878
Si Si2 0.128021 0.095102 0.534876
Si Si3 0.500000 0.306845 0.750000
Si Si4 0.855105 0.141386 0.550665
Si Si5 0.171592 0.795776 0.765726
Si Si6 0.491151 0.465182 0.897243
Si Si7 0.000000 0.978755 0.750000
Si Si8 0.543356 0.275965 0.142266
O O1 0.861884 0.331421 0.252804
O O2 0.681523 0.406331 0.467334
O O3 0.682054 0.538534 0.346245
O O4 0.000000 0.508454 0.250000
O O5 0.263356 0.206500 0.463859
O O6 0.932876 0.129375 0.595180
O O7 0.217541 0.985313 0.441847
O O8 0.097795 0.061701 0.637482
O O9 0.681476 0.228802 0.640394
O O10 0.537688 0.391094 0.800033
O O11 0.018998 0.188551 0.410879
O O12 0.378790 0.804407 0.692825
O O13 0.153706 0.896456 0.711359
O O14 0.434782 0.600989 0.912550
O O15 0.500000 0.308700 0.250000
#
# Coordination Sequence:
#
# PCOD8119555 Si02
#       8
#     4   4   2   4   4   4   2   4
#     4  10  20  41  64  87 122 167 201 251 314 361
#     4  10  23  42  62  92 124 162 206 257 313 369
#     4  12  24  40  64  96 126 160 210 258 312 358
#     4  10  23  40  64  90 125 161 207 261 304 376
#     4  10  20  39  67  89 119 166 204 251 315 375
#     4  10  24  40  59  97 125 158 214 256 294 381
#     4  10  22  40  60  96 128 150 218 258 302 390
#     4  11  21  41  65  86 127 167 207 256 310 365
#
# _framework density 19.549581
#
# number of rings (size 3 to 8) (size 9 to 14) (size 15 to 20)
#    0.000    1.714    2.857    0.857    3.000    1.714 
#    9.000    2.857    0.000    0.000    0.000    0.000 
#    0.000    0.000    0.000    0.000    0.000    0.000 
#
# Total GULP energy -347245.063874 kJ/mol
# GULP energy per Si atom -12401.609424 kJ/mol
# Density = 1.950509 g / cm^3
# Si number density = 19.549581 Si / 1000 Ang^3
#
#
#
# Elastic Constant Matrix: (Units=GPa)
#
#
# Indices 1 2 3 4 5 6 
#
# 1 115.2671 28.2909 47.1223 0.0000 2.4631 0.0000
# 2 28.2909 72.1570 29.2466 0.0000 -8.2169 0.0000
# 3 47.1223 29.2466 76.6277 0.0000 3.6734 0.0000
# 4 0.0000 0.0000 0.0000 12.7987 0.0000 6.2309
# 5 2.4631 -8.2169 3.6734 0.0000 34.5578 0.0000
# 6 0.0000 0.0000 0.0000 6.2309 0.0000 21.0410
#
#
#
# Elastic Compliance Matrix: (Units=1/GPa)
#
#
# Indices 1 2 3 4 5 6 
#
# 1 0.011842 -0.002105 -0.006447 0.000000 -0.000659 0.000000
# 2 -0.002105 0.017526 -0.005630 0.000000 0.004916 0.000000
# 3 -0.006447 -0.005630 0.019304 0.000000 -0.002931 0.000000
# 4 0.000000 0.000000 0.000000 0.091295 0.000000 -0.027035
# 5 -0.000659 0.004916 -0.002931 0.000000 0.030464 0.000000
# 6 0.000000 0.000000 0.000000 -0.027035 0.000000 0.055532
#
#
# Mechanical properties :
#
#
# Convention : Reuss Voigt Hill
#
# Bulk Modulus (GPa) = 49.24375 52.59683 50.92029
# Shear Modulus (GPa) = 19.14995 24.30563 21.72779
#
# Velocity S-wave (km/s) = 3.13318 3.52984 3.33741
# Velocity P-wave (km/s) = 6.19136 6.60120 6.39956
#
# Compressibility (1/GPa) = 0.02030715
#
# Stress axis : x y z
#
# Youngs Moduli (GPa) = 84.44617 57.05877 51.80187
#
# Poissons Ratio (x) = 0.12010 0.33398
# Poissons Ratio (y) = 0.17774 0.29167
# Poissons Ratio (z) = 0.54444 0.32126
#
# Static dielectric constant tensor:
#      x y z
#    x 3.910230 0.000000 0.110130 
#    y 0.000000 3.458660 0.000000 
#    z 0.110130 0.000000 3.492180 
# 
# 
# High freq. dielectric constant tensor:
#      x y z
#    x 1.781640 0.000000 0.009560 
#    y 0.000000 1.754020 0.000000 
#    z 0.009560 0.000000 1.755220 
# 
# From -- ./inp_files/66484.got.cif
#   From: 2010.06.25/outbox.cif.g09.slc.cpg/sg13_34_cif.got.tgz:66484.got - 2010.06.28 04:50:58.
