data_PCOD8119956
_publ_section_title
;
Structure prediction by ZEFSAII (Michael W. Deem and Ramdas Pophale) SiO2 
 PCOD8119956
Probable space group: P 2/C
;
_chemical_formula_sum "Si O2"
_cell_formula_units_Z 20
_cell_length_a 9.278314
_cell_length_b 21.985850
_cell_length_c 5.081837
_cell_angle_alpha 90.000000
_cell_angle_beta 75.773660
_cell_angle_gamma 90.000000
_cell_volume 1004.860605
_symmetry_space_group_name_H-M "P 2/C"
_symmetry_group_IT_number 13
_symmetry_cell_setting 'monoclinic'
loop_
_space_group_symop_operation_xyz
x,y,z
-x,y,1/2-z
-x,-y,-z
x,-y,1/2+z
loop_
_atom_site_type_symbol
_atom_site_label
_atom_site_fract_x
_atom_site_fract_y
_atom_site_fract_z
Si Si1 0.324564 0.533526 0.785609
Si Si2 0.170352 0.347541 0.155689
Si Si3 0.333498 0.027936 0.746620
Si Si4 0.170204 0.731080 0.149260
Si Si5 0.600037 0.837916 0.443666
O O1 0.500000 0.532334 0.750000
O O2 0.262207 0.483192 0.603324
O O3 0.277893 0.597856 0.688021
O O4 0.200901 0.294882 0.348730
O O5 0.000000 0.370384 0.250000
O O6 0.210476 0.319982 0.851263
O O7 0.500000 0.005092 0.750000
O O8 0.328240 0.096958 0.652631
O O9 0.253614 0.984493 0.563876
O O10 0.265631 0.791457 0.111056
O O11 0.000000 0.751286 0.250000
O O12 0.500000 0.815393 0.250000
O O13 0.500000 0.840195 0.750000
#
# Coordination Sequence:
#
# PCOD8119956 Si02
#       5
#     4   4   4   4   4
#     4  10  21  36  54  79 109 137 167 211 267 314
#     4  10  21  37  57  78 102 140 183 215 254 314
#     4   9  16  28  47  73 105 136 168 215 267 309
#     4  10  22  39  55  76 110 145 176 218 271 315
#     4  11  21  33  54  83 107 135 182 225 261 315
#
# _framework density 19.903258000000001
#
# number of rings (size 3 to 8) (size 9 to 14) (size 15 to 20)
#    0.000    2.000    0.000    5.400    0.000    3.200 
#    0.000    0.000    0.000    1.200    0.000    0.000 
#    0.000    3.200    0.000    0.000    0.000    0.000 
#
# Total GULP energy -247809.926663 kJ/mol
# GULP energy per Si atom -12390.496333 kJ/mol
# Density = 1.985796 g / cm^3
# Si number density = 19.903258 Si / 1000 Ang^3
#
#
#
# Elastic Constant Matrix: (Units=GPa)
#
#
# Indices 1 2 3 4 5 6 
#
# 1 54.4582 56.0247 40.6929 0.0000 22.5117 0.0000
# 2 56.0247 106.7952 29.7867 0.0000 12.3508 0.0000
# 3 40.6929 29.7867 109.0107 0.0000 29.6776 0.0000
# 4 0.0000 0.0000 0.0000 -0.2528 0.0000 -6.2684
# 5 22.5117 12.3508 29.6776 0.0000 22.7867 0.0000
# 6 0.0000 0.0000 0.0000 -6.2684 0.0000 -4.5195
#
#
#
# Elastic Compliance Matrix: (Units=1/GPa)
#
#
# Indices 1 2 3 4 5 6 
#
# 1 0.079295 -0.033862 -0.006224 0.000000 -0.051877 0.000000
# 2 -0.033862 0.024724 0.000659 0.000000 0.019194 0.000000
# 3 -0.006224 0.000659 0.015091 0.000000 -0.013863 0.000000
# 4 0.000000 0.000000 0.000000 0.118466 0.000000 -0.164308
# 5 -0.051877 0.019194 -0.013863 0.000000 0.102787 0.000000
# 6 0.000000 0.000000 0.000000 -0.164308 0.000000 0.006627
#
#
# Mechanical properties :
#
#
# Convention : Reuss Voigt Hill
#
# Bulk Modulus (GPa) = 24.84142 58.14140 41.49141
# Shear Modulus (GPa) = 11.38270 13.18686 12.28478
#
# Velocity S-wave (km/s) = 2.39404 2.57679 2.48710
# Velocity P-wave (km/s) = 4.48888 6.17483 5.39809
#
# Compressibility (1/GPa) = 0.04025535
#
# Stress axis : x y z
#
# Youngs Moduli (GPa) = 12.61117 40.44611 66.26609
#
# Poissons Ratio (x) = 1.36960 0.41245
# Poissons Ratio (y) = 0.42704 -0.04369
# Poissons Ratio (z) = 0.07849 -0.02667
#
# Static dielectric constant tensor:
#      x y z
#    x 3.476460 0.000000 0.273470 
#    y 0.000000 3.404630 0.000000 
#    z 0.273470 0.000000 4.406000 
# 
# 
# High freq. dielectric constant tensor:
#      x y z
#    x 1.741500 0.000000 0.031370 
#    y 0.000000 1.775490 0.000000 
#    z 0.031370 0.000000 1.803420 
# 
# From -- ./inp_files/2102.got.cif
#   From: 2010.06.25/outbox.cif.g09.slc.cpg/sg13_2_cif.got.tgz:2102.got - 2010.06.28 04:50:58.
