data_PCOD8119375
_publ_section_title
;
Structure prediction by ZEFSAII (Michael W. Deem and Ramdas Pophale) SiO2 
 PCOD8119375
Probable space group: P 2/C
;
_chemical_formula_sum "Si O2"
_cell_formula_units_Z 28
_cell_length_a 14.855097
_cell_length_b 11.929381
_cell_length_c 8.861295
_cell_angle_alpha 90.000000
_cell_angle_beta 55.195981
_cell_angle_gamma 90.000000
_cell_volume 1289.411386
_symmetry_space_group_name_H-M "P 2/C"
_symmetry_group_IT_number 13
_symmetry_cell_setting 'monoclinic'
loop_
_space_group_symop_operation_xyz
x,y,z
-x,y,1/2-z
-x,-y,-z
x,-y,1/2+z
loop_
_atom_site_type_symbol
_atom_site_label
_atom_site_fract_x
_atom_site_fract_y
_atom_site_fract_z
Si Si1 0.500000 0.007244 0.750000
Si Si2 0.656624 0.050779 0.353689
Si Si3 0.540691 0.656956 0.489067
Si Si4 0.500000 0.515426 0.250000
Si Si5 0.108898 0.638305 0.452022
Si Si6 0.707661 0.270596 0.208332
Si Si7 0.265160 0.193749 0.652829
Si Si8 0.132332 0.585440 0.763127
O O1 0.561529 0.079103 0.565261
O O2 0.403312 0.940064 0.754524
O O3 0.734092 0.159221 0.283096
O O4 0.728075 0.940196 0.323184
O O5 0.559430 0.595698 0.311702
O O6 0.582384 0.566585 0.576096
O O7 0.419274 0.693965 0.653805
O O8 0.616125 0.765257 0.405492
O O9 0.165837 0.754425 0.345737
O O10 0.163807 0.598344 0.557109
O O11 0.123111 0.546246 0.307071
O O12 0.979110 0.654859 0.598386
O O13 0.775571 0.370891 0.212662
O O14 0.749436 0.236865 0.002730
#
# Coordination Sequence:
#
# PCOD8119375 Si02
#       8
#     2   4   4   2   4   4   4   4
#     4  10  20  38  64  82 134 174 218 258 302 384
#     4  11  24  40  63  94 126 178 227 265 320 376
#     4  11  24  38  59  92 131 172 204 258 321 386
#     4  10  24  40  54  86 136 166 210 248 322 384
#     4  10  24  45  70  98 128 168 217 268 326 388
#     4  12  25  41  65  93 133 171 215 270 318 388
#     4  12  25  41  65  93 133 171 215 270 318 388
#     4  10  24  45  70  98 128 168 217 268 326 388
#
# _framework density 21.715336000000001
#
# number of rings (size 3 to 8) (size 9 to 14) (size 15 to 20)
#    0.000    1.143    2.857    2.571    8.000    2.857 
#    0.000    0.714    0.000    0.000    0.000    0.000 
#    0.000    0.000    0.000    0.000    0.000    0.000 
#
# Total GULP energy -346919.335728 kJ/mol
# GULP energy per Si atom -12389.976276 kJ/mol
# Density = 2.166591 g / cm^3
# Si number density = 21.715336 Si / 1000 Ang^3
#
#
#
# Elastic Constant Matrix: (Units=GPa)
#
#
# Indices 1 2 3 4 5 6 
#
# 1 58.4897 9.3679 19.6758 0.0000 1.2173 0.0000
# 2 9.3679 88.6080 28.3065 0.0000 -4.4261 0.0000
# 3 19.6758 28.3065 94.6936 0.0000 12.1751 0.0000
# 4 0.0000 0.0000 0.0000 24.2123 0.0000 4.2511
# 5 1.2173 -4.4261 12.1751 0.0000 34.7847 0.0000
# 6 0.0000 0.0000 0.0000 4.2511 0.0000 16.2218
#
#
#
# Elastic Compliance Matrix: (Units=1/GPa)
#
#
# Indices 1 2 3 4 5 6 
#
# 1 0.018443 -0.000747 -0.003679 0.000000 0.000547 0.000000
# 2 -0.000747 0.012820 -0.004073 0.000000 0.003083 0.000000
# 3 -0.003679 -0.004073 0.013186 0.000000 -0.005005 0.000000
# 4 0.000000 0.000000 0.000000 0.043293 0.000000 -0.011345
# 5 0.000547 0.003083 -0.005005 0.000000 0.030873 0.000000
# 6 0.000000 0.000000 0.000000 -0.011345 0.000000 0.064619
#
#
# Mechanical properties :
#
#
# Convention : Reuss Voigt Hill
#
# Bulk Modulus (GPa) = 36.43062 39.61019 38.02041
# Shear Modulus (GPa) = 23.87965 27.33983 25.60974
#
# Velocity S-wave (km/s) = 3.31972 3.55210 3.43788
# Velocity P-wave (km/s) = 5.61310 5.92482 5.77107
#
# Compressibility (1/GPa) = 0.02744943
#
# Stress axis : x y z
#
# Youngs Moduli (GPa) = 54.22121 78.00341 75.83807
#
# Poissons Ratio (x) = 0.05828 0.27902
# Poissons Ratio (y) = 0.04051 0.30892
# Poissons Ratio (z) = 0.19949 0.31774
#
# Static dielectric constant tensor:
#      x y z
#    x 3.742230 0.000000 0.292640 
#    y 0.000000 3.932850 0.000000 
#    z 0.292640 0.000000 4.122560 
# 
# 
# High freq. dielectric constant tensor:
#      x y z
#    x 1.823700 0.000000 0.025650 
#    y 0.000000 1.850760 0.000000 
#    z 0.025650 0.000000 1.868660 
# 
# From -- ./inp_files/18725.got.cif
#   From: 2010.06.25/outbox.cif.g09.slc.cpg/sg13_10_cif.got.tgz:18725.got - 2010.06.28 04:50:58.
