data_PCOD8119983
_publ_section_title
;
Structure prediction by ZEFSAII (Michael W. Deem and Ramdas Pophale) SiO2 
 PCOD8119983
Probable space group: P 2/C
;
_chemical_formula_sum "Si O2"
_cell_formula_units_Z 26
_cell_length_a 20.472331
_cell_length_b 5.285288
_cell_length_c 10.986211
_cell_angle_alpha 90.000000
_cell_angle_beta 125.722589
_cell_angle_gamma 90.000000
_cell_volume 965.075971
_symmetry_space_group_name_H-M "P 2/C"
_symmetry_group_IT_number 13
_symmetry_cell_setting 'monoclinic'
loop_
_space_group_symop_operation_xyz
x,y,z
-x,y,1/2-z
-x,-y,-z
x,-y,1/2+z
loop_
_atom_site_type_symbol
_atom_site_label
_atom_site_fract_x
_atom_site_fract_y
_atom_site_fract_z
Si Si1 0.377639 0.217944 0.290591
Si Si2 0.426050 0.278827 0.757905
Si Si3 0.237168 0.702255 0.471506
Si Si4 0.088168 0.032391 0.649175
Si Si5 0.876733 0.459598 0.437532
Si Si6 0.722685 0.209239 0.080031
Si Si7 0.000000 0.720288 0.250000
O O1 0.423341 0.487370 0.351744
O O2 0.328107 0.237648 0.110671
O O3 0.320742 0.152065 0.341494
O O4 0.440212 0.983972 0.346266
O O5 0.500000 0.330656 0.750000
O O6 0.341074 0.249740 0.597419
O O7 0.191257 0.600081 0.538547
O O8 0.232081 0.481566 0.363312
O O9 0.213185 0.975248 0.381755
O O10 0.133769 0.264290 0.631404
O O11 0.074460 0.111421 0.777059
O O12 0.133182 0.764372 0.674978
O O13 0.000000 0.000000 0.500000
O O14 0.963981 0.449285 0.601093
#
# Coordination Sequence:
#
# PCOD8119983 Si02
#       7
#     4   4   4   4   4   4   2
#     4  10  21  37  57  80 114 150 184 230 275 323
#     4  10  21  36  56  85 115 145 186 230 272 326
#     4  10  22  38  56  82 111 143 187 229 269 328
#     4  10  22  38  56  81 110 140 178 224 275 331
#     4  11  23  38  58  83 110 143 184 227 276 331
#     4  10  21  38  58  82 112 147 185 225 274 326
#     4  10  22  38  58  80 110 142 176 226 278 324
#
# _framework density 26.940885999999999
#
# number of rings (size 3 to 8) (size 9 to 14) (size 15 to 20)
#    0.000    1.846    0.000    4.154    0.000    9.231 
#    0.000    0.000    0.000    0.000    0.000    0.000 
#    0.000    0.000    0.000    0.000    0.000    0.000 
#
# Total GULP energy -322344.439542 kJ/mol
# GULP energy per Si atom -12397.863059 kJ/mol
# Density = 2.687957 g / cm^3
# Si number density = 26.940886 Si / 1000 Ang^3
#
#
#
# Elastic Constant Matrix: (Units=GPa)
#
#
# Indices 1 2 3 4 5 6 
#
# 1 131.0093 67.7822 -8.4034 0.0000 -34.0904 0.0000
# 2 67.7822 235.1163 29.5840 0.0000 -14.9872 0.0000
# 3 -8.4034 29.5840 44.9455 0.0000 -5.1880 0.0000
# 4 0.0000 0.0000 0.0000 -6.9170 0.0000 -30.6206
# 5 -34.0904 -14.9872 -5.1880 0.0000 42.9252 0.0000
# 6 0.0000 0.0000 0.0000 -30.6206 0.0000 43.0854
#
#
#
# Elastic Compliance Matrix: (Units=1/GPa)
#
#
# Indices 1 2 3 4 5 6 
#
# 1 0.012303 -0.003690 0.005789 0.000000 0.009182 0.000000
# 2 -0.003690 0.005813 -0.004685 0.000000 -0.001467 0.000000
# 3 0.005789 -0.004685 0.027136 0.000000 0.006241 0.000000
# 4 0.000000 0.000000 0.000000 -0.034869 0.000000 -0.024781
# 5 0.009182 -0.001467 0.006241 0.000000 0.030830 0.000000
# 6 0.000000 0.000000 0.000000 -0.024781 0.000000 0.005598
#
#
# Mechanical properties :
#
#
# Convention : Reuss Voigt Hill
#
# Bulk Modulus (GPa) = 24.95095 65.44405 45.19750
# Shear Modulus (GPa) = 76.51817 37.29261 56.90539
#
# Velocity S-wave (km/s) = 5.33516 3.72457 4.60089
# Velocity P-wave (km/s) = 6.87265 6.54531 6.71098
#
# Compressibility (1/GPa) = 0.04007864
#
# Stress axis : x y z
#
# Youngs Moduli (GPa) = 81.28303 172.02782 36.85143
#
# Poissons Ratio (x) = 0.63476 -0.21333
# Poissons Ratio (y) = 0.29992 0.17267
# Poissons Ratio (z) = -0.47053 0.80603
#
# Static dielectric constant tensor:
#      x y z
#    x 5.002240 0.000000 0.070590 
#    y 0.000000 5.783270 0.000000 
#    z 0.070590 0.000000 5.098340 
# 
# 
# High freq. dielectric constant tensor:
#      x y z
#    x 2.081090 0.000000 0.018330 
#    y 0.000000 2.106590 0.000000 
#    z 0.018330 0.000000 2.100960 
# 
# From -- ./inp_files/38206.got.cif
#   From: 2010.06.25/outbox.cif.g09.slc.cpg/sg13_20_cif.got.tgz:38206.got - 2010.06.28 04:50:58.
