data_PCOD8119537
_publ_section_title
;
Structure prediction by ZEFSAII (Michael W. Deem and Ramdas Pophale) SiO2 
 PCOD8119537
Probable space group: P 2/C
;
_chemical_formula_sum "Si O2"
_cell_formula_units_Z 30
_cell_length_a 9.007978
_cell_length_b 12.387368
_cell_length_c 15.848436
_cell_angle_alpha 90.000000
_cell_angle_beta 120.769170
_cell_angle_gamma 90.000000
_cell_volume 1519.514593
_symmetry_space_group_name_H-M "P 2/C"
_symmetry_group_IT_number 13
_symmetry_cell_setting 'monoclinic'
loop_
_space_group_symop_operation_xyz
x,y,z
-x,y,1/2-z
-x,-y,-z
x,-y,1/2+z
loop_
_atom_site_type_symbol
_atom_site_label
_atom_site_fract_x
_atom_site_fract_y
_atom_site_fract_z
Si Si1 0.750656 0.347143 0.940200
Si Si2 0.391612 0.966278 0.341247
Si Si3 0.500000 0.212813 0.750000
Si Si4 0.606453 0.425659 0.364376
Si Si5 0.151632 0.151736 0.236363
Si Si6 0.617872 0.292587 0.085308
Si Si7 0.887250 0.246726 0.448973
Si Si8 0.663043 0.108326 0.497320
O O1 0.629707 0.287422 0.838849
O O2 0.728662 0.474950 0.923747
O O3 0.707986 0.319355 0.023766
O O4 0.946631 0.314740 0.973957
O O5 0.395639 0.860749 0.285047
O O6 0.287882 0.939659 0.397186
O O7 0.291327 0.058510 0.260909
O O8 0.585035 0.010927 0.417629
O O9 0.500000 0.453786 0.250000
O O10 0.476677 0.398323 0.403951
O O11 0.724513 0.322158 0.381780
O O12 0.237416 0.255836 0.305801
O O13 0.068513 0.183103 0.123146
O O14 0.000000 0.105036 0.250000
O O15 0.484382 0.196801 0.030048
O O16 0.833756 0.160152 0.505382
#
# Coordination Sequence:
#
# PCOD8119537 Si02
#       8
#     4   4   2   4   4   4   4   4
#     4  12  24  41  61  91 127 160 207 254 314 361
#     4  10  21  38  61  89 126 166 213 243 306 374
#     4  12  24  40  62  86 124 170 204 254 300 380
#     4  11  22  40  66  92 120 162 206 250 310 380
#     4  11  21  37  62  94 122 157 205 262 303 355
#     4  10  20  39  65  86 120 160 203 252 302 375
#     4  11  23  39  65  93 128 157 203 261 314 359
#     4   9  20  38  63  90 120 164 203 252 306 366
#
# _framework density 19.743147
#
# number of rings (size 3 to 8) (size 9 to 14) (size 15 to 20)
#    0.000    1.333    4.667    1.600    0.000    1.067 
#    0.000    2.000    0.000    0.000    0.000    0.000 
#    0.000    0.000    0.000    0.000    0.000    0.000 
#
# Total GULP energy -372091.053230 kJ/mol
# GULP energy per Si atom -12403.035108 kJ/mol
# Density = 1.969821 g / cm^3
# Si number density = 19.743147 Si / 1000 Ang^3
#
#
#
# Elastic Constant Matrix: (Units=GPa)
#
#
# Indices 1 2 3 4 5 6 
#
# 1 89.8372 17.6066 26.7089 0.0000 -6.5929 0.0000
# 2 17.6066 75.4866 25.9027 0.0000 -6.3788 0.0000
# 3 26.7089 25.9027 76.8531 0.0000 -2.4978 0.0000
# 4 0.0000 0.0000 0.0000 19.8977 0.0000 -3.8894
# 5 -6.5929 -6.3788 -2.4978 0.0000 27.8690 0.0000
# 6 0.0000 0.0000 0.0000 -3.8894 0.0000 31.7538
#
#
#
# Elastic Compliance Matrix: (Units=1/GPa)
#
#
# Indices 1 2 3 4 5 6 
#
# 1 0.012734 -0.001448 -0.003862 0.000000 0.002335 0.000000
# 2 -0.001448 0.015396 -0.004596 0.000000 0.002770 0.000000
# 3 -0.003862 -0.004596 0.015885 0.000000 -0.000542 0.000000
# 4 0.000000 0.000000 0.000000 0.051490 0.000000 0.006307
# 5 0.002335 0.002770 -0.000542 0.000000 0.037020 0.000000
# 6 0.000000 0.000000 0.000000 0.006307 0.000000 0.032265
#
#
# Mechanical properties :
#
#
# Convention : Reuss Voigt Hill
#
# Bulk Modulus (GPa) = 41.31388 42.51258 41.91323
# Shear Modulus (GPa) = 25.95110 27.36801 26.65955
#
# Velocity S-wave (km/s) = 3.62945 3.72721 3.67866
# Velocity P-wave (km/s) = 6.20765 6.33265 6.27046
#
# Compressibility (1/GPa) = 0.02420494
#
# Stress axis : x y z
#
# Youngs Moduli (GPa) = 78.52707 64.95123 62.95098
#
# Poissons Ratio (x) = 0.09403 0.24310
# Poissons Ratio (y) = 0.11369 0.28932
# Poissons Ratio (z) = 0.30325 0.29852
#
# Static dielectric constant tensor:
#      x y z
#    x 3.489380 0.000000 -0.077970 
#    y 0.000000 3.615490 0.000000 
#    z -0.077970 0.000000 3.525540 
# 
# 
# High freq. dielectric constant tensor:
#      x y z
#    x 1.762380 0.000000 -0.009420 
#    y 0.000000 1.771130 0.000000 
#    z -0.009420 0.000000 1.770940 
# 
# From -- ./inp_files/47302.got.cif
#   From: 2010.06.25/outbox.cif.g09.slc.cpg/sg13_24_cif.got.tgz:47302.got - 2010.06.28 04:50:58.
