data_PCOD8119907
_publ_section_title
;
Structure prediction by ZEFSAII (Michael W. Deem and Ramdas Pophale) SiO2 
 PCOD8119907
Probable space group: P 2/C
;
_chemical_formula_sum "Si O2"
_cell_formula_units_Z 18
_cell_length_a 21.565472
_cell_length_b 7.477281
_cell_length_c 8.910968
_cell_angle_alpha 90.000000
_cell_angle_beta 32.469481
_cell_angle_gamma 90.000000
_cell_volume 771.401980
_symmetry_space_group_name_H-M "P 2/C"
_symmetry_group_IT_number 13
_symmetry_cell_setting 'monoclinic'
loop_
_space_group_symop_operation_xyz
x,y,z
-x,y,1/2-z
-x,-y,-z
x,-y,1/2+z
loop_
_atom_site_type_symbol
_atom_site_label
_atom_site_fract_x
_atom_site_fract_y
_atom_site_fract_z
Si Si1 0.157303 0.374403 0.676350
Si Si2 0.500000 0.748784 0.750000
Si Si3 0.343435 0.673897 0.325925
Si Si4 0.348774 0.085699 0.314409
Si Si5 0.000000 0.491278 0.250000
Si Si6 0.500000 0.755170 0.250000
O O1 0.230936 0.555547 0.539632
O O2 0.236666 0.201727 0.508164
O O3 0.084005 0.379908 0.673416
O O4 0.072571 0.362462 0.992011
O O5 0.564803 0.626183 0.493471
O O6 0.599014 0.867934 0.629024
O O7 0.402453 0.632987 0.368290
O O8 0.307771 0.881692 0.392699
O O9 0.448375 0.118652 0.987119
#
# Coordination Sequence:
#
# PCOD8119907 Si02
#       6
#     4   2   4   4   2   2
#     4  11  24  41  62  80 110 149 194 241 288 330
#     4  10  21  35  56  89 129 150 177 223 268 335
#     4  11  21  37  58  87 119 153 183 221 276 341
#     4  11  21  37  58  87 119 153 183 221 276 341
#     4  10  24  46  58  80 112 140 192 266 290 304
#     4  10  21  35  56  89 129 150 177 223 268 335
#
# _framework density 23.334140000000001
#
# number of rings (size 3 to 8) (size 9 to 14) (size 15 to 20)
#    0.000    1.333    0.000    8.000    0.000    5.333 
#    0.000    6.667    0.000    0.000    0.000    0.000 
#    0.000    0.000    0.000    0.000    0.000    0.000 
#
# Total GULP energy -223270.920154 kJ/mol
# GULP energy per Si atom -12403.940009 kJ/mol
# Density = 2.328103 g / cm^3
# Si number density = 23.334140 Si / 1000 Ang^3
#
#
#
# Elastic Constant Matrix: (Units=GPa)
#
#
# Indices 1 2 3 4 5 6 
#
# 1 183.4263 42.1593 47.4992 0.0000 -6.3264 0.0000
# 2 42.1593 82.9517 37.5112 0.0000 -21.1267 0.0000
# 3 47.4992 37.5112 73.9146 0.0000 -12.4367 0.0000
# 4 0.0000 0.0000 0.0000 13.6855 0.0000 0.6676
# 5 -6.3264 -21.1267 -12.4367 0.0000 43.9010 0.0000
# 6 0.0000 0.0000 0.0000 0.6676 0.0000 21.7659
#
#
#
# Elastic Compliance Matrix: (Units=1/GPa)
#
#
# Indices 1 2 3 4 5 6 
#
# 1 0.006807 -0.002163 -0.003451 0.000000 -0.001038 0.000000
# 2 -0.002163 0.017733 -0.006538 0.000000 0.006370 0.000000
# 3 -0.003451 -0.006538 0.019375 0.000000 0.001845 0.000000
# 4 0.000000 0.000000 0.000000 0.073180 0.000000 -0.002245
# 5 -0.001038 0.006370 0.001845 0.000000 0.026217 0.000000
# 6 0.000000 0.000000 0.000000 -0.002245 0.000000 0.046012
#
#
# Mechanical properties :
#
#
# Convention : Reuss Voigt Hill
#
# Bulk Modulus (GPa) = 50.99021 66.07024 58.53022
# Shear Modulus (GPa) = 22.71019 30.07866 26.39443
#
# Velocity S-wave (km/s) = 3.12310 3.59422 3.36691
# Velocity P-wave (km/s) = 5.90801 6.75284 6.34450
#
# Compressibility (1/GPa) = 0.01961161
#
# Stress axis : x y z
#
# Youngs Moduli (GPa) = 146.91070 56.39079 51.61255
#
# Poissons Ratio (x) = 0.12199 0.17812
# Poissons Ratio (y) = 0.31780 0.33742
# Poissons Ratio (z) = 0.50699 0.36866
#
# Static dielectric constant tensor:
#      x y z
#    x 4.681310 0.000000 0.185930 
#    y 0.000000 3.828370 0.000000 
#    z 0.185930 0.000000 4.257680 
# 
# 
# High freq. dielectric constant tensor:
#      x y z
#    x 1.951930 0.000000 0.016790 
#    y 0.000000 1.909310 0.000000 
#    z 0.016790 0.000000 1.915400 
# 
# From -- ./inp_files/14612.got.cif
#   From: 2010.06.25/outbox.cif.g09.slc.cpg/sg13_8_cif.got.tgz:14612.got - 2010.06.28 04:50:58.
