data_PCOD8119630
_publ_section_title
;
Structure prediction by ZEFSAII (Michael W. Deem and Ramdas Pophale) SiO2 
 PCOD8119630
Probable space group: P 2/C
;
_chemical_formula_sum "Si O2"
_cell_formula_units_Z 26
_cell_length_a 25.038677
_cell_length_b 11.621330
_cell_length_c 9.054970
_cell_angle_alpha 90.000000
_cell_angle_beta 30.100351
_cell_angle_gamma 90.000000
_cell_volume 1321.414452
_symmetry_space_group_name_H-M "P 2/C"
_symmetry_group_IT_number 13
_symmetry_cell_setting 'monoclinic'
loop_
_space_group_symop_operation_xyz
x,y,z
-x,y,1/2-z
-x,-y,-z
x,-y,1/2+z
loop_
_atom_site_type_symbol
_atom_site_label
_atom_site_fract_x
_atom_site_fract_y
_atom_site_fract_z
Si Si1 0.569695 0.123293 0.842175
Si Si2 0.667997 0.055179 0.297512
Si Si3 0.711471 0.708591 0.190026
Si Si4 0.866675 0.891681 0.809183
Si Si5 0.646074 0.260083 0.175404
Si Si6 0.416616 0.495389 0.071666
Si Si7 0.000000 0.011773 0.250000
O O1 0.624659 0.104207 0.553635
O O2 0.641476 0.196801 0.779308
O O3 0.568218 0.000378 0.937303
O O4 0.465183 0.197774 0.082638
O O5 0.717290 0.163869 0.088695
O O6 0.762318 0.966410 0.099235
O O7 0.694683 0.699591 0.405746
O O8 0.683161 0.584700 0.185955
O O9 0.832809 0.756185 0.877558
O O10 0.947134 0.906694 0.753205
O O11 0.915665 0.929694 0.535308
O O12 0.634470 0.368702 0.313431
O O13 0.500000 0.530955 0.750000
O O14 0.500000 0.500000 0.000000
#
# Coordination Sequence:
#
# PCOD8119630 Si02
#       7
#     4   4   4   4   4   4   2
#     4  11  21  35  50  77 121 162 196 229 275 327
#     4  11  22  34  54  84 117 151 195 238 280 350
#     4  11  22  38  56  81 116 153 198 249 275 345
#     4  10  21  38  61  88 113 141 184 237 312 362
#     4  12  23  35  54  78 119 168 201 233 273 319
#     4  12  22  39  56  81 120 167 209 235 270 316
#     4  10  20  40  64  86 114 140 176 248 318 390
#
# _framework density 19.675885999999998
#
# number of rings (size 3 to 8) (size 9 to 14) (size 15 to 20)
#    0.000    0.923    3.077    6.923    0.000    2.462 
#    0.000    0.000    0.000    0.000    0.000   18.308 
#    0.000    0.000    0.000    0.000    0.000    0.000 
#
# Total GULP energy -322099.900488 kJ/mol
# GULP energy per Si atom -12388.457711 kJ/mol
# Density = 1.963110 g / cm^3
# Si number density = 19.675886 Si / 1000 Ang^3
#
#
#
# Elastic Constant Matrix: (Units=GPa)
#
#
# Indices 1 2 3 4 5 6 
#
# 1 56.7657 35.6892 11.7763 0.0000 4.3820 0.0000
# 2 35.6892 112.7013 12.6579 0.0000 -9.1548 0.0000
# 3 11.7763 12.6579 56.3588 0.0000 -2.2068 0.0000
# 4 0.0000 0.0000 0.0000 -1.0455 0.0000 149.7105
# 5 4.3820 -9.1548 -2.2068 0.0000 26.8438 0.0000
# 6 0.0000 0.0000 0.0000 149.7105 0.0000 -697.2909
#
#
#
# Elastic Compliance Matrix: (Units=1/GPa)
#
#
# Indices 1 2 3 4 5 6 
#
# 1 0.023675 -0.007654 -0.003493 0.000000 -0.006762 0.000000
# 2 -0.007654 0.011816 -0.000850 0.000000 0.005209 0.000000
# 3 -0.003493 -0.000850 0.018736 0.000000 0.001820 0.000000
# 4 0.000000 0.000000 0.000000 0.032157 0.000000 0.006904
# 5 -0.006762 0.005209 0.001820 0.000000 0.040283 0.000000
# 6 0.000000 0.000000 0.000000 0.006904 0.000000 0.000048
#
#
# Mechanical properties :
#
#
# Convention : Reuss Voigt Hill
#
# Bulk Modulus (GPa) = 33.07788 38.45249 35.76518
# Shear Modulus (GPa) = 31.09738 -123.25168 -46.07715
#
# Velocity S-wave (km/s) = 3.97984 -7.92319 -4.84447
# Velocity P-wave (km/s) = 6.16171 8.00732 3.61597
#
# Compressibility (1/GPa) = 0.03023168
#
# Stress axis : x y z
#
# Youngs Moduli (GPa) = 42.23837 84.63438 53.37456
#
# Poissons Ratio (x) = 0.64781 0.18642
# Poissons Ratio (y) = 0.32330 0.04539
# Poissons Ratio (z) = 0.14752 0.07197
#
# Static dielectric constant tensor:
#      x y z
#    x 3.902590 0.000000 0.049880 
#    y 0.000000 4.025480 0.000000 
#    z 0.049880 0.000000 3.545630 
# 
# 
# High freq. dielectric constant tensor:
#      x y z
#    x 1.781150 0.000000 0.025050 
#    y 0.000000 1.767000 0.000000 
#    z 0.025050 0.000000 1.739500 
# 
# From -- ./inp_files/23389.got.cif
#   From: 2010.06.25/outbox.cif.g09.slc.cpg/sg13_12_cif.got.tgz:23389.got - 2010.06.28 04:50:58.
