data_PCOD8119818
_publ_section_title
;
Structure prediction by ZEFSAII (Michael W. Deem and Ramdas Pophale) SiO2 
 PCOD8119818
Probable space group: P 2/C
;
_chemical_formula_sum "Si O2"
_cell_formula_units_Z 26
_cell_length_a 14.176776
_cell_length_b 8.234655
_cell_length_c 15.273367
_cell_angle_alpha 90.000000
_cell_angle_beta 44.522849
_cell_angle_gamma 90.000000
_cell_volume 1250.246494
_symmetry_space_group_name_H-M "P 2/C"
_symmetry_group_IT_number 13
_symmetry_cell_setting 'monoclinic'
loop_
_space_group_symop_operation_xyz
x,y,z
-x,y,1/2-z
-x,-y,-z
x,-y,1/2+z
loop_
_atom_site_type_symbol
_atom_site_label
_atom_site_fract_x
_atom_site_fract_y
_atom_site_fract_z
Si Si1 0.000000 0.362775 0.750000
Si Si2 0.831604 0.620191 0.775380
Si Si3 0.442073 0.383800 0.961652
Si Si4 0.000000 0.123774 0.250000
Si Si5 0.482332 0.033246 0.864651
Si Si6 0.704709 0.217587 0.199111
Si Si7 0.193415 0.887400 0.035600
Si Si8 0.500000 0.432784 0.250000
O O1 0.064641 0.469841 0.786241
O O2 0.128213 0.266474 0.628116
O O3 0.913691 0.780768 0.737408
O O4 0.764562 0.648072 0.725101
O O5 0.718062 0.605546 0.924857
O O6 0.488113 0.192748 0.924788
O O7 0.488093 0.456084 0.841056
O O8 0.500000 0.500000 0.000000
O O9 0.094948 0.031784 0.121253
O O10 0.500000 0.081353 0.750000
O O11 0.604791 0.912065 0.812746
O O12 0.343285 0.933935 0.970532
O O13 0.627680 0.316758 0.174339
O O14 0.814866 0.129180 0.065163
#
# Coordination Sequence:
#
# PCOD8119818 Si02
#       8
#     2   4   4   2   4   4   4   2
#     4  10  24  42  66  92 130 182 224 270 330 398
#     4  11  24  41  61  97 132 174 222 270 333 403
#     4  12  24  41  68 101 135 175 218 277 342 398
#     4  10  22  42  64  88 128 178 220 266 320 390
#     4  10  21  42  69  99 130 171 216 282 344 391
#     4  11  23  42  67  98 131 169 222 283 338 393
#     4  10  20  43  69  90 128 175 223 273 324 395
#     4  12  22  40  64 102 136 166 212 278 346 394
#
# _framework density 20.795898999999999
#
# number of rings (size 3 to 8) (size 9 to 14) (size 15 to 20)
#    0.000    1.231    6.154    0.923    0.000    1.846 
#    8.308    0.000    0.000    0.000    0.000    0.000 
#    0.000    0.000    0.000    0.000    0.000    0.000 
#
# Total GULP energy -322101.235222 kJ/mol
# GULP energy per Si atom -12388.509047 kJ/mol
# Density = 2.074857 g / cm^3
# Si number density = 20.795899 Si / 1000 Ang^3
#
#
#
# Elastic Constant Matrix: (Units=GPa)
#
#
# Indices 1 2 3 4 5 6 
#
# 1 102.3704 59.5194 41.9129 0.0000 1.6406 0.0000
# 2 59.5194 144.6611 58.5324 0.0000 -5.4956 0.0000
# 3 41.9129 58.5324 133.1808 0.0000 -5.3380 0.0000
# 4 0.0000 0.0000 0.0000 -1.0206 0.0000 2.7230
# 5 1.6406 -5.4956 -5.3380 0.0000 29.5755 0.0000
# 6 0.0000 0.0000 0.0000 2.7230 0.0000 29.7502
#
#
#
# Elastic Compliance Matrix: (Units=1/GPa)
#
#
# Indices 1 2 3 4 5 6 
#
# 1 0.013456 -0.004704 -0.002249 0.000000 -0.002026 0.000000
# 2 -0.004704 0.010076 -0.002883 0.000000 0.001613 0.000000
# 3 -0.002249 -0.002883 0.009536 0.000000 0.001310 0.000000
# 4 0.000000 0.000000 0.000000 -0.787513 0.000000 0.072081
# 5 -0.002026 0.001613 0.001310 0.000000 0.034460 0.000000
# 6 0.000000 0.000000 0.000000 0.072081 0.000000 0.027016
#
#
# Mechanical properties :
#
#
# Convention : Reuss Voigt Hill
#
# Bulk Modulus (GPa) = 74.64527 77.79351 76.21939
# Shear Modulus (GPa) = -7.47573 26.34418 9.43423
#
# Velocity S-wave (km/s) = -1.89806 3.56307 2.13224
# Velocity P-wave (km/s) = 5.58289 7.37676 6.54161
#
# Compressibility (1/GPa) = 0.01339670
#
# Stress axis : x y z
#
# Youngs Moduli (GPa) = 74.31432 99.24681 104.86494
#
# Poissons Ratio (x) = 0.46681 0.23582
# Poissons Ratio (y) = 0.34954 0.30237
# Poissons Ratio (z) = 0.16712 0.28617
#
# Static dielectric constant tensor:
#      x y z
#    x 3.496480 0.000000 -0.223840 
#    y 0.000000 4.107660 0.000000 
#    z -0.223840 0.000000 3.947490 
# 
# 
# High freq. dielectric constant tensor:
#      x y z
#    x 1.792770 0.000000 -0.009050 
#    y 0.000000 1.828790 0.000000 
#    z -0.009050 0.000000 1.825610 
# 
# From -- ./inp_files/53339.got.cif
#   From: 2010.06.25/outbox.cif.g09.slc.cpg/sg13_27_cif.got.tgz:53339.got - 2010.06.28 04:50:58.
