data_PCOD8119643
_publ_section_title
;
Structure prediction by ZEFSAII (Michael W. Deem and Ramdas Pophale) SiO2 
 PCOD8119643
Probable space group: P 2/C
;
_chemical_formula_sum "Si O2"
_cell_formula_units_Z 28
_cell_length_a 11.006695
_cell_length_b 6.518409
_cell_length_c 18.868294
_cell_angle_alpha 90.000000
_cell_angle_beta 111.526818
_cell_angle_gamma 90.000000
_cell_volume 1259.299260
_symmetry_space_group_name_H-M "P 2/C"
_symmetry_group_IT_number 13
_symmetry_cell_setting 'monoclinic'
loop_
_space_group_symop_operation_xyz
x,y,z
-x,y,1/2-z
-x,-y,-z
x,-y,1/2+z
loop_
_atom_site_type_symbol
_atom_site_label
_atom_site_fract_x
_atom_site_fract_y
_atom_site_fract_z
Si Si1 0.304633 0.530369 0.795374
Si Si2 0.450641 0.833115 0.915848
Si Si3 0.927042 0.042119 0.057587
Si Si4 0.212314 0.848368 0.353680
Si Si5 0.634354 0.806294 0.303244
Si Si6 0.849832 0.093660 0.290512
Si Si7 0.650240 0.837578 0.461783
O O1 0.427349 0.656647 0.853239
O O2 0.243545 0.387244 0.843435
O O3 0.351102 0.396347 0.739928
O O4 0.195013 0.684944 0.744987
O O5 0.345287 0.018082 0.885036
O O6 0.596254 0.926752 0.939035
O O7 0.432376 0.738669 0.991364
O O8 0.024243 0.146071 0.134704
O O9 0.866511 0.847468 0.088297
O O10 0.803288 0.183333 0.012987
O O11 0.000000 0.000000 0.000000
O O12 0.123530 0.948927 0.272027
O O13 0.500000 0.916289 0.250000
O O14 0.626416 0.724231 0.382282
O O15 0.747300 0.974273 0.318997
#
# Coordination Sequence:
#
# PCOD8119643 Si02
#       7
#     4   4   4   4   4   4   4
#     4  10  21  40  66  98 121 158 220 264 314 376
#     4   9  20  41  66  94 123 164 209 260 326 372
#     4  11  21  40  63  91 126 172 210 248 311 378
#     4   9  20  40  68  90 124 164 209 264 312 371
#     4  11  22  39  62  92 127 161 206 267 320 372
#     4  10  21  41  64  90 125 168 212 254 313 378
#     4  10  20  40  65  89 129 167 205 260 314 376
#
# _framework density 22.234589
#
# number of rings (size 3 to 8) (size 9 to 14) (size 15 to 20)
#    0.000    2.000    1.429    3.000    0.000    1.714 
#    2.571   27.857    0.000    0.000    0.000    0.000 
#    0.000    0.000    0.000    0.000    0.000    0.000 
#
# Total GULP energy -346925.569855 kJ/mol
# GULP energy per Si atom -12390.198923 kJ/mol
# Density = 2.218398 g / cm^3
# Si number density = 22.234589 Si / 1000 Ang^3
#
#
#
# Elastic Constant Matrix: (Units=GPa)
#
#
# Indices 1 2 3 4 5 6 
#
# 1 92.5862 28.1471 41.3344 0.0000 1.7881 0.0000
# 2 28.1471 91.8160 33.0542 0.0000 -7.9052 0.0000
# 3 41.3344 33.0542 146.7417 0.0000 4.2527 0.0000
# 4 0.0000 0.0000 0.0000 16.1149 0.0000 -1.6213
# 5 1.7881 -7.9052 4.2527 0.0000 45.1774 0.0000
# 6 0.0000 0.0000 0.0000 -1.6213 0.0000 5.6945
#
#
#
# Elastic Compliance Matrix: (Units=1/GPa)
#
#
# Indices 1 2 3 4 5 6 
#
# 1 0.013057 -0.002995 -0.002981 0.000000 -0.000760 0.000000
# 2 -0.002995 0.012790 -0.002111 0.000000 0.002555 0.000000
# 3 -0.002981 -0.002111 0.008160 0.000000 -0.001020 0.000000
# 4 0.000000 0.000000 0.000000 0.063884 0.000000 0.018189
# 5 -0.000760 0.002555 -0.001020 0.000000 0.022708 0.000000
# 6 0.000000 0.000000 0.000000 0.018189 0.000000 0.180787
#
#
# Mechanical properties :
#
#
# Convention : Reuss Voigt Hill
#
# Bulk Modulus (GPa) = 56.08195 59.57947 57.83071
# Shear Modulus (GPa) = 15.45573 28.63791 22.04682
#
# Velocity S-wave (km/s) = 2.63937 3.59275 3.15231
# Velocity P-wave (km/s) = 5.87929 6.63811 6.27019
#
# Compressibility (1/GPa) = 0.01783105
#
# Stress axis : x y z
#
# Youngs Moduli (GPa) = 76.58820 78.18882 122.55528
#
# Poissons Ratio (x) = 0.23417 0.36536
# Poissons Ratio (y) = 0.22937 0.25876
# Poissons Ratio (z) = 0.22833 0.16508
#
# Static dielectric constant tensor:
#      x y z
#    x 4.128250 0.000000 -0.031490 
#    y 0.000000 3.512080 0.000000 
#    z -0.031490 0.000000 4.602350 
# 
# 
# High freq. dielectric constant tensor:
#      x y z
#    x 1.875760 0.000000 -0.000140 
#    y 0.000000 1.823820 0.000000 
#    z -0.000140 0.000000 1.907930 
# 
# From -- ./inp_files/77539.got.cif
#   From: 2010.06.25/outbox.cif.g09.slc.cpg/sg13_39_cif.got.tgz:77539.got - 2010.06.28 04:50:58.
