data_PCOD8119142
_publ_section_title
;
Structure prediction by ZEFSAII (Michael W. Deem and Ramdas Pophale) SiO2 
 PCOD8119142
Probable space group: P 2/C
;
_chemical_formula_sum "Si O2"
_cell_formula_units_Z 28
_cell_length_a 12.639448
_cell_length_b 8.092727
_cell_length_c 16.592204
_cell_angle_alpha 90.000000
_cell_angle_beta 125.289635
_cell_angle_gamma 90.000000
_cell_volume 1385.307145
_symmetry_space_group_name_H-M "P 2/C"
_symmetry_group_IT_number 13
_symmetry_cell_setting 'monoclinic'
loop_
_space_group_symop_operation_xyz
x,y,z
-x,y,1/2-z
-x,-y,-z
x,-y,1/2+z
loop_
_atom_site_type_symbol
_atom_site_label
_atom_site_fract_x
_atom_site_fract_y
_atom_site_fract_z
Si Si1 0.803733 0.327560 0.729399
Si Si2 0.140196 0.001512 0.822429
Si Si3 0.276640 0.804908 0.744823
Si Si4 0.351537 0.863298 0.204298
Si Si5 0.039582 0.574854 0.602015
Si Si6 0.629542 0.410054 0.081172
Si Si7 0.783919 0.223926 0.018019
O O1 0.864122 0.195308 0.695277
O O2 0.697083 0.242306 0.740890
O O3 0.921278 0.417390 0.826963
O O4 0.738843 0.454389 0.640601
O O5 0.000000 0.922742 0.750000
O O6 0.226451 0.911019 0.795959
O O7 0.188452 0.959003 0.933787
O O8 0.164027 0.698801 0.650947
O O9 0.382136 0.687075 0.837150
O O10 0.339001 0.937200 0.710331
O O11 0.500000 0.820163 0.250000
O O12 0.261040 0.800501 0.092455
O O13 0.000000 0.500000 0.500000
O O14 0.914693 0.668067 0.582376
O O15 0.670306 0.300601 0.022591
O O16 0.500000 0.500000 0.000000
#
# Coordination Sequence:
#
# PCOD8119142 Si02
#       7
#     4   4   4   4   4   4   4
#     4  10  23  38  63  91 121 160 200 259 308 363
#     4  10  20  37  61  89 119 155 196 244 307 364
#     4   9  22  40  62  86 123 161 194 259 306 357
#     4  11  23  43  61  87 123 167 211 247 304 369
#     4  11  21  40  61  94 125 149 205 257 319 359
#     4  10  22  42  62  89 125 160 205 249 305 363
#     4  11  23  39  65  90 122 168 201 259 302 374
#
# _framework density 20.212125
#
# number of rings (size 3 to 8) (size 9 to 14) (size 15 to 20)
#    0.000    1.714    2.857    0.857    2.000    2.857 
#    2.571    5.714    0.000    0.000    0.000    0.000 
#    0.000    0.000    0.000    0.000    0.000    0.000 
#
# Total GULP energy -346971.080247 kJ/mol
# GULP energy per Si atom -12391.824295 kJ/mol
# Density = 2.016612 g / cm^3
# Si number density = 20.212125 Si / 1000 Ang^3
#
#
#
# Elastic Constant Matrix: (Units=GPa)
#
#
# Indices 1 2 3 4 5 6 
#
# 1 70.0363 21.0711 19.9558 0.0000 10.1823 0.0000
# 2 21.0711 108.0018 40.3129 0.0000 4.6255 0.0000
# 3 19.9558 40.3129 96.9834 0.0000 11.5153 0.0000
# 4 0.0000 0.0000 0.0000 31.3405 0.0000 5.9401
# 5 10.1823 4.6255 11.5153 0.0000 29.3140 0.0000
# 6 0.0000 0.0000 0.0000 5.9401 0.0000 -2.4137
#
#
#
# Elastic Compliance Matrix: (Units=1/GPa)
#
#
# Indices 1 2 3 4 5 6 
#
# 1 0.016144 -0.002268 -0.001841 0.000000 -0.004526 0.000000
# 2 -0.002268 0.011278 -0.004304 0.000000 0.000699 0.000000
# 3 -0.001841 -0.004304 0.012925 0.000000 -0.003759 0.000000
# 4 0.000000 0.000000 0.000000 0.021759 0.000000 0.053547
# 5 -0.004526 0.000699 -0.003759 0.000000 0.037052 0.000000
# 6 0.000000 0.000000 0.000000 0.053547 0.000000 -0.282517
#
#
# Mechanical properties :
#
#
# Convention : Reuss Voigt Hill
#
# Bulk Modulus (GPa) = 42.51890 48.63346 45.57618
# Shear Modulus (GPa) = -31.50770 24.56025 -3.47372
#
# Velocity S-wave (km/s) = -3.95251 3.48965 -1.31239
# Velocity P-wave (km/s) = 0.50219 6.35221 4.50571
#
# Compressibility (1/GPa) = 0.02351895
#
# Stress axis : x y z
#
# Youngs Moduli (GPa) = 61.94431 88.66539 77.36706
#
# Poissons Ratio (x) = 0.20113 0.14247
# Poissons Ratio (y) = 0.14051 0.33301
# Poissons Ratio (z) = 0.11407 0.38164
#
# Static dielectric constant tensor:
#      x y z
#    x 3.496310 0.000000 -0.131880 
#    y 0.000000 4.205120 0.000000 
#    z -0.131880 0.000000 3.466870 
# 
# 
# High freq. dielectric constant tensor:
#      x y z
#    x 1.775140 0.000000 0.003060 
#    y 0.000000 1.802690 0.000000 
#    z 0.003060 0.000000 1.794820 
# 
# From -- ./inp_files/50448.got.cif
#   From: 2010.06.25/outbox.cif.g09.slc.cpg/sg13_26_cif.got.tgz:50448.got - 2010.06.28 04:50:58.
