data_PCOD8119289
_publ_section_title
;
Structure prediction by ZEFSAII (Michael W. Deem and Ramdas Pophale) SiO2 
 PCOD8119289
Probable space group: P 2/C
;
_chemical_formula_sum "Si O2"
_cell_formula_units_Z 28
_cell_length_a 6.468856
_cell_length_b 10.219273
_cell_length_c 20.946946
_cell_angle_alpha 90.000000
_cell_angle_beta 90.578929
_cell_angle_gamma 90.000000
_cell_volume 1384.669187
_symmetry_space_group_name_H-M "P 2/C"
_symmetry_group_IT_number 13
_symmetry_cell_setting 'monoclinic'
loop_
_space_group_symop_operation_xyz
x,y,z
-x,y,1/2-z
-x,-y,-z
x,-y,1/2+z
loop_
_atom_site_type_symbol
_atom_site_label
_atom_site_fract_x
_atom_site_fract_y
_atom_site_fract_z
Si Si1 0.284653 0.043028 0.868461
Si Si2 0.394971 0.616223 0.809906
Si Si3 0.000000 0.472628 0.250000
Si Si4 0.500000 0.139419 0.750000
Si Si5 0.564954 0.223080 0.937960
Si Si6 0.333958 0.373753 0.674904
Si Si7 0.883883 0.991673 0.932530
Si Si8 0.530154 0.198164 0.421174
O O1 0.357977 0.046815 0.794709
O O2 0.349576 0.179189 0.903149
O O3 0.379652 0.920868 0.906080
O O4 0.038052 0.022633 0.874088
O O5 0.500000 0.689086 0.750000
O O6 0.148467 0.616351 0.795536
O O7 0.466689 0.464278 0.810844
O O8 0.478040 0.685319 0.872927
O O9 0.873898 0.559103 0.300528
O O10 0.352904 0.231273 0.707194
O O11 0.669373 0.346326 0.901617
O O12 0.707794 0.097886 0.932566
O O13 0.522044 0.260898 0.010504
O O14 0.769694 0.851058 0.920690
O O15 0.000000 0.000000 0.000000
#
# Coordination Sequence:
#
# PCOD8119289 Si02
#       8
#     4   4   2   2   4   4   4   4
#     4  10  21  36  59  90 127 158 203 249 309 367
#     4  10  23  42  62  83 122 162 208 260 312 365
#     4  10  20  42  62  84 112 166 212 258 312 366
#     4  10  20  38  60  90 120 156 204 270 300 362
#     4  10  21  36  59  92 124 159 201 261 307 360
#     4  10  21  39  61  87 119 157 209 259 313 359
#     4  11  19  38  62  90 124 169 199 238 315 376
#     4  11  22  39  60  90 130 160 201 257 308 371
#
# _framework density 20.221435
#
# number of rings (size 3 to 8) (size 9 to 14) (size 15 to 20)
#    0.000    1.714    5.000    0.857    3.000    2.857 
#    0.000    0.714    0.000    0.000    0.000    0.000 
#    0.000    0.000    0.000    0.000    0.000    0.000 
#
# Total GULP energy -347012.689905 kJ/mol
# GULP energy per Si atom -12393.310354 kJ/mol
# Density = 2.017541 g / cm^3
# Si number density = 20.221435 Si / 1000 Ang^3
#
#
#
# Elastic Constant Matrix: (Units=GPa)
#
#
# Indices 1 2 3 4 5 6 
#
# 1 131.6721 33.7375 59.5873 0.0000 -11.1144 0.0000
# 2 33.7375 51.9212 46.5420 0.0000 0.2313 0.0000
# 3 59.5873 46.5420 170.8414 0.0000 -19.3120 0.0000
# 4 0.0000 0.0000 0.0000 30.3957 0.0000 5.4672
# 5 -11.1144 0.2313 -19.3120 0.0000 33.3549 0.0000
# 6 0.0000 0.0000 0.0000 5.4672 0.0000 13.2418
#
#
#
# Elastic Compliance Matrix: (Units=1/GPa)
#
#
# Indices 1 2 3 4 5 6 
#
# 1 0.009848 -0.004702 -0.001904 0.000000 0.002212 0.000000
# 2 -0.004702 0.028373 -0.006729 0.000000 -0.005660 0.000000
# 3 -0.001904 -0.006729 0.008864 0.000000 0.004545 0.000000
# 4 0.000000 0.000000 0.000000 0.035539 0.000000 -0.014673
# 5 0.002212 -0.005660 0.004545 0.000000 0.033388 0.000000
# 6 0.000000 0.000000 0.000000 -0.014673 0.000000 0.081577
#
#
# Mechanical properties :
#
#
# Convention : Reuss Voigt Hill
#
# Bulk Modulus (GPa) = 48.98515 70.46316 59.72416
# Shear Modulus (GPa) = 21.63912 29.70300 25.67106
#
# Velocity S-wave (km/s) = 3.27480 3.83676 3.56687
# Velocity P-wave (km/s) = 6.21096 7.38574 6.82368
#
# Compressibility (1/GPa) = 0.02041435
#
# Stress axis : x y z
#
# Youngs Moduli (GPa) = 101.54712 35.24526 112.81174
#
# Poissons Ratio (x) = 0.16573 0.21476
# Poissons Ratio (y) = 0.47750 0.75913
# Poissons Ratio (z) = 0.19331 0.23717
#
# Static dielectric constant tensor:
#      x y z
#    x 4.180310 0.000000 0.306930 
#    y 0.000000 3.480280 0.000000 
#    z 0.306930 0.000000 4.637450 
# 
# 
# High freq. dielectric constant tensor:
#      x y z
#    x 1.786290 0.000000 -0.005790 
#    y 0.000000 1.761100 0.000000 
#    z -0.005790 0.000000 1.799660 
# 
# From -- ./inp_files/73426.got.cif
#   From: 2010.06.25/outbox.cif.g09.slc.cpg/sg13_37_cif.got.tgz:73426.got - 2010.06.28 04:50:58.
