data_PCOD8119295
_publ_section_title
;
Structure prediction by ZEFSAII (Michael W. Deem and Ramdas Pophale) SiO2 
 PCOD8119295
Probable space group: P 2/C
;
_chemical_formula_sum "Si O2"
_cell_formula_units_Z 24
_cell_length_a 9.956720
_cell_length_b 8.559775
_cell_length_c 23.127252
_cell_angle_alpha 90.000000
_cell_angle_beta 143.909204
_cell_angle_gamma 90.000000
_cell_volume 1161.093092
_symmetry_space_group_name_H-M "P 2/C"
_symmetry_group_IT_number 13
_symmetry_cell_setting 'monoclinic'
loop_
_space_group_symop_operation_xyz
x,y,z
-x,y,1/2-z
-x,-y,-z
x,-y,1/2+z
loop_
_atom_site_type_symbol
_atom_site_label
_atom_site_fract_x
_atom_site_fract_y
_atom_site_fract_z
Si Si1 0.500000 0.619926 0.250000
Si Si2 0.000000 0.697694 0.750000
Si Si3 0.750376 0.131932 0.257786
Si Si4 0.429928 0.482509 0.910171
Si Si5 0.454869 0.804596 0.346012
Si Si6 0.984169 0.148757 0.032593
Si Si7 0.664300 0.372304 0.387823
O O1 0.390037 0.728190 0.261408
O O2 0.679390 0.506167 0.343958
O O3 0.043888 0.805059 0.709811
O O4 0.214681 0.590420 0.831582
O O5 0.543626 0.252051 0.195078
O O6 0.867162 0.105928 0.359799
O O7 0.657977 0.974931 0.194500
O O8 0.361072 0.306551 0.865343
O O9 0.632431 0.547382 0.939388
O O10 0.500000 0.500000 0.000000
O O11 0.722699 0.812846 0.453461
O O12 0.093313 0.288305 0.032817
O O13 0.000000 0.000000 0.000000
#
# Coordination Sequence:
#
# PCOD8119295 Si02
#       7
#     2   2   4   4   4   4   4
#     4  10  20  38  60  92 136 162 196 272 314 382
#     4  10  24  46  68  84 120 190 208 254 348 372
#     4  11  22  44  64  90 131 169 217 267 310 398
#     4  10  23  46  64  93 132 164 221 274 309 386
#     4  11  24  39  65 103 126 165 221 270 315 387
#     4  12  22  38  67 100 128 170 209 261 336 381
#     4  10  21  41  66  90 131 175 202 258 334 383
#
# _framework density 20.670176000000001
#
# number of rings (size 3 to 8) (size 9 to 14) (size 15 to 20)
#    0.000    1.333    3.333    2.000    0.000    3.333 
#   15.000    2.500    0.000    0.000    0.000    0.000 
#    0.000    0.000    0.000    0.000    0.000    0.000 
#
# Total GULP energy -297448.704139 kJ/mol
# GULP energy per Si atom -12393.696006 kJ/mol
# Density = 2.062313 g / cm^3
# Si number density = 20.670176 Si / 1000 Ang^3
#
#
#
# Elastic Constant Matrix: (Units=GPa)
#
#
# Indices 1 2 3 4 5 6 
#
# 1 81.2680 29.0354 41.9931 0.0000 -6.8056 0.0000
# 2 29.0354 106.4322 33.8685 0.0000 -1.2830 0.0000
# 3 41.9931 33.8685 85.0088 0.0000 -22.4307 0.0000
# 4 0.0000 0.0000 0.0000 53.4583 0.0000 -57.3541
# 5 -6.8056 -1.2830 -22.4307 0.0000 40.3168 0.0000
# 6 0.0000 0.0000 0.0000 -57.3541 0.0000 193.8606
#
#
#
# Elastic Compliance Matrix: (Units=1/GPa)
#
#
# Indices 1 2 3 4 5 6 
#
# 1 0.017071 -0.002124 -0.008021 0.000000 -0.001649 0.000000
# 2 -0.002124 0.011225 -0.004012 0.000000 -0.002234 0.000000
# 3 -0.008021 -0.004012 0.019847 0.000000 0.009560 0.000000
# 4 0.000000 0.000000 0.000000 0.027405 0.000000 0.008108
# 5 -0.001649 -0.002234 0.009560 0.000000 0.029773 0.000000
# 6 0.000000 0.000000 0.000000 0.008108 0.000000 0.007557
#
#
# Mechanical properties :
#
#
# Convention : Reuss Voigt Hill
#
# Bulk Modulus (GPa) = 50.43614 53.61145 52.02379
# Shear Modulus (GPa) = 33.82890 68.71461 51.27175
#
# Velocity S-wave (km/s) = 4.04989 5.77196 4.98583
# Velocity P-wave (km/s) = 6.80604 8.39128 7.63989
#
# Compressibility (1/GPa) = 0.01982705
#
# Stress axis : x y z
#
# Youngs Moduli (GPa) = 58.57980 89.08696 50.38527
#
# Poissons Ratio (x) = 0.18925 0.40416
# Poissons Ratio (y) = 0.12444 0.20215
# Poissons Ratio (z) = 0.46989 0.35743
#
# Static dielectric constant tensor:
#      x y z
#    x 4.204140 0.000000 0.030450 
#    y 0.000000 3.941440 0.000000 
#    z 0.030450 0.000000 3.184710 
# 
# 
# High freq. dielectric constant tensor:
#      x y z
#    x 1.802850 0.000000 -0.009220 
#    y 0.000000 1.831120 0.000000 
#    z -0.009220 0.000000 1.803770 
# 
# From -- ./inp_files/86463.got.cif
#   From: 2010.06.25/outbox.cif.g09.slc.cpg/sg13_44_cif.got.tgz:86463.got - 2010.06.28 04:50:58.
