data_PCOD8119985
_publ_section_title
;
Structure prediction by ZEFSAII (Michael W. Deem and Ramdas Pophale) SiO2 
 PCOD8119985
Probable space group: P 2/C
;
_chemical_formula_sum "Si O2"
_cell_formula_units_Z 32
_cell_length_a 24.776467
_cell_length_b 9.239589
_cell_length_c 14.623026
_cell_angle_alpha 90.000000
_cell_angle_beta 29.022959
_cell_angle_gamma 90.000000
_cell_volume 1624.105795
_symmetry_space_group_name_H-M "P 2/C"
_symmetry_group_IT_number 13
_symmetry_cell_setting 'monoclinic'
loop_
_space_group_symop_operation_xyz
x,y,z
-x,y,1/2-z
-x,-y,-z
x,-y,1/2+z
loop_
_atom_site_type_symbol
_atom_site_label
_atom_site_fract_x
_atom_site_fract_y
_atom_site_fract_z
Si Si1 0.871323 0.184818 0.646832
Si Si2 0.084540 0.718695 0.753773
Si Si3 0.224590 0.673875 0.376886
Si Si4 0.639032 0.124824 0.373961
Si Si5 0.046786 0.610313 0.319874
Si Si6 0.744436 0.913968 0.909193
Si Si7 0.387625 0.867893 0.221898
Si Si8 0.175981 0.646001 0.942727
O O1 0.777429 0.236290 0.714509
O O2 0.893735 0.307971 0.686999
O O3 0.984865 0.165856 0.419060
O O4 0.832232 0.040507 0.756017
O O5 0.114379 0.708482 0.601636
O O6 0.043678 0.560644 0.847998
O O7 0.188135 0.769904 0.662557
O O8 0.329015 0.716888 0.284443
O O9 0.235902 0.506167 0.334741
O O10 0.664326 0.112578 0.443115
O O11 0.514029 0.182843 0.548329
O O12 0.732117 0.228795 0.193022
O O13 0.638485 0.970756 0.325158
O O14 0.921174 0.669964 0.489071
O O15 0.121771 0.641987 0.121710
O O16 0.662824 0.950430 0.114883
#
# Coordination Sequence:
#
# PCOD8119985 Si02
#       8
#     4   4   4   4   4   4   4   4
#     4  12  20  34  57  89 118 156 196 233 288 353
#     4  10  21  36  56  86 123 161 188 234 290 360
#     4  10  21  38  58  84 120 154 196 238 295 346
#     4  11  22  40  64  83 111 153 202 247 303 346
#     4  10  21  36  58  87 125 156 187 235 294 353
#     4  11  23  37  60  88 116 152 203 245 292 351
#     4  10  23  43  59  83 113 153 199 256 299 342
#     4  10  21  38  59  88 118 155 193 237 292 359
#
# _framework density 19.703150999999998
#
# number of rings (size 3 to 8) (size 9 to 14) (size 15 to 20)
#    0.000    1.500    2.500    3.000    1.750    0.500 
#    0.000    1.250    0.000    0.000    0.000    0.000 
#    0.000    0.000    0.000    0.000    0.000    0.000 
#
# Total GULP energy -396663.445508 kJ/mol
# GULP energy per Si atom -12395.732672 kJ/mol
# Density = 1.965831 g / cm^3
# Si number density = 19.703151 Si / 1000 Ang^3
#
#
#
# Elastic Constant Matrix: (Units=GPa)
#
#
# Indices 1 2 3 4 5 6 
#
# 1 110.7095 35.5524 27.2884 0.0000 -9.0676 0.0000
# 2 35.5524 59.8350 30.8388 0.0000 -13.9750 0.0000
# 3 27.2884 30.8388 80.4961 0.0000 -24.1286 0.0000
# 4 0.0000 0.0000 0.0000 30.3512 0.0000 0.2165
# 5 -9.0676 -13.9750 -24.1286 0.0000 29.7495 0.0000
# 6 0.0000 0.0000 0.0000 0.2165 0.0000 31.1032
#
#
#
# Elastic Compliance Matrix: (Units=1/GPa)
#
#
# Indices 1 2 3 4 5 6 
#
# 1 0.011334 -0.006004 -0.001786 0.000000 -0.000815 0.000000
# 2 -0.006004 0.024445 -0.005861 0.000000 0.004900 0.000000
# 3 -0.001786 -0.005861 0.018874 0.000000 0.012010 0.000000
# 4 0.000000 0.000000 0.000000 0.032949 0.000000 -0.000229
# 5 -0.000815 0.004900 0.012010 0.000000 0.045408 0.000000
# 6 0.000000 0.000000 0.000000 -0.000229 0.000000 0.032153
#
#
# Mechanical properties :
#
#
# Convention : Reuss Voigt Hill
#
# Bulk Modulus (GPa) = 36.56249 48.71107 42.63678
# Shear Modulus (GPa) = 24.80357 28.73152 26.76755
#
# Velocity S-wave (km/s) = 3.55190 3.82281 3.68984
# Velocity P-wave (km/s) = 5.95132 6.65292 6.31187
#
# Compressibility (1/GPa) = 0.02735044
#
# Stress axis : x y z
#
# Youngs Moduli (GPa) = 88.22733 40.90764 52.98294
#
# Poissons Ratio (x) = 0.24562 0.09464
# Poissons Ratio (y) = 0.52973 0.31054
# Poissons Ratio (z) = 0.15760 0.23977
#
# Static dielectric constant tensor:
#      x y z
#    x 3.713870 0.000000 0.076290 
#    y 0.000000 3.476030 0.000000 
#    z 0.076290 0.000000 3.642680 
# 
# 
# High freq. dielectric constant tensor:
#      x y z
#    x 1.787380 0.000000 0.008040 
#    y 0.000000 1.751990 0.000000 
#    z 0.008040 0.000000 1.762880 
# 
# From -- ./inp_files/58807.got.cif
#   From: 2010.06.25/outbox.cif.g09.slc.cpg/sg13_30_cif.got.tgz:58807.got - 2010.06.28 04:50:58.
