data_PCOD8119379
_publ_section_title
;
Structure prediction by ZEFSAII (Michael W. Deem and Ramdas Pophale) SiO2 
 PCOD8119379
Probable space group: P 2/C
;
_chemical_formula_sum "Si O2"
_cell_formula_units_Z 32
_cell_length_a 19.304049
_cell_length_b 11.504554
_cell_length_c 16.973888
_cell_angle_alpha 90.000000
_cell_angle_beta 155.449433
_cell_angle_gamma 90.000000
_cell_volume 1566.269758
_symmetry_space_group_name_H-M "P 2/C"
_symmetry_group_IT_number 13
_symmetry_cell_setting 'monoclinic'
loop_
_space_group_symop_operation_xyz
x,y,z
-x,y,1/2-z
-x,-y,-z
x,-y,1/2+z
loop_
_atom_site_type_symbol
_atom_site_label
_atom_site_fract_x
_atom_site_fract_y
_atom_site_fract_z
Si Si1 0.734911 0.102844 0.426430
Si Si2 0.855725 0.760281 0.904321
Si Si3 0.810716 0.849523 0.551619
Si Si4 0.697595 0.902793 0.608933
Si Si5 0.589084 0.258444 0.696355
Si Si6 0.354676 0.568432 0.891218
Si Si7 0.776789 0.668957 0.237923
Si Si8 0.356316 0.142681 0.999947
O O1 0.833057 0.183918 0.466943
O O2 0.541709 0.098588 0.205972
O O3 0.750891 0.155370 0.530794
O O4 0.808618 0.972473 0.502859
O O5 0.826180 0.856258 0.806597
O O6 0.732268 0.652265 0.762530
O O7 0.042139 0.716499 0.091592
O O8 0.739686 0.857202 0.565409
O O9 0.691383 0.758378 0.382652
O O10 0.000000 0.802654 0.750000
O O11 0.507156 0.860190 0.429847
O O12 0.719947 0.041835 0.634690
O O13 0.438826 0.355084 0.548444
O O14 0.723128 0.302389 0.771272
O O15 0.225898 0.468846 0.786859
O O16 0.500000 0.500000 0.000000
O O17 0.645654 0.734172 0.045465
#
# Coordination Sequence:
#
# PCOD8119379 Si02
#       8
#     4   4   4   4   4   4   4   4
#     4  10  22  37  58  88 125 166 196 246 306 379
#     4  11  23  37  63  91 127 158 206 255 314 362
#     4  11  22  36  58  91 131 156 194 253 316 367
#     4  10  21  37  59  89 121 165 201 244 300 374
#     4  10  20  38  64  87 118 163 207 244 302 370
#     4   9  20  41  64  87 113 159 210 252 299 358
#     4  11  23  37  63  93 121 159 202 264 305 355
#     4  10  21  38  59  87 125 161 208 242 302 372
#
# _framework density 20.430707999999999
#
# number of rings (size 3 to 8) (size 9 to 14) (size 15 to 20)
#    0.000    1.750    1.250    3.750    5.250    1.500 
#    0.000    0.000   30.250    0.000    0.000    0.000 
#    0.000    0.000    0.000    0.000    0.000    0.000 
#
# Total GULP energy -396658.008145 kJ/mol
# GULP energy per Si atom -12395.562755 kJ/mol
# Density = 2.038421 g / cm^3
# Si number density = 20.430708 Si / 1000 Ang^3
#
#
#
# Elastic Constant Matrix: (Units=GPa)
#
#
# Indices 1 2 3 4 5 6 
#
# 1 84.5853 42.8965 21.8687 0.0000 5.9105 0.0000
# 2 42.8965 104.1705 28.4853 0.0000 -7.5184 0.0000
# 3 21.8687 28.4853 84.4758 0.0000 7.8693 0.0000
# 4 0.0000 0.0000 0.0000 30.6058 0.0000 2.6375
# 5 5.9105 -7.5184 7.8693 0.0000 27.1367 0.0000
# 6 0.0000 0.0000 0.0000 2.6375 0.0000 26.2857
#
#
#
# Elastic Compliance Matrix: (Units=1/GPa)
#
#
# Indices 1 2 3 4 5 6 
#
# 1 0.015812 -0.006457 -0.001468 0.000000 -0.004807 0.000000
# 2 -0.006457 0.013668 -0.003516 0.000000 0.006213 0.000000
# 3 -0.001468 -0.003516 0.013838 0.000000 -0.004667 0.000000
# 4 0.000000 0.000000 0.000000 0.032959 0.000000 -0.003307
# 5 -0.004807 0.006213 -0.004667 0.000000 0.040972 0.000000
# 6 0.000000 0.000000 0.000000 -0.003307 0.000000 0.038375
#
#
# Mechanical properties :
#
#
# Convention : Reuss Voigt Hill
#
# Bulk Modulus (GPa) = 48.93274 51.08139 50.00706
# Shear Modulus (GPa) = 26.98030 28.80439 27.89234
#
# Velocity S-wave (km/s) = 3.63792 3.75888 3.69889
# Velocity P-wave (km/s) = 6.45356 6.62536 6.54003
#
# Compressibility (1/GPa) = 0.02043622
#
# Stress axis : x y z
#
# Youngs Moduli (GPa) = 63.24130 73.16111 72.26317
#
# Poissons Ratio (x) = 0.47239 0.10611
# Poissons Ratio (y) = 0.40834 0.25410
# Poissons Ratio (z) = 0.09286 0.25725
#
# Static dielectric constant tensor:
#      x y z
#    x 3.775360 0.000000 -0.007970 
#    y 0.000000 4.637580 0.000000 
#    z -0.007970 0.000000 3.787060 
# 
# 
# High freq. dielectric constant tensor:
#      x y z
#    x 1.786980 0.000000 0.006980 
#    y 0.000000 1.792770 0.000000 
#    z 0.006980 0.000000 1.804190 
# 
# From -- ./inp_files/55835.got.cif
#   From: 2010.06.25/outbox.cif.g09.slc.cpg/sg13_28_cif.got.tgz:55835.got - 2010.06.28 04:50:58.
