data_PCOD8119651
_publ_section_title
;
Structure prediction by ZEFSAII (Michael W. Deem and Ramdas Pophale) SiO2 
 PCOD8119651
Probable space group: P 2/C
;
_chemical_formula_sum "Si O2"
_cell_formula_units_Z 26
_cell_length_a 16.289975
_cell_length_b 7.559979
_cell_length_c 16.383731
_cell_angle_alpha 90.000000
_cell_angle_beta 39.040867
_cell_angle_gamma 90.000000
_cell_volume 1270.889731
_symmetry_space_group_name_H-M "P 2/C"
_symmetry_group_IT_number 13
_symmetry_cell_setting 'monoclinic'
loop_
_space_group_symop_operation_xyz
x,y,z
-x,y,1/2-z
-x,-y,-z
x,-y,1/2+z
loop_
_atom_site_type_symbol
_atom_site_label
_atom_site_fract_x
_atom_site_fract_y
_atom_site_fract_z
Si Si1 0.517973 0.081837 0.643790
Si Si2 0.406422 0.350181 0.605318
Si Si3 0.083765 0.654453 0.027594
Si Si4 0.834009 0.677699 0.117333
Si Si5 0.000000 0.812008 0.250000
Si Si6 0.256703 0.943338 0.126768
Si Si7 0.260657 0.064404 0.301910
O O1 0.500000 0.152502 0.750000
O O2 0.494996 0.232976 0.595483
O O3 0.665124 0.019269 0.511674
O O4 0.412738 0.924130 0.710281
O O5 0.500000 0.500000 0.500000
O O6 0.289068 0.429432 0.750254
O O7 0.333745 0.236333 0.591225
O O8 0.114135 0.445033 0.995939
O O9 0.186442 0.773368 0.899278
O O10 0.084267 0.692249 0.123127
O O11 0.941525 0.699376 0.104044
O O12 0.794486 0.875883 0.120463
O O13 0.106285 0.926978 0.216271
O O14 0.252329 0.071152 0.209709
#
# Coordination Sequence:
#
# PCOD8119651 Si02
#       7
#     4   4   4   4   2   4   4
#     4  10  21  40  59  93 121 149 206 261 308 368
#     4  10  21  41  63  87 122 160 207 251 304 372
#     4  11  21  38  64  84 126 161 200 254 306 359
#     4   9  21  38  59  91 114 160 210 238 300 372
#     4  12  22  40  58  96 128 150 206 260 300 376
#     4  10  22  39  62  93 118 160 206 248 312 371
#     4  10  20  40  66  86 120 163 206 250 302 374
#
# _framework density 20.458109
#
# number of rings (size 3 to 8) (size 9 to 14) (size 15 to 20)
#    0.000    2.154    3.077    3.231    4.308    0.000 
#    5.538    0.769    0.000    0.000    0.000    0.000 
#    0.000    0.000    0.000    0.000    0.000    0.000 
#
# Total GULP energy -322181.643302 kJ/mol
# GULP energy per Si atom -12391.601665 kJ/mol
# Density = 2.041155 g / cm^3
# Si number density = 20.458109 Si / 1000 Ang^3
#
#
#
# Elastic Constant Matrix: (Units=GPa)
#
#
# Indices 1 2 3 4 5 6 
#
# 1 86.7999 16.5799 32.7462 0.0000 -4.6198 0.0000
# 2 16.5799 54.8624 30.8621 0.0000 2.4547 0.0000
# 3 32.7462 30.8621 100.5886 0.0000 1.0867 0.0000
# 4 0.0000 0.0000 0.0000 29.2127 0.0000 -5.6329
# 5 -4.6198 2.4547 1.0867 0.0000 37.9892 0.0000
# 6 0.0000 0.0000 0.0000 -5.6329 0.0000 10.5239
#
#
#
# Elastic Compliance Matrix: (Units=1/GPa)
#
#
# Indices 1 2 3 4 5 6 
#
# 1 0.013429 -0.002020 -0.003772 0.000000 0.001872 0.000000
# 2 -0.002020 0.022391 -0.006196 0.000000 -0.001515 0.000000
# 3 -0.003772 -0.006196 0.013075 0.000000 -0.000432 0.000000
# 4 0.000000 0.000000 0.000000 0.038171 0.000000 0.020431
# 5 0.001872 -0.001515 -0.000432 0.000000 0.026661 0.000000
# 6 0.000000 0.000000 0.000000 0.020431 0.000000 0.105957
#
#
# Mechanical properties :
#
#
# Convention : Reuss Voigt Hill
#
# Bulk Modulus (GPa) = 40.13003 44.73638 42.43320
# Shear Modulus (GPa) = 19.84373 26.34934 23.09654
#
# Velocity S-wave (km/s) = 3.11781 3.59272 3.36366
# Velocity P-wave (km/s) = 5.71133 6.25499 5.98933
#
# Compressibility (1/GPa) = 0.02491900
#
# Stress axis : x y z
#
# Youngs Moduli (GPa) = 74.46363 44.66049 76.48063
#
# Poissons Ratio (x) = 0.09022 0.28851
# Poissons Ratio (y) = 0.15043 0.47387
# Poissons Ratio (z) = 0.28090 0.27671
#
# Static dielectric constant tensor:
#      x y z
#    x 3.690480 0.000000 -0.130300 
#    y 0.000000 3.374340 0.000000 
#    z -0.130300 0.000000 3.956370 
# 
# 
# High freq. dielectric constant tensor:
#      x y z
#    x 1.793090 0.000000 -0.012620 
#    y 0.000000 1.767090 0.000000 
#    z -0.012620 0.000000 1.821260 
# 
# From -- ./inp_files/53281.got.cif
#   From: 2010.06.25/outbox.cif.g09.slc.cpg/sg13_27_cif.got.tgz:53281.got - 2010.06.28 04:50:58.
