data_PCOD8119566
_publ_section_title
;
Structure prediction by ZEFSAII (Michael W. Deem and Ramdas Pophale) SiO2 
 PCOD8119566
Probable space group: P 2/C
;
_chemical_formula_sum "Si O2"
_cell_formula_units_Z 22
_cell_length_a 24.520411
_cell_length_b 7.826169
_cell_length_c 15.714284
_cell_angle_alpha 90.000000
_cell_angle_beta 160.304265
_cell_angle_gamma 90.000000
_cell_volume 1016.328044
_symmetry_space_group_name_H-M "P 2/C"
_symmetry_group_IT_number 13
_symmetry_cell_setting 'monoclinic'
loop_
_space_group_symop_operation_xyz
x,y,z
-x,y,1/2-z
-x,-y,-z
x,-y,1/2+z
loop_
_atom_site_type_symbol
_atom_site_label
_atom_site_fract_x
_atom_site_fract_y
_atom_site_fract_z
Si Si1 0.808782 0.512140 0.729697
Si Si2 0.712066 0.512199 0.901672
Si Si3 0.000000 0.706159 0.750000
Si Si4 0.353824 0.868645 0.968982
Si Si5 0.526821 0.744179 0.523555
Si Si6 0.752722 0.806404 0.259910
O O1 0.720921 0.452305 0.514690
O O2 0.761443 0.706913 0.683062
O O3 0.748166 0.383806 0.713485
O O4 0.000000 0.500000 0.000000
O O5 0.686866 0.687341 0.811904
O O6 0.548238 0.408411 0.643211
O O7 0.870219 0.414328 0.104002
O O8 0.917574 0.825325 0.557268
O O9 0.418175 0.877608 0.966802
O O10 0.252088 0.047508 0.820918
O O11 0.500000 0.874578 0.250000
O O12 0.397834 0.825192 0.397705
#
# Coordination Sequence:
#
# PCOD8119566 Si02
#       6
#     4   4   2   4   4   4
#     4  12  25  45  68  99 139 176 219 277 335 394
#     4  10  20  39  70  96 132 175 222 267 332 392
#     4  10  20  44  62  94 142 176 218 282 316 398
#     4  12  26  45  69 100 136 173 224 281 328 389
#     4  10  22  42  68  97 128 177 223 272 329 389
#     4  11  26  44  71  98 134 178 224 271 337 395
#
# _framework density 21.646553000000001
#
# number of rings (size 3 to 8) (size 9 to 14) (size 15 to 20)
#    0.000    1.091    3.636    3.818    2.545    0.727 
#    3.273    0.000    0.000    0.000    0.000    0.000 
#    0.000    0.000    0.000    0.000    0.000    0.000 
#
# Total GULP energy -272739.505666 kJ/mol
# GULP energy per Si atom -12397.250258 kJ/mol
# Density = 2.159728 g / cm^3
# Si number density = 21.646553 Si / 1000 Ang^3
#
#
#
# Elastic Constant Matrix: (Units=GPa)
#
#
# Indices 1 2 3 4 5 6 
#
# 1 95.7429 34.4144 46.8923 0.0000 -14.0543 0.0000
# 2 34.4144 123.7446 69.8956 0.0000 -15.4108 0.0000
# 3 46.8923 69.8956 136.9044 0.0000 -14.8413 0.0000
# 4 0.0000 0.0000 0.0000 16.8110 0.0000 2.7029
# 5 -14.0543 -15.4108 -14.8413 0.0000 41.0388 0.0000
# 6 0.0000 0.0000 0.0000 2.7029 0.0000 8.1406
#
#
#
# Elastic Compliance Matrix: (Units=1/GPa)
#
#
# Indices 1 2 3 4 5 6 
#
# 1 0.013026 -0.001309 -0.003500 0.000000 0.002704 0.000000
# 2 -0.001309 0.011692 -0.005301 0.000000 0.002025 0.000000
# 3 -0.003500 -0.005301 0.011307 0.000000 0.000900 0.000000
# 4 0.000000 0.000000 0.000000 0.062840 0.000000 -0.020865
# 5 0.002704 0.002025 0.000900 0.000000 0.026379 0.000000
# 6 0.000000 0.000000 0.000000 -0.020865 0.000000 0.129769
#
#
# Mechanical properties :
#
#
# Convention : Reuss Voigt Hill
#
# Bulk Modulus (GPa) = 63.27382 73.19962 68.23672
# Shear Modulus (GPa) = 17.82513 26.87738 22.35125
#
# Velocity S-wave (km/s) = 2.87272 3.52752 3.21683
# Velocity P-wave (km/s) = 6.34801 7.10496 6.73713
#
# Compressibility (1/GPa) = 0.01580432
#
# Stress axis : x y z
#
# Youngs Moduli (GPa) = 76.76704 85.53057 88.43756
#
# Poissons Ratio (x) = 0.11195 0.30957
# Poissons Ratio (y) = 0.10048 0.46883
# Poissons Ratio (z) = 0.26872 0.45342
#
# Static dielectric constant tensor:
#      x y z
#    x 3.965060 0.000000 -0.285120 
#    y 0.000000 3.871460 0.000000 
#    z -0.285120 0.000000 4.178270 
# 
# 
# High freq. dielectric constant tensor:
#      x y z
#    x 1.855810 0.000000 -0.015430 
#    y 0.000000 1.841730 0.000000 
#    z -0.015430 0.000000 1.856710 
# 
# From -- ./inp_files/58760.got.cif
#   From: 2010.06.25/outbox.cif.g09.slc.cpg/sg13_30_cif.got.tgz:58760.got - 2010.06.28 04:50:58.
