data_PCOD8119213
_publ_section_title
;
Structure prediction by ZEFSAII (Michael W. Deem and Ramdas Pophale) SiO2 
 PCOD8119213
Probable space group: P 2/C
;
_chemical_formula_sum "Si O2"
_cell_formula_units_Z 32
_cell_length_a 15.375306
_cell_length_b 9.916788
_cell_length_c 13.428606
_cell_angle_alpha 90.000000
_cell_angle_beta 135.501393
_cell_angle_gamma 90.000000
_cell_volume 1435.082221
_symmetry_space_group_name_H-M "P 2/C"
_symmetry_group_IT_number 13
_symmetry_cell_setting 'monoclinic'
loop_
_space_group_symop_operation_xyz
x,y,z
-x,y,1/2-z
-x,-y,-z
x,-y,1/2+z
loop_
_atom_site_type_symbol
_atom_site_label
_atom_site_fract_x
_atom_site_fract_y
_atom_site_fract_z
Si Si1 0.801720 0.263932 0.064868
Si Si2 0.466122 0.405967 0.381280
Si Si3 0.092130 0.883679 0.146671
Si Si4 0.960247 0.180624 0.360099
Si Si5 0.768783 0.182733 0.552519
Si Si6 0.307720 0.547378 0.577626
Si Si7 0.502252 0.103790 0.092155
Si Si8 0.275344 0.966451 0.122852
O O1 0.829879 0.234316 0.206439
O O2 0.929867 0.248094 0.111572
O O3 0.752989 0.413869 0.014746
O O4 0.702489 0.160907 0.934407
O O5 0.500000 0.500000 0.500000
O O6 0.576032 0.410878 0.393075
O O7 0.344990 0.465026 0.224823
O O8 0.444605 0.250943 0.398475
O O9 0.142929 0.798692 0.280122
O O10 0.032963 0.018956 0.143537
O O11 0.207508 0.920529 0.168091
O O12 0.988844 0.793831 0.001536
O O13 0.782415 0.325738 0.508844
O O14 0.633296 0.128241 0.474084
O O15 0.814236 0.071542 0.509727
O O16 0.593759 0.038972 0.248822
O O17 0.500000 0.000000 0.000000
#
# Coordination Sequence:
#
# PCOD8119213 Si02
#       8
#     4   4   4   4   4   4   4   4
#     4  10  21  39  65  85 120 165 210 261 313 371
#     4  10  23  40  59  88 132 170 202 253 300 375
#     4  10  20  37  66  95 119 158 205 263 333 367
#     4   9  20  39  63  87 119 148 209 276 310 362
#     4  11  21  40  61  91 131 167 199 258 311 379
#     4  10  23  41  60  87 128 171 207 241 317 378
#     4  11  22  37  61  96 133 163 208 253 303 376
#     4  11  21  36  63  95 124 164 206 254 311 375
#
# _framework density 22.298373000000002
#
# number of rings (size 3 to 8) (size 9 to 14) (size 15 to 20)
#    0.000    1.750    3.750    0.375    1.750    3.000 
#    2.250    0.625   16.500    0.000    0.000    0.000 
#    0.000    0.000    0.000    0.000    0.000    0.000 
#
# Total GULP energy -396422.527996 kJ/mol
# GULP energy per Si atom -12388.204000 kJ/mol
# Density = 2.224762 g / cm^3
# Si number density = 22.298373 Si / 1000 Ang^3
#
#
#
# Elastic Constant Matrix: (Units=GPa)
#
#
# Indices 1 2 3 4 5 6 
#
# 1 13.4300 23.5962 20.5187 0.0000 -5.5030 0.0000
# 2 23.5962 153.6724 78.2376 0.0000 -9.4014 0.0000
# 3 20.5187 78.2376 204.1091 0.0000 -27.0119 0.0000
# 4 0.0000 0.0000 0.0000 44.4805 0.0000 -9.7022
# 5 -5.5030 -9.4014 -27.0119 0.0000 26.8709 0.0000
# 6 0.0000 0.0000 0.0000 -9.7022 0.0000 27.0115
#
#
#
# Elastic Compliance Matrix: (Units=1/GPa)
#
#
# Indices 1 2 3 4 5 6 
#
# 1 0.111072 -0.014234 -0.003874 0.000000 0.013873 0.000000
# 2 -0.014234 0.009912 -0.002647 0.000000 -0.002109 0.000000
# 3 -0.003874 -0.002647 0.007008 0.000000 0.005326 0.000000
# 4 0.000000 0.000000 0.000000 0.024393 0.000000 0.008762
# 5 0.013873 -0.002109 0.005326 0.000000 0.044672 0.000000
# 6 0.000000 0.000000 0.000000 0.008762 0.000000 0.040168
#
#
# Mechanical properties :
#
#
# Convention : Reuss Voigt Hill
#
# Bulk Modulus (GPa) = 11.56320 68.43518 39.99919
# Shear Modulus (GPa) = 16.25685 36.26319 26.26002
#
# Velocity S-wave (km/s) = 2.70304 4.03708 3.43544
# Velocity P-wave (km/s) = 3.86508 7.24486 5.80632
#
# Compressibility (1/GPa) = 0.08648128
#
# Stress axis : x y z
#
# Youngs Moduli (GPa) = 9.00319 100.88947 142.68672
#
# Poissons Ratio (x) = 1.43606 0.55275
# Poissons Ratio (y) = 0.12815 0.37776
# Poissons Ratio (z) = 0.03488 0.26710
#
# Static dielectric constant tensor:
#      x y z
#    x 3.593250 0.000000 0.062260 
#    y 0.000000 4.005700 0.000000 
#    z 0.062260 0.000000 4.639760 
# 
# 
# High freq. dielectric constant tensor:
#      x y z
#    x 1.848490 0.000000 -0.010230 
#    y 0.000000 1.861370 0.000000 
#    z -0.010230 0.000000 1.907900 
# 
# From -- ./inp_files/57278.got.cif
#   From: 2010.06.25/outbox.cif.g09.slc.cpg/sg13_29_cif.got.tgz:57278.got - 2010.06.28 04:50:58.
