data_PCOD8119989
_publ_section_title
;
Structure prediction by ZEFSAII (Michael W. Deem and Ramdas Pophale) SiO2 
 PCOD8119989
Probable space group: P 2/C
;
_chemical_formula_sum "Si O2"
_cell_formula_units_Z 28
_cell_length_a 9.237688
_cell_length_b 30.570225
_cell_length_c 5.133862
_cell_angle_alpha 90.000000
_cell_angle_beta 67.066601
_cell_angle_gamma 90.000000
_cell_volume 1335.199431
_symmetry_space_group_name_H-M "P 2/C"
_symmetry_group_IT_number 13
_symmetry_cell_setting 'monoclinic'
loop_
_space_group_symop_operation_xyz
x,y,z
-x,y,1/2-z
-x,-y,-z
x,-y,1/2+z
loop_
_atom_site_type_symbol
_atom_site_label
_atom_site_fract_x
_atom_site_fract_y
_atom_site_fract_z
Si Si1 0.184632 0.254955 0.135287
Si Si2 0.070387 0.951462 0.945274
Si Si3 0.607544 0.610577 0.430200
Si Si4 0.397976 0.823632 0.562074
Si Si5 0.185909 0.306633 0.635193
Si Si6 0.398474 0.077993 0.067999
Si Si7 0.179273 0.472090 0.614761
O O1 0.248441 0.207770 0.176753
O O2 0.241913 0.290017 0.312503
O O3 0.000000 0.249898 0.250000
O O4 0.240060 0.270890 0.812207
O O5 0.256586 0.953373 0.761423
O O6 0.000000 0.925147 0.750000
O O7 0.000000 0.927035 0.250000
O O8 0.000000 0.000000 0.000000
O O9 0.500000 0.608815 0.250000
O O10 0.736350 0.648488 0.328055
O O11 0.698835 0.565500 0.403525
O O12 0.500000 0.620430 0.750000
O O13 0.500000 0.820466 0.750000
O O14 0.337598 0.873116 0.547356
O O15 0.500000 0.806901 0.250000
O O16 0.000000 0.314217 0.750000
O O17 0.500000 0.081027 0.250000
O O18 0.500000 0.059262 0.750000
O O19 0.209379 0.489377 0.302027
O O20 0.000000 0.454530 0.750000
#
# Coordination Sequence:
#
# PCOD8119989 Si02
#       7
#     4   4   4   4   4   4   4
#     4  10  21  37  58  84 111 148 192 235 282 333
#     4  10  21  39  59  86 118 150 194 245 295 343
#     4  12  25  38  58  88 116 147 188 235 289 336
#     4  10  21  36  57  84 115 150 189 235 289 346
#     4  10  22  40  58  79 115 154 191 231 277 342
#     4  10  21  39  60  85 118 158 198 239 294 360
#     4  10  22  41  63  84 111 150 190 229 282 346
#
# _framework density 20.970649999999999
#
# number of rings (size 3 to 8) (size 9 to 14) (size 15 to 20)
#    0.000    1.714    0.000    3.857    0.000    5.714 
#    0.000   16.429    0.000    0.000    0.000    0.000 
#    0.000    0.000    0.000    0.000    0.000    0.000 
#
# Total GULP energy -347027.796438 kJ/mol
# GULP energy per Si atom -12393.849873 kJ/mol
# Density = 2.092292 g / cm^3
# Si number density = 20.970650 Si / 1000 Ang^3
#
#
#
# Elastic Constant Matrix: (Units=GPa)
#
#
# Indices 1 2 3 4 5 6 
#
# 1 104.1504 46.5992 43.8551 0.0000 14.6314 0.0000
# 2 46.5992 75.1861 18.5860 0.0000 -10.3232 0.0000
# 3 43.8551 18.5860 140.2460 0.0000 18.6260 0.0000
# 4 0.0000 0.0000 0.0000 19.8898 0.0000 -11.2778
# 5 14.6314 -10.3232 18.6260 0.0000 38.2361 0.0000
# 6 0.0000 0.0000 0.0000 -11.2778 0.0000 36.8102
#
#
#
# Elastic Compliance Matrix: (Units=1/GPa)
#
#
# Indices 1 2 3 4 5 6 
#
# 1 0.016683 -0.010756 -0.002735 0.000000 -0.007956 0.000000
# 2 -0.010756 0.021609 -0.000878 0.000000 0.010378 0.000000
# 3 -0.002735 -0.000878 0.008547 0.000000 -0.003354 0.000000
# 4 0.000000 0.000000 0.000000 0.060847 0.000000 0.018642
# 5 -0.007956 0.010378 -0.003354 0.000000 0.033634 0.000000
# 6 0.000000 0.000000 0.000000 0.018642 0.000000 0.032878
#
#
# Mechanical properties :
#
#
# Convention : Reuss Voigt Hill
#
# Bulk Modulus (GPa) = 55.24725 59.74035 57.49380
# Shear Modulus (GPa) = 23.92664 33.02337 28.47500
#
# Velocity S-wave (km/s) = 3.38147 3.97261 3.68890
# Velocity P-wave (km/s) = 6.45353 7.04213 6.75424
#
# Compressibility (1/GPa) = 0.01810045
#
# Stress axis : x y z
#
# Youngs Moduli (GPa) = 59.93972 46.27675 116.99430
#
# Poissons Ratio (x) = 0.49777 0.31996
# Poissons Ratio (y) = 0.64474 0.10278
# Poissons Ratio (z) = 0.16392 0.04065
#
# Static dielectric constant tensor:
#      x y z
#    x 3.820110 0.000000 0.071220 
#    y 0.000000 3.584070 0.000000 
#    z 0.071220 0.000000 3.433130 
# 
# 
# High freq. dielectric constant tensor:
#      x y z
#    x 1.833660 0.000000 0.016200 
#    y 0.000000 1.804490 0.000000 
#    z 0.016200 0.000000 1.838100 
# 
# From -- ./inp_files/2674.got.cif
#   From: 2010.06.25/outbox.cif.g09.slc.cpg/sg13_2_cif.got.tgz:2674.got - 2010.06.28 04:50:58.
