data_PCOD8119717
_publ_section_title
;
Structure prediction by ZEFSAII (Michael W. Deem and Ramdas Pophale) SiO2 
 PCOD8119717
Probable space group: P 2/C
;
_chemical_formula_sum "Si O2"
_cell_formula_units_Z 24
_cell_length_a 17.952711
_cell_length_b 11.930478
_cell_length_c 11.668128
_cell_angle_alpha 90.000000
_cell_angle_beta 27.353031
_cell_angle_gamma 90.000000
_cell_volume 1148.280422
_symmetry_space_group_name_H-M "P 2/C"
_symmetry_group_IT_number 13
_symmetry_cell_setting 'monoclinic'
loop_
_space_group_symop_operation_xyz
x,y,z
-x,y,1/2-z
-x,-y,-z
x,-y,1/2+z
loop_
_atom_site_type_symbol
_atom_site_label
_atom_site_fract_x
_atom_site_fract_y
_atom_site_fract_z
Si Si1 0.168380 0.729571 0.805351
Si Si2 0.189235 0.670711 0.519619
Si Si3 0.191868 0.225698 0.637875
Si Si4 0.650049 0.147257 0.853608
Si Si5 0.808167 0.581243 0.520638
Si Si6 0.281928 0.091229 0.310348
O O1 0.225478 0.703072 0.600190
O O2 0.246634 0.846263 0.738990
O O3 0.235686 0.629140 0.793854
O O4 0.974776 0.742382 0.072299
O O5 0.301489 0.746881 0.287978
O O6 0.253303 0.544905 0.409896
O O7 0.000000 0.684576 0.750000
O O8 0.312541 0.173571 0.565488
O O9 0.266131 0.338415 0.477246
O O10 0.163569 0.134920 0.573996
O O11 0.748575 0.039820 0.671022
O O12 0.462064 0.119762 0.105141
O O13 0.000000 0.586963 0.250000
#
# Coordination Sequence:
#
# PCOD8119717 Si02
#       6
#     4   4   4   4   4   4
#     4  10  21  40  62  88 122 153 196 251 295 350
#     4  11  22  36  62  97 121 151 201 247 295 354
#     4  10  20  41  64  87 115 157 201 245 294 354
#     4  11  24  39  62  86 119 161 202 243 296 358
#     4   8  19  35  62  90 119 157 190 243 302 350
#     4  10  24  42  59  85 119 163 199 244 303 348
#
# _framework density 20.900818999999998
#
# number of rings (size 3 to 8) (size 9 to 14) (size 15 to 20)
#    0.000    2.000    1.667    2.000    4.667    4.667 
#    0.000    3.333    7.333    0.000    0.000    0.000 
#    0.000    0.000    0.000    0.000    0.000    0.000 
#
# Total GULP energy -297590.879714 kJ/mol
# GULP energy per Si atom -12399.619988 kJ/mol
# Density = 2.085325 g / cm^3
# Si number density = 20.900819 Si / 1000 Ang^3
#
#
#
# Elastic Constant Matrix: (Units=GPa)
#
#
# Indices 1 2 3 4 5 6 
#
# 1 127.9698 52.2098 13.8482 0.0000 17.3078 0.0000
# 2 52.2098 148.8403 15.0593 0.0000 15.4348 0.0000
# 3 13.8482 15.0593 23.9555 0.0000 12.2803 0.0000
# 4 0.0000 0.0000 0.0000 18.2288 0.0000 -3.9606
# 5 17.3078 15.4348 12.2803 0.0000 29.0713 0.0000
# 6 0.0000 0.0000 0.0000 -3.9606 0.0000 30.7012
#
#
#
# Elastic Compliance Matrix: (Units=1/GPa)
#
#
# Indices 1 2 3 4 5 6 
#
# 1 0.009647 -0.002825 -0.002075 0.000000 -0.003367 0.000000
# 2 -0.002825 0.008139 -0.002719 0.000000 -0.001491 0.000000
# 3 -0.002075 -0.002719 0.055242 0.000000 -0.020656 0.000000
# 4 0.000000 0.000000 0.000000 0.056440 0.000000 0.007281
# 5 -0.003367 -0.001491 -0.020656 0.000000 0.045920 0.000000
# 6 0.000000 0.000000 0.000000 0.007281 0.000000 0.033511
#
#
# Mechanical properties :
#
#
# Convention : Reuss Voigt Hill
#
# Bulk Modulus (GPa) = 17.30410 51.44448 34.37429
# Shear Modulus (GPa) = 20.54230 30.24349 25.39289
#
# Velocity S-wave (km/s) = 3.13844 3.80807 3.48936
# Velocity P-wave (km/s) = 4.62928 6.63342 5.71981
#
# Compressibility (1/GPa) = 0.05778976
#
# Stress axis : x y z
#
# Youngs Moduli (GPa) = 103.66225 122.86189 18.10225
#
# Poissons Ratio (x) = 0.34706 0.03756
# Poissons Ratio (y) = 0.29282 0.04923
# Poissons Ratio (z) = 0.21508 0.33411
#
# Static dielectric constant tensor:
#      x y z
#    x 3.826750 0.000000 0.097280 
#    y 0.000000 4.147090 0.000000 
#    z 0.097280 0.000000 3.428030 
# 
# 
# High freq. dielectric constant tensor:
#      x y z
#    x 1.825320 0.000000 0.011730 
#    y 0.000000 1.826610 0.000000 
#    z 0.011730 0.000000 1.793350 
# 
# From -- ./inp_files/33066.got.cif
#   From: 2010.06.25/outbox.cif.g09.slc.cpg/sg13_17_cif.got.tgz:33066.got - 2010.06.28 04:50:58.
