data_PCOD8119913
_publ_section_title
;
Structure prediction by ZEFSAII (Michael W. Deem and Ramdas Pophale) SiO2 
 PCOD8119913
Probable space group: P 2/C
;
_chemical_formula_sum "Si O2"
_cell_formula_units_Z 26
_cell_length_a 5.223900
_cell_length_b 12.746482
_cell_length_c 19.998762
_cell_angle_alpha 90.000000
_cell_angle_beta 69.289745
_cell_angle_gamma 90.000000
_cell_volume 1245.594642
_symmetry_space_group_name_H-M "P 2/C"
_symmetry_group_IT_number 13
_symmetry_cell_setting 'monoclinic'
loop_
_space_group_symop_operation_xyz
x,y,z
-x,y,1/2-z
-x,-y,-z
x,-y,1/2+z
loop_
_atom_site_type_symbol
_atom_site_label
_atom_site_fract_x
_atom_site_fract_y
_atom_site_fract_z
Si Si1 0.000000 0.297224 0.250000
Si Si2 0.688791 0.967921 0.587384
Si Si3 0.045790 0.592837 0.444894
Si Si4 0.726303 0.562657 0.674911
Si Si5 0.210940 0.064407 0.574950
Si Si6 0.511690 0.752148 0.875136
Si Si7 0.488299 0.720175 0.026029
O O1 0.961700 0.371957 0.189637
O O2 0.742790 0.226635 0.296655
O O3 0.749798 0.982956 0.502864
O O4 0.709267 0.847094 0.610944
O O5 0.368444 0.001285 0.619419
O O6 0.883003 0.044044 0.614607
O O7 0.165170 0.545791 0.365193
O O8 0.255280 0.682138 0.452587
O O9 0.000000 0.500000 0.500000
O O10 0.742368 0.632442 0.458189
O O11 0.500000 0.532171 0.750000
O O12 0.620389 0.638722 0.625845
O O13 0.322090 0.182289 0.572466
O O14 0.617148 0.750836 0.942062
#
# Coordination Sequence:
#
# PCOD8119913 Si02
#       7
#     2   4   4   4   4   4   4
#     4  10  22  38  56  80 122 158 200 242 300 364
#     4   9  18  31  56  79 116 145 183 219 294 343
#     4  12  23  37  59  90 118 160 197 249 300 352
#     4  10  23  38  56  83 119 155 200 243 298 364
#     4   9  18  34  50  85 113 149 179 233 280 351
#     4  10  21  35  57  88 119 155 188 248 296 368
#     4  11  23  36  61  87 126 151 200 247 302 346
#
# _framework density 20.873564999999999
#
# number of rings (size 3 to 8) (size 9 to 14) (size 15 to 20)
#    0.000    1.846    1.538    2.308    6.462    2.462 
#    0.000    0.000    0.000    0.000    8.000    0.000 
#    0.000    0.000    0.000    0.000    0.000    0.000 
#
# Total GULP energy -322113.824154 kJ/mol
# GULP energy per Si atom -12388.993237 kJ/mol
# Density = 2.082606 g / cm^3
# Si number density = 20.873565 Si / 1000 Ang^3
#
#
#
# Elastic Constant Matrix: (Units=GPa)
#
#
# Indices 1 2 3 4 5 6 
#
# 1 108.1249 16.9309 14.2640 0.0000 -5.2722 0.0000
# 2 16.9309 71.2242 28.1421 0.0000 -6.6382 0.0000
# 3 14.2640 28.1421 62.1801 0.0000 -1.6739 0.0000
# 4 0.0000 0.0000 0.0000 19.1236 0.0000 -1.9325
# 5 -5.2722 -6.6382 -1.6739 0.0000 15.4386 0.0000
# 6 0.0000 0.0000 0.0000 -1.9325 0.0000 37.7643
#
#
#
# Elastic Compliance Matrix: (Units=1/GPa)
#
#
# Indices 1 2 3 4 5 6 
#
# 1 0.009806 -0.001501 -0.001502 0.000000 0.002540 0.000000
# 2 -0.001501 0.018010 -0.007635 0.000000 0.006404 0.000000
# 3 -0.001502 -0.007635 0.019838 0.000000 -0.001645 0.000000
# 4 0.000000 0.000000 0.000000 0.052563 0.000000 0.002690
# 5 0.002540 0.006404 -0.001645 0.000000 0.068215 0.000000
# 6 0.000000 0.000000 0.000000 0.002690 0.000000 0.026618
#
#
# Mechanical properties :
#
#
# Convention : Reuss Voigt Hill
#
# Bulk Modulus (GPa) = 37.90823 40.02257 38.96540
# Shear Modulus (GPa) = 22.21061 26.61145 24.41103
#
# Velocity S-wave (km/s) = 3.26552 3.57443 3.42346
# Velocity P-wave (km/s) = 5.69372 6.02087 5.85958
#
# Compressibility (1/GPa) = 0.02637950
#
# Stress axis : x y z
#
# Youngs Moduli (GPa) = 101.98303 55.52355 50.40860
#
# Poissons Ratio (x) = 0.08333 0.07570
# Poissons Ratio (y) = 0.15305 0.38485
# Poissons Ratio (z) = 0.15315 0.42390
#
# Static dielectric constant tensor:
#      x y z
#    x 4.166120 0.000000 -0.001360 
#    y 0.000000 3.763170 0.000000 
#    z -0.001360 0.000000 3.616590 
# 
# 
# High freq. dielectric constant tensor:
#      x y z
#    x 1.832080 0.000000 -0.004610 
#    y 0.000000 1.808510 0.000000 
#    z -0.004610 0.000000 1.773450 
# 
# From -- ./inp_files/73379.got.cif
#   From: 2010.06.25/outbox.cif.g09.slc.cpg/sg13_37_cif.got.tgz:73379.got - 2010.06.28 04:50:58.
