data_PCOD8119794
_publ_section_title
;
Structure prediction by ZEFSAII (Michael W. Deem and Ramdas Pophale) SiO2 
 PCOD8119794
Probable space group: P 2/C
;
_chemical_formula_sum "Si O2"
_cell_formula_units_Z 28
_cell_length_a 8.644955
_cell_length_b 5.171249
_cell_length_c 30.812963
_cell_angle_alpha 90.000000
_cell_angle_beta 114.045098
_cell_angle_gamma 90.000000
_cell_volume 1257.967598
_symmetry_space_group_name_H-M "P 2/C"
_symmetry_group_IT_number 13
_symmetry_cell_setting 'monoclinic'
loop_
_space_group_symop_operation_xyz
x,y,z
-x,y,1/2-z
-x,-y,-z
x,-y,1/2+z
loop_
_atom_site_type_symbol
_atom_site_label
_atom_site_fract_x
_atom_site_fract_y
_atom_site_fract_z
Si Si1 0.917245 0.790366 0.039849
Si Si2 0.000000 0.912812 0.750000
Si Si3 0.500000 0.529787 0.750000
Si Si4 0.729033 0.163764 0.156023
Si Si5 0.614491 0.136669 0.342535
Si Si6 0.160041 0.349061 0.877166
Si Si7 0.819175 0.769476 0.304198
Si Si8 0.129385 0.709114 0.558763
O O1 0.068541 0.586083 0.050054
O O2 0.807500 0.688145 0.067822
O O3 0.988002 0.079275 0.057215
O O4 0.807618 0.790955 0.982657
O O5 0.148575 0.747618 0.789884
O O6 0.091428 0.069963 0.722756
O O7 0.466035 0.687244 0.703219
O O8 0.329502 0.370376 0.739241
O O9 0.550623 0.041101 0.150374
O O10 0.716462 0.421723 0.124874
O O11 0.812699 0.929515 0.140268
O O12 0.720243 0.296807 0.389579
O O13 0.731003 0.920354 0.334017
O O14 0.960792 0.416969 0.843228
#
# Coordination Sequence:
#
# PCOD8119794 Si02
#       8
#     4   2   2   4   4   4   4   4
#     4  10  20  42  69 101 132 168 227 271 341 395
#     4  10  24  44  60  94 128 180 228 270 330 402
#     4  12  26  38  68  92 138 178 216 288 334 404
#     4  11  27  40  65  92 138 176 226 273 336 396
#     4  12  26  44  63 104 133 180 224 283 337 402
#     4  11  24  43  67  95 130 178 224 277 329 405
#     4  11  25  42  66  93 134 175 231 277 338 403
#     4  10  22  39  71 102 131 172 217 284 329 407
#
# _framework density 22.258123000000001
#
# number of rings (size 3 to 8) (size 9 to 14) (size 15 to 20)
#    0.000    1.143    1.429    3.857   14.000    0.571 
#    0.000    1.429    0.000    0.000    0.000    0.000 
#    0.000    0.000    0.000    0.000    0.000    0.000 
#
# Total GULP energy -346928.968512 kJ/mol
# GULP energy per Si atom -12390.320304 kJ/mol
# Density = 2.220746 g / cm^3
# Si number density = 22.258123 Si / 1000 Ang^3
#
#
#
# Elastic Constant Matrix: (Units=GPa)
#
#
# Indices 1 2 3 4 5 6 
#
# 1 93.0163 11.4445 27.1238 0.0000 -19.4952 0.0000
# 2 11.4445 78.0462 9.6210 0.0000 -4.4053 0.0000
# 3 27.1238 9.6210 118.4797 0.0000 -9.4023 0.0000
# 4 0.0000 0.0000 0.0000 120.9687 0.0000 -77.0441
# 5 -19.4952 -4.4053 -9.4023 0.0000 31.6068 0.0000
# 6 0.0000 0.0000 0.0000 -77.0441 0.0000 81.5937
#
#
#
# Elastic Compliance Matrix: (Units=1/GPa)
#
#
# Indices 1 2 3 4 5 6 
#
# 1 0.013091 -0.001226 -0.002325 0.000000 0.007212 0.000000
# 2 -0.001226 0.013130 -0.000717 0.000000 0.000860 0.000000
# 3 -0.002325 -0.000717 0.009124 0.000000 0.001180 0.000000
# 4 0.000000 0.000000 0.000000 0.020738 0.000000 0.019582
# 5 0.007212 0.000860 0.001180 0.000000 0.036558 0.000000
# 6 0.000000 0.000000 0.000000 0.019582 0.000000 0.030746
#
#
# Mechanical properties :
#
#
# Convention : Reuss Voigt Hill
#
# Bulk Modulus (GPa) = 37.30121 42.88009 40.09065
# Shear Modulus (GPa) = 35.49618 62.92403 49.21011
#
# Velocity S-wave (km/s) = 3.99777 5.32274 4.70710
# Velocity P-wave (km/s) = 6.17287 7.55527 6.89878
#
# Compressibility (1/GPa) = 0.02680878
#
# Stress axis : x y z
#
# Youngs Moduli (GPa) = 76.38691 76.16330 109.59556
#
# Poissons Ratio (x) = 0.09337 0.25482
# Poissons Ratio (y) = 0.09365 0.07861
# Poissons Ratio (z) = 0.17761 0.05463
#
# Static dielectric constant tensor:
#      x y z
#    x 4.775950 0.000000 0.421360 
#    y 0.000000 3.851670 0.000000 
#    z 0.421360 0.000000 4.770650 
# 
# 
# High freq. dielectric constant tensor:
#      x y z
#    x 1.859530 0.000000 -0.016580 
#    y 0.000000 1.869000 0.000000 
#    z -0.016580 0.000000 1.893770 
# 
# From -- ./inp_files/95526.got.cif
#   From: 2010.06.25/outbox.cif.g09.slc.cpg/sg13_48_cif.got.tgz:95526.got - 2010.06.28 04:50:58.
