data_PCOD8119662
_publ_section_title
;
Structure prediction by ZEFSAII (Michael W. Deem and Ramdas Pophale) SiO2 
 PCOD8119662
Probable space group: P 2/C
;
_chemical_formula_sum "Si O2"
_cell_formula_units_Z 24
_cell_length_a 6.869093
_cell_length_b 9.021016
_cell_length_c 18.136311
_cell_angle_alpha 90.000000
_cell_angle_beta 118.280397
_cell_angle_gamma 90.000000
_cell_volume 989.696348
_symmetry_space_group_name_H-M "P 2/C"
_symmetry_group_IT_number 13
_symmetry_cell_setting 'monoclinic'
loop_
_space_group_symop_operation_xyz
x,y,z
-x,y,1/2-z
-x,-y,-z
x,-y,1/2+z
loop_
_atom_site_type_symbol
_atom_site_label
_atom_site_fract_x
_atom_site_fract_y
_atom_site_fract_z
Si Si1 0.746025 0.768833 0.438023
Si Si2 0.160581 0.829537 0.416282
Si Si3 0.412437 0.924173 0.600260
Si Si4 0.309353 0.303021 0.275851
Si Si5 0.996868 0.857355 0.623151
Si Si6 0.404333 0.445472 0.904777
O O1 0.621432 0.615070 0.401106
O O2 0.922525 0.788684 0.406223
O O3 0.854093 0.767555 0.538382
O O4 0.558114 0.899596 0.406232
O O5 0.340863 0.841997 0.513079
O O6 0.230313 0.690596 0.378861
O O7 0.134933 0.993072 0.372847
O O8 0.633909 0.846152 0.668239
O O9 0.222416 0.911751 0.627020
O O10 0.500000 0.340361 0.250000
O O11 0.067940 0.263500 0.197938
O O12 0.290934 0.432780 0.332728
O O13 0.500000 0.500000 0.000000
#
# Coordination Sequence:
#
# PCOD8119662 Si02
#       6
#     4   4   4   4   4   4
#     4   9  20  39  70  92 125 179 222 269 322 391
#     4   9  18  39  66 102 128 165 230 269 316 401
#     4   8  15  35  65  96 124 170 227 264 322 393
#     4  10  20  40  66  97 138 178 216 278 349 389
#     4   8  17  36  68  95 127 176 222 277 322 384
#     4  12  24  39  67 103 136 175 218 268 336 414
#
# _framework density 24.249862
#
# number of rings (size 3 to 8) (size 9 to 14) (size 15 to 20)
#    0.000    2.667    1.667    2.000    0.000    3.333 
#    0.000    5.000    3.667    0.000    0.000    0.000 
#    0.000    0.000    0.000    0.000    0.000    0.000 
#
# Total GULP energy -297411.314179 kJ/mol
# GULP energy per Si atom -12392.138091 kJ/mol
# Density = 2.419467 g / cm^3
# Si number density = 24.249862 Si / 1000 Ang^3
#
#
#
# Elastic Constant Matrix: (Units=GPa)
#
#
# Indices 1 2 3 4 5 6 
#
# 1 28.7306 42.0658 24.7147 0.0000 -4.8334 0.0000
# 2 42.0658 122.1206 77.6573 0.0000 -1.9959 0.0000
# 3 24.7147 77.6573 112.9650 0.0000 1.9426 0.0000
# 4 0.0000 0.0000 0.0000 50.0351 0.0000 2.2225
# 5 -4.8334 -1.9959 1.9426 0.0000 34.1147 0.0000
# 6 0.0000 0.0000 0.0000 2.2225 0.0000 45.4796
#
#
#
# Elastic Compliance Matrix: (Units=1/GPa)
#
#
# Indices 1 2 3 4 5 6 
#
# 1 0.073028 -0.026220 0.001898 0.000000 0.008705 0.000000
# 2 -0.026220 0.024032 -0.010755 0.000000 -0.001696 0.000000
# 3 0.001898 -0.010755 0.015852 0.000000 -0.001263 0.000000
# 4 0.000000 0.000000 0.000000 0.020029 0.000000 -0.000979
# 5 0.008705 -0.001696 -0.001263 0.000000 0.030519 0.000000
# 6 0.000000 0.000000 0.000000 -0.000979 0.000000 0.022036
#
#
# Mechanical properties :
#
#
# Convention : Reuss Voigt Hill
#
# Bulk Modulus (GPa) = 23.38749 61.41019 42.39884
# Shear Modulus (GPa) = 18.52524 33.88442 26.20483
#
# Velocity S-wave (km/s) = 2.76693 3.74211 3.29084
# Velocity P-wave (km/s) = 4.45794 6.63702 5.65346
#
# Compressibility (1/GPa) = 0.04275790
#
# Stress axis : x y z
#
# Youngs Moduli (GPa) = 13.69345 41.61161 63.08260
#
# Poissons Ratio (x) = 1.09105 -0.11972
# Poissons Ratio (y) = 0.35904 0.67845
# Poissons Ratio (z) = -0.02599 0.44753
#
# Static dielectric constant tensor:
#      x y z
#    x 4.572290 0.000000 0.269650 
#    y 0.000000 4.875230 0.000000 
#    z 0.269650 0.000000 4.617810 
# 
# 
# High freq. dielectric constant tensor:
#      x y z
#    x 1.986700 0.000000 0.004730 
#    y 0.000000 1.961660 0.000000 
#    z 0.004730 0.000000 1.936030 
# 
# From -- ./inp_files/75746.got.cif
#   From: 2010.06.25/outbox.cif.g09.slc.cpg/sg13_38_cif.got.tgz:75746.got - 2010.06.28 04:50:58.
