data_PCOD8119292
_publ_section_title
;
Structure prediction by ZEFSAII (Michael W. Deem and Ramdas Pophale) SiO2 
 PCOD8119292
Probable space group: P 2/C
;
_chemical_formula_sum "Si O2"
_cell_formula_units_Z 28
_cell_length_a 8.644622
_cell_length_b 11.973956
_cell_length_c 20.669688
_cell_angle_alpha 90.000000
_cell_angle_beta 42.050824
_cell_angle_gamma 90.000000
_cell_volume 1433.032211
_symmetry_space_group_name_H-M "P 2/C"
_symmetry_group_IT_number 13
_symmetry_cell_setting 'monoclinic'
loop_
_space_group_symop_operation_xyz
x,y,z
-x,y,1/2-z
-x,-y,-z
x,-y,1/2+z
loop_
_atom_site_type_symbol
_atom_site_label
_atom_site_fract_x
_atom_site_fract_y
_atom_site_fract_z
Si Si1 0.747585 0.832861 0.553729
Si Si2 0.441551 0.969555 0.159483
Si Si3 0.655898 0.369795 0.995185
Si Si4 0.000000 0.127276 0.750000
Si Si5 0.517010 0.401127 0.588756
Si Si6 0.128382 0.317316 0.800783
Si Si7 0.500000 0.879483 0.750000
Si Si8 0.265732 0.234690 0.889048
O O1 0.632783 0.744158 0.541745
O O2 0.667512 0.805309 0.652734
O O3 0.022831 0.829630 0.467079
O O4 0.649418 0.955851 0.563520
O O5 0.229665 0.949889 0.175860
O O6 0.529872 0.849016 0.155405
O O7 0.346931 0.038088 0.251383
O O8 0.497528 0.358172 0.980651
O O9 0.921205 0.394831 0.891830
O O10 0.572968 0.467713 0.068916
O O11 0.991610 0.204374 0.688893
O O12 0.272273 0.382087 0.701232
O O13 0.720611 0.335688 0.563105
O O14 0.298742 0.284629 0.806689
#
# Coordination Sequence:
#
# PCOD8119292 Si02
#       8
#     4   4   4   2   4   4   2   4
#     4   9  22  40  59  87 126 164 198 256 304 380
#     4  10  20  38  60  91 121 162 199 258 310 368
#     4  10  22  43  59  88 132 157 210 253 317 368
#     4  12  20  36  66  90 124 154 218 252 304 380
#     4  11  22  39  65  91 122 164 207 264 304 368
#     4  11  21  38  65  92 117 163 206 263 303 365
#     4   8  20  40  58  82 126 162 198 242 314 360
#     4  11  21  39  63  93 120 159 213 253 310 362
#
# _framework density 19.538988
#
# number of rings (size 3 to 8) (size 9 to 14) (size 15 to 20)
#    0.857    0.857    2.857    1.714    0.000    2.286 
#    7.714    3.571    3.143    0.000    0.000    0.000 
#    0.000    0.000    0.000    0.000    0.000    0.000 
#
# Total GULP energy -346998.491407 kJ/mol
# GULP energy per Si atom -12392.803265 kJ/mol
# Density = 1.949452 g / cm^3
# Si number density = 19.538988 Si / 1000 Ang^3
#
#
#
# Elastic Constant Matrix: (Units=GPa)
#
#
# Indices 1 2 3 4 5 6 
#
# 1 129.9677 52.9536 24.8472 0.0000 5.2956 0.0000
# 2 52.9536 88.3264 36.1510 0.0000 12.2743 0.0000
# 3 24.8472 36.1510 78.9606 0.0000 10.4927 0.0000
# 4 0.0000 0.0000 0.0000 35.5660 0.0000 2.0734
# 5 5.2956 12.2743 10.4927 0.0000 27.2458 0.0000
# 6 0.0000 0.0000 0.0000 2.0734 0.0000 36.2655
#
#
#
# Elastic Compliance Matrix: (Units=1/GPa)
#
#
# Indices 1 2 3 4 5 6 
#
# 1 0.010220 -0.006019 -0.000587 0.000000 0.000951 0.000000
# 2 -0.006019 0.017910 -0.005679 0.000000 -0.004711 0.000000
# 3 -0.000587 -0.005679 0.015908 0.000000 -0.003454 0.000000
# 4 0.000000 0.000000 0.000000 0.028211 0.000000 -0.001613
# 5 0.000951 -0.004711 -0.003454 0.000000 0.039971 0.000000
# 6 0.000000 0.000000 0.000000 -0.001613 0.000000 0.027667
#
#
# Mechanical properties :
#
#
# Convention : Reuss Voigt Hill
#
# Bulk Modulus (GPa) = 51.36803 58.35090 54.85947
# Shear Modulus (GPa) = 29.24905 32.03564 30.64234
#
# Velocity S-wave (km/s) = 3.87325 4.05356 3.96443
# Velocity P-wave (km/s) = 6.80807 7.19980 7.00667
#
# Compressibility (1/GPa) = 0.01946736
#
# Stress axis : x y z
#
# Youngs Moduli (GPa) = 97.84661 55.83612 62.86001
#
# Poissons Ratio (x) = 0.33609 0.03687
# Poissons Ratio (y) = 0.58896 0.35701
# Poissons Ratio (z) = 0.05740 0.31712
#
# Static dielectric constant tensor:
#      x y z
#    x 3.670630 0.000000 0.089710 
#    y 0.000000 3.399470 0.000000 
#    z 0.089710 0.000000 3.466930 
# 
# 
# High freq. dielectric constant tensor:
#      x y z
#    x 1.771130 0.000000 0.005650 
#    y 0.000000 1.742100 0.000000 
#    z 0.005650 0.000000 1.751350 
# 
# From -- ./inp_files/76231.got.cif
#   From: 2010.06.25/outbox.cif.g09.slc.cpg/sg13_39_cif.got.tgz:76231.got - 2010.06.28 04:50:58.
