data_PCOD8119143
_publ_section_title
;
Structure prediction by ZEFSAII (Michael W. Deem and Ramdas Pophale) SiO2 
 PCOD8119143
Probable space group: P 2/C
;
_chemical_formula_sum "Si O2"
_cell_formula_units_Z 28
_cell_length_a 19.737967
_cell_length_b 5.279982
_cell_length_c 23.639472
_cell_angle_alpha 90.000000
_cell_angle_beta 146.611503
_cell_angle_gamma 90.000000
_cell_volume 1355.759012
_symmetry_space_group_name_H-M "P 2/C"
_symmetry_group_IT_number 13
_symmetry_cell_setting 'monoclinic'
loop_
_space_group_symop_operation_xyz
x,y,z
-x,y,1/2-z
-x,-y,-z
x,-y,1/2+z
loop_
_atom_site_type_symbol
_atom_site_label
_atom_site_fract_x
_atom_site_fract_y
_atom_site_fract_z
Si Si1 0.500239 0.897630 0.379142
Si Si2 0.186695 0.356494 0.115903
Si Si3 0.742435 0.000002 0.242435
Si Si4 0.454393 0.582212 0.780528
Si Si5 0.954889 0.356485 0.884097
Si Si6 0.106662 0.417788 0.780527
Si Si7 0.741956 0.102370 0.120858
O O1 0.523474 0.668356 0.351593
O O2 0.614120 0.916441 0.500001
O O3 0.378442 0.825152 0.331910
O O4 0.485123 0.172321 0.339611
O O5 0.238878 0.109336 0.182050
O O6 0.308450 0.492563 0.176622
O O7 0.115199 0.500019 0.115197
O O8 0.094551 0.293936 0.000000
O O9 0.714620 0.174849 0.168088
O O10 0.874780 0.890674 0.317948
O O11 0.500000 0.644438 0.750000
O O12 0.955203 0.492565 0.823377
O O13 0.179713 0.668350 0.851594
O O14 0.000000 0.355571 0.750000
O O15 0.194095 0.172315 0.839608
#
# Coordination Sequence:
#
# PCOD8119143 Si02
#       7
#     4   4   4   4   4   4   4
#     4  11  23  40  65  91 125 164 208 255 315 376
#     4  10  20  37  61  89 120 163 210 259 311 368
#     4  10  20  38  60  94 124 162 206 266 310 372
#     4  11  24  43  62  92 128 166 208 264 312 377
#     4  10  20  37  61  89 120 163 210 259 311 368
#     4  11  24  43  62  92 128 166 208 264 312 377
#     4  11  23  40  65  91 125 164 208 255 315 376
#
# _framework density 20.652636999999999
#
# number of rings (size 3 to 8) (size 9 to 14) (size 15 to 20)
#    0.000    1.429    2.857    2.571    0.000    2.286 
#    0.000    4.286    0.000    0.000    0.000    0.000 
#    0.000    0.000    0.000    0.000    0.000    0.000 
#
# Total GULP energy -346867.434825 kJ/mol
# GULP energy per Si atom -12388.122672 kJ/mol
# Density = 2.060563 g / cm^3
# Si number density = 20.652637 Si / 1000 Ang^3
#
#
#
# Elastic Constant Matrix: (Units=GPa)
#
#
# Indices 1 2 3 4 5 6 
#
# 1 88.8130 9.7250 58.5458 0.0000 0.0412 0.0000
# 2 9.7250 99.0960 48.5933 0.0000 0.3248 0.0000
# 3 58.5458 48.5933 190.5528 0.0000 0.8123 0.0000
# 4 0.0000 0.0000 0.0000 28.9456 0.0000 0.0493
# 5 0.0412 0.3248 0.8123 0.0000 17.4565 0.0000
# 6 0.0000 0.0000 0.0000 0.0493 0.0000 23.1228
#
#
#
# Elastic Compliance Matrix: (Units=1/GPa)
#
#
# Indices 1 2 3 4 5 6 
#
# 1 0.014182 0.000851 -0.004575 0.000000 0.000164 0.000000
# 2 0.000851 0.011585 -0.003215 0.000000 -0.000068 0.000000
# 3 -0.004575 -0.003215 0.007475 0.000000 -0.000277 0.000000
# 4 0.000000 0.000000 0.000000 0.034548 0.000000 -0.000074
# 5 0.000164 -0.000068 -0.000277 0.000000 0.057299 0.000000
# 6 0.000000 0.000000 0.000000 -0.000074 0.000000 0.043248
#
#
# Mechanical properties :
#
#
# Convention : Reuss Voigt Hill
#
# Bulk Modulus (GPa) = 51.64546 68.02110 59.83328
# Shear Modulus (GPa) = 26.50142 31.34483 28.92313
#
# Velocity S-wave (km/s) = 3.58606 3.90001 3.74633
# Velocity P-wave (km/s) = 6.49673 7.29982 6.90995
#
# Compressibility (1/GPa) = 0.01936279
#
# Stress axis : x y z
#
# Youngs Moduli (GPa) = 70.51053 86.32105 133.78419
#
# Poissons Ratio (x) = -0.07347 0.61208
# Poissons Ratio (y) = -0.06002 0.43018
# Poissons Ratio (z) = 0.32260 0.27756
#
# Static dielectric constant tensor:
#      x y z
#    x 3.947380 0.000000 0.000810 
#    y 0.000000 3.611680 0.000000 
#    z 0.000810 0.000000 4.046550 
# 
# 
# High freq. dielectric constant tensor:
#      x y z
#    x 1.804850 0.000000 0.000160 
#    y 0.000000 1.793830 0.000000 
#    z 0.000160 0.000000 1.823870 
# 
# From -- ./inp_files/88316.got.cif
#   From: 2010.06.25/outbox.cif.g09.slc.cpg/sg13_45_cif.got.tgz:88316.got - 2010.06.28 04:50:58.
