data_PCOD8119150
_publ_section_title
;
Structure prediction by ZEFSAII (Michael W. Deem and Ramdas Pophale) SiO2 
 PCOD8119150
Probable space group: P 2/C
;
_chemical_formula_sum "Si O2"
_cell_formula_units_Z 24
_cell_length_a 8.770875
_cell_length_b 14.126194
_cell_length_c 9.870201
_cell_angle_alpha 90.000000
_cell_angle_beta 89.210379
_cell_angle_gamma 90.000000
_cell_volume 1222.792710
_symmetry_space_group_name_H-M "P 2/C"
_symmetry_group_IT_number 13
_symmetry_cell_setting 'monoclinic'
loop_
_space_group_symop_operation_xyz
x,y,z
-x,y,1/2-z
-x,-y,-z
x,-y,1/2+z
loop_
_atom_site_type_symbol
_atom_site_label
_atom_site_fract_x
_atom_site_fract_y
_atom_site_fract_z
Si Si1 0.859787 0.592629 0.087327
Si Si2 0.566397 0.723379 0.398409
Si Si3 0.205815 0.441705 0.609382
Si Si4 0.902656 0.051404 0.385168
Si Si5 0.331078 0.093576 0.712832
Si Si6 0.253410 0.207501 0.963928
O O1 0.799314 0.546311 0.228388
O O2 0.836440 0.703900 0.093710
O O3 0.039627 0.587482 0.059220
O O4 0.764102 0.542071 0.967005
O O5 0.500000 0.701468 0.250000
O O6 0.665975 0.633172 0.443845
O O7 0.671678 0.816306 0.388684
O O8 0.423733 0.751927 0.498120
O O9 0.840181 0.157975 0.414174
O O10 0.000000 0.060472 0.250000
O O11 0.752321 0.990368 0.361095
O O12 0.000000 0.000000 0.500000
O O13 0.500000 0.059454 0.750000
O O14 0.249738 0.124692 0.852078
#
# Coordination Sequence:
#
# PCOD8119150 Si02
#       6
#     4   4   4   4   4   4
#     4  10  21  37  63  89 124 160 201 258 299 375
#     4   9  18  36  63  91 116 165 212 244 302 378
#     4  10  20  37  61  92 119 164 205 243 316 362
#     4  12  25  41  64  96 123 166 212 266 319 374
#     4   9  20  39  65  88 121 166 210 253 310 380
#     4  10  21  41  61  90 123 159 215 251 311 368
#
# _framework density 19.627203999999999
#
# number of rings (size 3 to 8) (size 9 to 14) (size 15 to 20)
#    0.000    2.333    5.000    0.000    2.333    3.333 
#    6.000    0.000    0.000    0.000    0.000    0.000 
#    0.000    0.000    0.000    0.000    0.000    0.000 
#
# Total GULP energy -297355.462544 kJ/mol
# GULP energy per Si atom -12389.810939 kJ/mol
# Density = 1.958253 g / cm^3
# Si number density = 19.627204 Si / 1000 Ang^3
#
#
#
# Elastic Constant Matrix: (Units=GPa)
#
#
# Indices 1 2 3 4 5 6 
#
# 1 91.8413 52.3594 41.2252 0.0000 -4.0008 0.0000
# 2 52.3594 92.1392 54.7053 0.0000 9.6063 0.0000
# 3 41.2252 54.7053 93.9429 0.0000 -3.6485 0.0000
# 4 0.0000 0.0000 0.0000 19.3135 0.0000 -3.0352
# 5 -4.0008 9.6063 -3.6485 0.0000 22.5664 0.0000
# 6 0.0000 0.0000 0.0000 -3.0352 0.0000 36.3504
#
#
#
# Elastic Compliance Matrix: (Units=1/GPa)
#
#
# Indices 1 2 3 4 5 6 
#
# 1 0.017451 -0.009543 -0.001835 0.000000 0.006859 0.000000
# 2 -0.009543 0.023687 -0.010127 0.000000 -0.013412 0.000000
# 3 -0.001835 -0.010127 0.017612 0.000000 0.006833 0.000000
# 4 0.000000 0.000000 0.000000 0.052466 0.000000 0.004381
# 5 0.006859 -0.013412 0.006833 0.000000 0.052344 0.000000
# 6 0.000000 0.000000 0.000000 0.004381 0.000000 0.027876
#
#
# Mechanical properties :
#
#
# Convention : Reuss Voigt Hill
#
# Bulk Modulus (GPa) = 63.52448 63.83368 63.67908
# Shear Modulus (GPa) = 20.86021 24.28829 22.57425
#
# Velocity S-wave (km/s) = 3.26363 3.52160 3.39507
# Velocity P-wave (km/s) = 6.82917 7.00922 6.91978
#
# Compressibility (1/GPa) = 0.01574196
#
# Stress axis : x y z
#
# Youngs Moduli (GPa) = 57.30315 42.21794 56.77858
#
# Poissons Ratio (x) = 0.40287 0.10418
# Poissons Ratio (y) = 0.54682 0.57497
# Poissons Ratio (z) = 0.10514 0.42752
#
# Static dielectric constant tensor:
#      x y z
#    x 3.690410 0.000000 -0.171510 
#    y 0.000000 3.638580 0.000000 
#    z -0.171510 0.000000 3.450900 
# 
# 
# High freq. dielectric constant tensor:
#      x y z
#    x 1.773620 0.000000 -0.014580 
#    y 0.000000 1.763660 0.000000 
#    z -0.014580 0.000000 1.731300 
# 
# From -- ./inp_files/29434.got.cif
#   From: 2010.06.25/outbox.cif.g09.slc.cpg/sg13_15_cif.got.tgz:29434.got - 2010.06.28 04:50:58.
