data_PCOD8119374
_publ_section_title
;
Structure prediction by ZEFSAII (Michael W. Deem and Ramdas Pophale) SiO2 
 PCOD8119374
Probable space group: P 2/C
;
_chemical_formula_sum "Si O2"
_cell_formula_units_Z 26
_cell_length_a 15.727887
_cell_length_b 10.371761
_cell_length_c 19.187639
_cell_angle_alpha 90.000000
_cell_angle_beta 153.356375
_cell_angle_gamma 90.000000
_cell_volume 1403.616736
_symmetry_space_group_name_H-M "P 2/C"
_symmetry_group_IT_number 13
_symmetry_cell_setting 'monoclinic'
loop_
_space_group_symop_operation_xyz
x,y,z
-x,y,1/2-z
-x,-y,-z
x,-y,1/2+z
loop_
_atom_site_type_symbol
_atom_site_label
_atom_site_fract_x
_atom_site_fract_y
_atom_site_fract_z
Si Si1 0.650245 0.145525 0.063592
Si Si2 0.000000 0.739066 0.750000
Si Si3 0.631083 0.404985 0.136517
Si Si4 0.072514 0.810007 0.537970
Si Si5 0.955860 0.620873 0.570819
Si Si6 0.732273 0.034818 0.743872
Si Si7 0.666265 0.406505 0.317706
O O1 0.615477 0.263208 0.091763
O O2 0.817916 0.174551 0.132997
O O3 0.712902 0.020011 0.152099
O O4 0.462318 0.111547 0.880956
O O5 0.934056 0.653745 0.636158
O O6 0.565170 0.406555 0.168327
O O7 0.847435 0.458378 0.293243
O O8 0.500000 0.500000 0.000000
O O9 0.179361 0.707378 0.567683
O O10 0.983098 0.748870 0.543194
O O11 0.903323 0.864007 0.367437
O O12 0.222288 0.922513 0.667149
O O13 0.774327 0.540248 0.413096
O O14 0.500000 0.380430 0.250000
#
# Coordination Sequence:
#
# PCOD8119374 Si02
#       7
#     4   2   4   4   4   4   4
#     4  10  21  38  62  88 115 154 203 242 285 353
#     4  10  20  40  56  92 118 144 204 260 284 342
#     4  10  21  38  62  84 116 160 194 240 299 356
#     4  10  20  42  59  85 116 163 193 241 290 359
#     4  10  22  38  62  82 118 154 199 243 299 355
#     4  10  20  38  64  82 115 162 204 229 288 360
#     4  11  24  39  57  92 125 148 197 251 298 352
#
# _framework density 18.523575000000001
#
# number of rings (size 3 to 8) (size 9 to 14) (size 15 to 20)
#    0.000    1.846    4.615    1.846    8.615    0.000 
#    2.769    0.000    0.000    0.000    0.000    0.000 
#    0.000    0.000    0.000    0.000    0.000    0.000 
#
# Total GULP energy -322313.254738 kJ/mol
# GULP energy per Si atom -12396.663644 kJ/mol
# Density = 1.848141 g / cm^3
# Si number density = 18.523575 Si / 1000 Ang^3
#
#
#
# Elastic Constant Matrix: (Units=GPa)
#
#
# Indices 1 2 3 4 5 6 
#
# 1 133.9791 48.0602 50.4525 0.0000 3.6247 0.0000
# 2 48.0602 92.0905 61.1083 0.0000 3.2614 0.0000
# 3 50.4525 61.1083 133.3007 0.0000 3.8681 0.0000
# 4 0.0000 0.0000 0.0000 44.9999 0.0000 1.8925
# 5 3.6247 3.2614 3.8681 0.0000 19.9867 0.0000
# 6 0.0000 0.0000 0.0000 1.8925 0.0000 15.5764
#
#
#
# Elastic Compliance Matrix: (Units=1/GPa)
#
#
# Indices 1 2 3 4 5 6 
#
# 1 0.009519 -0.003686 -0.001891 0.000000 -0.000759 0.000000
# 2 -0.003686 0.017061 -0.006401 0.000000 -0.000877 0.000000
# 3 -0.001891 -0.006401 0.011174 0.000000 -0.000775 0.000000
# 4 0.000000 0.000000 0.000000 0.022336 0.000000 -0.002714
# 5 -0.000759 -0.000877 -0.000775 0.000000 0.050464 0.000000
# 6 0.000000 0.000000 0.000000 -0.002714 0.000000 0.064529
#
#
# Mechanical properties :
#
#
# Convention : Reuss Voigt Hill
#
# Bulk Modulus (GPa) = 72.47038 75.40135 73.93587
# Shear Modulus (GPa) = 24.55339 29.42922 26.99131
#
# Velocity S-wave (km/s) = 3.64472 3.99023 3.82138
# Velocity P-wave (km/s) = 7.54455 7.87548 7.71179
#
# Compressibility (1/GPa) = 0.01379874
#
# Stress axis : x y z
#
# Youngs Moduli (GPa) = 105.05694 58.61410 89.49199
#
# Poissons Ratio (x) = 0.21605 0.16922
# Poissons Ratio (y) = 0.38724 0.57280
# Poissons Ratio (z) = 0.19865 0.37516
#
# Static dielectric constant tensor:
#      x y z
#    x 3.259360 0.000000 0.017740 
#    y 0.000000 3.494050 0.000000 
#    z 0.017740 0.000000 3.722100 
# 
# 
# High freq. dielectric constant tensor:
#      x y z
#    x 1.698720 0.000000 -0.001570 
#    y 0.000000 1.717020 0.000000 
#    z -0.001570 0.000000 1.735300 
# 
# From -- ./inp_files/68435.got.cif
#   From: 2010.06.25/outbox.cif.g09.slc.cpg/sg13_35_cif.got.tgz:68435.got - 2010.06.28 04:50:58.
