data_PCOD8119597
_publ_section_title
;
Structure prediction by ZEFSAII (Michael W. Deem and Ramdas Pophale) SiO2 
 PCOD8119597
Probable space group: P 2/C
;
_chemical_formula_sum "Si O2"
_cell_formula_units_Z 24
_cell_length_a 4.939984
_cell_length_b 15.476508
_cell_length_c 15.406952
_cell_angle_alpha 90.000000
_cell_angle_beta 102.602324
_cell_angle_gamma 90.000000
_cell_volume 1149.540000
_symmetry_space_group_name_H-M "P 2/C"
_symmetry_group_IT_number 13
_symmetry_cell_setting 'monoclinic'
loop_
_space_group_symop_operation_xyz
x,y,z
-x,y,1/2-z
-x,-y,-z
x,-y,1/2+z
loop_
_atom_site_type_symbol
_atom_site_label
_atom_site_fract_x
_atom_site_fract_y
_atom_site_fract_z
Si Si1 0.090627 0.075712 0.348600
Si Si2 0.403747 0.979796 0.090857
Si Si3 0.768996 0.191694 0.989960
Si Si4 0.612845 0.432537 0.349838
Si Si5 0.887392 0.549217 0.150165
Si Si6 0.723412 0.306915 0.509495
O O1 0.241151 0.151424 0.413603
O O2 0.000000 0.115185 0.250000
O O3 0.314681 0.001024 0.336281
O O4 0.847306 0.039208 0.392977
O O5 0.305293 0.880340 0.088234
O O6 0.500000 0.000000 0.000000
O O7 0.549963 0.269000 0.964420
O O8 0.075922 0.227178 0.995895
O O9 0.500000 0.397280 0.250000
O O10 0.421933 0.511685 0.367665
O O11 0.619509 0.352450 0.414762
O O12 0.921857 0.470112 0.367117
O O13 0.000000 0.584911 0.250000
O O14 0.885865 0.627494 0.083092
#
# Coordination Sequence:
#
# PCOD8119597 Si02
#       6
#     4   4   4   4   4   4
#     4  11  22  39  63  87 113 153 199 242 287 348
#     4  10  20  40  61  80 113 156 195 228 278 351
#     4  11  23  37  57  85 119 148 182 237 297 348
#     4  10  21  37  59  83 111 149 194 237 280 343
#     4  10  21  39  58  79 110 152 199 239 276 338
#     4  12  22  36  59  86 117 152 185 235 301 352
#
# _framework density 20.877917
#
# number of rings (size 3 to 8) (size 9 to 14) (size 15 to 20)
#    0.000    1.333    0.000    8.500    0.000    1.333 
#    0.000    5.000    0.000    0.000    0.000    0.000 
#    0.000    0.000    0.000    0.000    0.000    0.000 
#
# Total GULP energy -297589.380742 kJ/mol
# GULP energy per Si atom -12399.557531 kJ/mol
# Density = 2.083040 g / cm^3
# Si number density = 20.877917 Si / 1000 Ang^3
#
#
#
# Elastic Constant Matrix: (Units=GPa)
#
#
# Indices 1 2 3 4 5 6 
#
# 1 95.9379 18.5697 17.6614 0.0000 1.6110 0.0000
# 2 18.5697 63.6797 21.5383 0.0000 -0.3623 0.0000
# 3 17.6614 21.5383 48.9224 0.0000 4.8934 0.0000
# 4 0.0000 0.0000 0.0000 21.0051 0.0000 -6.1849
# 5 1.6110 -0.3623 4.8934 0.0000 24.6224 0.0000
# 6 0.0000 0.0000 0.0000 -6.1849 0.0000 26.3707
#
#
#
# Elastic Compliance Matrix: (Units=1/GPa)
#
#
# Indices 1 2 3 4 5 6 
#
# 1 0.011441 -0.002286 -0.003107 0.000000 -0.000165 0.000000
# 2 -0.002286 0.018998 -0.007735 0.000000 0.001966 0.000000
# 3 -0.003107 -0.007735 0.025465 0.000000 -0.004971 0.000000
# 4 0.000000 0.000000 0.000000 0.051139 0.000000 0.011994
# 5 -0.000165 0.001966 -0.004971 0.000000 0.041641 0.000000
# 6 0.000000 0.000000 0.000000 0.011994 0.000000 0.040734
#
#
# Mechanical properties :
#
#
# Convention : Reuss Voigt Hill
#
# Bulk Modulus (GPa) = 33.73114 36.00876 34.86995
# Shear Modulus (GPa) = 22.16734 24.45099 23.30917
#
# Velocity S-wave (km/s) = 3.26200 3.42591 3.34496
# Velocity P-wave (km/s) = 5.51171 5.73880 5.62640
#
# Compressibility (1/GPa) = 0.02964619
#
# Stress axis : x y z
#
# Youngs Moduli (GPa) = 87.40712 52.63785 39.26962
#
# Poissons Ratio (x) = 0.12034 0.12202
# Poissons Ratio (y) = 0.19983 0.30376
# Poissons Ratio (z) = 0.27159 0.40716
#
# Static dielectric constant tensor:
#      x y z
#    x 4.150960 0.000000 0.205170 
#    y 0.000000 3.644340 0.000000 
#    z 0.205170 0.000000 3.795810 
# 
# 
# High freq. dielectric constant tensor:
#      x y z
#    x 1.842300 0.000000 0.004460 
#    y 0.000000 1.804430 0.000000 
#    z 0.004460 0.000000 1.806550 
# 
# From -- ./inp_files/44038.got.cif
#   From: 2010.06.25/outbox.cif.g09.slc.cpg/sg13_23_cif.got.tgz:44038.got - 2010.06.28 04:50:58.
