data_PCOD8119331
_publ_section_title
;
Structure prediction by ZEFSAII (Michael W. Deem and Ramdas Pophale) SiO2 
 PCOD8119331
Probable space group: P 2/C
;
_chemical_formula_sum "Si O2"
_cell_formula_units_Z 28
_cell_length_a 7.128425
_cell_length_b 10.991912
_cell_length_c 20.115313
_cell_angle_alpha 90.000000
_cell_angle_beta 114.737844
_cell_angle_gamma 90.000000
_cell_volume 1431.496896
_symmetry_space_group_name_H-M "P 2/C"
_symmetry_group_IT_number 13
_symmetry_cell_setting 'monoclinic'
loop_
_space_group_symop_operation_xyz
x,y,z
-x,y,1/2-z
-x,-y,-z
x,-y,1/2+z
loop_
_atom_site_type_symbol
_atom_site_label
_atom_site_fract_x
_atom_site_fract_y
_atom_site_fract_z
Si Si1 0.441261 0.499734 0.414645
Si Si2 0.682441 0.479458 0.326159
Si Si3 0.889744 0.827654 0.044520
Si Si4 0.464757 0.768830 0.929835
Si Si5 0.038172 0.648881 0.331615
Si Si6 0.926474 0.888787 0.564329
Si Si7 0.339761 0.806996 0.672035
O O1 0.500000 0.500000 0.500000
O O2 0.634313 0.527125 0.393955
O O3 0.378154 0.360375 0.390572
O O4 0.266718 0.595564 0.371008
O O5 0.500000 0.519534 0.250000
O O6 0.713099 0.334987 0.329417
O O7 0.890201 0.539625 0.331033
O O8 0.998441 0.763401 0.124077
O O9 0.868229 0.971198 0.049320
O O10 0.665499 0.761692 0.007567
O O11 0.021695 0.814128 0.995947
O O12 0.278973 0.832060 0.938282
O O13 0.545392 0.844601 0.878819
O O14 0.000000 0.691635 0.250000
O O15 0.121249 0.877454 0.643377
O O16 0.500000 0.854930 0.750000
#
# Coordination Sequence:
#
# PCOD8119331 Si02
#       7
#     4   4   4   4   4   4   4
#     4  11  22  37  61  94 119 153 209 246 302 371
#     4  10  21  39  60  85 123 159 193 249 308 368
#     4  10  23  40  60  87 120 155 209 254 289 364
#     4  10  20  38  62  86 114 154 199 251 295 354
#     4  12  24  40  61  88 127 164 194 249 314 372
#     4  10  21  41  63  86 115 162 204 250 308 341
#     4   9  20  38  58  88 120 147 199 252 294 361
#
# _framework density 19.559946
#
# number of rings (size 3 to 8) (size 9 to 14) (size 15 to 20)
#    0.000    1.714    2.857    1.286    2.000    1.143 
#    2.571    0.714    0.000    0.000    0.000    0.000 
#    0.000    0.000    0.000    0.000    0.000    0.000 
#
# Total GULP energy -347041.945087 kJ/mol
# GULP energy per Si atom -12394.355182 kJ/mol
# Density = 1.951543 g / cm^3
# Si number density = 19.559946 Si / 1000 Ang^3
#
#
#
# Elastic Constant Matrix: (Units=GPa)
#
#
# Indices 1 2 3 4 5 6 
#
# 1 106.2838 25.8040 31.0923 0.0000 -10.1857 0.0000
# 2 25.8040 56.5424 18.7342 0.0000 -4.7332 0.0000
# 3 31.0923 18.7342 122.2556 0.0000 -9.1654 0.0000
# 4 0.0000 0.0000 0.0000 25.0125 0.0000 -3.1630
# 5 -10.1857 -4.7332 -9.1654 0.0000 19.8002 0.0000
# 6 0.0000 0.0000 0.0000 -3.1630 0.0000 19.6214
#
#
#
# Elastic Compliance Matrix: (Units=1/GPa)
#
#
# Indices 1 2 3 4 5 6 
#
# 1 0.011382 -0.004217 -0.001953 0.000000 0.003943 0.000000
# 2 -0.004217 0.020398 -0.001917 0.000000 0.001819 0.000000
# 3 -0.001953 -0.001917 0.009179 0.000000 0.002786 0.000000
# 4 0.000000 0.000000 0.000000 0.040812 0.000000 0.006579
# 5 0.003943 0.001819 0.002786 0.000000 0.054258 0.000000
# 6 0.000000 0.000000 0.000000 0.006579 0.000000 0.052025
#
#
# Mechanical properties :
#
#
# Convention : Reuss Voigt Hill
#
# Bulk Modulus (GPa) = 40.34720 48.48255 44.41488
# Shear Modulus (GPa) = 23.53071 26.85024 25.19048
#
# Velocity S-wave (km/s) = 3.47220 3.70904 3.59257
# Velocity P-wave (km/s) = 6.06194 6.57138 6.32180
#
# Compressibility (1/GPa) = 0.02478487
#
# Stress axis : x y z
#
# Youngs Moduli (GPa) = 87.85969 49.02492 108.94649
#
# Poissons Ratio (x) = 0.20675 0.21275
# Poissons Ratio (y) = 0.37052 0.20883
# Poissons Ratio (z) = 0.17157 0.09397
#
# Static dielectric constant tensor:
#      x y z
#    x 3.688460 0.000000 -0.109250 
#    y 0.000000 3.426510 0.000000 
#    z -0.109250 0.000000 3.850040 
# 
# 
# High freq. dielectric constant tensor:
#      x y z
#    x 1.769190 0.000000 -0.008540 
#    y 0.000000 1.744540 0.000000 
#    z -0.008540 0.000000 1.765160 
# 
# From -- ./inp_files/73593.got.cif
#   From: 2010.06.25/outbox.cif.g09.slc.cpg/sg13_37_cif.got.tgz:73593.got - 2010.06.28 04:50:58.
