data_PCOD8119071
_publ_section_title
;
Structure prediction by ZEFSAII (Michael W. Deem and Ramdas Pophale) SiO2 
 PCOD8119071
Probable space group: P 2/C
;
_chemical_formula_sum "Si O2"
_cell_formula_units_Z 26
_cell_length_a 12.593235
_cell_length_b 20.028686
_cell_length_c 9.365606
_cell_angle_alpha 90.000000
_cell_angle_beta 146.266409
_cell_angle_gamma 90.000000
_cell_volume 1311.832588
_symmetry_space_group_name_H-M "P 2/C"
_symmetry_group_IT_number 13
_symmetry_cell_setting 'monoclinic'
loop_
_space_group_symop_operation_xyz
x,y,z
-x,y,1/2-z
-x,-y,-z
x,-y,1/2+z
loop_
_atom_site_type_symbol
_atom_site_label
_atom_site_fract_x
_atom_site_fract_y
_atom_site_fract_z
Si Si1 0.289619 0.861669 0.553080
Si Si2 0.000000 0.900897 0.750000
Si Si3 0.033250 0.817954 0.512399
Si Si4 0.977322 0.326520 0.059355
Si Si5 0.308448 0.566476 0.226197
Si Si6 0.261877 0.558286 0.842957
Si Si7 0.638101 0.011079 0.788884
O O1 0.500000 0.834538 0.750000
O O2 0.153527 0.850179 0.266271
O O3 0.286909 0.940393 0.573567
O O4 0.215745 0.824638 0.612599
O O5 0.082577 0.854597 0.716146
O O6 0.828302 0.943850 0.485671
O O7 0.989468 0.740145 0.481881
O O8 0.000000 0.308111 0.250000
O O9 0.131233 0.377942 0.165799
O O10 0.771256 0.361552 0.815780
O O11 0.533507 0.572692 0.500607
O O12 0.197835 0.510963 0.197590
O O13 0.263163 0.547131 0.013205
O O14 0.500000 0.045793 0.750000
O O15 0.500000 0.000000 0.500000
#
# Coordination Sequence:
#
# PCOD8119071 Si02
#       7
#     4   2   4   4   4   4   4
#     4  10  23  43  60  82 123 158 195 252 303 355
#     4  12  22  38  66  94 124 156 200 260 296 360
#     4  11  23  39  60  88 120 164 203 235 302 367
#     4  10  20  37  56  83 117 153 196 235 286 354
#     4   9  18  34  56  82 112 145 190 242 289 339
#     4   9  18  34  56  82 111 147 188 241 291 336
#     4  11  23  40  64  95 120 155 205 252 310 363
#
# _framework density 19.819603000000001
#
# number of rings (size 3 to 8) (size 9 to 14) (size 15 to 20)
#    0.000    1.846    0.769    4.154    0.000    3.077 
#    5.538    0.000    0.000    0.000    0.000    0.000 
#    0.000    0.000    0.000    0.000    0.000    0.000 
#
# Total GULP energy -322280.162476 kJ/mol
# GULP energy per Si atom -12395.390864 kJ/mol
# Density = 1.977449 g / cm^3
# Si number density = 19.819603 Si / 1000 Ang^3
#
#
#
# Elastic Constant Matrix: (Units=GPa)
#
#
# Indices 1 2 3 4 5 6 
#
# 1 119.7505 44.9281 35.6071 0.0000 9.6973 0.0000
# 2 44.9281 120.2428 36.2010 0.0000 2.1570 0.0000
# 3 35.6071 36.2010 85.4002 0.0000 2.0953 0.0000
# 4 0.0000 0.0000 0.0000 20.0595 0.0000 -4.2553
# 5 9.6973 2.1570 2.0953 0.0000 27.8613 0.0000
# 6 0.0000 0.0000 0.0000 -4.2553 0.0000 28.6931
#
#
#
# Elastic Compliance Matrix: (Units=1/GPa)
#
#
# Indices 1 2 3 4 5 6 
#
# 1 0.010656 -0.002992 -0.003095 0.000000 -0.003245 0.000000
# 2 -0.002992 0.010378 -0.003164 0.000000 0.000476 0.000000
# 3 -0.003095 -0.003164 0.014335 0.000000 0.000244 0.000000
# 4 0.000000 0.000000 0.000000 0.051471 0.000000 0.007633
# 5 -0.003245 0.000476 0.000244 0.000000 0.036966 0.000000
# 6 0.000000 0.000000 0.000000 0.007633 0.000000 0.035984
#
#
# Mechanical properties :
#
#
# Convention : Reuss Voigt Hill
#
# Bulk Modulus (GPa) = 59.28183 62.09622 60.68903
# Shear Modulus (GPa) = 27.18656 29.23325 28.20991
#
# Velocity S-wave (km/s) = 3.70767 3.84470 3.77680
# Velocity P-wave (km/s) = 6.95016 7.14896 7.05026
#
# Compressibility (1/GPa) = 0.01686857
#
# Stress axis : x y z
#
# Youngs Moduli (GPa) = 93.84222 96.35558 69.75815
#
# Poissons Ratio (x) = 0.28825 0.21592
# Poissons Ratio (y) = 0.28073 0.22069
# Poissons Ratio (z) = 0.29047 0.30484
#
# Static dielectric constant tensor:
#      x y z
#    x 3.940560 0.000000 0.116510 
#    y 0.000000 3.558810 0.000000 
#    z 0.116510 0.000000 3.715430 
# 
# 
# High freq. dielectric constant tensor:
#      x y z
#    x 1.787020 0.000000 0.006720 
#    y 0.000000 1.765750 0.000000 
#    z 0.006720 0.000000 1.769300 
# 
# From -- ./inp_files/17319.got.cif
#   From: 2010.06.25/outbox.cif.g09.slc.cpg/sg13_9_cif.got.tgz:17319.got - 2010.06.28 04:50:58.
