data_PCOD8119974
_publ_section_title
;
Structure prediction by ZEFSAII (Michael W. Deem and Ramdas Pophale) SiO2 
 PCOD8119974
Probable space group: P 2/C
;
_chemical_formula_sum "Si O2"
_cell_formula_units_Z 20
_cell_length_a 8.557382
_cell_length_b 23.860388
_cell_length_c 5.226193
_cell_angle_alpha 90.000000
_cell_angle_beta 121.797246
_cell_angle_gamma 90.000000
_cell_volume 906.944899
_symmetry_space_group_name_H-M "P 2/C"
_symmetry_group_IT_number 13
_symmetry_cell_setting 'monoclinic'
loop_
_space_group_symop_operation_xyz
x,y,z
-x,y,1/2-z
-x,-y,-z
x,-y,1/2+z
loop_
_atom_site_type_symbol
_atom_site_label
_atom_site_fract_x
_atom_site_fract_y
_atom_site_fract_z
Si Si1 0.619768 0.137111 0.110362
Si Si2 0.119013 0.636135 0.604202
Si Si3 0.879437 0.762137 0.892412
Si Si4 0.290704 0.525884 0.625401
Si Si5 0.206451 0.976020 0.701068
O O1 0.500000 0.119995 0.250000
O O2 0.705023 0.197626 0.240317
O O3 0.782180 0.090543 0.232769
O O4 0.500000 0.138808 0.750000
O O5 0.200342 0.698906 0.695282
O O6 0.280342 0.590612 0.707152
O O7 0.000000 0.621487 0.750000
O O8 0.000000 0.631576 0.250000
O O9 0.000000 0.776548 0.750000
O O10 0.000000 0.771416 0.250000
O O11 0.500000 0.508287 0.750000
O O12 0.196061 0.512568 0.267884
O O13 0.307591 0.991887 0.522606
O O14 0.000000 0.000000 0.500000
#
# Coordination Sequence:
#
# PCOD8119974 Si02
#       5
#     4   4   4   4   4
#     4  12  26  42  66  99 128 156 206 264 308 356
#     4  10  21  38  59  89 116 154 211 254 297 354
#     4  10  23  42  67  88 123 169 208 251 307 380
#     4  10  21  36  55  84 121 161 198 243 310 372
#     4  10  23  40  64  92 122 166 205 235 300 384
#
# _framework density 22.052056
#
# number of rings (size 3 to 8) (size 9 to 14) (size 15 to 20)
#    0.000    1.600    0.000    3.600    5.600    5.600 
#    0.000    3.000    0.000    0.000    0.000    0.000 
#    0.000    0.000    0.000    0.000    0.000    0.000 
#
# Total GULP energy -247867.934802 kJ/mol
# GULP energy per Si atom -12393.396740 kJ/mol
# Density = 2.200186 g / cm^3
# Si number density = 22.052056 Si / 1000 Ang^3
#
#
#
# Elastic Constant Matrix: (Units=GPa)
#
#
# Indices 1 2 3 4 5 6 
#
# 1 69.1525 54.2695 60.5958 0.0000 -25.3350 0.0000
# 2 54.2695 167.8450 52.0967 0.0000 -2.4961 0.0000
# 3 60.5958 52.0967 146.0235 0.0000 -47.6783 0.0000
# 4 0.0000 0.0000 0.0000 53.1301 0.0000 3.1012
# 5 -25.3350 -2.4961 -47.6783 0.0000 43.6805 0.0000
# 6 0.0000 0.0000 0.0000 3.1012 0.0000 38.8337
#
#
#
# Elastic Compliance Matrix: (Units=1/GPa)
#
#
# Indices 1 2 3 4 5 6 
#
# 1 0.029400 -0.007365 -0.006436 0.000000 0.009606 0.000000
# 2 -0.007365 0.008899 -0.002093 0.000000 -0.006048 0.000000
# 3 -0.006436 -0.002093 0.013996 0.000000 0.011424 0.000000
# 4 0.000000 0.000000 0.000000 0.018910 0.000000 -0.001510
# 5 0.009606 -0.006048 0.011424 0.000000 0.040590 0.000000
# 6 0.000000 0.000000 0.000000 -0.001510 0.000000 0.025871
#
#
# Mechanical properties :
#
#
# Convention : Reuss Voigt Hill
#
# Bulk Modulus (GPa) = 48.76662 79.66056 64.21359
# Shear Modulus (GPa) = 28.36223 41.53280 34.94751
#
# Velocity S-wave (km/s) = 3.59018 4.34452 3.98524
# Velocity P-wave (km/s) = 6.27281 7.83382 7.09637
#
# Compressibility (1/GPa) = 0.02050583
#
# Stress axis : x y z
#
# Youngs Moduli (GPa) = 34.01359 112.37004 71.44911
#
# Poissons Ratio (x) = 0.82766 0.45983
# Poissons Ratio (y) = 0.25053 0.14957
# Poissons Ratio (z) = 0.21891 0.23523
#
# Static dielectric constant tensor:
#      x y z
#    x 4.390980 0.000000 -1.120120 
#    y 0.000000 4.275920 0.000000 
#    z -1.120120 0.000000 4.910290 
# 
# 
# High freq. dielectric constant tensor:
#      x y z
#    x 1.855930 0.000000 -0.037370 
#    y 0.000000 1.877420 0.000000 
#    z -0.037370 0.000000 1.883490 
# 
# From -- ./inp_files/2210.got.cif
#   From: 2010.06.25/outbox.cif.g09.slc.cpg/sg13_2_cif.got.tgz:2210.got - 2010.06.28 04:50:58.
