data_PCOD8119419
_publ_section_title
;
Structure prediction by ZEFSAII (Michael W. Deem and Ramdas Pophale) SiO2 
 PCOD8119419
Probable space group: P 2/C
;
_chemical_formula_sum "Si O2"
_cell_formula_units_Z 20
_cell_length_a 11.857140
_cell_length_b 4.907396
_cell_length_c 24.121814
_cell_angle_alpha 90.000000
_cell_angle_beta 40.993999
_cell_angle_gamma 90.000000
_cell_volume 920.728532
_symmetry_space_group_name_H-M "P 2/C"
_symmetry_group_IT_number 13
_symmetry_cell_setting 'monoclinic'
loop_
_space_group_symop_operation_xyz
x,y,z
-x,y,1/2-z
-x,-y,-z
x,-y,1/2+z
loop_
_atom_site_type_symbol
_atom_site_label
_atom_site_fract_x
_atom_site_fract_y
_atom_site_fract_z
Si Si1 0.558799 0.124716 0.846388
Si Si2 0.620452 0.757696 0.442056
Si Si3 0.372817 0.630393 0.749533
Si Si4 0.806100 0.002906 0.969769
Si Si5 0.994937 0.490485 0.567395
O O1 0.667408 0.233976 0.859341
O O2 0.532644 0.380173 0.815814
O O3 0.664140 0.882003 0.778078
O O4 0.374737 0.999792 0.931205
O O5 0.500000 0.500000 0.500000
O O6 0.786433 0.832607 0.418055
O O7 0.500000 0.000000 0.500000
O O8 0.500000 0.738046 0.750000
O O9 0.195870 0.527283 0.840082
O O10 0.949775 0.178935 0.946197
O O11 0.878250 0.693373 0.944859
O O12 0.000000 0.500000 0.500000
#
# Coordination Sequence:
#
# PCOD8119419 Si02
#       5
#     4   4   4   4   4
#     4  11  22  41  66  93 124 165 213 264 317 386
#     4  10  20  38  65  96 125 162 209 256 313 386
#     4  12  25  42  62  91 127 168 213 266 327 389
#     4  11  22  41  66  93 124 165 213 264 316 385
#     4  12  25  42  62  91 127 168 213 266 326 386
#
# _framework density 21.72193
#
# number of rings (size 3 to 8) (size 9 to 14) (size 15 to 20)
#    0.000    0.800    0.000   10.800    0.000    0.000 
#    0.000    6.000    0.000    0.000    0.000    0.000 
#    0.000    0.000    0.000    0.000    0.000    0.000 
#
# Total GULP energy -247794.594907 kJ/mol
# GULP energy per Si atom -12389.729745 kJ/mol
# Density = 2.167249 g / cm^3
# Si number density = 21.721930 Si / 1000 Ang^3
#
#
#
# Elastic Constant Matrix: (Units=GPa)
#
#
# Indices 1 2 3 4 5 6 
#
# 1 107.6561 28.6771 49.4156 0.0000 14.3439 0.0000
# 2 28.6771 130.1303 26.7527 0.0000 16.9718 0.0000
# 3 49.4156 26.7527 89.4588 0.0000 19.7619 0.0000
# 4 0.0000 0.0000 0.0000 44.5137 0.0000 -3.7413
# 5 14.3439 16.9718 19.7619 0.0000 30.9170 0.0000
# 6 0.0000 0.0000 0.0000 -3.7413 0.0000 43.6734
#
#
#
# Elastic Compliance Matrix: (Units=1/GPa)
#
#
# Indices 1 2 3 4 5 6 
#
# 1 0.012724 -0.001350 -0.006386 0.000000 -0.001080 0.000000
# 2 -0.001350 0.008652 -0.001084 0.000000 -0.003430 0.000000
# 3 -0.006386 -0.001084 0.016586 0.000000 -0.007044 0.000000
# 4 0.000000 0.000000 0.000000 0.022628 0.000000 0.001938
# 5 -0.001080 -0.003430 -0.007044 0.000000 0.039231 0.000000
# 6 0.000000 0.000000 0.000000 0.001938 0.000000 0.023063
#
#
# Mechanical properties :
#
#
# Convention : Reuss Voigt Hill
#
# Bulk Modulus (GPa) = 49.20788 59.65956 54.43372
# Shear Modulus (GPa) = 33.94466 38.64747 36.29607
#
# Velocity S-wave (km/s) = 3.95738 4.22262 4.09215
# Velocity P-wave (km/s) = 6.60181 7.16232 6.88777
#
# Compressibility (1/GPa) = 0.02032195
#
# Stress axis : x y z
#
# Youngs Moduli (GPa) = 78.59378 115.57502 60.29186
#
# Poissons Ratio (x) = 0.15605 0.38502
# Poissons Ratio (y) = 0.10612 0.06535
# Poissons Ratio (z) = 0.50190 0.12527
#
# Static dielectric constant tensor:
#      x y z
#    x -2.937640 0.000000 -3.352640 
#    y 0.000000 4.061200 0.000000 
#    z -3.352640 0.000000 1.879310 
# 
# 
# High freq. dielectric constant tensor:
#      x y z
#    x 1.860740 0.000000 0.015150 
#    y 0.000000 1.877110 0.000000 
#    z 0.015150 0.000000 1.835510 
# 
# From -- ./inp_files/85726.got.cif
#   From: 2010.06.25/outbox.cif.g09.slc.cpg/sg13_43_cif.got.tgz:85726.got - 2010.06.28 04:50:58.
