data_PCOD8119035
_publ_section_title
;
Structure prediction by ZEFSAII (Michael W. Deem and Ramdas Pophale) SiO2 
 PCOD8119035
Probable space group: P 2/C
;
_chemical_formula_sum "Si O2"
_cell_formula_units_Z 30
_cell_length_a 22.609503
_cell_length_b 12.140207
_cell_length_c 8.857428
_cell_angle_alpha 90.000000
_cell_angle_beta 41.150366
_cell_angle_gamma 90.000000
_cell_volume 1599.835484
_symmetry_space_group_name_H-M "P 2/C"
_symmetry_group_IT_number 13
_symmetry_cell_setting 'monoclinic'
loop_
_space_group_symop_operation_xyz
x,y,z
-x,y,1/2-z
-x,-y,-z
x,-y,1/2+z
loop_
_atom_site_type_symbol
_atom_site_label
_atom_site_fract_x
_atom_site_fract_y
_atom_site_fract_z
Si Si1 0.213873 0.479928 0.183764
Si Si2 0.620901 0.585249 0.777230
Si Si3 0.500000 0.534372 0.750000
Si Si4 0.870940 0.297489 0.678891
Si Si5 0.042905 0.656955 0.012842
Si Si6 0.106776 0.910831 0.559772
Si Si7 0.250848 0.716597 0.815519
Si Si8 0.846532 0.867873 0.691018
O O1 0.184260 0.602681 0.289904
O O2 0.125511 0.416290 0.287594
O O3 0.244811 0.409230 0.266989
O O4 0.298542 0.495925 0.907992
O O5 0.565429 0.607867 0.729268
O O6 0.658447 0.706500 0.758512
O O7 0.557426 0.542622 0.030715
O O8 0.858422 0.194531 0.595306
O O9 0.973758 0.335511 0.506587
O O10 0.834273 0.261550 0.913508
O O11 0.000000 0.606436 0.250000
O O12 0.074777 0.780475 0.992028
O O13 0.149840 0.900936 0.641949
O O14 0.000000 0.916221 0.750000
O O15 0.145392 0.022741 0.420625
O O16 0.246699 0.807165 0.688109
#
# Coordination Sequence:
#
# PCOD8119035 Si02
#       8
#     4   4   2   4   4   4   4   4
#     4  10  21  33  56  78 122 157 191 240 279 340
#     4  10  20  38  56  91 115 162 181 233 286 354
#     4  10  20  36  64  84 122 152 190 214 290 376
#     4  11  22  36  51  79 110 161 208 241 285 332
#     4  11  20  36  53  75 110 165 206 243 287 329
#     4  12  24  36  55  76 107 150 215 268 285 329
#     4  10  21  40  56  78 119 154 188 246 285 341
#     4  11  23  38  55  74 105 152 200 258 301 324
#
# _framework density 18.751927999999999
#
# number of rings (size 3 to 8) (size 9 to 14) (size 15 to 20)
#    0.000    1.333    5.333    2.000    0.000    4.800 
#    0.000    0.000    0.000    0.000    0.000    0.000 
#    0.000   28.800    0.000    0.533    0.000    0.000 
#
# Total GULP energy -371647.757848 kJ/mol
# GULP energy per Si atom -12388.258595 kJ/mol
# Density = 1.870925 g / cm^3
# Si number density = 18.751928 Si / 1000 Ang^3
#
#
#
# Elastic Constant Matrix: (Units=GPa)
#
#
# Indices 1 2 3 4 5 6 
#
# 1 140.1272 58.7833 48.9146 0.0000 11.3037 0.0000
# 2 58.7833 120.2000 39.0919 0.0000 8.2877 0.0000
# 3 48.9146 39.0919 87.6902 0.0000 3.9190 0.0000
# 4 0.0000 0.0000 0.0000 19.2483 0.0000 8.3840
# 5 11.3037 8.2877 3.9190 0.0000 30.1188 0.0000
# 6 0.0000 0.0000 0.0000 8.3840 0.0000 24.6301
#
#
#
# Elastic Compliance Matrix: (Units=1/GPa)
#
#
# Indices 1 2 3 4 5 6 
#
# 1 0.010205 -0.003523 -0.004018 0.000000 -0.002338 0.000000
# 2 -0.003523 0.011084 -0.002916 0.000000 -0.001348 0.000000
# 3 -0.004018 -0.002916 0.014928 0.000000 0.000368 0.000000
# 4 0.000000 0.000000 0.000000 0.060996 0.000000 -0.020763
# 5 -0.002338 -0.001348 0.000368 0.000000 0.034402 0.000000
# 6 0.000000 0.000000 0.000000 -0.020763 0.000000 0.047668
#
#
# Mechanical properties :
#
#
# Convention : Reuss Voigt Hill
#
# Bulk Modulus (GPa) = 65.33966 71.28855 68.31410
# Shear Modulus (GPa) = 24.35484 28.21462 26.28473
#
# Velocity S-wave (km/s) = 3.60778 3.88316 3.74800
# Velocity P-wave (km/s) = 7.23012 7.62918 7.43233
#
# Compressibility (1/GPa) = 0.01530464
#
# Stress axis : x y z
#
# Youngs Moduli (GPa) = 97.98810 90.22363 66.98751
#
# Poissons Ratio (x) = 0.31786 0.26913
# Poissons Ratio (y) = 0.34522 0.19531
# Poissons Ratio (z) = 0.39368 0.26305
#
# Static dielectric constant tensor:
#      x y z
#    x 3.873220 0.000000 -0.045340 
#    y 0.000000 13.109260 0.000000 
#    z -0.045340 0.000000 3.397790 
# 
# 
# High freq. dielectric constant tensor:
#      x y z
#    x 1.739650 0.000000 0.018200 
#    y 0.000000 1.706400 0.000000 
#    z 0.018200 0.000000 1.707410 
# 
# From -- ./inp_files/24137.got.cif
#   From: 2010.06.25/outbox.cif.g09.slc.cpg/sg13_13_cif.got.tgz:24137.got - 2010.06.28 04:50:58.
