data_PCOD8119873
_publ_section_title
;
Structure prediction by ZEFSAII (Michael W. Deem and Ramdas Pophale) SiO2 
 PCOD8119873
Probable space group: P 2/C
;
_chemical_formula_sum "Si O2"
_cell_formula_units_Z 18
_cell_length_a 20.979476
_cell_length_b 8.422054
_cell_length_c 9.030323
_cell_angle_alpha 90.000000
_cell_angle_beta 28.331758
_cell_angle_gamma 90.000000
_cell_volume 757.219638
_symmetry_space_group_name_H-M "P 2/C"
_symmetry_group_IT_number 13
_symmetry_cell_setting 'monoclinic'
loop_
_space_group_symop_operation_xyz
x,y,z
-x,y,1/2-z
-x,-y,-z
x,-y,1/2+z
loop_
_atom_site_type_symbol
_atom_site_label
_atom_site_fract_x
_atom_site_fract_y
_atom_site_fract_z
Si Si1 0.500000 0.522266 0.750000
Si Si2 0.764685 0.219303 0.993593
Si Si3 0.072402 0.790256 0.855279
Si Si4 0.817683 0.987797 0.130710
Si Si5 0.321491 0.431342 0.864220
O O1 0.401853 0.409033 0.852969
O O2 0.591433 0.633701 0.453948
O O3 0.722381 0.114035 0.936272
O O4 0.921250 0.272900 0.664720
O O5 0.682135 0.380182 0.162572
O O6 0.734747 0.115306 0.202642
O O7 0.103744 0.864589 0.632664
O O8 0.176700 0.648470 0.675118
O O9 0.078308 0.922765 0.971764
#
# Coordination Sequence:
#
# PCOD8119873 Si02
#       5
#     2   4   4   4   4
#     4  10  24  42  58  80 112 158 196 242 292 318
#     4  11  20  36  60  92 119 148 183 233 290 347
#     4  11  20  36  60  92 119 148 183 233 290 347
#     4  10  21  34  56  89 130 153 170 218 303 362
#     4  11  23  40  64  82 111 151 204 242 274 335
#
# _framework density 23.771177000000002
#
# number of rings (size 3 to 8) (size 9 to 14) (size 15 to 20)
#    0.000    1.333    0.000    8.667    0.000    0.000 
#    0.000    6.667    0.000   93.333    0.000    0.000 
#    0.000    0.000    0.000    0.000    0.000    0.000 
#
# Total GULP energy -223098.665742 kJ/mol
# GULP energy per Si atom -12394.370319 kJ/mol
# Density = 2.371707 g / cm^3
# Si number density = 23.771177 Si / 1000 Ang^3
#
#
#
# Elastic Constant Matrix: (Units=GPa)
#
#
# Indices 1 2 3 4 5 6 
#
# 1 151.9927 38.2835 28.7828 0.0000 24.3226 0.0000
# 2 38.2835 76.0253 4.5549 0.0000 -14.2170 0.0000
# 3 28.7828 4.5549 43.6800 0.0000 -2.2558 0.0000
# 4 0.0000 0.0000 0.0000 14.4749 0.0000 -2.1967
# 5 24.3226 -14.2170 -2.2558 0.0000 36.2799 0.0000
# 6 0.0000 0.0000 0.0000 -2.1967 0.0000 12.5546
#
#
#
# Elastic Compliance Matrix: (Units=1/GPa)
#
#
# Indices 1 2 3 4 5 6 
#
# 1 0.011709 -0.007555 -0.007510 0.000000 -0.011278 0.000000
# 2 -0.007555 0.019131 0.003644 0.000000 0.012789 0.000000
# 3 -0.007510 0.003644 0.027886 0.000000 0.008197 0.000000
# 4 0.000000 0.000000 0.000000 0.070970 0.000000 0.012418
# 5 -0.011278 0.012789 0.008197 0.000000 0.040645 0.000000
# 6 0.000000 0.000000 0.000000 0.012418 0.000000 0.081825
#
#
# Mechanical properties :
#
#
# Convention : Reuss Voigt Hill
#
# Bulk Modulus (GPa) = 27.86812 46.10449 36.98630
# Shear Modulus (GPa) = 17.42337 26.00034 21.71185
#
# Velocity S-wave (km/s) = 2.71026 3.31082 3.02548
# Velocity P-wave (km/s) = 4.64144 5.83546 5.27236
#
# Compressibility (1/GPa) = 0.03588329
#
# Stress axis : x y z
#
# Youngs Moduli (GPa) = 85.40285 52.27033 35.86032
#
# Poissons Ratio (x) = 0.39492 0.26932
# Poissons Ratio (y) = 0.64525 -0.13068
# Poissons Ratio (z) = 0.64140 -0.19047
#
# Static dielectric constant tensor:
#      x y z
#    x 4.606660 0.000000 0.384390 
#    y 0.000000 4.026360 0.000000 
#    z 0.384390 0.000000 4.090340 
# 
# 
# High freq. dielectric constant tensor:
#      x y z
#    x 1.964570 0.000000 0.026590 
#    y 0.000000 1.913710 0.000000 
#    z 0.026590 0.000000 1.928290 
# 
# From -- ./inp_files/14485.got.cif
#   From: 2010.06.25/outbox.cif.g09.slc.cpg/sg13_8_cif.got.tgz:14485.got - 2010.06.28 04:50:58.
