data_PCOD8119719
_publ_section_title
;
Structure prediction by ZEFSAII (Michael W. Deem and Ramdas Pophale) SiO2 
 PCOD8119719
Probable space group: P 2/C
;
_chemical_formula_sum "Si O2"
_cell_formula_units_Z 28
_cell_length_a 8.142168
_cell_length_b 16.874306
_cell_length_c 18.462952
_cell_angle_alpha 90.000000
_cell_angle_beta 148.796805
_cell_angle_gamma 90.000000
_cell_volume 1314.194090
_symmetry_space_group_name_H-M "P 2/C"
_symmetry_group_IT_number 13
_symmetry_cell_setting 'monoclinic'
loop_
_space_group_symop_operation_xyz
x,y,z
-x,y,1/2-z
-x,-y,-z
x,-y,1/2+z
loop_
_atom_site_type_symbol
_atom_site_label
_atom_site_fract_x
_atom_site_fract_y
_atom_site_fract_z
Si Si1 0.871312 0.113462 0.389342
Si Si2 0.889829 0.207554 0.789171
Si Si3 0.225959 0.616681 0.701620
Si Si4 0.735041 0.738281 0.502766
Si Si5 0.848105 0.468542 0.618950
Si Si6 0.855289 0.940782 0.361069
Si Si7 0.590730 0.687229 0.970020
O O1 0.500000 0.134246 0.250000
O O2 0.063008 0.180427 0.417672
O O3 0.958576 0.105992 0.506532
O O4 0.976085 0.030050 0.390614
O O5 0.543453 0.249003 0.661718
O O6 0.869385 0.113595 0.795186
O O7 0.000000 0.222123 0.750000
O O8 0.142946 0.244865 0.941228
O O9 0.500000 0.592837 0.750000
O O10 0.350423 0.674419 0.812946
O O11 0.959701 0.667495 0.558827
O O12 0.078506 0.534815 0.673393
O O13 0.613000 0.710013 0.535801
O O14 0.500000 0.500000 0.500000
O O15 0.806010 0.391865 0.553826
O O16 0.000000 0.437502 0.750000
O O17 0.500000 0.954017 0.250000
#
# Coordination Sequence:
#
# PCOD8119719 Si02
#       7
#     4   4   4   4   4   4   4
#     4  10  22  37  66  97 128 174 214 267 329 396
#     4  10  23  40  64  93 126 168 223 269 318 393
#     4  12  27  43  65 100 136 167 220 277 328 394
#     4  11  21  42  65  94 128 170 219 266 325 392
#     4  12  22  46  73  92 129 180 217 264 332 397
#     4  10  20  41  64  89 132 174 216 264 334 386
#     4  11  25  44  68  94 128 175 218 269 329 394
#
# _framework density 21.305831999999999
#
# number of rings (size 3 to 8) (size 9 to 14) (size 15 to 20)
#    0.000    1.143    4.286    2.143    4.000    0.571 
#    0.000    5.000    0.000    0.000    0.000    0.000 
#    0.000    0.000    0.000    0.000    0.000    0.000 
#
# Total GULP energy -347010.868189 kJ/mol
# GULP energy per Si atom -12393.245292 kJ/mol
# Density = 2.125734 g / cm^3
# Si number density = 21.305832 Si / 1000 Ang^3
#
#
#
# Elastic Constant Matrix: (Units=GPa)
#
#
# Indices 1 2 3 4 5 6 
#
# 1 62.3523 40.5046 30.9242 0.0000 19.3468 0.0000
# 2 40.5046 131.6764 24.0252 0.0000 12.8614 0.0000
# 3 30.9242 24.0252 98.2086 0.0000 12.7861 0.0000
# 4 0.0000 0.0000 0.0000 43.3134 0.0000 6.6415
# 5 19.3468 12.8614 12.7861 0.0000 24.7191 0.0000
# 6 0.0000 0.0000 0.0000 6.6415 0.0000 34.1276
#
#
#
# Elastic Compliance Matrix: (Units=1/GPa)
#
#
# Indices 1 2 3 4 5 6 
#
# 1 0.027266 -0.005931 -0.005102 0.000000 -0.015616 0.000000
# 2 -0.005931 0.009508 -0.000449 0.000000 -0.000073 0.000000
# 3 -0.005102 -0.000449 0.012168 0.000000 -0.002067 0.000000
# 4 0.000000 0.000000 0.000000 0.023798 0.000000 -0.004631
# 5 -0.015616 -0.000073 -0.002067 0.000000 0.053784 0.000000
# 6 0.000000 0.000000 0.000000 -0.004631 0.000000 0.030203
#
#
# Mechanical properties :
#
#
# Convention : Reuss Voigt Hill
#
# Bulk Modulus (GPa) = 38.49336 53.68280 46.08808
# Shear Modulus (GPa) = 26.54638 33.55090 30.04864
#
# Velocity S-wave (km/s) = 3.53366 3.97259 3.75953
# Velocity P-wave (km/s) = 5.89536 6.80389 6.36585
#
# Compressibility (1/GPa) = 0.02597851
#
# Stress axis : x y z
#
# Youngs Moduli (GPa) = 36.67516 105.17622 82.18405
#
# Poissons Ratio (x) = 0.62383 0.41928
# Poissons Ratio (y) = 0.21753 0.03689
# Poissons Ratio (z) = 0.18711 0.04721
#
# Static dielectric constant tensor:
#      x y z
#    x 3.500190 0.000000 0.184050 
#    y 0.000000 6.479900 0.000000 
#    z 0.184050 0.000000 4.363480 
# 
# 
# High freq. dielectric constant tensor:
#      x y z
#    x 1.797990 0.000000 0.015460 
#    y 0.000000 1.850790 0.000000 
#    z 0.015460 0.000000 1.860460 
# 
# From -- ./inp_files/76777.got.cif
#   From: 2010.06.25/outbox.cif.g09.slc.cpg/sg13_39_cif.got.tgz:76777.got - 2010.06.28 04:50:58.
