data_PCOD8119590
_publ_section_title
;
Structure prediction by ZEFSAII (Michael W. Deem and Ramdas Pophale) SiO2 
 PCOD8119590
Probable space group: P 2/C
;
_chemical_formula_sum "Si O2"
_cell_formula_units_Z 24
_cell_length_a 21.979295
_cell_length_b 10.384516
_cell_length_c 15.879641
_cell_angle_alpha 90.000000
_cell_angle_beta 160.544847
_cell_angle_gamma 90.000000
_cell_volume 1207.187733
_symmetry_space_group_name_H-M "P 2/C"
_symmetry_group_IT_number 13
_symmetry_cell_setting 'monoclinic'
loop_
_space_group_symop_operation_xyz
x,y,z
-x,y,1/2-z
-x,-y,-z
x,-y,1/2+z
loop_
_atom_site_type_symbol
_atom_site_label
_atom_site_fract_x
_atom_site_fract_y
_atom_site_fract_z
Si Si1 0.989836 0.631248 0.036627
Si Si2 0.199695 0.679885 0.547346
Si Si3 0.835309 0.243677 0.185460
Si Si4 0.000000 0.899536 0.750000
Si Si5 0.500000 0.057248 0.750000
Si Si6 0.307065 0.472712 0.039727
Si Si7 0.626930 0.949762 0.741639
O O1 0.823953 0.632102 0.887392
O O2 0.956945 0.748015 0.929014
O O3 0.000000 0.500000 0.000000
O O4 0.182997 0.640365 0.336107
O O5 0.298252 0.561121 0.627348
O O6 0.338794 0.798949 0.726216
O O7 0.000000 0.716436 0.250000
O O8 0.966581 0.192370 0.285079
O O9 0.672261 0.147270 0.992248
O O10 0.761875 0.383144 0.063274
O O11 0.823826 0.982837 0.497103
O O12 0.530186 0.971205 0.706022
O O13 0.500000 0.455414 0.250000
O O14 0.500000 0.000000 0.500000
#
# Coordination Sequence:
#
# PCOD8119590 Si02
#       7
#     4   4   4   2   2   4   4
#     4   9  20  36  59  86 117 157 200 244 307 376
#     4  10  21  39  60  85 127 158 203 256 310 374
#     4  10  20  40  60  86 123 152 212 247 319 360
#     4  10  24  40  64  90 118 172 206 258 308 388
#     4  10  22  40  64  90 122 164 204 270 302 388
#     4  10  21  36  60  89 120 158 197 259 312 365
#     4  11  23  43  64  91 128 165 216 259 319 365
#
# _framework density 19.880917
#
# number of rings (size 3 to 8) (size 9 to 14) (size 15 to 20)
#    0.000    2.000    1.667    1.000    7.000    1.333 
#    3.000    5.833    0.000    0.000    0.000    0.000 
#    0.000    0.000    0.000    0.000    0.000    0.000 
#
# Total GULP energy -297485.837194 kJ/mol
# GULP energy per Si atom -12395.243216 kJ/mol
# Density = 1.983567 g / cm^3
# Si number density = 19.880917 Si / 1000 Ang^3
#
#
#
# Elastic Constant Matrix: (Units=GPa)
#
#
# Indices 1 2 3 4 5 6 
#
# 1 183.2428 67.2844 51.2149 0.0000 9.7882 0.0000
# 2 67.2844 84.7159 30.4454 0.0000 8.8367 0.0000
# 3 51.2149 30.4454 65.6755 0.0000 7.3389 0.0000
# 4 0.0000 0.0000 0.0000 29.9813 0.0000 2.9485
# 5 9.7882 8.8367 7.3389 0.0000 32.0777 0.0000
# 6 0.0000 0.0000 0.0000 2.9485 0.0000 35.7701
#
#
#
# Elastic Compliance Matrix: (Units=1/GPa)
#
#
# Indices 1 2 3 4 5 6 
#
# 1 0.008589 -0.005282 -0.004227 0.000000 -0.000199 0.000000
# 2 -0.005282 0.017604 -0.003777 0.000000 -0.002374 0.000000
# 3 -0.004227 -0.003777 0.020538 0.000000 -0.002369 0.000000
# 4 0.000000 0.000000 0.000000 0.033627 0.000000 -0.002772
# 5 -0.000199 -0.002374 -0.002369 0.000000 0.032431 0.000000
# 6 0.000000 0.000000 0.000000 -0.002772 0.000000 0.028185
#
#
# Mechanical properties :
#
#
# Convention : Reuss Voigt Hill
#
# Bulk Modulus (GPa) = 49.60310 70.16930 59.88620
# Shear Modulus (GPa) = 28.69221 31.87846 30.28534
#
# Velocity S-wave (km/s) = 3.80307 4.00868 3.90723
# Velocity P-wave (km/s) = 6.65498 7.53641 7.10937
#
# Compressibility (1/GPa) = 0.02016003
#
# Stress axis : x y z
#
# Youngs Moduli (GPa) = 116.43404 56.80575 48.68993
#
# Poissons Ratio (x) = 0.30002 0.20581
# Poissons Ratio (y) = 0.61495 0.18389
# Poissons Ratio (z) = 0.49216 0.21454
#
# Static dielectric constant tensor:
#      x y z
#    x 4.199540 0.000000 -0.302370 
#    y 0.000000 3.588370 0.000000 
#    z -0.302370 0.000000 3.908460 
# 
# 
# High freq. dielectric constant tensor:
#      x y z
#    x 1.799070 0.000000 0.001690 
#    y 0.000000 1.767930 0.000000 
#    z 0.001690 0.000000 1.768220 
# 
# From -- ./inp_files/53596.got.cif
#   From: 2010.06.25/outbox.cif.g09.slc.cpg/sg13_27_cif.got.tgz:53596.got - 2010.06.28 04:50:58.
