data_PCOD8119778
_publ_section_title
;
Structure prediction by ZEFSAII (Michael W. Deem and Ramdas Pophale) SiO2 
 PCOD8119778
Probable space group: P 2/C
;
_chemical_formula_sum "Si O2"
_cell_formula_units_Z 22
_cell_length_a 16.323832
_cell_length_b 8.598994
_cell_length_c 13.823791
_cell_angle_alpha 90.000000
_cell_angle_beta 146.376192
_cell_angle_gamma 90.000000
_cell_volume 1074.486438
_symmetry_space_group_name_H-M "P 2/C"
_symmetry_group_IT_number 13
_symmetry_cell_setting 'monoclinic'
loop_
_space_group_symop_operation_xyz
x,y,z
-x,y,1/2-z
-x,-y,-z
x,-y,1/2+z
loop_
_atom_site_type_symbol
_atom_site_label
_atom_site_fract_x
_atom_site_fract_y
_atom_site_fract_z
Si Si1 0.962629 0.590211 0.061002
Si Si2 0.233207 0.466138 0.959670
Si Si3 0.500000 0.237943 0.250000
Si Si4 0.613527 0.961567 0.254296
Si Si5 0.321727 0.195972 0.487658
Si Si6 0.854957 0.902111 0.865301
O O1 0.842624 0.500642 0.010180
O O2 0.114442 0.605753 0.268981
O O3 0.888748 0.756773 0.967659
O O4 0.000000 0.500000 0.000000
O O5 0.308089 0.622992 0.996429
O O6 0.359742 0.339830 0.087127
O O7 0.536855 0.129071 0.194469
O O8 0.697278 0.906310 0.434171
O O9 0.730408 0.981118 0.283969
O O10 0.484727 0.836455 0.101490
O O11 0.191483 0.153288 0.286462
O O12 0.000000 0.000000 0.000000
#
# Coordination Sequence:
#
# PCOD8119778 Si02
#       6
#     4   4   2   4   4   4
#     4  11  25  44  63 102 132 172 223 271 332 403
#     4  11  23  43  72  91 139 173 221 275 335 394
#     4  10  20  42  66  94 124 176 216 274 328 388
#     4  10  24  44  65  95 137 166 228 271 331 391
#     4  10  23  44  67  98 128 177 216 274 332 391
#     4  12  26  42  69  97 134 174 224 273 332 398
#
# _framework density 20.474899000000001
#
# number of rings (size 3 to 8) (size 9 to 14) (size 15 to 20)
#    0.000    1.455    3.636    1.636    7.636    0.727 
#    0.000    1.818    0.000    0.000    0.000    0.000 
#    0.000    0.000    0.000    0.000    0.000    0.000 
#
# Total GULP energy -272793.870086 kJ/mol
# GULP energy per Si atom -12399.721368 kJ/mol
# Density = 2.042830 g / cm^3
# Si number density = 20.474899 Si / 1000 Ang^3
#
#
#
# Elastic Constant Matrix: (Units=GPa)
#
#
# Indices 1 2 3 4 5 6 
#
# 1 91.4339 36.8123 55.4016 0.0000 11.4855 0.0000
# 2 36.8123 110.2315 66.7306 0.0000 11.6432 0.0000
# 3 55.4016 66.7306 137.9251 0.0000 7.4921 0.0000
# 4 0.0000 0.0000 0.0000 42.8410 0.0000 8.0484
# 5 11.4855 11.6432 7.4921 0.0000 36.1397 0.0000
# 6 0.0000 0.0000 0.0000 8.0484 0.0000 23.6645
#
#
#
# Elastic Compliance Matrix: (Units=1/GPa)
#
#
# Indices 1 2 3 4 5 6 
#
# 1 0.015081 -0.001605 -0.005106 0.000000 -0.003217 0.000000
# 2 -0.001605 0.013303 -0.005650 0.000000 -0.002604 0.000000
# 3 -0.005106 -0.005650 0.011983 0.000000 0.000959 0.000000
# 4 0.000000 0.000000 0.000000 0.024935 0.000000 -0.008481
# 5 -0.003217 -0.002604 0.000959 0.000000 0.029333 0.000000
# 6 0.000000 0.000000 0.000000 -0.008481 0.000000 0.045142
#
#
# Mechanical properties :
#
#
# Convention : Reuss Voigt Hill
#
# Bulk Modulus (GPa) = 63.92240 73.05328 68.48784
# Shear Modulus (GPa) = 29.46089 32.57210 31.01650
#
# Velocity S-wave (km/s) = 3.79737 3.99285 3.89634
# Velocity P-wave (km/s) = 7.10735 7.55076 7.33241
#
# Compressibility (1/GPa) = 0.01564397
#
# Stress axis : x y z
#
# Youngs Moduli (GPa) = 66.30671 75.16857 83.45188
#
# Poissons Ratio (x) = 0.12068 0.42614
# Poissons Ratio (y) = 0.10645 0.47151
# Poissons Ratio (z) = 0.33859 0.42471
#
# Static dielectric constant tensor:
#      x y z
#    x 3.814900 0.000000 0.013900 
#    y 0.000000 4.121010 0.000000 
#    z 0.013900 0.000000 3.979900 
# 
# 
# High freq. dielectric constant tensor:
#      x y z
#    x 1.799100 0.000000 0.005790 
#    y 0.000000 1.802640 0.000000 
#    z 0.005790 0.000000 1.813080 
# 
# From -- ./inp_files/55122.got.cif
#   From: 2010.06.25/outbox.cif.g09.slc.cpg/sg13_28_cif.got.tgz:55122.got - 2010.06.28 04:50:58.
