data_PCOD8119431
_publ_section_title
;
Structure prediction by ZEFSAII (Michael W. Deem and Ramdas Pophale) SiO2 
 PCOD8119431
Probable space group: P 2/C
;
_chemical_formula_sum "Si O2"
_cell_formula_units_Z 20
_cell_length_a 15.787567
_cell_length_b 5.155621
_cell_length_c 18.818401
_cell_angle_alpha 90.000000
_cell_angle_beta 144.387845
_cell_angle_gamma 90.000000
_cell_volume 891.912617
_symmetry_space_group_name_H-M "P 2/C"
_symmetry_group_IT_number 13
_symmetry_cell_setting 'monoclinic'
loop_
_space_group_symop_operation_xyz
x,y,z
-x,y,1/2-z
-x,-y,-z
x,-y,1/2+z
loop_
_atom_site_type_symbol
_atom_site_label
_atom_site_fract_x
_atom_site_fract_y
_atom_site_fract_z
Si Si1 0.844082 0.398533 0.872119
Si Si2 0.390998 0.666276 0.864302
Si Si3 0.731493 0.827807 0.163515
Si Si4 0.669337 0.781381 0.383825
Si Si5 0.313348 0.718768 0.514314
O O1 0.740929 0.641180 0.782990
O O2 0.854894 0.215640 0.808091
O O3 0.769461 0.232346 0.882974
O O4 0.000000 0.500000 0.000000
O O5 0.400326 0.386576 0.912626
O O6 0.526127 0.744508 0.908577
O O7 0.343273 0.892127 0.885902
O O8 0.794122 0.772378 0.126731
O O9 0.500000 0.745754 0.250000
O O10 0.717093 0.559997 0.472265
O O11 0.705060 0.062149 0.439309
#
# Coordination Sequence:
#
# PCOD8119431 Si02
#       5
#     4   4   4   4   4
#     4  10  25  44  67  92 133 178 223 252 325 399
#     4  10  20  38  66  92 128 162 217 257 323 381
#     4  10  22  39  64  96 127 171 212 264 321 391
#     4  12  24  40  65 100 129 164 211 279 325 374
#     4  12  22  39  66  98 131 158 214 274 330 368
#
# _framework density 22.423721
#
# number of rings (size 3 to 8) (size 9 to 14) (size 15 to 20)
#    1.200    0.000    2.000    5.400    2.800    0.800 
#    0.000    1.000    0.000    0.000    0.000    0.000 
#    0.000    0.000    0.000    0.000    0.000    0.000 
#
# Total GULP energy -247889.890849 kJ/mol
# GULP energy per Si atom -12394.494542 kJ/mol
# Density = 2.237268 g / cm^3
# Si number density = 22.423721 Si / 1000 Ang^3
#
#
#
# Elastic Constant Matrix: (Units=GPa)
#
#
# Indices 1 2 3 4 5 6 
#
# 1 62.7778 3.1567 47.9833 0.0000 -14.8426 0.0000
# 2 3.1567 110.5452 16.1664 0.0000 -9.9481 0.0000
# 3 47.9833 16.1664 81.6976 0.0000 -23.2994 0.0000
# 4 0.0000 0.0000 0.0000 28.4038 0.0000 -19.2654
# 5 -14.8426 -9.9481 -23.2994 0.0000 35.8442 0.0000
# 6 0.0000 0.0000 0.0000 -19.2654 0.0000 29.3763
#
#
#
# Elastic Compliance Matrix: (Units=1/GPa)
#
#
# Indices 1 2 3 4 5 6 
#
# 1 0.029286 0.001803 -0.017132 0.000000 0.001491 0.000000
# 2 0.001803 0.009512 -0.002425 0.000000 0.001810 0.000000
# 3 -0.017132 -0.002425 0.025247 0.000000 0.008644 0.000000
# 4 0.000000 0.000000 0.000000 0.063415 0.000000 0.041588
# 5 0.001491 0.001810 0.008644 0.000000 0.034637 0.000000
# 6 0.000000 0.000000 0.000000 0.041588 0.000000 0.061315
#
#
# Mechanical properties :
#
#
# Convention : Reuss Voigt Hill
#
# Bulk Modulus (GPa) = 35.04112 43.29259 39.16685
# Shear Modulus (GPa) = 18.62669 31.23914 24.93291
#
# Velocity S-wave (km/s) = 2.88526 3.73651 3.33813
# Velocity P-wave (km/s) = 5.17304 6.16148 5.68877
#
# Compressibility (1/GPa) = 0.02853790
#
# Stress axis : x y z
#
# Youngs Moduli (GPa) = 34.14659 105.12870 39.60814
#
# Poissons Ratio (x) = -0.18958 0.67856
# Poissons Ratio (y) = -0.06158 0.09605
# Poissons Ratio (z) = 0.58499 0.25495
#
# Static dielectric constant tensor:
#      x y z
#    x 3.339590 0.000000 -0.643590 
#    y 0.000000 3.985050 0.000000 
#    z -0.643590 0.000000 4.382860 
# 
# 
# High freq. dielectric constant tensor:
#      x y z
#    x 1.850760 0.000000 -0.039320 
#    y 0.000000 1.892740 0.000000 
#    z -0.039320 0.000000 1.893520 
# 
# From -- ./inp_files/69077.got.cif
#   From: 2010.06.25/outbox.cif.g09.slc.cpg/sg13_35_cif.got.tgz:69077.got - 2010.06.28 04:50:58.
