data_PCOD8119485
_publ_section_title
;
Structure prediction by ZEFSAII (Michael W. Deem and Ramdas Pophale) SiO2 
 PCOD8119485
Probable space group: P 2/C
;
_chemical_formula_sum "Si O2"
_cell_formula_units_Z 24
_cell_length_a 21.886607
_cell_length_b 7.421756
_cell_length_c 9.050556
_cell_angle_alpha 90.000000
_cell_angle_beta 46.928740
_cell_angle_gamma 90.000000
_cell_volume 1073.948652
_symmetry_space_group_name_H-M "P 2/C"
_symmetry_group_IT_number 13
_symmetry_cell_setting 'monoclinic'
loop_
_space_group_symop_operation_xyz
x,y,z
-x,y,1/2-z
-x,-y,-z
x,-y,1/2+z
loop_
_atom_site_type_symbol
_atom_site_label
_atom_site_fract_x
_atom_site_fract_y
_atom_site_fract_z
Si Si1 0.544915 0.241155 0.521706
Si Si2 0.164426 0.402344 0.358327
Si Si3 0.256232 0.226978 0.671126
Si Si4 0.941638 0.567627 0.727477
Si Si5 0.723137 0.114535 0.188995
Si Si6 0.569114 0.634625 0.519734
O O1 0.500000 0.204582 0.750000
O O2 0.622279 0.104526 0.372647
O O3 0.586186 0.438606 0.419137
O O4 0.469118 0.216061 0.529270
O O5 0.192042 0.610734 0.298087
O O6 0.097881 0.406224 0.604901
O O7 0.129790 0.333411 0.253725
O O8 0.242155 0.275309 0.265634
O O9 0.246301 0.140752 0.527207
O O10 0.350367 0.293184 0.532190
O O11 0.237163 0.074079 0.823747
O O12 0.000000 0.681609 0.750000
O O13 0.000000 0.500000 0.500000
O O14 0.500000 0.582749 0.750000
#
# Coordination Sequence:
#
# PCOD8119485 Si02
#       6
#     4   4   4   4   4   4
#     4  10  22  37  63  88 122 175 226 281 333 379
#     4  11  22  44  73  95 139 172 209 272 324 385
#     4  12  27  41  65  97 133 178 227 271 330 387
#     4   9  20  40  74 108 125 170 216 251 322 402
#     4  12  27  42  63  99 132 177 227 270 331 390
#     4  10  20  39  61  85 125 174 228 277 329 380
#
# _framework density 22.347435999999998
#
# number of rings (size 3 to 8) (size 9 to 14) (size 15 to 20)
#    0.000    1.333    5.000    0.000    4.667    1.333 
#    0.000    0.000    0.000   20.000    0.000    0.000 
#    0.000    0.000    0.000    0.000    0.000    0.000 
#
# Total GULP energy -297313.872030 kJ/mol
# GULP energy per Si atom -12388.078001 kJ/mol
# Density = 2.229657 g / cm^3
# Si number density = 22.347436 Si / 1000 Ang^3
#
#
#
# Elastic Constant Matrix: (Units=GPa)
#
#
# Indices 1 2 3 4 5 6 
#
# 1 158.3486 29.3852 30.9125 0.0000 19.2181 0.0000
# 2 29.3852 76.1735 24.3909 0.0000 -0.3732 0.0000
# 3 30.9125 24.3909 82.0049 0.0000 6.7680 0.0000
# 4 0.0000 0.0000 0.0000 27.3059 0.0000 8.9253
# 5 19.2181 -0.3732 6.7680 0.0000 35.0916 0.0000
# 6 0.0000 0.0000 0.0000 8.9253 0.0000 16.5265
#
#
#
# Elastic Compliance Matrix: (Units=1/GPa)
#
#
# Indices 1 2 3 4 5 6 
#
# 1 0.007574 -0.002351 -0.001841 0.000000 -0.003818 0.000000
# 2 -0.002351 0.015274 -0.003838 0.000000 0.002190 0.000000
# 3 -0.001841 -0.003838 0.014176 0.000000 -0.001767 0.000000
# 4 0.000000 0.000000 0.000000 0.044473 0.000000 -0.024018
# 5 -0.003818 0.002190 -0.001767 0.000000 0.030952 0.000000
# 6 0.000000 0.000000 0.000000 -0.024018 0.000000 0.073480
#
#
# Mechanical properties :
#
#
# Convention : Reuss Voigt Hill
#
# Bulk Modulus (GPa) = 47.69813 53.98935 50.84374
# Shear Modulus (GPa) = 23.92615 31.24068 27.58342
#
# Velocity S-wave (km/s) = 3.27562 3.74298 3.51707
# Velocity P-wave (km/s) = 5.97465 6.54915 6.26849
#
# Compressibility (1/GPa) = 0.02096518
#
# Stress axis : x y z
#
# Youngs Moduli (GPa) = 132.02674 65.46870 70.54414
#
# Poissons Ratio (x) = 0.15393 0.12985
# Poissons Ratio (y) = 0.31042 0.27072
# Poissons Ratio (z) = 0.24303 0.25124
#
# Static dielectric constant tensor:
#      x y z
#    x 5.799040 0.000000 0.043930 
#    y 0.000000 3.673150 0.000000 
#    z 0.043930 0.000000 3.942980 
# 
# 
# High freq. dielectric constant tensor:
#      x y z
#    x 1.909460 0.000000 0.011010 
#    y 0.000000 1.835360 0.000000 
#    z 0.011010 0.000000 1.880530 
# 
# From -- ./inp_files/22703.got.cif
#   From: 2010.06.25/outbox.cif.g09.slc.cpg/sg13_12_cif.got.tgz:22703.got - 2010.06.28 04:50:58.
