data_PCOD8119424
_publ_section_title
;
Structure prediction by ZEFSAII (Michael W. Deem and Ramdas Pophale) SiO2 
 PCOD8119424
Probable space group: P 2/C
;
_chemical_formula_sum "Si O2"
_cell_formula_units_Z 32
_cell_length_a 13.224780
_cell_length_b 9.775630
_cell_length_c 19.382350
_cell_angle_alpha 90.000000
_cell_angle_beta 42.006284
_cell_angle_gamma 90.000000
_cell_volume 1676.885592
_symmetry_space_group_name_H-M "P 2/C"
_symmetry_group_IT_number 13
_symmetry_cell_setting 'monoclinic'
loop_
_space_group_symop_operation_xyz
x,y,z
-x,y,1/2-z
-x,-y,-z
x,-y,1/2+z
loop_
_atom_site_type_symbol
_atom_site_label
_atom_site_fract_x
_atom_site_fract_y
_atom_site_fract_z
Si Si1 0.166465 0.358539 0.474526
Si Si2 0.422426 0.990125 0.112972
Si Si3 0.606952 0.216273 0.758448
Si Si4 0.296829 0.482551 0.275721
Si Si5 0.519646 0.231227 0.163050
Si Si6 0.900965 0.886110 0.238321
Si Si7 0.944551 0.572490 0.204613
Si Si8 0.049024 0.871517 0.433146
O O1 0.213685 0.468264 0.392261
O O2 0.306953 0.274166 0.434468
O O3 0.087749 0.426703 0.580595
O O4 0.047599 0.259931 0.495065
O O5 0.468975 0.122515 0.132532
O O6 0.462457 0.855583 0.137929
O O7 0.245040 0.981853 0.187932
O O8 0.500000 0.000000 0.000000
O O9 0.500000 0.177892 0.750000
O O10 0.610035 0.377277 0.770305
O O11 0.772793 0.159071 0.655523
O O12 0.414974 0.362539 0.205600
O O13 0.181811 0.480258 0.269138
O O14 0.500000 0.169749 0.250000
O O15 0.869600 0.721866 0.257270
O O16 0.998604 0.910499 0.120372
O O17 0.000000 0.940547 0.250000
O O18 0.000000 0.509687 0.250000
O O19 0.000000 0.000000 0.500000
#
# Coordination Sequence:
#
# PCOD8119424 Si02
#       8
#     4   4   4   4   4   4   4   4
#     4  10  21  38  64  90 119 164 210 243 316 369
#     4  11  24  39  62  90 123 165 203 253 308 375
#     4  11  23  40  61  92 125 159 206 262 310 354
#     4  11  21  43  62  92 124 163 208 260 305 371
#     4  10  24  39  65  90 125 164 202 256 314 374
#     4   9  20  38  59  85 119 162 199 246 304 361
#     4  10  20  38  66  86 121 164 206 251 304 367
#     4  10  22  35  61  94 117 154 206 257 297 364
#
# _framework density 19.082996000000001
#
# number of rings (size 3 to 8) (size 9 to 14) (size 15 to 20)
#    0.000    1.750    3.750    1.875   14.000    0.000 
#    0.000    4.375    0.000    0.000    0.000    0.000 
#    0.000    0.000    0.000    0.000    0.000    0.000 
#
# Total GULP energy -396622.125640 kJ/mol
# GULP energy per Si atom -12394.441426 kJ/mol
# Density = 1.903956 g / cm^3
# Si number density = 19.082996 Si / 1000 Ang^3
#
#
#
# Elastic Constant Matrix: (Units=GPa)
#
#
# Indices 1 2 3 4 5 6 
#
# 1 157.9695 49.6135 51.0968 0.0000 13.3997 0.0000
# 2 49.6135 97.8243 53.5700 0.0000 15.7642 0.0000
# 3 51.0968 53.5700 90.7651 0.0000 8.7206 0.0000
# 4 0.0000 0.0000 0.0000 17.8205 0.0000 3.3534
# 5 13.3997 15.7642 8.7206 0.0000 32.7545 0.0000
# 6 0.0000 0.0000 0.0000 3.3534 0.0000 36.5553
#
#
#
# Elastic Compliance Matrix: (Units=1/GPa)
#
#
# Indices 1 2 3 4 5 6 
#
# 1 0.008161 -0.002166 -0.003177 0.000000 -0.001451 0.000000
# 2 -0.002166 0.016530 -0.008064 0.000000 -0.004923 0.000000
# 3 -0.003177 -0.008064 0.017516 0.000000 0.000517 0.000000
# 4 0.000000 0.000000 0.000000 0.057101 0.000000 -0.005238
# 5 -0.001451 -0.004923 0.000517 0.000000 0.033355 0.000000
# 6 0.000000 0.000000 0.000000 -0.005238 0.000000 0.027836
#
#
# Mechanical properties :
#
#
# Convention : Reuss Voigt Hill
#
# Bulk Modulus (GPa) = 64.96109 72.79106 68.87608
# Shear Modulus (GPa) = 25.98175 30.24464 28.11320
#
# Velocity S-wave (km/s) = 3.69387 3.98540 3.84240
# Velocity P-wave (km/s) = 7.23244 7.70747 7.47373
#
# Compressibility (1/GPa) = 0.01539383
#
# Stress axis : x y z
#
# Youngs Moduli (GPa) = 122.53222 60.49629 57.09228
#
# Poissons Ratio (x) = 0.13101 0.18137
# Poissons Ratio (y) = 0.26536 0.46039
# Poissons Ratio (z) = 0.38926 0.48784
#
# Static dielectric constant tensor:
#      x y z
#    x 3.820390 0.000000 -0.005000 
#    y 0.000000 3.047410 0.000000 
#    z -0.005000 0.000000 3.571540 
# 
# 
# High freq. dielectric constant tensor:
#      x y z
#    x 1.759190 0.000000 -0.000870 
#    y 0.000000 1.725620 0.000000 
#    z -0.000870 0.000000 1.737160 
# 
# From -- ./inp_files/79793.got.cif
#   From: 2010.06.25/outbox.cif.g09.slc.cpg/sg13_40_cif.got.tgz:79793.got - 2010.06.28 04:50:58.
