data_PCOD8119226
_publ_section_title
;
Structure prediction by ZEFSAII (Michael W. Deem and Ramdas Pophale) SiO2 
 PCOD8119226
Probable space group: P 2/C
;
_chemical_formula_sum "Si O2"
_cell_formula_units_Z 30
_cell_length_a 19.285408
_cell_length_b 6.786133
_cell_length_c 25.055592
_cell_angle_alpha 90.000000
_cell_angle_beta 29.769374
_cell_angle_gamma 90.000000
_cell_volume 1628.110618
_symmetry_space_group_name_H-M "P 2/C"
_symmetry_group_IT_number 13
_symmetry_cell_setting 'monoclinic'
loop_
_space_group_symop_operation_xyz
x,y,z
-x,y,1/2-z
-x,-y,-z
x,-y,1/2+z
loop_
_atom_site_type_symbol
_atom_site_label
_atom_site_fract_x
_atom_site_fract_y
_atom_site_fract_z
Si Si1 0.129127 0.073835 0.830952
Si Si2 0.121093 0.489352 0.105245
Si Si3 0.000000 0.821820 0.250000
Si Si4 0.663570 0.426480 0.446511
Si Si5 0.891865 0.849265 0.760802
Si Si6 0.171936 0.674556 0.845811
Si Si7 0.346831 0.394093 0.657215
Si Si8 0.083865 0.577022 0.012961
O O1 0.267618 0.198300 0.727211
O O2 0.002030 0.217840 0.929962
O O3 0.081388 0.935337 0.814819
O O4 0.170599 0.913748 0.848626
O O5 0.037998 0.688786 0.174108
O O6 0.256925 0.485510 0.052200
O O7 0.162090 0.520048 0.015918
O O8 0.019881 0.304835 0.185438
O O9 0.119741 0.971940 0.189201
O O10 0.740922 0.247109 0.365981
O O11 0.507411 0.369205 0.567052
O O12 0.664751 0.593955 0.399690
O O13 0.286199 0.585754 0.728626
O O14 0.019319 0.603344 0.929339
O O15 0.197945 0.596350 0.889195
#
# Coordination Sequence:
#
# PCOD8119226 Si02
#       8
#     4   4   2   4   4   4   4   4
#     4  11  19  35  58  85 113 144 186 237 279 336
#     4  12  21  36  55  87 114 144 184 233 288 344
#     4  12  20  32  54  82 118 140 166 232 296 328
#     4  11  21  39  54  80 120 151 188 230 277 346
#     4  12  20  33  57  86 117 138 181 237 286 331
#     4  10  20  38  56  82 113 145 187 238 272 337
#     4  10  23  39  55  81 114 156 193 225 277 336
#     4  10  21  34  59  86 110 142 185 233 296 325
#
# _framework density 18.426265999999998
#
# number of rings (size 3 to 8) (size 9 to 14) (size 15 to 20)
#    0.000    1.067    6.667    2.000    0.000    0.533 
#    2.400    0.667    0.000    0.000    0.000    0.000 
#    0.000    0.000    0.000    0.000    0.000    0.000 
#
# Total GULP energy -371738.251883 kJ/mol
# GULP energy per Si atom -12391.275063 kJ/mol
# Density = 1.838433 g / cm^3
# Si number density = 18.426266 Si / 1000 Ang^3
#
#
#
# Elastic Constant Matrix: (Units=GPa)
#
#
# Indices 1 2 3 4 5 6 
#
# 1 111.0445 33.1955 50.4841 0.0000 12.9148 0.0000
# 2 33.1955 105.5885 22.6223 0.0000 -4.1361 0.0000
# 3 50.4841 22.6223 72.2674 0.0000 -3.1139 0.0000
# 4 0.0000 0.0000 0.0000 12.0794 0.0000 3.8498
# 5 12.9148 -4.1361 -3.1139 0.0000 33.2358 0.0000
# 6 0.0000 0.0000 0.0000 3.8498 0.0000 16.6690
#
#
#
# Elastic Compliance Matrix: (Units=1/GPa)
#
#
# Indices 1 2 3 4 5 6 
#
# 1 0.015317 -0.002937 -0.010094 0.000000 -0.007263 0.000000
# 2 -0.002937 0.010746 -0.001210 0.000000 0.002365 0.000000
# 3 -0.010094 -0.001210 0.021517 0.000000 0.005787 0.000000
# 4 0.000000 0.000000 0.000000 0.089364 0.000000 -0.020639
# 5 -0.007263 0.002365 0.005787 0.000000 0.033747 0.000000
# 6 0.000000 0.000000 0.000000 -0.020639 0.000000 0.064758
#
#
# Mechanical properties :
#
#
# Convention : Reuss Voigt Hill
#
# Bulk Modulus (GPa) = 52.36152 55.72268 54.04210
# Shear Modulus (GPa) = 18.49820 24.57006 21.53413
#
# Velocity S-wave (km/s) = 3.17188 3.65557 3.42228
# Velocity P-wave (km/s) = 6.47247 6.93716 6.70884
#
# Compressibility (1/GPa) = 0.01909799
#
# Stress axis : x y z
#
# Youngs Moduli (GPa) = 65.28677 93.05690 46.47556
#
# Poissons Ratio (x) = 0.27335 0.46910
# Poissons Ratio (y) = 0.19178 0.05623
# Poissons Ratio (z) = 0.65897 0.11260
#
# Static dielectric constant tensor:
#      x y z
#    x 3.536220 0.000000 0.270480 
#    y 0.000000 3.578460 0.000000 
#    z 0.270480 0.000000 3.211480 
# 
# 
# High freq. dielectric constant tensor:
#      x y z
#    x 1.712320 0.000000 0.024620 
#    y 0.000000 1.728260 0.000000 
#    z 0.024620 0.000000 1.681950 
# 
# From -- ./inp_files/93421.got.cif
#   From: 2010.06.25/outbox.cif.g09.slc.cpg/sg13_47_cif.got.tgz:93421.got - 2010.06.28 04:50:58.
