data_PCOD8119962
_publ_section_title
;
Structure prediction by ZEFSAII (Michael W. Deem and Ramdas Pophale) SiO2 
 PCOD8119962
Probable space group: P 2/C
;
_chemical_formula_sum "Si O2"
_cell_formula_units_Z 26
_cell_length_a 23.090345
_cell_length_b 6.480581
_cell_length_c 25.108386
_cell_angle_alpha 90.000000
_cell_angle_beta 21.412988
_cell_angle_gamma 90.000000
_cell_volume 1371.704356
_symmetry_space_group_name_H-M "P 2/C"
_symmetry_group_IT_number 13
_symmetry_cell_setting 'monoclinic'
loop_
_space_group_symop_operation_xyz
x,y,z
-x,y,1/2-z
-x,-y,-z
x,-y,1/2+z
loop_
_atom_site_type_symbol
_atom_site_label
_atom_site_fract_x
_atom_site_fract_y
_atom_site_fract_z
Si Si1 0.189724 0.477843 0.401667
Si Si2 0.089819 0.570330 0.105838
Si Si3 0.392276 0.798892 0.089297
Si Si4 0.198954 0.333980 0.110308
Si Si5 0.000000 0.951867 0.250000
Si Si6 0.082794 0.205481 0.914856
Si Si7 0.485242 0.499171 0.425782
O O1 0.177365 0.451863 0.475164
O O2 0.163857 0.707498 0.399706
O O3 0.054873 0.347465 0.489305
O O4 0.368122 0.409888 0.234057
O O5 0.202482 0.456646 0.051763
O O6 0.061796 0.807795 0.148381
O O7 0.923927 0.447198 0.244702
O O8 0.209971 0.844506 0.259700
O O9 0.396582 0.701269 0.026170
O O10 0.454735 0.634035 0.077290
O O11 0.500000 0.000000 0.000000
O O12 0.372543 0.353369 0.986930
O O13 0.144786 0.096386 0.147216
O O14 0.000000 0.000000 0.000000
#
# Coordination Sequence:
#
# PCOD8119962 Si02
#       7
#     4   4   4   4   2   4   4
#     4  10  21  36  54  80 110 140 178 220 267 320
#     4   9  19  35  56  80 106 140 179 219 268 321
#     4  10  21  36  55  80 109 142 179 220 268 320
#     4   9  19  35  56  78 106 140 177 219 267 319
#     4   8  18  36  56  82 104 136 184 222 266 320
#     4  10  21  36  55  79 109 144 179 219 267 320
#     4  10  21  36  54  80 110 140 177 221 268 319
#
# _framework density 18.954521
#
# number of rings (size 3 to 8) (size 9 to 14) (size 15 to 20)
#    0.000    2.769    0.000    1.846    0.000   10.462 
#    0.000    0.000    0.000    7.385    0.000    0.000 
#    0.000    0.000    0.000    0.000    0.000    0.000 
#
# Total GULP energy -322227.505421 kJ/mol
# GULP energy per Si atom -12393.365593 kJ/mol
# Density = 1.891138 g / cm^3
# Si number density = 18.954521 Si / 1000 Ang^3
#
#
#
# Elastic Constant Matrix: (Units=GPa)
#
#
# Indices 1 2 3 4 5 6 
#
# 1 68.6442 12.6151 57.7892 0.0000 19.4739 0.0000
# 2 12.6151 100.6928 55.7008 0.0000 20.2610 0.0000
# 3 57.7892 55.7008 165.6587 0.0000 16.8750 0.0000
# 4 0.0000 0.0000 0.0000 28.1453 0.0000 -2.2892
# 5 19.4739 20.2610 16.8750 0.0000 37.7577 0.0000
# 6 0.0000 0.0000 0.0000 -2.2892 0.0000 16.6034
#
#
#
# Elastic Compliance Matrix: (Units=1/GPa)
#
#
# Indices 1 2 3 4 5 6 
#
# 1 0.024173 0.003914 -0.008659 0.000000 -0.010698 0.000000
# 2 0.003914 0.013781 -0.005281 0.000000 -0.007054 0.000000
# 3 -0.008659 -0.005281 0.010570 0.000000 0.002575 0.000000
# 4 0.000000 0.000000 0.000000 0.035933 0.000000 0.004954
# 5 -0.010698 -0.007054 0.002575 0.000000 0.034636 0.000000
# 6 0.000000 0.000000 0.000000 0.004954 0.000000 0.060912
#
#
# Mechanical properties :
#
#
# Convention : Reuss Voigt Hill
#
# Bulk Modulus (GPa) = 35.12019 65.24511 50.18265
# Shear Modulus (GPa) = 23.86089 30.42733 27.14411
#
# Velocity S-wave (km/s) = 3.55188 4.01094 3.78837
# Velocity P-wave (km/s) = 5.94895 7.47976 6.75784
#
# Compressibility (1/GPa) = 0.02847365
#
# Stress axis : x y z
#
# Youngs Moduli (GPa) = 41.36812 72.56210 94.60407
#
# Poissons Ratio (x) = -0.28401 0.81918
# Poissons Ratio (y) = -0.16192 0.49957
# Poissons Ratio (z) = 0.35821 0.38318
#
# Static dielectric constant tensor:
#      x y z
#    x 3.397630 0.000000 0.086170 
#    y 0.000000 3.849840 0.000000 
#    z 0.086170 0.000000 3.611570 
# 
# 
# High freq. dielectric constant tensor:
#      x y z
#    x 1.728580 0.000000 0.001040 
#    y 0.000000 1.736480 0.000000 
#    z 0.001040 0.000000 1.736630 
# 
# From -- ./inp_files/93951.got.cif
#   From: 2010.06.25/outbox.cif.g09.slc.cpg/sg13_47_cif.got.tgz:93951.got - 2010.06.28 04:50:58.
