data_PCOD8119124
_publ_section_title
;
Structure prediction by ZEFSAII (Michael W. Deem and Ramdas Pophale) SiO2 
 PCOD8119124
Probable space group: P 2/C
;
_chemical_formula_sum "Si O2"
_cell_formula_units_Z 28
_cell_length_a 9.057944
_cell_length_b 20.242539
_cell_length_c 15.039368
_cell_angle_alpha 90.000000
_cell_angle_beta 152.149619
_cell_angle_gamma 90.000000
_cell_volume 1288.231265
_symmetry_space_group_name_H-M "P 2/C"
_symmetry_group_IT_number 13
_symmetry_cell_setting 'monoclinic'
loop_
_space_group_symop_operation_xyz
x,y,z
-x,y,1/2-z
-x,-y,-z
x,-y,1/2+z
loop_
_atom_site_type_symbol
_atom_site_label
_atom_site_fract_x
_atom_site_fract_y
_atom_site_fract_z
Si Si1 0.780344 0.891968 0.048422
Si Si2 0.905290 0.148779 0.293613
Si Si3 0.872447 0.786586 0.954367
Si Si4 0.777107 0.026924 0.955717
Si Si5 0.117901 0.416811 0.216715
Si Si6 0.724916 0.455350 0.454219
Si Si7 0.865369 0.350336 0.920862
O O1 0.000000 0.901122 0.250000
O O2 0.469669 0.854328 0.912098
O O3 0.948273 0.847167 0.061830
O O4 0.667256 0.963162 0.953122
O O5 0.009105 0.194437 0.430541
O O6 0.000000 0.180496 0.250000
O O7 0.069049 0.077548 0.393393
O O8 0.500000 0.771901 0.750000
O O9 0.064670 0.721316 0.084808
O O10 0.500000 0.060445 0.750000
O O11 0.000000 0.000000 0.000000
O O12 0.495021 0.433404 0.413721
O O13 0.000000 0.392786 0.250000
O O14 0.903709 0.478372 0.074102
O O15 0.060121 0.357402 0.116570
O O16 0.500000 0.468172 0.250000
O O17 0.000316 0.402504 0.579640
O O18 0.500000 0.361849 0.750000
#
# Coordination Sequence:
#
# PCOD8119124 Si02
#       7
#     4   4   4   4   4   4   4
#     4  11  24  42  63  89 123 160 201 250 311 371
#     4  11  25  40  63  93 121 158 202 254 307 369
#     4  10  22  45  63  82 120 162 204 251 306 362
#     4  12  22  40  65  92 123 162 200 250 310 367
#     4  11  21  36  61  93 124 156 197 250 302 352
#     4  10  20  37  60  88 122 162 198 241 299 358
#     4  11  23  40  62  86 117 162 207 244 299 367
#
# _framework density 21.735227999999999
#
# number of rings (size 3 to 8) (size 9 to 14) (size 15 to 20)
#    0.000    1.143    2.857    5.571    2.000    3.429 
#    0.000    3.571    0.000    0.000    0.000    0.000 
#    0.000    0.000    0.000    0.000    0.000    0.000 
#
# Total GULP energy -347126.118639 kJ/mol
# GULP energy per Si atom -12397.361380 kJ/mol
# Density = 2.168576 g / cm^3
# Si number density = 21.735228 Si / 1000 Ang^3
#
#
#
# Elastic Constant Matrix: (Units=GPa)
#
#
# Indices 1 2 3 4 5 6 
#
# 1 130.3595 10.2384 18.1596 0.0000 1.2573 0.0000
# 2 10.2384 73.1615 11.3767 0.0000 -2.1726 0.0000
# 3 18.1596 11.3767 77.8106 0.0000 4.3020 0.0000
# 4 0.0000 0.0000 0.0000 25.2089 0.0000 8.0208
# 5 1.2573 -2.1726 4.3020 0.0000 40.9829 0.0000
# 6 0.0000 0.0000 0.0000 8.0208 0.0000 18.8427
#
#
#
# Elastic Compliance Matrix: (Units=1/GPa)
#
#
# Indices 1 2 3 4 5 6 
#
# 1 0.007980 -0.000851 -0.001732 0.000000 -0.000108 0.000000
# 2 -0.000851 0.014115 -0.001919 0.000000 0.000976 0.000000
# 3 -0.001732 -0.001919 0.013618 0.000000 -0.001478 0.000000
# 4 0.000000 0.000000 0.000000 0.045883 0.000000 -0.019531
# 5 -0.000108 0.000976 -0.001478 0.000000 0.024611 0.000000
# 6 0.000000 0.000000 0.000000 -0.019531 0.000000 0.061385
#
#
# Mechanical properties :
#
#
# Convention : Reuss Voigt Hill
#
# Bulk Modulus (GPa) = 37.43977 40.09788 38.76882
# Shear Modulus (GPa) = 26.95440 33.11071 30.03256
#
# Velocity S-wave (km/s) = 3.52536 3.90727 3.72122
# Velocity P-wave (km/s) = 5.81667 6.23250 6.02817
#
# Compressibility (1/GPa) = 0.02670957
#
# Stress axis : x y z
#
# Youngs Moduli (GPa) = 125.30960 70.84744 73.43073
#
# Poissons Ratio (x) = 0.06027 0.12719
# Poissons Ratio (y) = 0.10659 0.14093
# Poissons Ratio (z) = 0.21705 0.13597
#
# Static dielectric constant tensor:
#      x y z
#    x 4.255440 0.000000 0.129760 
#    y 0.000000 3.405920 0.000000 
#    z 0.129760 0.000000 3.679310 
# 
# 
# High freq. dielectric constant tensor:
#      x y z
#    x 1.865260 0.000000 0.014080 
#    y 0.000000 1.841180 0.000000 
#    z 0.014080 0.000000 1.843920 
# 
# From -- ./inp_files/48249.got.cif
#   From: 2010.06.25/outbox.cif.g09.slc.cpg/sg13_25_cif.got.tgz:48249.got - 2010.06.28 04:50:58.
