data_PCOD8119066
_publ_section_title
;
Structure prediction by ZEFSAII (Michael W. Deem and Ramdas Pophale) SiO2 
 PCOD8119066
Probable space group: P 2/C
;
_chemical_formula_sum "Si O2"
_cell_formula_units_Z 24
_cell_length_a 12.466436
_cell_length_b 12.595765
_cell_length_c 9.832341
_cell_angle_alpha 90.000000
_cell_angle_beta 67.448678
_cell_angle_gamma 90.000000
_cell_volume 1425.863002
_symmetry_space_group_name_H-M "P 2/C"
_symmetry_group_IT_number 13
_symmetry_cell_setting 'monoclinic'
loop_
_space_group_symop_operation_xyz
x,y,z
-x,y,1/2-z
-x,-y,-z
x,-y,1/2+z
loop_
_atom_site_type_symbol
_atom_site_label
_atom_site_fract_x
_atom_site_fract_y
_atom_site_fract_z
Si Si1 0.397452 0.301134 0.546484
Si Si2 0.744598 0.597336 0.612615
Si Si3 0.491610 0.898582 0.598317
Si Si4 0.767968 0.654163 0.127373
Si Si5 0.346604 0.285753 0.083918
Si Si6 0.991304 0.397988 0.911214
O O1 0.354344 0.377839 0.448270
O O2 0.400834 0.180159 0.487893
O O3 0.316987 0.303024 0.716272
O O4 0.529094 0.337980 0.519291
O O5 0.753851 0.471267 0.616858
O O6 0.864990 0.652438 0.503144
O O7 0.714007 0.642472 0.773919
O O8 0.500000 0.935748 0.750000
O O9 0.370926 0.834016 0.627754
O O10 0.500000 0.000000 0.500000
O O11 0.738304 0.716768 0.004003
O O12 0.901829 0.680541 0.102887
O O13 0.000000 0.432222 0.750000
O O14 0.000000 0.500000 0.000000
#
# Coordination Sequence:
#
# PCOD8119066 Si02
#       6
#     4   4   4   4   4   4
#     4  10  20  37  52  82 114 139 188 216 276 332
#     4  11  20  36  53  75 121 151 185 223 257 316
#     4  10  22  39  58  80 109 140 179 229 280 334
#     4  11  22  32  54  81 114 154 184 220 258 319
#     4  10  22  35  52  85 111 140 188 216 281 330
#     4  10  22  35  52  74 105 157 201 219 256 305
#
# _framework density 16.831913
#
# number of rings (size 3 to 8) (size 9 to 14) (size 15 to 20)
#    1.000    0.667    3.333    2.000    9.333    4.000 
#    0.000    0.000    0.000    0.000    0.000    7.000 
#    0.000    0.000    0.000    0.000    0.000    0.000 
#
# Total GULP energy -297452.373700 kJ/mol
# GULP energy per Si atom -12393.848904 kJ/mol
# Density = 1.679360 g / cm^3
# Si number density = 16.831913 Si / 1000 Ang^3
#
#
#
# Elastic Constant Matrix: (Units=GPa)
#
#
# Indices 1 2 3 4 5 6 
#
# 1 99.3025 16.7382 44.0525 0.0000 2.2207 0.0000
# 2 16.7382 67.5618 22.7577 0.0000 4.9788 0.0000
# 3 44.0525 22.7577 121.3567 0.0000 11.5206 0.0000
# 4 0.0000 0.0000 0.0000 26.7526 0.0000 9.3841
# 5 2.2207 4.9788 11.5206 0.0000 39.5817 0.0000
# 6 0.0000 0.0000 0.0000 9.3841 0.0000 5.5941
#
#
#
# Elastic Compliance Matrix: (Units=1/GPa)
#
#
# Indices 1 2 3 4 5 6 
#
# 1 0.012190 -0.001666 -0.004183 0.000000 0.000743 0.000000
# 2 -0.001666 0.016079 -0.002291 0.000000 -0.001262 0.000000
# 3 -0.004183 -0.002291 0.010427 0.000000 -0.002512 0.000000
# 4 0.000000 0.000000 0.000000 0.090820 0.000000 -0.152350
# 5 0.000743 -0.001262 -0.002512 0.000000 0.026112 0.000000
# 6 0.000000 0.000000 0.000000 -0.152350 0.000000 0.434326
#
#
# Mechanical properties :
#
#
# Convention : Reuss Voigt Hill
#
# Bulk Modulus (GPa) = 44.61065 50.59086 47.60075
# Shear Modulus (GPa) = 8.14723 28.03052 18.08887
#
# Velocity S-wave (km/s) = 2.20247 4.08526 3.28178
# Velocity P-wave (km/s) = 5.74708 7.23700 6.53465
#
# Compressibility (1/GPa) = 0.02241617
#
# Stress axis : x y z
#
# Youngs Moduli (GPa) = 82.03346 62.19459 95.90762
#
# Poissons Ratio (x) = 0.10360 0.40120
# Poissons Ratio (y) = 0.13665 0.21969
# Poissons Ratio (z) = 0.34316 0.14247
#
# Static dielectric constant tensor:
#      x y z
#    x 3.618190 0.000000 0.075650 
#    y 0.000000 2.790010 0.000000 
#    z 0.075650 0.000000 2.779820 
# 
# 
# High freq. dielectric constant tensor:
#      x y z
#    x 1.654210 0.000000 0.007340 
#    y 0.000000 1.601000 0.000000 
#    z 0.007340 0.000000 1.668960 
# 
# From -- ./inp_files/16250.got.cif
#   From: 2010.06.25/outbox.cif.g09.slc.cpg/sg13_9_cif.got.tgz:16250.got - 2010.06.28 04:50:58.
