data_PCOD8119530
_publ_section_title
;
Structure prediction by ZEFSAII (Michael W. Deem and Ramdas Pophale) SiO2 
 PCOD8119530
Probable space group: P 2/C
;
_chemical_formula_sum "Si O2"
_cell_formula_units_Z 22
_cell_length_a 7.446341
_cell_length_b 8.012437
_cell_length_c 22.244318
_cell_angle_alpha 90.000000
_cell_angle_beta 128.279011
_cell_angle_gamma 90.000000
_cell_volume 1041.833118
_symmetry_space_group_name_H-M "P 2/C"
_symmetry_group_IT_number 13
_symmetry_cell_setting 'monoclinic'
loop_
_space_group_symop_operation_xyz
x,y,z
-x,y,1/2-z
-x,-y,-z
x,-y,1/2+z
loop_
_atom_site_type_symbol
_atom_site_label
_atom_site_fract_x
_atom_site_fract_y
_atom_site_fract_z
Si Si1 0.316367 0.143049 0.040500
Si Si2 0.790479 0.272633 0.113637
Si Si3 0.107518 0.474434 0.958353
Si Si4 0.924561 0.034968 0.391782
Si Si5 0.000000 0.477841 0.750000
Si Si6 0.237009 0.309105 0.695998
O O1 0.591282 0.138524 0.089881
O O2 0.245553 0.124143 0.095772
O O3 0.274185 0.319634 0.000010
O O4 0.170579 0.004746 0.974221
O O5 0.749987 0.371815 0.041426
O O6 0.019950 0.163065 0.150471
O O7 0.833371 0.405412 0.175610
O O8 0.891034 0.442275 0.871417
O O9 0.000000 0.500000 0.000000
O O10 0.804103 0.876497 0.337320
O O11 0.846951 0.345063 0.754305
O O12 0.500000 0.351284 0.750000
#
# Coordination Sequence:
#
# PCOD8119530 Si02
#       6
#     4   4   4   4   2   4
#     4  10  21  38  61  93 122 158 201 252 318 354
#     4  11  22  39  64  90 125 161 199 259 307 361
#     4  10  20  39  64  94 122 154 213 260 293 369
#     4  10  22  39  59  92 123 156 206 254 300 380
#     4  10  26  40  58  90 118 160 212 246 300 386
#     4  10  24  43  61  84 127 168 198 252 316 363
#
# _framework density 21.116627000000001
#
# number of rings (size 3 to 8) (size 9 to 14) (size 15 to 20)
#    0.000    1.818    1.818    1.091    2.545    3.636 
#    0.000    0.909    0.000    0.000    0.000    0.000 
#    0.000    0.000    0.000    0.000    0.000    0.000 
#
# Total GULP energy -272612.821137 kJ/mol
# GULP energy per Si atom -12391.491870 kJ/mol
# Density = 2.106857 g / cm^3
# Si number density = 21.116627 Si / 1000 Ang^3
#
#
#
# Elastic Constant Matrix: (Units=GPa)
#
#
# Indices 1 2 3 4 5 6 
#
# 1 168.4979 48.9010 49.3360 0.0000 -21.6130 0.0000
# 2 48.9010 71.6077 11.8825 0.0000 -8.2220 0.0000
# 3 49.3360 11.8825 55.2007 0.0000 -24.1655 0.0000
# 4 0.0000 0.0000 0.0000 74.3281 0.0000 38.9852
# 5 -21.6130 -8.2220 -24.1655 0.0000 22.7430 0.0000
# 6 0.0000 0.0000 0.0000 38.9852 0.0000 80.3783
#
#
#
# Elastic Compliance Matrix: (Units=1/GPa)
#
#
# Indices 1 2 3 4 5 6 
#
# 1 0.009713 -0.005444 -0.008096 0.000000 -0.001340 0.000000
# 2 -0.005444 0.017692 0.002977 0.000000 0.004386 0.000000
# 3 -0.008096 0.002977 0.040785 0.000000 0.036719 0.000000
# 4 0.000000 0.000000 0.000000 0.018044 0.000000 -0.008752
# 5 -0.001340 0.004386 0.036719 0.000000 0.083298 0.000000
# 6 0.000000 0.000000 0.000000 -0.008752 0.000000 0.016686
#
#
# Mechanical properties :
#
#
# Convention : Reuss Voigt Hill
#
# Bulk Modulus (GPa) = 21.24705 57.28280 39.26493
# Shear Modulus (GPa) = 22.41830 47.83568 35.12699
#
# Velocity S-wave (km/s) = 3.26182 4.76469 4.08300
# Velocity P-wave (km/s) = 4.92641 7.57994 6.39238
#
# Compressibility (1/GPa) = 0.04706535
#
# Stress axis : x y z
#
# Youngs Moduli (GPa) = 102.95186 56.52266 24.51864
#
# Poissons Ratio (x) = 0.30769 0.19850
# Poissons Ratio (y) = 0.56043 -0.07299
# Poissons Ratio (z) = 0.83350 -0.16827
#
# Static dielectric constant tensor:
#      x y z
#    x 3.758930 0.000000 -0.025620 
#    y 0.000000 3.459990 0.000000 
#    z -0.025620 0.000000 3.583210 
# 
# 
# High freq. dielectric constant tensor:
#      x y z
#    x 1.837430 0.000000 -0.016580 
#    y 0.000000 1.831920 0.000000 
#    z -0.016580 0.000000 1.810220 
# 
# From -- ./inp_files/73059.got.cif
#   From: 2010.06.25/outbox.cif.g09.slc.cpg/sg13_37_cif.got.tgz:73059.got - 2010.06.28 04:50:58.
