data_PCOD8119901
_publ_section_title
;
Structure prediction by ZEFSAII (Michael W. Deem and Ramdas Pophale) SiO2 
 PCOD8119901
Probable space group: P 2/C
;
_chemical_formula_sum "Si O2"
_cell_formula_units_Z 24
_cell_length_a 12.329945
_cell_length_b 12.456508
_cell_length_c 8.387658
_cell_angle_alpha 90.000000
_cell_angle_beta 107.134499
_cell_angle_gamma 90.000000
_cell_volume 1231.066416
_symmetry_space_group_name_H-M "P 2/C"
_symmetry_group_IT_number 13
_symmetry_cell_setting 'monoclinic'
loop_
_space_group_symop_operation_xyz
x,y,z
-x,y,1/2-z
-x,-y,-z
x,-y,1/2+z
loop_
_atom_site_type_symbol
_atom_site_label
_atom_site_fract_x
_atom_site_fract_y
_atom_site_fract_z
Si Si1 0.110621 0.574049 0.038539
Si Si2 0.628907 0.346057 0.337471
Si Si3 0.272535 0.477943 0.861230
Si Si4 0.201317 0.846852 0.560718
Si Si5 0.875286 0.956300 0.272524
Si Si6 0.970819 0.200336 0.062037
O O1 0.167332 0.586805 0.236418
O O2 0.215571 0.528758 0.988991
O O3 0.000000 0.500000 0.000000
O O4 0.087561 0.685933 0.944966
O O5 0.500000 0.314929 0.250000
O O6 0.638148 0.394000 0.521921
O O7 0.668242 0.431914 0.221302
O O8 0.696860 0.233745 0.355280
O O9 0.211372 0.901186 0.390227
O O10 0.084423 0.778988 0.507948
O O11 0.186174 0.935100 0.694669
O O12 0.000000 0.975907 0.250000
O O13 0.889739 0.884744 0.438552
O O14 0.000000 0.155470 0.250000
#
# Coordination Sequence:
#
# PCOD8119901 Si02
#       6
#     4   4   4   4   4   4
#     4  11  20  32  53  87 122 151 181 225 286 357
#     4  11  23  41  61  81 107 149 200 246 286 332
#     4  10  22  37  56  82 115 150 184 230 288 349
#     4  11  21  36  56  80 110 148 188 232 281 334
#     4  10  21  35  55  82 115 148 183 225 284 359
#     4  11  19  31  52  82 116 150 181 220 278 353
#
# _framework density 19.495291999999999
#
# number of rings (size 3 to 8) (size 9 to 14) (size 15 to 20)
#    0.000    1.333    0.000    9.500    0.000    2.667 
#    0.000    0.833    0.000    0.000    0.000    0.000 
#    0.000    0.000    0.000    0.000    0.000    0.000 
#
# Total GULP energy -297396.641578 kJ/mol
# GULP energy per Si atom -12391.526732 kJ/mol
# Density = 1.945092 g / cm^3
# Si number density = 19.495292 Si / 1000 Ang^3
#
#
#
# Elastic Constant Matrix: (Units=GPa)
#
#
# Indices 1 2 3 4 5 6 
#
# 1 82.5340 40.6124 41.7821 0.0000 19.4724 0.0000
# 2 40.6124 106.5830 59.1364 0.0000 6.5355 0.0000
# 3 41.7821 59.1364 125.0511 0.0000 10.9460 0.0000
# 4 0.0000 0.0000 0.0000 25.4800 0.0000 -0.5339
# 5 19.4724 6.5355 10.9460 0.0000 29.9548 0.0000
# 6 0.0000 0.0000 0.0000 -0.5339 0.0000 25.2665
#
#
#
# Elastic Compliance Matrix: (Units=1/GPa)
#
#
# Indices 1 2 3 4 5 6 
#
# 1 0.018249 -0.004672 -0.003036 0.000000 -0.009734 0.000000
# 2 -0.004672 0.013926 -0.005191 0.000000 0.001896 0.000000
# 3 -0.003036 -0.005191 0.011564 0.000000 -0.001120 0.000000
# 4 0.000000 0.000000 0.000000 0.039264 0.000000 0.000830
# 5 -0.009734 0.001896 -0.001120 0.000000 0.039707 0.000000
# 6 0.000000 0.000000 0.000000 0.000830 0.000000 0.039596
#
#
# Mechanical properties :
#
#
# Convention : Reuss Voigt Hill
#
# Bulk Modulus (GPa) = 55.73641 66.35887 61.04764
# Shear Modulus (GPa) = 25.76223 27.64943 26.70583
#
# Velocity S-wave (km/s) = 3.63913 3.77007 3.70518
# Velocity P-wave (km/s) = 6.80510 7.28447 7.04886
#
# Compressibility (1/GPa) = 0.01794159
#
# Stress axis : x y z
#
# Youngs Moduli (GPa) = 54.79854 71.80622 86.47802
#
# Poissons Ratio (x) = 0.33550 0.26252
# Poissons Ratio (y) = 0.25603 0.44887
# Poissons Ratio (z) = 0.16635 0.37271
#
# Static dielectric constant tensor:
#      x y z
#    x 3.156770 0.000000 0.036640 
#    y 0.000000 3.623690 0.000000 
#    z 0.036640 0.000000 3.824030 
# 
# 
# High freq. dielectric constant tensor:
#      x y z
#    x 1.714970 0.000000 -0.009780 
#    y 0.000000 1.768280 0.000000 
#    z -0.009780 0.000000 1.781160 
# 
# From -- ./inp_files/18614.got.cif
#   From: 2010.06.25/outbox.cif.g09.slc.cpg/sg13_10_cif.got.tgz:18614.got - 2010.06.28 04:50:58.
