data_PCOD8119639
_publ_section_title
;
Structure prediction by ZEFSAII (Michael W. Deem and Ramdas Pophale) SiO2 
 PCOD8119639
Probable space group: P 2/C
;
_chemical_formula_sum "Si O2"
_cell_formula_units_Z 30
_cell_length_a 20.638717
_cell_length_b 14.274457
_cell_length_c 14.322045
_cell_angle_alpha 90.000000
_cell_angle_beta 19.165804
_cell_angle_gamma 90.000000
_cell_volume 1385.230727
_symmetry_space_group_name_H-M "P 2/C"
_symmetry_group_IT_number 13
_symmetry_cell_setting 'monoclinic'
loop_
_space_group_symop_operation_xyz
x,y,z
-x,y,1/2-z
-x,-y,-z
x,-y,1/2+z
loop_
_atom_site_type_symbol
_atom_site_label
_atom_site_fract_x
_atom_site_fract_y
_atom_site_fract_z
Si Si1 0.430530 0.605359 0.747212
Si Si2 0.275343 0.049479 0.901540
Si Si3 0.969724 0.692108 0.143401
Si Si4 0.701632 0.011677 0.845090
Si Si5 0.000000 0.789461 0.750000
Si Si6 0.076891 0.097062 0.798900
Si Si7 0.816525 0.336803 0.657248
Si Si8 0.815814 0.528198 0.563043
O O1 0.500000 0.556412 0.750000
O O2 0.591353 0.684207 0.496772
O O3 0.383989 0.529855 0.728681
O O4 0.225154 0.656057 0.041823
O O5 0.492545 0.039300 0.651084
O O6 0.295711 0.054155 0.761991
O O7 0.160350 0.145201 0.086298
O O8 0.141892 0.963624 0.120231
O O9 0.975916 0.799938 0.164712
O O10 0.969416 0.682935 0.031884
O O11 0.153119 0.630938 0.931948
O O12 0.873460 0.936094 0.623065
O O13 0.750325 0.092339 0.856266
O O14 0.121494 0.723902 0.515090
O O15 0.802377 0.448618 0.659673
O O16 0.000000 0.497418 0.250000
#
# Coordination Sequence:
#
# PCOD8119639 Si02
#       8
#     4   4   4   4   2   4   4   4
#     4   9  21  39  63  94 125 164 216 264 315 386
#     4  11  23  41  61  93 126 168 215 270 317 399
#     4  10  23  38  66  93 124 162 218 269 321 380
#     4  10  23  39  65  88 128 167 215 260 333 377
#     4  12  24  40  64  92 134 174 218 262 340 398
#     4  11  22  42  63  93 127 168 212 274 321 384
#     4  11  22  40  63  89 129 170 213 263 330 393
#     4  10  20  40  64  95 126 164 210 270 327 385
#
# _framework density 21.657041
#
# number of rings (size 3 to 8) (size 9 to 14) (size 15 to 20)
#    0.000    1.600    2.000    2.000    1.867    9.600 
#    0.000    0.000    0.000    0.000    0.000    0.000 
#    0.000    0.000    0.000    0.000    0.000    0.000 
#
# Total GULP energy -371798.868153 kJ/mol
# GULP energy per Si atom -12393.295605 kJ/mol
# Density = 2.160775 g / cm^3
# Si number density = 21.657041 Si / 1000 Ang^3
#
#
#
# Elastic Constant Matrix: (Units=GPa)
#
#
# Indices 1 2 3 4 5 6 
#
# 1 101.6929 37.7899 24.8402 0.0000 -5.0819 0.0000
# 2 37.7899 116.0546 25.8511 0.0000 -1.0852 0.0000
# 3 24.8402 25.8511 84.6620 0.0000 -15.6155 0.0000
# 4 0.0000 0.0000 0.0000 10.8787 0.0000 -0.1674
# 5 -5.0819 -1.0852 -15.6155 0.0000 36.6801 0.0000
# 6 0.0000 0.0000 0.0000 -0.1674 0.0000 34.0569
#
#
#
# Elastic Compliance Matrix: (Units=1/GPa)
#
#
# Indices 1 2 3 4 5 6 
#
# 1 0.011641 -0.003269 -0.002320 0.000000 0.000529 0.000000
# 2 -0.003269 0.010198 -0.002369 0.000000 -0.001160 0.000000
# 3 -0.002320 -0.002369 0.014263 0.000000 0.005681 0.000000
# 4 0.000000 0.000000 0.000000 0.091929 0.000000 0.000452
# 5 0.000529 -0.001160 0.005681 0.000000 0.029720 0.000000
# 6 0.000000 0.000000 0.000000 0.000452 0.000000 0.029365
#
#
# Mechanical properties :
#
#
# Convention : Reuss Voigt Hill
#
# Bulk Modulus (GPa) = 49.53562 53.26356 51.39959
# Shear Modulus (GPa) = 23.83661 30.58503 27.21082
#
# Velocity S-wave (km/s) = 3.32119 3.76206 3.54848
# Velocity P-wave (km/s) = 6.13429 6.59684 6.36976
#
# Compressibility (1/GPa) = 0.02018749
#
# Stress axis : x y z
#
# Youngs Moduli (GPa) = 85.90022 98.05990 70.10956
#
# Poissons Ratio (x) = 0.32056 0.16265
# Poissons Ratio (y) = 0.28081 0.16606
# Poissons Ratio (z) = 0.19929 0.23227
#
# Static dielectric constant tensor:
#      x y z
#    x 4.301580 0.000000 -0.104510 
#    y 0.000000 3.732430 0.000000 
#    z -0.104510 0.000000 4.136440 
# 
# 
# High freq. dielectric constant tensor:
#      x y z
#    x 1.862670 0.000000 0.004230 
#    y 0.000000 1.822170 0.000000 
#    z 0.004230 0.000000 1.858480 
# 
# From -- ./inp_files/57811.got.cif
#   From: 2010.06.25/outbox.cif.g09.slc.cpg/sg13_29_cif.got.tgz:57811.got - 2010.06.28 04:50:58.
