data_PCOD8119770
_publ_section_title
;
Structure prediction by ZEFSAII (Michael W. Deem and Ramdas Pophale) SiO2 
 PCOD8119770
Probable space group: P 2/C
;
_chemical_formula_sum "Si O2"
_cell_formula_units_Z 28
_cell_length_a 17.580239
_cell_length_b 6.618684
_cell_length_c 12.557692
_cell_angle_alpha 90.000000
_cell_angle_beta 117.621339
_cell_angle_gamma 90.000000
_cell_volume 1294.658273
_symmetry_space_group_name_H-M "P 2/C"
_symmetry_group_IT_number 13
_symmetry_cell_setting 'monoclinic'
loop_
_space_group_symop_operation_xyz
x,y,z
-x,y,1/2-z
-x,-y,-z
x,-y,1/2+z
loop_
_atom_site_type_symbol
_atom_site_label
_atom_site_fract_x
_atom_site_fract_y
_atom_site_fract_z
Si Si1 0.438400 0.903827 0.046168
Si Si2 0.796369 0.664118 0.857188
Si Si3 0.911397 0.022243 0.883950
Si Si4 0.142104 0.693778 0.978321
Si Si5 0.000000 0.096570 0.250000
Si Si6 0.288522 0.617159 0.910914
Si Si7 0.359152 0.287398 0.103399
Si Si8 0.500000 0.588653 0.250000
O O1 0.492295 0.732891 0.142863
O O2 0.407244 0.081203 0.104873
O O3 0.358876 0.792727 0.937025
O O4 0.500000 0.000000 0.000000
O O5 0.860903 0.816288 0.846329
O O6 0.755078 0.551282 0.728418
O O7 0.721955 0.772049 0.877068
O O8 0.855023 0.533106 0.975384
O O9 0.937451 0.055310 0.776346
O O10 0.851119 0.181476 0.905784
O O11 0.000000 0.000000 0.000000
O O12 0.223669 0.720055 0.954284
O O13 0.054794 0.753054 0.861108
O O14 0.329037 0.408496 0.979019
O O15 0.418070 0.441885 0.209984
#
# Coordination Sequence:
#
# PCOD8119770 Si02
#       8
#     4   4   4   4   2   4   4   2
#     4  11  25  41  68  96 130 177 213 268 334 384
#     4  11  23  42  69  93 128 173 211 273 325 381
#     4  10  22  41  65  92 130 167 212 263 321 385
#     4  10  22  44  63  95 130 170 217 266 319 387
#     4  10  20  42  64  96 134 164 212 266 318 400
#     4  10  23  42  63  97 131 168 222 272 320 390
#     4  10  24  42  65  96 132 171 226 264 328 388
#     4  10  24  42  64  98 134 170 220 272 312 394
#
# _framework density 21.627327999999999
#
# number of rings (size 3 to 8) (size 9 to 14) (size 15 to 20)
#    0.000    1.714    1.429    1.286    6.000    4.571 
#   10.286    1.429    0.000    0.000    0.000    0.000 
#    0.000    0.000    0.000    0.000    0.000    0.000 
#
# Total GULP energy -346944.888460 kJ/mol
# GULP energy per Si atom -12390.888874 kJ/mol
# Density = 2.157810 g / cm^3
# Si number density = 21.627328 Si / 1000 Ang^3
#
#
#
# Elastic Constant Matrix: (Units=GPa)
#
#
# Indices 1 2 3 4 5 6 
#
# 1 101.9381 19.5514 25.6003 0.0000 -19.1822 0.0000
# 2 19.5514 58.6803 26.9208 0.0000 -0.2939 0.0000
# 3 25.6003 26.9208 95.9075 0.0000 -0.6959 0.0000
# 4 0.0000 0.0000 0.0000 23.7325 0.0000 0.2018
# 5 -19.1822 -0.2939 -0.6959 0.0000 35.7562 0.0000
# 6 0.0000 0.0000 0.0000 0.2018 0.0000 23.4368
#
#
#
# Elastic Compliance Matrix: (Units=1/GPa)
#
#
# Indices 1 2 3 4 5 6 
#
# 1 0.012188 -0.002936 -0.002382 0.000000 0.006468 0.000000
# 2 -0.002936 0.020268 -0.004916 0.000000 -0.001504 0.000000
# 3 -0.002382 -0.004916 0.012435 0.000000 -0.001077 0.000000
# 4 0.000000 0.000000 0.000000 0.042139 0.000000 -0.000363
# 5 0.006468 -0.001504 -0.001077 0.000000 0.031404 0.000000
# 6 0.000000 0.000000 0.000000 -0.000363 0.000000 0.042671
#
#
# Mechanical properties :
#
#
# Convention : Reuss Voigt Hill
#
# Bulk Modulus (GPa) = 40.94671 44.51899 42.73285
# Shear Modulus (GPa) = 26.35541 28.88202 27.61872
#
# Velocity S-wave (km/s) = 3.49466 3.65833 3.57743
# Velocity P-wave (km/s) = 5.93780 6.20273 6.07171
#
# Compressibility (1/GPa) = 0.02442199
#
# Stress axis : x y z
#
# Youngs Moduli (GPa) = 82.04533 49.34003 80.41927
#
# Poissons Ratio (x) = 0.14484 0.19160
# Poissons Ratio (y) = 0.24085 0.39537
# Poissons Ratio (z) = 0.19547 0.24257
#
# Static dielectric constant tensor:
#      x y z
#    x 4.225230 0.000000 -0.188860 
#    y 0.000000 3.818020 0.000000 
#    z -0.188860 0.000000 4.016740 
# 
# 
# High freq. dielectric constant tensor:
#      x y z
#    x 1.866430 0.000000 -0.002410 
#    y 0.000000 1.831100 0.000000 
#    z -0.002410 0.000000 1.853270 
# 
# From -- ./inp_files/54534.got.cif
#   From: 2010.06.25/outbox.cif.g09.slc.cpg/sg13_28_cif.got.tgz:54534.got - 2010.06.28 04:50:58.
