data_PCOD8119131
_publ_section_title
;
Structure prediction by ZEFSAII (Michael W. Deem and Ramdas Pophale) SiO2 
 PCOD8119131
Probable space group: P 2/C
;
_chemical_formula_sum "Si O2"
_cell_formula_units_Z 24
_cell_length_a 8.725552
_cell_length_b 8.918177
_cell_length_c 30.176839
_cell_angle_alpha 90.000000
_cell_angle_beta 31.301270
_cell_angle_gamma 90.000000
_cell_volume 1220.000772
_symmetry_space_group_name_H-M "P 2/C"
_symmetry_group_IT_number 13
_symmetry_cell_setting 'monoclinic'
loop_
_space_group_symop_operation_xyz
x,y,z
-x,y,1/2-z
-x,-y,-z
x,-y,1/2+z
loop_
_atom_site_type_symbol
_atom_site_label
_atom_site_fract_x
_atom_site_fract_y
_atom_site_fract_z
Si Si1 0.650122 0.571418 0.759571
Si Si2 0.694951 0.417333 0.582450
Si Si3 0.686452 0.948900 0.411652
Si Si4 0.193628 0.893826 0.746108
Si Si5 0.152242 0.367316 0.664593
Si Si6 0.681526 0.065434 0.582621
O O1 0.500000 0.603710 0.750000
O O2 0.414843 0.473178 0.843410
O O3 0.704836 0.725881 0.770958
O O4 0.958094 0.480106 0.682940
O O5 0.458140 0.452265 0.601731
O O6 0.726059 0.240389 0.578093
O O7 0.000000 0.500000 0.500000
O O8 0.781557 0.774188 0.383569
O O9 0.479317 0.985992 0.421940
O O10 0.500000 0.000000 0.500000
O O11 0.987495 0.046615 0.337045
O O12 0.000000 0.904735 0.750000
O O13 0.487139 0.997245 0.670807
O O14 0.000000 0.319765 0.750000
O O15 0.000000 0.000000 0.500000
#
# Coordination Sequence:
#
# PCOD8119131 Si02
#       6
#     4   4   4   4   4   4
#     4  11  23  37  57  85 113 148 193 241 287 330
#     4  10  20  37  61  86 114 150 189 231 283 349
#     4  10  21  37  59  86 113 146 189 237 287 335
#     4  10  20  38  59  80 113 155 191 227 282 348
#     4   9  19  40  61  79 113 156 190 230 286 349
#     4  10  21  37  60  86 114 151 191 228 280 351
#
# _framework density 19.672118999999999
#
# number of rings (size 3 to 8) (size 9 to 14) (size 15 to 20)
#    0.000    2.000    0.000    6.000    0.000    6.667 
#    0.000    3.333    0.000    0.000    0.000    0.000 
#    0.000    0.000    0.000    0.000    0.000    0.000 
#
# Total GULP energy -297444.602907 kJ/mol
# GULP energy per Si atom -12393.525121 kJ/mol
# Density = 1.962734 g / cm^3
# Si number density = 19.672119 Si / 1000 Ang^3
#
#
#
# Elastic Constant Matrix: (Units=GPa)
#
#
# Indices 1 2 3 4 5 6 
#
# 1 39.9913 34.6393 46.1529 0.0000 -21.5169 0.0000
# 2 34.6393 104.9151 73.5047 0.0000 -13.1443 0.0000
# 3 46.1529 73.5047 163.3094 0.0000 -19.9666 0.0000
# 4 0.0000 0.0000 0.0000 42.8680 0.0000 -7.9849
# 5 -21.5169 -13.1443 -19.9666 0.0000 36.6961 0.0000
# 6 0.0000 0.0000 0.0000 -7.9849 0.0000 21.7338
#
#
#
# Elastic Compliance Matrix: (Units=1/GPa)
#
#
# Indices 1 2 3 4 5 6 
#
# 1 0.056840 -0.009515 -0.008702 0.000000 0.025186 0.000000
# 2 -0.009515 0.015613 -0.004646 0.000000 -0.002514 0.000000
# 3 -0.008702 -0.004646 0.010548 0.000000 -0.001027 0.000000
# 4 0.000000 0.000000 0.000000 0.025041 0.000000 0.009200
# 5 0.025186 -0.002514 -0.001027 0.000000 0.040559 0.000000
# 6 0.000000 0.000000 0.000000 0.009200 0.000000 0.049391
#
#
# Mechanical properties :
#
#
# Convention : Reuss Voigt Hill
#
# Bulk Modulus (GPa) = 26.82649 68.53440 47.68044
# Shear Modulus (GPa) = 19.52039 30.52085 25.02062
#
# Velocity S-wave (km/s) = 3.15348 3.94315 3.57022
# Velocity P-wave (km/s) = 5.18899 7.45957 6.42537
#
# Compressibility (1/GPa) = 0.03727659
#
# Stress axis : x y z
#
# Youngs Moduli (GPa) = 17.59313 64.05032 94.80466
#
# Poissons Ratio (x) = 0.60942 0.82498
# Poissons Ratio (y) = 0.16739 0.44043
# Poissons Ratio (z) = 0.15309 0.29756
#
# Static dielectric constant tensor:
#      x y z
#    x 3.649580 0.000000 -0.518270 
#    y 0.000000 3.570500 0.000000 
#    z -0.518270 0.000000 4.146610 
# 
# 
# High freq. dielectric constant tensor:
#      x y z
#    x 1.749700 0.000000 -0.024200 
#    y 0.000000 1.776980 0.000000 
#    z -0.024200 0.000000 1.775010 
# 
# From -- ./inp_files/68105.got.cif
#   From: 2010.06.25/outbox.cif.g09.slc.cpg/sg13_35_cif.got.tgz:68105.got - 2010.06.28 04:50:58.
