data_PCOD8119572
_publ_section_title
;
Structure prediction by ZEFSAII (Michael W. Deem and Ramdas Pophale) SiO2 
 PCOD8119572
Probable space group: P 2/C
;
_chemical_formula_sum "Si O2"
_cell_formula_units_Z 32
_cell_length_a 23.240360
_cell_length_b 7.697595
_cell_length_c 29.822357
_cell_angle_alpha 90.000000
_cell_angle_beta 163.079973
_cell_angle_gamma 90.000000
_cell_volume 1552.699839
_symmetry_space_group_name_H-M "P 2/C"
_symmetry_group_IT_number 13
_symmetry_cell_setting 'monoclinic'
loop_
_space_group_symop_operation_xyz
x,y,z
-x,y,1/2-z
-x,-y,-z
x,-y,1/2+z
loop_
_atom_site_type_symbol
_atom_site_label
_atom_site_fract_x
_atom_site_fract_y
_atom_site_fract_z
Si Si1 0.778066 0.511171 0.883937
Si Si2 0.225164 0.940944 0.724167
Si Si3 0.803540 0.815654 0.576821
Si Si4 0.281938 0.294054 0.076844
Si Si5 0.359134 0.433714 0.041483
Si Si6 0.994119 0.993319 0.851188
Si Si7 0.931873 0.756314 0.442052
Si Si8 0.328511 0.118340 0.959674
O O1 0.751299 0.534891 0.917116
O O2 0.592847 0.598628 0.720499
O O3 0.793938 0.310026 0.880556
O O4 0.984987 0.597587 0.024842
O O5 0.120232 0.852735 0.603394
O O6 0.118173 0.896597 0.691720
O O7 0.203921 0.142653 0.694999
O O8 0.453571 0.889575 0.899292
O O9 0.677454 0.640044 0.488643
O O10 0.000000 0.776917 0.750000
O O11 0.686960 0.980647 0.510814
O O12 0.863388 0.860725 0.569954
O O13 0.500000 0.219112 0.250000
O O14 0.245466 0.356718 0.999431
O O15 0.127607 0.142505 0.973274
O O16 0.287605 0.316131 0.946229
O O17 0.832493 0.077847 0.697883
#
# Coordination Sequence:
#
# PCOD8119572 Si02
#       8
#     4   4   4   4   4   4   4   4
#     4  10  20  40  56  93 120 160 210 262 305 378
#     4  11  22  40  63  93 125 172 209 258 323 373
#     4  10  24  40  63  93 123 162 212 258 311 379
#     4  10  22  38  63  90 122 160 208 260 314 373
#     4  11  22  40  65  88 123 163 210 254 323 366
#     4  11  23  42  62  94 129 163 210 267 312 374
#     4  10  21  35  65  84 126 165 208 255 316 374
#     4  11  23  42  66  92 125 169 211 258 312 380
#
# _framework density 20.609265000000001
#
# number of rings (size 3 to 8) (size 9 to 14) (size 15 to 20)
#    0.000    1.500    3.750    1.125    3.500    0.000 
#    2.250    0.000    0.000    3.750    0.000    0.000 
#    0.000    0.000    0.000    0.000    0.000    0.000 
#
# Total GULP energy -396625.151044 kJ/mol
# GULP energy per Si atom -12394.535970 kJ/mol
# Density = 2.056236 g / cm^3
# Si number density = 20.609265 Si / 1000 Ang^3
#
#
#
# Elastic Constant Matrix: (Units=GPa)
#
#
# Indices 1 2 3 4 5 6 
#
# 1 99.4841 28.5131 25.4260 0.0000 13.5879 0.0000
# 2 28.5131 86.0167 15.8599 0.0000 7.6465 0.0000
# 3 25.4260 15.8599 65.3844 0.0000 7.5879 0.0000
# 4 0.0000 0.0000 0.0000 23.3075 0.0000 6.0466
# 5 13.5879 7.6465 7.5879 0.0000 30.5641 0.0000
# 6 0.0000 0.0000 0.0000 6.0466 0.0000 34.9152
#
#
#
# Elastic Compliance Matrix: (Units=1/GPa)
#
#
# Indices 1 2 3 4 5 6 
#
# 1 0.012389 -0.003098 -0.003621 0.000000 -0.003834 0.000000
# 2 -0.003098 0.013115 -0.001808 0.000000 -0.001455 0.000000
# 3 -0.003621 -0.001808 0.017403 0.000000 -0.002258 0.000000
# 4 0.000000 0.000000 0.000000 0.044923 0.000000 -0.007780
# 5 -0.003834 -0.001455 -0.002258 0.000000 0.035347 0.000000
# 6 0.000000 0.000000 0.000000 -0.007780 0.000000 0.029988
#
#
# Mechanical properties :
#
#
# Convention : Reuss Voigt Hill
#
# Bulk Modulus (GPa) = 38.68039 43.38701 41.03370
# Shear Modulus (GPa) = 27.95839 29.82979 28.89409
#
# Velocity S-wave (km/s) = 3.68719 3.80859 3.74838
# Velocity P-wave (km/s) = 6.07753 6.35912 6.21992
#
# Compressibility (1/GPa) = 0.02585289
#
# Stress axis : x y z
#
# Youngs Moduli (GPa) = 80.71696 76.24682 57.46159
#
# Poissons Ratio (x) = 0.23623 0.20808
# Poissons Ratio (y) = 0.25008 0.10387
# Poissons Ratio (z) = 0.29230 0.13783
#
# Static dielectric constant tensor:
#      x y z
#    x 3.783860 0.000000 0.155560 
#    y 0.000000 3.701890 0.000000 
#    z 0.155560 0.000000 3.610250 
# 
# 
# High freq. dielectric constant tensor:
#      x y z
#    x 1.808860 0.000000 0.011440 
#    y 0.000000 1.794300 0.000000 
#    z 0.011440 0.000000 1.803340 
# 
# From -- ./inp_files/93597.got.cif
#   From: 2010.06.25/outbox.cif.g09.slc.cpg/sg13_47_cif.got.tgz:93597.got - 2010.06.28 04:50:58.
