data_PCOD8119177
_publ_section_title
;
Structure prediction by ZEFSAII (Michael W. Deem and Ramdas Pophale) SiO2 
 PCOD8119177
Probable space group: P 2/C
;
_chemical_formula_sum "Si O2"
_cell_formula_units_Z 30
_cell_length_a 12.314224
_cell_length_b 8.423738
_cell_length_c 15.553424
_cell_angle_alpha 90.000000
_cell_angle_beta 64.890316
_cell_angle_gamma 90.000000
_cell_volume 1460.915073
_symmetry_space_group_name_H-M "P 2/C"
_symmetry_group_IT_number 13
_symmetry_cell_setting 'monoclinic'
loop_
_space_group_symop_operation_xyz
x,y,z
-x,y,1/2-z
-x,-y,-z
x,-y,1/2+z
loop_
_atom_site_type_symbol
_atom_site_label
_atom_site_fract_x
_atom_site_fract_y
_atom_site_fract_z
Si Si1 0.218757 0.700272 0.742142
Si Si2 0.000000 0.128383 0.250000
Si Si3 0.366577 0.091353 0.325092
Si Si4 0.129617 0.483774 0.912610
Si Si5 0.247368 0.709862 0.996993
Si Si6 0.635318 0.556735 0.954529
Si Si7 0.074716 0.979805 0.060833
Si Si8 0.266957 0.208894 0.935734
O O1 0.270552 0.833855 0.790108
O O2 0.141151 0.559502 0.813934
O O3 0.328882 0.633577 0.648735
O O4 0.122240 0.771192 0.707980
O O5 0.990586 0.019706 0.168883
O O6 0.500000 0.125583 0.250000
O O7 0.348749 0.172048 0.424920
O O8 0.347286 0.902107 0.345614
O O9 0.228087 0.580106 0.931177
O O10 0.176148 0.303107 0.902344
O O11 0.000000 0.500000 0.000000
O O12 0.290003 0.608753 0.064555
O O13 0.122952 0.801072 0.057686
O O14 0.500000 0.500000 0.000000
O O15 0.654831 0.678777 0.027648
O O16 0.187385 0.097499 0.023266
O O17 0.000000 0.000000 0.000000
#
# Coordination Sequence:
#
# PCOD8119177 Si02
#       8
#     4   2   4   4   4   4   4   4
#     4  11  24  40  63  94 128 172 217 273 332 394
#     4  12  22  40  64  94 136 168 218 272 336 404
#     4  10  21  42  66  90 121 168 225 271 321 384
#     4  10  20  37  63  89 123 165 209 261 323 387
#     4   9  21  39  59  89 123 165 212 252 323 393
#     4  11  23  43  62  91 135 173 210 269 330 384
#     4  11  21  41  64  92 132 170 211 270 332 390
#     4  10  21  40  61  92 123 162 218 261 325 393
#
# _framework density 20.535073000000001
#
# number of rings (size 3 to 8) (size 9 to 14) (size 15 to 20)
#    0.000    1.600    1.333    4.800    1.867    1.067 
#    9.600    3.333    0.000    0.000    0.000    0.000 
#    0.000    0.000    0.000    0.000    0.000    0.000 
#
# Total GULP energy -371774.218336 kJ/mol
# GULP energy per Si atom -12392.473945 kJ/mol
# Density = 2.048833 g / cm^3
# Si number density = 20.535073 Si / 1000 Ang^3
#
#
#
# Elastic Constant Matrix: (Units=GPa)
#
#
# Indices 1 2 3 4 5 6 
#
# 1 90.5992 36.5111 34.3460 0.0000 -2.9247 0.0000
# 2 36.5111 110.4177 38.0444 0.0000 4.7450 0.0000
# 3 34.3460 38.0444 117.4920 0.0000 -3.6564 0.0000
# 4 0.0000 0.0000 0.0000 33.7300 0.0000 -1.7295
# 5 -2.9247 4.7450 -3.6564 0.0000 33.1738 0.0000
# 6 0.0000 0.0000 0.0000 -1.7295 0.0000 33.2832
#
#
#
# Elastic Compliance Matrix: (Units=1/GPa)
#
#
# Indices 1 2 3 4 5 6 
#
# 1 0.013580 -0.003600 -0.002760 0.000000 0.001408 0.000000
# 2 -0.003600 0.011260 -0.002663 0.000000 -0.002221 0.000000
# 3 -0.002760 -0.002663 0.010220 0.000000 0.001264 0.000000
# 4 0.000000 0.000000 0.000000 0.029726 0.000000 0.001545
# 5 0.001408 -0.002221 0.001264 0.000000 0.030725 0.000000
# 6 0.000000 0.000000 0.000000 0.001545 0.000000 0.030125
#
#
# Mechanical properties :
#
#
# Convention : Reuss Voigt Hill
#
# Bulk Modulus (GPa) = 58.77631 59.59022 59.18326
# Shear Modulus (GPa) = 33.47742 34.01122 33.74432
#
# Velocity S-wave (km/s) = 4.04202 4.07412 4.05810
# Velocity P-wave (km/s) = 7.10412 7.15633 7.13027
#
# Compressibility (1/GPa) = 0.01701366
#
# Stress axis : x y z
#
# Youngs Moduli (GPa) = 73.63610 88.81161 97.85032
#
# Poissons Ratio (x) = 0.31971 0.27011
# Poissons Ratio (y) = 0.26508 0.26055
# Poissons Ratio (z) = 0.20326 0.23648
#
# Static dielectric constant tensor:
#      x y z
#    x 4.409610 0.000000 -0.069700 
#    y 0.000000 4.300250 0.000000 
#    z -0.069700 0.000000 3.681170 
# 
# 
# High freq. dielectric constant tensor:
#      x y z
#    x 1.795180 0.000000 -0.005200 
#    y 0.000000 1.815160 0.000000 
#    z -0.005200 0.000000 1.791370 
# 
# From -- ./inp_files/50307.got.cif
#   From: 2010.06.25/outbox.cif.g09.slc.cpg/sg13_26_cif.got.tgz:50307.got - 2010.06.28 04:50:58.
