data_PCOD8119782
_publ_section_title
;
Structure prediction by ZEFSAII (Michael W. Deem and Ramdas Pophale) SiO2 
 PCOD8119782
Probable space group: P 2/C
;
_chemical_formula_sum "Si O2"
_cell_formula_units_Z 20
_cell_length_a 21.358485
_cell_length_b 7.630452
_cell_length_c 15.632693
_cell_angle_alpha 90.000000
_cell_angle_beta 159.006616
_cell_angle_gamma 90.000000
_cell_volume 912.752447
_symmetry_space_group_name_H-M "P 2/C"
_symmetry_group_IT_number 13
_symmetry_cell_setting 'monoclinic'
loop_
_space_group_symop_operation_xyz
x,y,z
-x,y,1/2-z
-x,-y,-z
x,-y,1/2+z
loop_
_atom_site_type_symbol
_atom_site_label
_atom_site_fract_x
_atom_site_fract_y
_atom_site_fract_z
Si Si1 0.858854 0.650153 0.232737
Si Si2 0.500000 0.833774 0.750000
Si Si3 0.149181 0.745815 0.719563
Si Si4 0.477625 0.910718 0.062669
Si Si5 0.171748 0.869877 0.933343
Si Si6 0.000000 0.209940 0.750000
O O1 0.828554 0.452730 0.222905
O O2 0.956227 0.764657 0.431149
O O3 0.991211 0.662350 0.320720
O O4 0.670164 0.714702 0.965556
O O5 0.512688 0.946435 0.851146
O O6 0.166933 0.872298 0.823995
O O7 0.300777 0.796933 0.844700
O O8 0.649655 0.787459 0.300226
O O9 0.500000 0.000000 0.000000
O O10 0.000000 0.766908 0.750000
O O11 0.165653 0.074643 0.957087
#
# Coordination Sequence:
#
# PCOD8119782 Si02
#       6
#     4   2   4   4   4   2
#     4  11  26  43  66 101 140 186 217 298 344 418
#     4  12  24  44  68 102 136 180 238 288 348 400
#     4  11  25  45  67  97 147 181 231 277 361 408
#     4  12  24  43  70 103 136 182 235 288 335 418
#     4  10  22  41  67 101 127 181 226 286 335 409
#     4  10  20  42  66  98 134 170 240 274 342 400
#
# _framework density 21.911745
#
# number of rings (size 3 to 8) (size 9 to 14) (size 15 to 20)
#    0.600    0.400    4.000    1.200    7.000    1.600 
#    0.000    1.000    0.000    0.000    0.000    0.000 
#    0.000    0.000    0.000    0.000    0.000    0.000 
#
# Total GULP energy -247769.014883 kJ/mol
# GULP energy per Si atom -12388.450744 kJ/mol
# Density = 2.186187 g / cm^3
# Si number density = 21.911745 Si / 1000 Ang^3
#
#
#
# Elastic Constant Matrix: (Units=GPa)
#
#
# Indices 1 2 3 4 5 6 
#
# 1 156.8626 47.1019 59.0348 0.0000 -5.2703 0.0000
# 2 47.1019 66.7641 42.8065 0.0000 4.5382 0.0000
# 3 59.0348 42.8065 139.0902 0.0000 7.8823 0.0000
# 4 0.0000 0.0000 0.0000 20.8267 0.0000 5.1238
# 5 -5.2703 4.5382 7.8823 0.0000 39.9054 0.0000
# 6 0.0000 0.0000 0.0000 5.1238 0.0000 29.7818
#
#
#
# Elastic Compliance Matrix: (Units=1/GPa)
#
#
# Indices 1 2 3 4 5 6 
#
# 1 0.008790 -0.004832 -0.002367 0.000000 0.002178 0.000000
# 2 -0.004832 0.021355 -0.004397 0.000000 -0.002198 0.000000
# 3 -0.002367 -0.004397 0.009645 0.000000 -0.001718 0.000000
# 4 0.000000 0.000000 0.000000 0.050138 0.000000 -0.008626
# 5 0.002178 -0.002198 -0.001718 0.000000 0.025936 0.000000
# 6 0.000000 0.000000 0.000000 -0.008626 0.000000 0.035062
#
#
# Mechanical properties :
#
#
# Convention : Reuss Voigt Hill
#
# Bulk Modulus (GPa) = 60.24639 73.40040 66.82340
# Shear Modulus (GPa) = 27.83189 32.35434 30.09311
#
# Velocity S-wave (km/s) = 3.56783 3.84679 3.70993
# Velocity P-wave (km/s) = 6.67287 7.30078 6.99387
#
# Compressibility (1/GPa) = 0.01659850
#
# Stress axis : x y z
#
# Youngs Moduli (GPa) = 113.76762 46.82655 103.68168
#
# Poissons Ratio (x) = 0.22624 0.24544
# Poissons Ratio (y) = 0.54967 0.45590
# Poissons Ratio (z) = 0.26931 0.20590
#
# Static dielectric constant tensor:
#      x y z
#    x 4.282840 0.000000 0.258300 
#    y 0.000000 3.591250 0.000000 
#    z 0.258300 0.000000 4.417590 
# 
# 
# High freq. dielectric constant tensor:
#      x y z
#    x 1.876950 0.000000 0.008350 
#    y 0.000000 1.827240 0.000000 
#    z 0.008350 0.000000 1.877500 
# 
# From -- ./inp_files/57412.got.cif
#   From: 2010.06.25/outbox.cif.g09.slc.cpg/sg13_29_cif.got.tgz:57412.got - 2010.06.28 04:50:58.
