data_PCOD8119296
_publ_section_title
;
Structure prediction by ZEFSAII (Michael W. Deem and Ramdas Pophale) SiO2 
 PCOD8119296
Probable space group: P 2/C
;
_chemical_formula_sum "Si O2"
_cell_formula_units_Z 20
_cell_length_a 11.749629
_cell_length_b 8.829429
_cell_length_c 29.208324
_cell_angle_alpha 90.000000
_cell_angle_beta 161.471547
_cell_angle_gamma 90.000000
_cell_volume 962.906002
_symmetry_space_group_name_H-M "P 2/C"
_symmetry_group_IT_number 13
_symmetry_cell_setting 'monoclinic'
loop_
_space_group_symop_operation_xyz
x,y,z
-x,y,1/2-z
-x,-y,-z
x,-y,1/2+z
loop_
_atom_site_type_symbol
_atom_site_label
_atom_site_fract_x
_atom_site_fract_y
_atom_site_fract_z
Si Si1 0.223470 0.314022 0.042409
Si Si2 0.755437 0.831948 0.810621
Si Si3 0.695001 0.913591 0.002577
Si Si4 0.273961 0.342133 0.564683
Si Si5 0.873119 0.864239 0.248108
O O1 0.536294 0.212245 0.182650
O O2 0.378282 0.483441 0.097710
O O3 0.176115 0.239199 0.974423
O O4 0.856715 0.309599 0.932700
O O5 0.500000 0.912489 0.750000
O O6 0.051135 0.949461 0.911813
O O7 0.933066 0.684009 0.901693
O O8 0.764759 0.887635 0.083535
O O9 0.303086 0.976194 0.837821
O O10 0.601819 0.234071 0.675670
O O11 0.000000 0.777362 0.250000
#
# Coordination Sequence:
#
# PCOD8119296 Si02
#       5
#     4   4   4   4   4
#     4  10  20  38  60  94 117 153 194 246 317 347
#     4   9  19  34  55  89 122 145 191 248 298 360
#     4  11  22  38  65  87 117 157 198 252 296 349
#     4   9  22  37  61  86 125 155 193 247 296 368
#     4  11  24  42  60  87 121 161 204 244 293 353
#
# _framework density 20.770458999999999
#
# number of rings (size 3 to 8) (size 9 to 14) (size 15 to 20)
#    0.000    2.000    2.000    0.600    5.600    2.400 
#    0.000    2.000    0.000    0.000    0.000    0.000 
#    0.000    0.000    0.000    0.000    0.000    0.000 
#
# Total GULP energy -247779.308928 kJ/mol
# GULP energy per Si atom -12388.965446 kJ/mol
# Density = 2.072318 g / cm^3
# Si number density = 20.770459 Si / 1000 Ang^3
#
#
#
# Elastic Constant Matrix: (Units=GPa)
#
#
# Indices 1 2 3 4 5 6 
#
# 1 90.0207 25.7978 35.0140 -0.0085 -19.3603 0.0089
# 2 25.7978 70.9437 12.7339 -0.0036 -4.8267 0.0040
# 3 35.0140 12.7339 55.3316 0.0008 -15.9509 -0.0005
# 4 -0.0085 -0.0036 0.0008 46.5864 -0.0029 -32.9654
# 5 -19.3603 -4.8267 -15.9509 -0.0029 38.5000 0.0031
# 6 0.0089 0.0040 -0.0005 -32.9654 0.0031 56.5474
#
#
#
# Elastic Compliance Matrix: (Units=1/GPa)
#
#
# Indices 1 2 3 4 5 6 
#
# 1 0.016430 -0.004212 -0.008174 0.000002 0.004347 -0.000001
# 2 -0.004212 0.015791 -0.001146 0.000000 -0.000613 0.000000
# 3 -0.008174 -0.001146 0.025305 -0.000001 0.006230 0.000001
# 4 0.000002 0.000000 -0.000001 0.036538 0.000002 0.021301
# 5 0.004347 -0.000613 0.006230 0.000002 0.030664 -0.000001
# 6 -0.000001 0.000000 0.000001 0.021301 -0.000001 0.030102
#
#
# Mechanical properties :
#
#
# Convention : Reuss Voigt Hill
#
# Bulk Modulus (GPa) = 32.82676 40.37638 36.60157
# Shear Modulus (GPa) = 26.03508 37.84345 31.93927
#
# Velocity S-wave (km/s) = 3.54427 4.27310 3.92564
# Velocity P-wave (km/s) = 5.70859 6.62023 6.18124
#
# Compressibility (1/GPa) = 0.03046295
#
# Stress axis : x y z
#
# Youngs Moduli (GPa) = 60.86451 63.32676 39.51744
#
# Poissons Ratio (x) = 0.26670 0.32303
# Poissons Ratio (y) = 0.25633 0.04528
# Poissons Ratio (z) = 0.49753 0.07255
#
# Static dielectric constant tensor:
#      x y z
#    x 4.571260 0.000000 -0.781310 
#    y 0.000000 3.635610 0.000000 
#    z -0.781310 0.000000 4.661450 
# 
# 
# High freq. dielectric constant tensor:
#      x y z
#    x 1.813780 0.000000 -0.012560 
#    y 0.000000 1.792330 0.000000 
#    z -0.012560 0.000000 1.814560 
# 
# From -- ./inp_files/14824.got.cif
#   From: 2010.06.25/outbox.cif.g09.slc.cpg/sg13_8_cif.got.tgz:14824.got - 2010.06.28 04:50:58.
