data_PCOD8119224
_publ_section_title
;
Structure prediction by ZEFSAII (Michael W. Deem and Ramdas Pophale) SiO2 
 PCOD8119224
Probable space group: P 2/C
;
_chemical_formula_sum "Si O2"
_cell_formula_units_Z 28
_cell_length_a 27.496067
_cell_length_b 9.399075
_cell_length_c 9.721318
_cell_angle_alpha 90.000000
_cell_angle_beta 142.905159
_cell_angle_gamma 90.000000
_cell_volume 1515.291600
_symmetry_space_group_name_H-M "P 2/C"
_symmetry_group_IT_number 13
_symmetry_cell_setting 'monoclinic'
loop_
_space_group_symop_operation_xyz
x,y,z
-x,y,1/2-z
-x,-y,-z
x,-y,1/2+z
loop_
_atom_site_type_symbol
_atom_site_label
_atom_site_fract_x
_atom_site_fract_y
_atom_site_fract_z
Si Si1 0.492537 0.639455 0.074259
Si Si2 0.821300 0.105311 0.604292
Si Si3 0.935284 0.372257 0.493554
Si Si4 0.361762 0.138727 0.282704
Si Si5 0.039482 0.692980 0.975143
Si Si6 0.623376 0.874270 0.368282
Si Si7 0.806077 0.152262 0.257847
O O1 0.500000 0.594420 0.250000
O O2 0.561221 0.751696 0.186275
O O3 0.500000 0.500000 0.000000
O O4 0.405928 0.712494 0.850173
O O5 0.733716 0.163954 0.452988
O O6 0.825318 0.084132 0.449734
O O7 0.837932 0.954414 0.712818
O O8 0.889597 0.212809 0.805431
O O9 0.921637 0.540628 0.473099
O O10 0.849851 0.302124 0.335525
O O11 0.000000 0.318200 0.750000
O O12 0.965719 0.325041 0.413313
O O13 0.383014 0.088468 0.484969
O O14 0.395613 0.017865 0.257687
O O15 0.000000 0.762605 0.750000
O O16 0.711667 0.816548 0.528148
#
# Coordination Sequence:
#
# PCOD8119224 Si02
#       7
#     4   4   4   4   4   4   4
#     4  10  21  36  56  83 113 143 177 217 262 313
#     4  10  21  37  54  80 109 139 177 223 268 315
#     4  10  20  38  55  74 104 144 180 219 270 318
#     4   9  19  36  57  79 108 142 178 218 265 316
#     4  10  22  36  55  77 105 141 184 221 265 321
#     4   9  19  36  56  81 108 141 178 218 265 315
#     4  10  21  36  56  79 109 139 177 223 268 315
#
# _framework density 18.478293000000001
#
# number of rings (size 3 to 8) (size 9 to 14) (size 15 to 20)
#    0.000    2.286    1.429    0.429    2.000    3.429 
#    0.000    0.000    0.000    0.000    0.000    0.000 
#    0.000    0.000    0.000    0.000    0.000    0.000 
#
# Total GULP energy -347261.389635 kJ/mol
# GULP energy per Si atom -12402.192487 kJ/mol
# Density = 1.843624 g / cm^3
# Si number density = 18.478293 Si / 1000 Ang^3
#
#
#
# Elastic Constant Matrix: (Units=GPa)
#
#
# Indices 1 2 3 4 5 6 
#
# 1 67.0443 31.6835 12.8102 0.0000 -6.8192 0.0000
# 2 31.6835 71.2816 20.9270 0.0000 2.3134 0.0000
# 3 12.8102 20.9270 61.7579 0.0000 -0.0339 0.0000
# 4 0.0000 0.0000 0.0000 23.2869 0.0000 -4.8669
# 5 -6.8192 2.3134 -0.0339 0.0000 28.6478 0.0000
# 6 0.0000 0.0000 0.0000 -4.8669 0.0000 32.6003
#
#
#
# Elastic Compliance Matrix: (Units=1/GPa)
#
#
# Indices 1 2 3 4 5 6 
#
# 1 0.019759 -0.008612 -0.001177 0.000000 0.005398 0.000000
# 2 -0.008612 0.019378 -0.004782 0.000000 -0.003621 0.000000
# 3 -0.001177 -0.004782 0.018057 0.000000 0.000127 0.000000
# 4 0.000000 0.000000 0.000000 0.044326 0.000000 0.006617
# 5 0.005398 -0.003621 0.000127 0.000000 0.036484 0.000000
# 6 0.000000 0.000000 0.000000 0.006617 0.000000 0.031662
#
#
# Mechanical properties :
#
#
# Convention : Reuss Voigt Hill
#
# Bulk Modulus (GPa) = 35.64885 36.76948 36.20917
# Shear Modulus (GPa) = 24.01993 25.88453 24.95223
#
# Velocity S-wave (km/s) = 3.60932 3.74680 3.67870
# Velocity P-wave (km/s) = 6.05837 6.21771 6.13855
#
# Compressibility (1/GPa) = 0.02805139
#
# Stress axis : x y z
#
# Youngs Moduli (GPa) = 50.60879 51.60414 55.38032
#
# Poissons Ratio (x) = 0.44443 0.06520
# Poissons Ratio (y) = 0.43586 0.26483
# Poissons Ratio (z) = 0.05958 0.24677
#
# Static dielectric constant tensor:
#      x y z
#    x 3.544310 0.000000 -0.070330 
#    y 0.000000 3.211990 0.000000 
#    z -0.070330 0.000000 3.530930 
# 
# 
# High freq. dielectric constant tensor:
#      x y z
#    x 1.726300 0.000000 -0.002500 
#    y 0.000000 1.700950 0.000000 
#    z -0.002500 0.000000 1.724210 
# 
# From -- ./inp_files/24609.got.cif
#   From: 2010.06.25/outbox.cif.g09.slc.cpg/sg13_13_cif.got.tgz:24609.got - 2010.06.28 04:50:58.
