data_PCOD8119068
_publ_section_title
;
Structure prediction by ZEFSAII (Michael W. Deem and Ramdas Pophale) SiO2 
 PCOD8119068
Probable space group: P 2/C
;
_chemical_formula_sum "Si O2"
_cell_formula_units_Z 24
_cell_length_a 21.737490
_cell_length_b 11.737007
_cell_length_c 22.432928
_cell_angle_alpha 90.000000
_cell_angle_beta 12.674081
_cell_angle_gamma 90.000000
_cell_volume 1255.737892
_symmetry_space_group_name_H-M "P 2/C"
_symmetry_group_IT_number 13
_symmetry_cell_setting 'monoclinic'
loop_
_space_group_symop_operation_xyz
x,y,z
-x,y,1/2-z
-x,-y,-z
x,-y,1/2+z
loop_
_atom_site_type_symbol
_atom_site_label
_atom_site_fract_x
_atom_site_fract_y
_atom_site_fract_z
Si Si1 0.081194 0.883805 0.822359
Si Si2 0.804307 0.135180 0.812151
Si Si3 0.639534 0.113625 0.842191
Si Si4 0.202802 0.524218 0.005497
Si Si5 0.808506 0.273832 0.484945
Si Si6 0.641333 0.754169 0.680816
O O1 0.371361 0.817570 0.567085
O O2 0.877158 0.810505 0.973905
O O3 0.201081 0.997963 0.676971
O O4 0.888486 0.915017 0.061143
O O5 0.775434 0.178315 0.770752
O O6 0.096325 0.163908 0.566387
O O7 0.564790 0.202239 0.073758
O O8 0.500000 0.000000 0.000000
O O9 0.500000 0.491014 0.750000
O O10 0.244164 0.623986 0.916887
O O11 0.104607 0.401089 0.073185
O O12 0.000000 0.569797 0.250000
O O13 0.000000 0.235891 0.250000
O O14 0.500000 0.257647 0.750000
O O15 0.500000 0.759836 0.750000
#
# Coordination Sequence:
#
# PCOD8119068 Si02
#       6
#     4   4   4   4   4   4
#     4  11  21  36  56  79 108 141 179 224 270 321
#     4  11  21  34  54  79 107 141 178 220 267 319
#     4  10  20  37  55  74 103 146 191 216 252 323
#     4   9  18  35  55  76 106 146 187 216 256 330
#     4  10  21  36  57  84 111 143 180 224 278 327
#     4  11  21  34  53  80 110 140 173 218 273 322
#
# _framework density 19.112268
#
# number of rings (size 3 to 8) (size 9 to 14) (size 15 to 20)
#    0.000    1.667    0.000    8.500    0.000    2.000 
#    0.000    0.000    0.000    6.000    0.000    0.000 
#    0.000    0.000    0.000    0.000    0.000    0.000 
#
# Total GULP energy -297315.831840 kJ/mol
# GULP energy per Si atom -12388.159660 kJ/mol
# Density = 1.906877 g / cm^3
# Si number density = 19.112268 Si / 1000 Ang^3
#
#
#
# Elastic Constant Matrix: (Units=GPa)
#
#
# Indices 1 2 3 4 5 6 
#
# 1 93.9031 47.2695 29.0572 0.0000 -5.3195 0.0000
# 2 47.2695 102.3433 29.9153 0.0000 11.5318 0.0000
# 3 29.0572 29.9153 120.3692 0.0000 7.6290 0.0000
# 4 0.0000 0.0000 0.0000 28.1251 0.0000 3.5171
# 5 -5.3195 11.5318 7.6290 0.0000 43.3117 0.0000
# 6 0.0000 0.0000 0.0000 3.5171 0.0000 4.5798
#
#
#
# Elastic Compliance Matrix: (Units=1/GPa)
#
#
# Indices 1 2 3 4 5 6 
#
# 1 0.014930 -0.006707 -0.002191 0.000000 0.004005 0.000000
# 2 -0.006707 0.013795 -0.001542 0.000000 -0.004225 0.000000
# 3 -0.002191 -0.001542 0.009315 0.000000 -0.001499 0.000000
# 4 0.000000 0.000000 0.000000 0.039333 0.000000 -0.030206
# 5 0.004005 -0.004225 -0.001499 0.000000 0.024969 0.000000
# 6 0.000000 0.000000 0.000000 -0.030206 0.000000 0.241550
#
#
# Mechanical properties :
#
#
# Convention : Reuss Voigt Hill
#
# Bulk Modulus (GPa) = 58.27079 58.78883 58.52981
# Shear Modulus (GPa) = 13.49555 29.22823 21.36189
#
# Velocity S-wave (km/s) = 2.66017 3.91486 3.34684
# Velocity P-wave (km/s) = 6.32378 7.15970 6.75469
#
# Compressibility (1/GPa) = 0.01716126
#
# Stress axis : x y z
#
# Youngs Moduli (GPa) = 66.97802 72.48790 107.35439
#
# Poissons Ratio (x) = 0.48615 0.23524
# Poissons Ratio (y) = 0.44920 0.16552
# Poissons Ratio (z) = 0.14676 0.11176
#
# Static dielectric constant tensor:
#      x y z
#    x 3.791940 0.000000 -0.338090 
#    y 0.000000 3.523760 0.000000 
#    z -0.338090 0.000000 3.725170 
# 
# 
# High freq. dielectric constant tensor:
#      x y z
#    x 1.730010 0.000000 -0.010280 
#    y 0.000000 1.722330 0.000000 
#    z -0.010280 0.000000 1.773880 
# 
# From -- ./inp_files/89064.got.cif
#   From: 2010.06.25/outbox.cif.g09.slc.cpg/sg13_45_cif.got.tgz:89064.got - 2010.06.28 04:50:58.
