data_PCOD8119167
_publ_section_title
;
Structure prediction by ZEFSAII (Michael W. Deem and Ramdas Pophale) SiO2 
 PCOD8119167
Probable space group: P 2/C
;
_chemical_formula_sum "Si O2"
_cell_formula_units_Z 26
_cell_length_a 19.658311
_cell_length_b 10.245194
_cell_length_c 7.999456
_cell_angle_alpha 90.000000
_cell_angle_beta 127.745339
_cell_angle_gamma 90.000000
_cell_volume 1273.972950
_symmetry_space_group_name_H-M "P 2/C"
_symmetry_group_IT_number 13
_symmetry_cell_setting 'monoclinic'
loop_
_space_group_symop_operation_xyz
x,y,z
-x,y,1/2-z
-x,-y,-z
x,-y,1/2+z
loop_
_atom_site_type_symbol
_atom_site_label
_atom_site_fract_x
_atom_site_fract_y
_atom_site_fract_z
Si Si1 0.942278 0.257977 0.498871
Si Si2 0.321175 0.067814 0.644676
Si Si3 0.215934 0.119261 0.179560
Si Si4 0.743273 0.655803 0.005780
Si Si5 0.599390 0.178992 0.419571
Si Si6 0.838854 0.509549 0.419151
Si Si7 0.000000 0.659143 0.750000
O O1 0.883253 0.126439 0.408853
O O2 0.875988 0.379681 0.387277
O O3 0.002165 0.255175 0.423319
O O4 0.000000 0.265506 0.750000
O O5 0.281651 0.151328 0.432055
O O6 0.241191 0.021401 0.641765
O O7 0.376082 0.946161 0.656454
O O8 0.381280 0.155780 0.854102
O O9 0.222667 0.217655 0.036351
O O10 0.647969 0.689494 0.929098
O O11 0.753522 0.530251 0.899112
O O12 0.808690 0.625294 0.253846
O O13 0.500000 0.209708 0.250000
O O14 0.916439 0.568072 0.644154
#
# Coordination Sequence:
#
# PCOD8119167 Si02
#       7
#     4   4   4   4   4   4   2
#     4  11  22  36  55  85 119 152 205 254 290 342
#     4   9  19  38  63  83 115 150 185 243 297 351
#     4   9  20  38  56  85 112 151 197 236 298 354
#     4  10  22  34  58  83 120 153 191 238 295 350
#     4  10  20  37  62  93 114 145 193 241 293 352
#     4  11  20  37  53  82 116 154 196 240 286 343
#     4  12  20  32  58  82 110 156 202 248 290 322
#
# _framework density 20.408597
#
# number of rings (size 3 to 8) (size 9 to 14) (size 15 to 20)
#    0.000    1.846    2.308    2.769    2.154    0.000 
#    2.769    1.538    0.000    0.000    0.000    0.000 
#    0.000    0.000    0.000    0.000    0.000    0.000 
#
# Total GULP energy -322110.853710 kJ/mol
# GULP energy per Si atom -12388.878989 kJ/mol
# Density = 2.036215 g / cm^3
# Si number density = 20.408597 Si / 1000 Ang^3
#
#
#
# Elastic Constant Matrix: (Units=GPa)
#
#
# Indices 1 2 3 4 5 6 
#
# 1 111.0755 28.5533 69.8217 0.0000 1.1812 0.0000
# 2 28.5533 36.8475 53.2131 0.0000 6.2749 0.0000
# 3 69.8217 53.2131 136.1124 0.0000 -3.6073 0.0000
# 4 0.0000 0.0000 0.0000 30.5851 0.0000 5.7933
# 5 1.1812 6.2749 -3.6073 0.0000 39.2347 0.0000
# 6 0.0000 0.0000 0.0000 5.7933 0.0000 23.0384
#
#
#
# Elastic Compliance Matrix: (Units=1/GPa)
#
#
# Indices 1 2 3 4 5 6 
#
# 1 0.013334 -0.000607 -0.006627 0.000000 -0.000914 0.000000
# 2 -0.000607 0.068828 -0.026954 0.000000 -0.013468 0.000000
# 3 -0.006627 -0.026954 0.021456 0.000000 0.006483 0.000000
# 4 0.000000 0.000000 0.000000 0.034331 0.000000 -0.008633
# 5 -0.000914 -0.013468 0.006483 0.000000 0.028265 0.000000
# 6 0.000000 0.000000 0.000000 -0.008633 0.000000 0.045577
#
#
# Mechanical properties :
#
#
# Convention : Reuss Voigt Hill
#
# Bulk Modulus (GPa) = 28.37475 65.24572 46.81024
# Shear Modulus (GPa) = 17.12832 27.40147 22.26489
#
# Velocity S-wave (km/s) = 2.90016 3.66818 3.30655
# Velocity P-wave (km/s) = 5.01479 7.06965 6.12895
#
# Compressibility (1/GPa) = 0.03524260
#
# Stress axis : x y z
#
# Youngs Moduli (GPa) = 74.99413 14.52896 46.60719
#
# Poissons Ratio (x) = 0.00881 0.30888
# Poissons Ratio (y) = 0.04549 1.25625
# Poissons Ratio (z) = 0.49700 0.39161
#
# Static dielectric constant tensor:
#      x y z
#    x 4.089740 0.000000 -0.128610 
#    y 0.000000 3.568710 0.000000 
#    z -0.128610 0.000000 3.657090 
# 
# 
# High freq. dielectric constant tensor:
#      x y z
#    x 1.801900 0.000000 -0.022700 
#    y 0.000000 1.757280 0.000000 
#    z -0.022700 0.000000 1.795470 
# 
# From -- ./inp_files/22742.got.cif
#   From: 2010.06.25/outbox.cif.g09.slc.cpg/sg13_12_cif.got.tgz:22742.got - 2010.06.28 04:50:58.
