data_PCOD8119684
_publ_section_title
;
Structure prediction by ZEFSAII (Michael W. Deem and Ramdas Pophale) SiO2 
 PCOD8119684
Probable space group: P 2/C
;
_chemical_formula_sum "Si O2"
_cell_formula_units_Z 22
_cell_length_a 7.851408
_cell_length_b 7.584161
_cell_length_c 26.178416
_cell_angle_alpha 90.000000
_cell_angle_beta 139.504660
_cell_angle_gamma 90.000000
_cell_volume 1012.281991
_symmetry_space_group_name_H-M "P 2/C"
_symmetry_group_IT_number 13
_symmetry_cell_setting 'monoclinic'
loop_
_space_group_symop_operation_xyz
x,y,z
-x,y,1/2-z
-x,-y,-z
x,-y,1/2+z
loop_
_atom_site_type_symbol
_atom_site_label
_atom_site_fract_x
_atom_site_fract_y
_atom_site_fract_z
Si Si1 0.500000 0.108073 0.250000
Si Si2 0.584482 0.370691 0.106466
Si Si3 0.620060 0.241825 0.931622
Si Si4 0.018007 0.321542 0.391292
Si Si5 0.980587 0.632070 0.043630
Si Si6 0.301363 0.955652 0.809916
O O1 0.603854 0.991693 0.225754
O O2 0.746881 0.220483 0.325482
O O3 0.556536 0.578935 0.111877
O O4 0.832033 0.325598 0.127879
O O5 0.630318 0.252850 0.167553
O O6 0.317155 0.298976 0.018673
O O7 0.807766 0.220680 0.923611
O O8 0.437170 0.071879 0.885387
O O9 0.789790 0.235695 0.022201
O O10 0.946283 0.523914 0.388947
O O11 0.000000 0.500000 0.000000
O O12 0.000000 0.995429 0.750000
#
# Coordination Sequence:
#
# PCOD8119684 Si02
#       6
#     2   4   4   4   4   4
#     4  12  24  44  64  94 138 174 218 272 338 386
#     4  10  20  42  70  93 130 170 216 276 329 391
#     4  10  22  42  68  98 130 171 228 268 321 398
#     4  10  20  40  69 100 130 175 220 268 332 396
#     4   8  16  35  63  93 118 158 216 257 316 385
#     4  12  26  46  64  95 136 176 222 274 328 390
#
# _framework density 21.733073000000001
#
# number of rings (size 3 to 8) (size 9 to 14) (size 15 to 20)
#    0.000    2.182    1.818    5.455    0.000    4.364 
#    9.818    0.909    0.000    0.000    0.000    0.000 
#    0.000    0.000    0.000    0.000    0.000    0.000 
#
# Total GULP energy -272539.871639 kJ/mol
# GULP energy per Si atom -12388.175984 kJ/mol
# Density = 2.168361 g / cm^3
# Si number density = 21.733073 Si / 1000 Ang^3
#
#
#
# Elastic Constant Matrix: (Units=GPa)
#
#
# Indices 1 2 3 4 5 6 
#
# 1 133.6524 22.2459 28.6276 0.0000 12.0212 0.0000
# 2 22.2459 60.2679 40.4570 0.0000 3.3471 0.0000
# 3 28.6276 40.4570 96.8260 0.0000 11.2350 0.0000
# 4 0.0000 0.0000 0.0000 24.8277 0.0000 4.8143
# 5 12.0212 3.3471 11.2350 0.0000 39.2338 0.0000
# 6 0.0000 0.0000 0.0000 4.8143 0.0000 4.6697
#
#
#
# Elastic Compliance Matrix: (Units=1/GPa)
#
#
# Indices 1 2 3 4 5 6 
#
# 1 0.008292 -0.002028 -0.001375 0.000000 -0.001974 0.000000
# 2 -0.002028 0.023582 -0.009405 0.000000 0.001303 0.000000
# 3 -0.001375 -0.009405 0.015021 0.000000 -0.003078 0.000000
# 4 0.000000 0.000000 0.000000 0.050342 0.000000 -0.051901
# 5 -0.001974 0.001303 -0.003078 0.000000 0.026863 0.000000
# 6 0.000000 0.000000 0.000000 -0.051901 0.000000 0.267656
#
#
# Mechanical properties :
#
#
# Convention : Reuss Voigt Hill
#
# Bulk Modulus (GPa) = 46.99462 52.60083 49.79773
# Shear Modulus (GPa) = 11.77954 27.04061 19.41007
#
# Velocity S-wave (km/s) = 2.33064 3.53117 2.99174
# Velocity P-wave (km/s) = 5.37708 6.39384 5.90738
#
# Compressibility (1/GPa) = 0.02127903
#
# Stress axis : x y z
#
# Youngs Moduli (GPa) = 120.60241 42.40490 66.57246
#
# Poissons Ratio (x) = 0.08599 0.09155
# Poissons Ratio (y) = 0.24456 0.62611
# Poissons Ratio (z) = 0.16585 0.39882
#
# Static dielectric constant tensor:
#      x y z
#    x 4.543730 0.000000 0.345320 
#    y 0.000000 3.795160 0.000000 
#    z 0.345320 0.000000 3.898270 
# 
# 
# High freq. dielectric constant tensor:
#      x y z
#    x 1.874460 0.000000 0.017440 
#    y 0.000000 1.821510 0.000000 
#    z 0.017440 0.000000 1.843610 
# 
# From -- ./inp_files/95830.got.cif
#   From: 2010.06.25/outbox.cif.g09.slc.cpg/sg13_48_cif.got.tgz:95830.got - 2010.06.28 04:50:58.
