data_PCOD8119933
_publ_section_title
;
Structure prediction by ZEFSAII (Michael W. Deem and Ramdas Pophale) SiO2 
 PCOD8119933
Probable space group: P 2/C
;
_chemical_formula_sum "Si O2"
_cell_formula_units_Z 22
_cell_length_a 10.172183
_cell_length_b 11.928113
_cell_length_c 8.335584
_cell_angle_alpha 90.000000
_cell_angle_beta 79.306731
_cell_angle_gamma 90.000000
_cell_volume 993.834330
_symmetry_space_group_name_H-M "P 2/C"
_symmetry_group_IT_number 13
_symmetry_cell_setting 'monoclinic'
loop_
_space_group_symop_operation_xyz
x,y,z
-x,y,1/2-z
-x,-y,-z
x,-y,1/2+z
loop_
_atom_site_type_symbol
_atom_site_label
_atom_site_fract_x
_atom_site_fract_y
_atom_site_fract_z
Si Si1 0.339738 0.709234 0.430331
Si Si2 0.000000 0.974856 0.250000
Si Si3 0.627388 0.757144 0.433355
Si Si4 0.856439 0.347952 0.261510
Si Si5 0.367207 0.546732 0.865669
Si Si6 0.150604 0.135308 0.433881
O O1 0.466852 0.776970 0.475067
O O2 0.312688 0.761338 0.261061
O O3 0.207264 0.718134 0.570083
O O4 0.387091 0.579771 0.417090
O O5 0.124731 0.048483 0.292999
O O6 0.947447 0.895308 0.400481
O O7 0.662548 0.631044 0.482129
O O8 0.697083 0.852765 0.530231
O O9 0.756129 0.445609 0.230638
O O10 0.888467 0.257605 0.118009
O O11 0.000000 0.407771 0.250000
O O12 0.500000 0.592005 0.750000
#
# Coordination Sequence:
#
# PCOD8119933 Si02
#       6
#     4   2   4   4   4   4
#     4  11  21  36  64  91 136 173 220 251 307 373
#     4  10  22  46  70  92 124 162 212 262 344 428
#     4  10  21  35  62 100 122 169 217 270 303 371
#     4  11  24  38  59  95 135 174 212 270 316 377
#     4  11  19  38  62  93 131 184 225 253 305 369
#     4  10  23  40  69  96 117 164 211 264 333 390
#
# _framework density 22.136486999999999
#
# number of rings (size 3 to 8) (size 9 to 14) (size 15 to 20)
#    0.000    1.455    4.545    1.636    2.545    0.727 
#    0.000    0.000    0.000   13.091    0.000    0.000 
#    0.000    0.000    0.000    0.000    0.000    0.000 
#
# Total GULP energy -272616.439502 kJ/mol
# GULP energy per Si atom -12391.656341 kJ/mol
# Density = 2.208610 g / cm^3
# Si number density = 22.136487 Si / 1000 Ang^3
#
#
#
# Elastic Constant Matrix: (Units=GPa)
#
#
# Indices 1 2 3 4 5 6 
#
# 1 180.0358 27.6558 58.3308 0.0000 4.1145 0.0000
# 2 27.6558 58.0596 22.2662 0.0000 2.6945 0.0000
# 3 58.3308 22.2662 100.4383 0.0000 7.4672 0.0000
# 4 0.0000 0.0000 0.0000 26.9477 0.0000 1.5921
# 5 4.1145 2.6945 7.4672 0.0000 30.3812 0.0000
# 6 0.0000 0.0000 0.0000 1.5921 0.0000 29.5833
#
#
#
# Elastic Compliance Matrix: (Units=1/GPa)
#
#
# Indices 1 2 3 4 5 6 
#
# 1 0.007039 -0.001953 -0.003664 0.000000 0.000120 0.000000
# 2 -0.001953 0.019379 -0.003110 0.000000 -0.000690 0.000000
# 3 -0.003664 -0.003110 0.012953 0.000000 -0.002412 0.000000
# 4 0.000000 0.000000 0.000000 0.037227 0.000000 -0.002003
# 5 0.000120 -0.000690 -0.002412 0.000000 0.033553 0.000000
# 6 0.000000 0.000000 0.000000 -0.002003 0.000000 0.033911
#
#
# Mechanical properties :
#
#
# Convention : Reuss Voigt Hill
#
# Bulk Modulus (GPa) = 45.62948 61.67107 53.65028
# Shear Modulus (GPa) = 29.61703 32.73450 31.17576
#
# Velocity S-wave (km/s) = 3.66174 3.84963 3.75686
# Velocity P-wave (km/s) = 6.20768 6.90504 6.56562
#
# Compressibility (1/GPa) = 0.02191566
#
# Stress axis : x y z
#
# Youngs Moduli (GPa) = 142.06948 51.60226 77.20212
#
# Poissons Ratio (x) = 0.10080 0.28285
# Poissons Ratio (y) = 0.27751 0.24013
# Poissons Ratio (z) = 0.52051 0.16051
#
# Static dielectric constant tensor:
#      x y z
#    x 4.276180 0.000000 0.334980 
#    y 0.000000 3.568060 0.000000 
#    z 0.334980 0.000000 4.283740 
# 
# 
# High freq. dielectric constant tensor:
#      x y z
#    x 1.873230 0.000000 0.018480 
#    y 0.000000 1.825490 0.000000 
#    z 0.018480 0.000000 1.884840 
# 
# From -- ./inp_files/12252.got.cif
#   From: 2010.06.25/outbox.cif.g09.slc.cpg/sg13_7_cif.got.tgz:12252.got - 2010.06.28 04:50:58.
