data_PCOD8119801
_publ_section_title
;
Structure prediction by ZEFSAII (Michael W. Deem and Ramdas Pophale) SiO2 
 PCOD8119801
Probable space group: P 2/C
;
_chemical_formula_sum "Si O2"
_cell_formula_units_Z 22
_cell_length_a 25.995457
_cell_length_b 7.005501
_cell_length_c 16.078931
_cell_angle_alpha 90.000000
_cell_angle_beta 159.901525
_cell_angle_gamma 90.000000
_cell_volume 1006.215120
_symmetry_space_group_name_H-M "P 2/C"
_symmetry_group_IT_number 13
_symmetry_cell_setting 'monoclinic'
loop_
_space_group_symop_operation_xyz
x,y,z
-x,y,1/2-z
-x,-y,-z
x,-y,1/2+z
loop_
_atom_site_type_symbol
_atom_site_label
_atom_site_fract_x
_atom_site_fract_y
_atom_site_fract_z
Si Si1 0.533534 0.699353 0.511869
Si Si2 0.706098 0.003613 0.385630
Si Si3 0.000000 0.121541 0.750000
Si Si4 0.789925 0.150307 0.687008
Si Si5 0.092141 0.222376 0.062581
Si Si6 0.349072 0.471456 0.472377
O O1 0.500000 0.500000 0.500000
O O2 0.621966 0.827935 0.710602
O O3 0.637795 0.640556 0.594101
O O4 0.378757 0.802475 0.251472
O O5 0.701036 0.056457 0.475245
O O6 0.873713 0.987067 0.602132
O O7 0.931904 0.256156 0.573370
O O8 0.683866 0.301262 0.575346
O O9 0.839130 0.990812 0.827428
O O10 0.936431 0.251608 0.873339
O O11 0.198600 0.368046 0.275479
O O12 0.500000 0.425012 0.750000
#
# Coordination Sequence:
#
# PCOD8119801 Si02
#       6
#     4   4   2   4   4   4
#     4  11  24  40  64  97 137 178 223 276 342 406
#     4  10  22  43  64  95 139 178 224 287 334 410
#     4  10  20  42  70  92 134 184 230 268 350 398
#     4  10  23  41  68  95 131 172 229 275 335 401
#     4  10  22  43  66  97 130 177 220 281 332 403
#     4  12  24  39  65  99 133 174 221 275 340 398
#
# _framework density 21.864111999999999
#
# number of rings (size 3 to 8) (size 9 to 14) (size 15 to 20)
#    0.000    1.455    1.818    2.727    2.545    2.182 
#    0.000    7.273    0.000    0.000    0.000    0.000 
#    0.000    0.000    0.000    0.000    0.000    0.000 
#
# Total GULP energy -272634.866336 kJ/mol
# GULP energy per Si atom -12392.493924 kJ/mol
# Density = 2.181435 g / cm^3
# Si number density = 21.864112 Si / 1000 Ang^3
#
#
#
# Elastic Constant Matrix: (Units=GPa)
#
#
# Indices 1 2 3 4 5 6 
#
# 1 55.5015 34.3204 30.1745 0.0000 -7.6123 0.0000
# 2 34.3204 116.7545 55.7693 0.0000 2.1159 0.0000
# 3 30.1745 55.7693 142.4666 0.0000 -9.5216 0.0000
# 4 0.0000 0.0000 0.0000 39.8261 0.0000 5.2661
# 5 -7.6123 2.1159 -9.5216 0.0000 29.8450 0.0000
# 6 0.0000 0.0000 0.0000 5.2661 0.0000 26.7415
#
#
#
# Elastic Compliance Matrix: (Units=1/GPa)
#
#
# Indices 1 2 3 4 5 6 
#
# 1 0.023762 -0.005988 -0.002304 0.000000 0.005750 0.000000
# 2 -0.005988 0.012175 -0.003737 0.000000 -0.003583 0.000000
# 3 -0.002304 -0.003737 0.009144 0.000000 0.002594 0.000000
# 4 0.000000 0.000000 0.000000 0.025780 0.000000 -0.005077
# 5 0.005750 -0.003583 0.002594 0.000000 0.036055 0.000000
# 6 0.000000 0.000000 0.000000 -0.005077 0.000000 0.038395
#
#
# Mechanical properties :
#
#
# Convention : Reuss Voigt Hill
#
# Bulk Modulus (GPa) = 47.57135 61.69455 54.63295
# Shear Modulus (GPa) = 28.34818 32.24641 30.29729
#
# Velocity S-wave (km/s) = 3.60469 3.84455 3.72655
# Velocity P-wave (km/s) = 6.25540 6.92719 6.59985
#
# Compressibility (1/GPa) = 0.02102105
#
# Stress axis : x y z
#
# Youngs Moduli (GPa) = 42.08388 82.13292 109.36625
#
# Poissons Ratio (x) = 0.49185 0.25201
# Poissons Ratio (y) = 0.25202 0.40873
# Poissons Ratio (z) = 0.09697 0.30695
#
# Static dielectric constant tensor:
#      x y z
#    x 3.842290 0.000000 0.005310 
#    y 0.000000 3.705220 0.000000 
#    z 0.005310 0.000000 4.333580 
# 
# 
# High freq. dielectric constant tensor:
#      x y z
#    x 1.857850 0.000000 0.002940 
#    y 0.000000 1.840710 0.000000 
#    z 0.002940 0.000000 1.884690 
# 
# From -- ./inp_files/72099.got.cif
#   From: 2010.06.25/outbox.cif.g09.slc.cpg/sg13_37_cif.got.tgz:72099.got - 2010.06.28 04:50:58.
