data_PCOD8119186
_publ_section_title
;
Structure prediction by ZEFSAII (Michael W. Deem and Ramdas Pophale) SiO2 
 PCOD8119186
Probable space group: P 2/C
;
_chemical_formula_sum "Si O2"
_cell_formula_units_Z 30
_cell_length_a 14.622675
_cell_length_b 20.323756
_cell_length_c 14.218423
_cell_angle_alpha 90.000000
_cell_angle_beta 20.425170
_cell_angle_gamma 90.000000
_cell_volume 1474.644886
_symmetry_space_group_name_H-M "P 2/C"
_symmetry_group_IT_number 13
_symmetry_cell_setting 'monoclinic'
loop_
_space_group_symop_operation_xyz
x,y,z
-x,y,1/2-z
-x,-y,-z
x,-y,1/2+z
loop_
_atom_site_type_symbol
_atom_site_label
_atom_site_fract_x
_atom_site_fract_y
_atom_site_fract_z
Si Si1 0.460092 0.628505 0.685640
Si Si2 0.067065 0.832449 0.375781
Si Si3 0.999187 0.603646 0.855344
Si Si4 0.071740 0.678732 0.389417
Si Si5 0.611315 0.905977 0.884621
Si Si6 0.000000 0.896953 0.250000
Si Si7 0.490030 0.517279 0.117658
Si Si8 0.422416 0.002580 0.419973
O O1 0.500000 0.662008 0.750000
O O2 0.664356 0.649069 0.408310
O O3 0.495234 0.550946 0.668447
O O4 0.171252 0.649698 0.933272
O O5 0.115374 0.755918 0.338266
O O6 0.949821 0.848085 0.385632
O O7 0.832151 0.850603 0.672550
O O8 0.323111 0.873838 0.160002
O O9 0.000000 0.635600 0.750000
O O10 0.270148 0.564961 0.595286
O O11 0.970973 0.661046 0.959839
O O12 0.772356 0.551729 0.094060
O O13 0.644522 0.956046 0.763383
O O14 0.683017 0.947353 0.908594
O O15 0.768848 0.942865 0.437868
O O16 0.500000 0.500000 0.000000
O O17 0.500000 0.963877 0.250000
#
# Coordination Sequence:
#
# PCOD8119186 Si02
#       8
#     4   4   4   4   4   2   4   4
#     4  12  25  40  64  96 128 170 206 272 333 387
#     4  11  24  42  59  93 128 173 203 257 304 384
#     4  12  24  42  68  94 124 180 219 270 321 385
#     4  12  25  44  63  89 135 170 222 258 309 383
#     4  10  23  39  62  88 130 156 202 254 318 358
#     4  10  22  36  66  92 126 162 210 244 320 382
#     4  12  22  43  65  96 133 158 215 281 338 366
#     4  10  20  37  63  95 121 157 201 258 307 379
#
# _framework density 20.343881
#
# number of rings (size 3 to 8) (size 9 to 14) (size 15 to 20)
#    0.000    0.800    4.000    3.600    3.733    1.600 
#    0.000    1.333    0.000    0.000    0.000    0.000 
#    0.000    0.000    0.000    0.000    0.000    0.000 
#
# Total GULP energy -371719.853835 kJ/mol
# GULP energy per Si atom -12390.661794 kJ/mol
# Density = 2.029758 g / cm^3
# Si number density = 20.343881 Si / 1000 Ang^3
#
#
#
# Elastic Constant Matrix: (Units=GPa)
#
#
# Indices 1 2 3 4 5 6 
#
# 1 141.5546 45.5495 25.5069 0.0000 27.7724 0.0000
# 2 45.5495 112.5401 35.2674 0.0000 2.1319 0.0000
# 3 25.5069 35.2674 123.9229 0.0000 0.3078 0.0000
# 4 0.0000 0.0000 0.0000 -47.0416 0.0000 64.1364
# 5 27.7724 2.1319 0.3078 0.0000 28.1096 0.0000
# 6 0.0000 0.0000 0.0000 64.1364 0.0000 -12.7966
#
#
#
# Elastic Compliance Matrix: (Units=1/GPa)
#
#
# Indices 1 2 3 4 5 6 
#
# 1 0.010402 -0.003687 -0.001067 0.000000 -0.009986 0.000000
# 2 -0.003687 0.011077 -0.002400 0.000000 0.002829 0.000000
# 3 -0.001067 -0.002400 0.008970 0.000000 0.001138 0.000000
# 4 0.000000 0.000000 0.000000 0.003644 0.000000 0.018265
# 5 -0.009986 0.002829 0.001138 0.000000 0.045214 0.000000
# 6 0.000000 0.000000 0.000000 0.018265 0.000000 0.013396
#
#
# Mechanical properties :
#
#
# Convention : Reuss Voigt Hill
#
# Bulk Modulus (GPa) = 61.95861 65.62950 63.79406
# Shear Modulus (GPa) = 44.48735 11.76721 28.12728
#
# Velocity S-wave (km/s) = 4.68136 2.40764 3.72236
# Velocity P-wave (km/s) = 7.72929 6.32922 7.06403
#
# Compressibility (1/GPa) = 0.01613981
#
# Stress axis : x y z
#
# Youngs Moduli (GPa) = 96.13346 90.28107 111.48889
#
# Poissons Ratio (x) = 0.33283 0.11897
# Poissons Ratio (y) = 0.35441 0.26763
# Poissons Ratio (z) = 0.10258 0.21672
#
# Static dielectric constant tensor:
#      x y z
#    x 3.875190 0.000000 0.525000 
#    y 0.000000 3.555350 0.000000 
#    z 0.525000 0.000000 3.698410 
# 
# 
# High freq. dielectric constant tensor:
#      x y z
#    x 1.809460 0.000000 0.006480 
#    y 0.000000 1.779810 0.000000 
#    z 0.006480 0.000000 1.804510 
# 
# From -- ./inp_files/53962.got.cif
#   From: 2010.06.25/outbox.cif.g09.slc.cpg/sg13_27_cif.got.tgz:53962.got - 2010.06.28 04:50:58.
