data_PCOD8119016
_publ_section_title
;
Structure prediction by ZEFSAII (Michael W. Deem and Ramdas Pophale) SiO2 
 PCOD8119016
Probable space group: P 2/C
;
_chemical_formula_sum "Si O2"
_cell_formula_units_Z 32
_cell_length_a 15.905793
_cell_length_b 9.360008
_cell_length_c 24.841181
_cell_angle_alpha 90.000000
_cell_angle_beta 26.177982
_cell_angle_gamma 90.000000
_cell_volume 1631.551975
_symmetry_space_group_name_H-M "P 2/C"
_symmetry_group_IT_number 13
_symmetry_cell_setting 'monoclinic'
loop_
_space_group_symop_operation_xyz
x,y,z
-x,y,1/2-z
-x,-y,-z
x,-y,1/2+z
loop_
_atom_site_type_symbol
_atom_site_label
_atom_site_fract_x
_atom_site_fract_y
_atom_site_fract_z
Si Si1 0.648195 0.621405 0.073788
Si Si2 0.996378 0.329091 0.061379
Si Si3 0.360089 0.822786 0.185553
Si Si4 0.018269 0.342759 0.925942
Si Si5 0.410631 0.324820 0.356905
Si Si6 0.503963 0.724703 0.989887
Si Si7 0.223592 0.492629 0.112394
Si Si8 0.351851 0.150896 0.197449
O O1 0.508741 0.749954 0.140391
O O2 0.527070 0.489998 0.168813
O O3 0.754756 0.558132 0.960931
O O4 0.798575 0.686818 0.029059
O O5 0.920547 0.491274 0.109038
O O6 0.849528 0.225464 0.175477
O O7 0.015506 0.282402 0.988226
O O8 0.160394 0.742653 0.306063
O O9 0.429719 0.810652 0.084216
O O10 0.335387 0.984078 0.219259
O O11 0.816237 0.319260 0.014031
O O12 0.500000 0.271233 0.250000
O O13 0.483394 0.220809 0.361386
O O14 0.328436 0.642640 0.062584
O O15 0.678914 0.620166 0.903550
O O16 0.590920 0.835940 0.897775
O O17 0.000000 0.509219 0.250000
#
# Coordination Sequence:
#
# PCOD8119016 Si02
#       8
#     4   4   4   4   4   4   4   4
#     4  10  22  39  62  93 120 159 208 259 309 362
#     4  10  22  39  68  89 121 161 210 257 308 361
#     4  11  26  40  60  92 133 164 205 250 310 384
#     4  10  23  41  63  95 121 160 209 260 303 366
#     4  11  22  41  65  90 121 159 210 258 309 362
#     4  10  23  39  62  89 124 164 209 253 309 367
#     4  10  20  36  62  94 119 152 209 270 304 351
#     4  12  23  43  62  90 128 172 201 252 313 378
#
# _framework density 19.613226999999998
#
# number of rings (size 3 to 8) (size 9 to 14) (size 15 to 20)
#    0.000    1.500    2.500    1.875   10.500    1.500 
#    2.250    0.000    0.000    4.500    0.000    0.000 
#    0.000    0.000    0.000    0.000    0.000    0.000 
#
# Total GULP energy -396914.576274 kJ/mol
# GULP energy per Si atom -12403.580509 kJ/mol
# Density = 1.956859 g / cm^3
# Si number density = 19.613227 Si / 1000 Ang^3
#
#
#
# Elastic Constant Matrix: (Units=GPa)
#
#
# Indices 1 2 3 4 5 6 
#
# 1 61.9099 22.7765 16.9701 0.0000 2.8454 0.0000
# 2 22.7765 105.8038 42.0985 0.0000 -2.5646 0.0000
# 3 16.9701 42.0985 94.0487 0.0000 -1.9535 0.0000
# 4 0.0000 0.0000 0.0000 7.5853 0.0000 11.3039
# 5 2.8454 -2.5646 -1.9535 0.0000 32.7058 0.0000
# 6 0.0000 0.0000 0.0000 11.3039 0.0000 5.0647
#
#
#
# Elastic Compliance Matrix: (Units=1/GPa)
#
#
# Indices 1 2 3 4 5 6 
#
# 1 0.017913 -0.003164 -0.001856 0.000000 -0.001917 0.000000
# 2 -0.003164 0.012070 -0.004813 0.000000 0.000934 0.000000
# 3 -0.001856 -0.004813 0.013134 0.000000 0.000569 0.000000
# 4 0.000000 0.000000 0.000000 -0.056678 0.000000 0.126498
# 5 -0.001917 0.000934 0.000569 0.000000 0.030850 0.000000
# 6 0.000000 0.000000 0.000000 0.126498 0.000000 -0.084885
#
#
# Mechanical properties :
#
#
# Convention : Reuss Voigt Hill
#
# Bulk Modulus (GPa) = 42.64004 47.27250 44.95627
# Shear Modulus (GPa) = -124.64831 21.06566 -51.79133
#
# Velocity S-wave (km/s) = -7.98067 3.28083 -5.14428
# Velocity P-wave (km/s) = 7.94568 6.20536 3.50909
#
# Compressibility (1/GPa) = 0.02345214
#
# Stress axis : x y z
#
# Youngs Moduli (GPa) = 55.82398 82.84900 76.14039
#
# Poissons Ratio (x) = 0.26216 0.14129
# Poissons Ratio (y) = 0.17665 0.36643
# Poissons Ratio (z) = 0.10359 0.39871
#
# Static dielectric constant tensor:
#      x y z
#    x 3.769630 0.000000 0.048010 
#    y 0.000000 3.358350 0.000000 
#    z 0.048010 0.000000 3.514050 
# 
# 
# High freq. dielectric constant tensor:
#      x y z
#    x 1.781050 0.000000 0.002360 
#    y 0.000000 1.742440 0.000000 
#    z 0.002360 0.000000 1.770610 
# 
# From -- ./inp_files/87401.got.cif
#   From: 2010.06.25/outbox.cif.g09.slc.cpg/sg13_44_cif.got.tgz:87401.got - 2010.06.28 04:50:58.
