data_PCOD8119193
_publ_section_title
;
Structure prediction by ZEFSAII (Michael W. Deem and Ramdas Pophale) SiO2 
 PCOD8119193
Probable space group: P 2/C
;
_chemical_formula_sum "Si O2"
_cell_formula_units_Z 26
_cell_length_a 9.671990
_cell_length_b 11.087380
_cell_length_c 18.194888
_cell_angle_alpha 90.000000
_cell_angle_beta 41.910295
_cell_angle_gamma 90.000000
_cell_volume 1303.312917
_symmetry_space_group_name_H-M "P 2/C"
_symmetry_group_IT_number 13
_symmetry_cell_setting 'monoclinic'
loop_
_space_group_symop_operation_xyz
x,y,z
-x,y,1/2-z
-x,-y,-z
x,-y,1/2+z
loop_
_atom_site_type_symbol
_atom_site_label
_atom_site_fract_x
_atom_site_fract_y
_atom_site_fract_z
Si Si1 0.198089 0.802867 0.036703
Si Si2 0.737839 0.530178 0.151351
Si Si3 0.387902 0.101360 0.088368
Si Si4 0.873578 0.708887 0.874395
Si Si5 0.958674 0.702401 0.540617
Si Si6 0.063884 0.558429 0.144370
Si Si7 0.000000 0.952464 0.250000
O O1 0.208948 0.661830 0.053736
O O2 0.075293 0.875149 0.149557
O O3 0.433660 0.847133 0.928091
O O4 0.078772 0.808479 0.004910
O O5 0.500000 0.562665 0.250000
O O6 0.767639 0.392304 0.112288
O O7 0.848535 0.545622 0.185917
O O8 0.833341 0.625470 0.056471
O O9 0.328208 0.207799 0.054628
O O10 0.185594 0.040034 0.205878
O O11 0.500000 0.000000 0.000000
O O12 0.812331 0.568265 0.907555
O O13 0.000000 0.725469 0.750000
O O14 0.009523 0.756821 0.890188
O O15 0.000000 0.598659 0.250000
#
# Coordination Sequence:
#
# PCOD8119193 Si02
#       7
#     4   4   4   4   4   4   2
#     4  10  20  37  64  87 119 151 198 245 294 362
#     4   9  18  34  54  83 134 162 178 231 298 361
#     4  10  22  39  63  81 109 165 200 240 296 338
#     4  10  20  38  62  85 128 154 188 247 298 351
#     4   9  20  36  56  91 119 155 198 238 290 353
#     4   9  18  32  56  94 118 150 187 233 296 353
#     4  10  20  42  60  80 122 154 200 252 296 340
#
# _framework density 19.949162999999999
#
# number of rings (size 3 to 8) (size 9 to 14) (size 15 to 20)
#    0.000    2.462    1.538    0.923    0.000    5.538 
#    2.769    3.077    3.385    0.000    0.000    0.000 
#    0.000    0.000    0.000    0.000    0.000    0.000 
#
# Total GULP energy -322107.382366 kJ/mol
# GULP energy per Si atom -12388.745476 kJ/mol
# Density = 1.990376 g / cm^3
# Si number density = 19.949163 Si / 1000 Ang^3
#
#
#
# Elastic Constant Matrix: (Units=GPa)
#
#
# Indices 1 2 3 4 5 6 
#
# 1 118.2625 43.0589 55.9636 0.0000 15.6105 0.0000
# 2 43.0589 93.3143 34.7503 0.0000 -9.8317 0.0000
# 3 55.9636 34.7503 88.0429 0.0000 -8.7214 0.0000
# 4 0.0000 0.0000 0.0000 16.0945 0.0000 -5.1833
# 5 15.6105 -9.8317 -8.7214 0.0000 39.0538 0.0000
# 6 0.0000 0.0000 0.0000 -5.1833 0.0000 22.7433
#
#
#
# Elastic Compliance Matrix: (Units=1/GPa)
#
#
# Indices 1 2 3 4 5 6 
#
# 1 0.015792 -0.004929 -0.009041 0.000000 -0.009572 0.000000
# 2 -0.004929 0.014272 -0.001993 0.000000 0.005118 0.000000
# 3 -0.009041 -0.001993 0.018612 0.000000 0.007268 0.000000
# 4 0.000000 0.000000 0.000000 0.067055 0.000000 0.015282
# 5 -0.009572 0.005118 0.007268 0.000000 0.032343 0.000000
# 6 0.000000 0.000000 0.000000 0.015282 0.000000 0.047452
#
#
# Mechanical properties :
#
#
# Convention : Reuss Voigt Hill
#
# Bulk Modulus (GPa) = 59.70156 63.01838 61.35997
# Shear Modulus (GPa) = 21.45592 26.63477 24.04535
#
# Velocity S-wave (km/s) = 3.28309 3.65791 3.47555
# Velocity P-wave (km/s) = 6.66058 7.03552 6.85061
#
# Compressibility (1/GPa) = 0.01674998
#
# Stress axis : x y z
#
# Youngs Moduli (GPa) = 63.32257 70.06543 53.72975
#
# Poissons Ratio (x) = 0.34534 0.48577
# Poissons Ratio (y) = 0.31210 0.10710
# Poissons Ratio (z) = 0.57250 0.13966
#
# Static dielectric constant tensor:
#      x y z
#    x 3.522430 0.000000 -0.164400 
#    y 0.000000 4.015620 0.000000 
#    z -0.164400 0.000000 3.834290 
# 
# 
# High freq. dielectric constant tensor:
#      x y z
#    x 1.773720 0.000000 0.007200 
#    y 0.000000 1.777670 0.000000 
#    z 0.007200 0.000000 1.759570 
# 
# From -- ./inp_files/76361.got.cif
#   From: 2010.06.25/outbox.cif.g09.slc.cpg/sg13_39_cif.got.tgz:76361.got - 2010.06.28 04:50:58.
