data_PCOD8119062
_publ_section_title
;
Structure prediction by ZEFSAII (Michael W. Deem and Ramdas Pophale) SiO2 
 PCOD8119062
Probable space group: P 2/C
;
_chemical_formula_sum "Si O2"
_cell_formula_units_Z 22
_cell_length_a 7.521941
_cell_length_b 8.598652
_cell_length_c 15.654771
_cell_angle_alpha 90.000000
_cell_angle_beta 91.025017
_cell_angle_gamma 90.000000
_cell_volume 1012.365911
_symmetry_space_group_name_H-M "P 2/C"
_symmetry_group_IT_number 13
_symmetry_cell_setting 'monoclinic'
loop_
_space_group_symop_operation_xyz
x,y,z
-x,y,1/2-z
-x,-y,-z
x,-y,1/2+z
loop_
_atom_site_type_symbol
_atom_site_label
_atom_site_fract_x
_atom_site_fract_y
_atom_site_fract_z
Si Si1 0.661522 0.592029 0.365886
Si Si2 0.831519 0.168370 0.976407
Si Si3 0.032342 0.625321 0.608729
Si Si4 0.839899 0.938712 0.116677
Si Si5 0.731039 0.393134 0.670711
Si Si6 0.000000 0.863649 0.750000
O O1 0.673735 0.747753 0.423450
O O2 0.783369 0.461094 0.411748
O O3 0.457930 0.534787 0.360270
O O4 0.738728 0.627760 0.272589
O O5 0.954229 0.078877 0.909544
O O6 0.957596 0.297087 0.022693
O O7 0.745564 0.047207 0.043702
O O8 0.085016 0.755561 0.677979
O O9 0.887922 0.505704 0.644620
O O10 0.743363 0.775268 0.126694
O O11 0.844318 0.030496 0.206960
#
# Coordination Sequence:
#
# PCOD8119062 Si02
#       6
#     4   4   4   4   4   2
#     4  11  22  38  63  91 117 158 202 249 297 361
#     4  10  22  38  63  89 123 157 203 244 310 357
#     4  11  21  41  63  90 118 162 200 256 297 354
#     4  10  21  38  61  93 117 163 202 243 305 365
#     4  11  23  38  66  88 121 158 206 244 304 362
#     4  10  20  36  70  82 120 168 198 250 304 348
#
# _framework density 21.731272000000001
#
# number of rings (size 3 to 8) (size 9 to 14) (size 15 to 20)
#    0.000    1.455    3.636    1.636    0.000    1.455 
#    0.000    0.000   32.000    0.000    0.000    0.000 
#    0.000    0.000    0.000    0.000    0.000    0.000 
#
# Total GULP energy -272784.218864 kJ/mol
# GULP energy per Si atom -12399.282676 kJ/mol
# Density = 2.168181 g / cm^3
# Si number density = 21.731272 Si / 1000 Ang^3
#
#
#
# Elastic Constant Matrix: (Units=GPa)
#
#
# Indices 1 2 3 4 5 6 
#
# 1 75.7882 37.7236 18.1869 0.0000 8.9069 0.0000
# 2 37.7236 114.8262 33.2616 0.0000 3.6921 0.0000
# 3 18.1869 33.2616 80.8446 0.0000 12.6088 0.0000
# 4 0.0000 0.0000 0.0000 33.5799 0.0000 -1.3001
# 5 8.9069 3.6921 12.6088 0.0000 19.0975 0.0000
# 6 0.0000 0.0000 0.0000 -1.3001 0.0000 13.6994
#
#
#
# Elastic Compliance Matrix: (Units=1/GPa)
#
#
# Indices 1 2 3 4 5 6 
#
# 1 0.016619 -0.005063 -0.000668 0.000000 -0.006331 0.000000
# 2 -0.005063 0.011442 -0.004004 0.000000 0.002793 0.000000
# 3 -0.000668 -0.004004 0.015605 0.000000 -0.009217 0.000000
# 4 0.000000 0.000000 0.000000 0.029890 0.000000 0.002836
# 5 -0.006331 0.002793 -0.009217 0.000000 0.060861 0.000000
# 6 0.000000 0.000000 0.000000 0.002836 0.000000 0.073265
#
#
# Mechanical properties :
#
#
# Convention : Reuss Voigt Hill
#
# Bulk Modulus (GPa) = 41.33027 49.97814 45.65421
# Shear Modulus (GPa) = 21.25695 25.42780 23.34237
#
# Velocity S-wave (km/s) = 3.13097 3.42439 3.28096
# Velocity P-wave (km/s) = 5.66840 6.21960 5.95038
#
# Compressibility (1/GPa) = 0.02419534
#
# Stress axis : x y z
#
# Youngs Moduli (GPa) = 60.17201 87.39618 64.08323
#
# Poissons Ratio (x) = 0.44246 0.04283
# Poissons Ratio (y) = 0.30463 0.25661
# Poissons Ratio (z) = 0.04022 0.34996
#
# Static dielectric constant tensor:
#      x y z
#    x 3.436630 0.000000 0.054170 
#    y 0.000000 4.181730 0.000000 
#    z 0.054170 0.000000 4.203500 
# 
# 
# High freq. dielectric constant tensor:
#      x y z
#    x 1.805650 0.000000 0.008110 
#    y 0.000000 1.865580 0.000000 
#    z 0.008110 0.000000 1.875590 
# 
# From -- ./inp_files/46188.got.cif
#   From: 2010.06.25/outbox.cif.g09.slc.cpg/sg13_24_cif.got.tgz:46188.got - 2010.06.28 04:50:58.
