data_PCOD8119415
_publ_section_title
;
Structure prediction by ZEFSAII (Michael W. Deem and Ramdas Pophale) SiO2 
 PCOD8119415
Probable space group: P 2/C
;
_chemical_formula_sum "Si O2"
_cell_formula_units_Z 32
_cell_length_a 28.473209
_cell_length_b 7.964592
_cell_length_c 20.946341
_cell_angle_alpha 90.000000
_cell_angle_beta 161.253849
_cell_angle_gamma 90.000000
_cell_volume 1526.586296
_symmetry_space_group_name_H-M "P 2/C"
_symmetry_group_IT_number 13
_symmetry_cell_setting 'monoclinic'
loop_
_space_group_symop_operation_xyz
x,y,z
-x,y,1/2-z
-x,-y,-z
x,-y,1/2+z
loop_
_atom_site_type_symbol
_atom_site_label
_atom_site_fract_x
_atom_site_fract_y
_atom_site_fract_z
Si Si1 0.911829 0.236112 0.784105
Si Si2 0.454039 0.014102 0.546021
Si Si3 0.190712 0.760200 0.719634
Si Si4 0.275131 0.435429 0.783921
Si Si5 0.597019 0.736365 0.932219
Si Si6 0.660148 0.836304 0.221962
Si Si7 0.046906 0.380033 0.151910
Si Si8 0.983280 0.071310 0.154987
O O1 0.751816 0.201308 0.604974
O O2 0.928666 0.433534 0.785985
O O3 0.939481 0.106705 0.761499
O O4 0.032366 0.180070 0.991770
O O5 0.298522 0.086372 0.367929
O O6 0.580301 0.148386 0.688733
O O7 0.496273 0.895336 0.660078
O O8 0.437529 0.905099 0.461221
O O9 0.270715 0.636755 0.771361
O O10 0.172823 0.654623 0.762027
O O11 0.379131 0.388363 0.977442
O O12 0.319758 0.359831 0.771957
O O13 0.109313 0.373143 0.585407
O O14 0.500000 0.655565 0.750000
O O15 0.811785 0.937761 0.417240
O O16 0.059203 0.231879 0.219361
O O17 0.000000 0.108251 0.250000
#
# Coordination Sequence:
#
# PCOD8119415 Si02
#       8
#     4   4   4   4   4   4   4   4
#     4  11  21  39  65  91 116 154 202 256 303 355
#     4  10  21  35  58  81 118 154 197 247 293 351
#     4  11  18  36  66  94 109 147 204 260 305 343
#     4   9  18  36  61  86 115 150 198 249 297 352
#     4  11  22  36  56  85 122 158 192 243 306 363
#     4   9  20  39  53  82 118 155 198 244 288 353
#     4  10  20  38  65  93 120 142 207 265 290 345
#     4  11  24  38  62  87 120 166 200 238 307 361
#
# _framework density 20.961803
#
# number of rings (size 3 to 8) (size 9 to 14) (size 15 to 20)
#    0.000    1.750    3.750    1.500    1.750    2.000 
#    0.000    1.875    0.000    0.000    0.000    0.000 
#    0.000    0.000    0.000    0.000    0.000    0.000 
#
# Total GULP energy -396489.333999 kJ/mol
# GULP energy per Si atom -12390.291687 kJ/mol
# Density = 2.091409 g / cm^3
# Si number density = 20.961803 Si / 1000 Ang^3
#
#
#
# Elastic Constant Matrix: (Units=GPa)
#
#
# Indices 1 2 3 4 5 6 
#
# 1 70.6376 36.3707 22.2642 0.0000 2.6914 0.0000
# 2 36.3707 84.4971 10.0871 0.0000 1.2000 0.0000
# 3 22.2642 10.0871 52.1321 0.0000 7.7491 0.0000
# 4 0.0000 0.0000 0.0000 21.1180 0.0000 5.4766
# 5 2.6914 1.2000 7.7491 0.0000 27.8417 0.0000
# 6 0.0000 0.0000 0.0000 5.4766 0.0000 30.0734
#
#
#
# Elastic Compliance Matrix: (Units=1/GPa)
#
#
# Indices 1 2 3 4 5 6 
#
# 1 0.020548 -0.007980 -0.007289 0.000000 0.000386 0.000000
# 2 -0.007980 0.015214 0.000466 0.000000 -0.000014 0.000000
# 3 -0.007289 0.000466 0.023057 0.000000 -0.005733 0.000000
# 4 0.000000 0.000000 0.000000 0.049700 0.000000 -0.009051
# 5 0.000386 -0.000014 -0.005733 0.000000 0.037476 0.000000
# 6 0.000000 0.000000 0.000000 -0.009051 0.000000 0.034900
#
#
# Mechanical properties :
#
#
# Convention : Reuss Voigt Hill
#
# Bulk Modulus (GPa) = 34.23019 38.30120 36.26569
# Shear Modulus (GPa) = 22.70258 25.04295 23.87277
#
# Velocity S-wave (km/s) = 3.29454 3.46019 3.37838
# Velocity P-wave (km/s) = 5.55312 5.85452 5.70581
#
# Compressibility (1/GPa) = 0.02921398
#
# Stress axis : x y z
#
# Youngs Moduli (GPa) = 48.66575 65.72815 43.37107
#
# Poissons Ratio (x) = 0.52452 0.31613
# Poissons Ratio (y) = 0.38836 -0.02023
# Poissons Ratio (z) = 0.35472 -0.03065
#
# Static dielectric constant tensor:
#      x y z
#    x 3.786990 0.000000 0.302080 
#    y 0.000000 3.854460 0.000000 
#    z 0.302080 0.000000 3.684780 
# 
# 
# High freq. dielectric constant tensor:
#      x y z
#    x 1.805030 0.000000 0.018740 
#    y 0.000000 1.818060 0.000000 
#    z 0.018740 0.000000 1.800370 
# 
# From -- ./inp_files/82544.got.cif
#   From: 2010.06.25/outbox.cif.g09.slc.cpg/sg13_42_cif.got.tgz:82544.got - 2010.06.28 04:50:58.
