data_PCOD8119139
_publ_section_title
;
Structure prediction by ZEFSAII (Michael W. Deem and Ramdas Pophale) SiO2 
 PCOD8119139
Probable space group: P 2/C
;
_chemical_formula_sum "Si O2"
_cell_formula_units_Z 18
_cell_length_a 6.970919
_cell_length_b 6.128064
_cell_length_c 21.292611
_cell_angle_alpha 90.000000
_cell_angle_beta 107.315103
_cell_angle_gamma 90.000000
_cell_volume 868.362690
_symmetry_space_group_name_H-M "P 2/C"
_symmetry_group_IT_number 13
_symmetry_cell_setting 'monoclinic'
loop_
_space_group_symop_operation_xyz
x,y,z
-x,y,1/2-z
-x,-y,-z
x,-y,1/2+z
loop_
_atom_site_type_symbol
_atom_site_label
_atom_site_fract_x
_atom_site_fract_y
_atom_site_fract_z
Si Si1 0.697140 0.393962 0.857351
Si Si2 0.777291 0.771244 0.950658
Si Si3 0.055034 0.910329 0.407084
Si Si4 0.581725 0.014038 0.644352
Si Si5 0.500000 0.717165 0.750000
O O1 0.745051 0.521031 0.926849
O O2 0.491468 0.257310 0.844958
O O3 0.671008 0.568984 0.799052
O O4 0.879521 0.233441 0.858658
O O5 0.576397 0.910572 0.919622
O O6 0.824385 0.770916 0.029111
O O7 0.962672 0.873422 0.929649
O O8 0.200987 0.979314 0.365630
O O9 0.607001 0.868234 0.708952
#
# Coordination Sequence:
#
# PCOD8119139 Si02
#       5
#     4   4   4   4   2
#     4  10  21  38  58  82 113 150 192 237 280 337
#     4   9  20  37  58  89 123 143 177 237 291 344
#     4  10  20  37  61  89 115 147 187 231 289 345
#     4  10  21  38  59  83 114 153 191 233 284 338
#     4  10  22  42  54  74 118 154 192 244 282 322
#
# _framework density 20.728667000000002
#
# number of rings (size 3 to 8) (size 9 to 14) (size 15 to 20)
#    0.000    2.222    0.000    2.000    0.000    4.444 
#    0.000   26.667    0.000    0.000    0.000    0.000 
#    0.000    0.000    0.000    0.000    0.000    0.000 
#
# Total GULP energy -223283.982137 kJ/mol
# GULP energy per Si atom -12404.665674 kJ/mol
# Density = 2.068149 g / cm^3
# Si number density = 20.728667 Si / 1000 Ang^3
#
#
#
# Elastic Constant Matrix: (Units=GPa)
#
#
# Indices 1 2 3 4 5 6 
#
# 1 118.9134 37.4137 36.1185 0.0000 -27.1010 0.0000
# 2 37.4137 95.6406 30.1287 0.0000 -12.9653 0.0000
# 3 36.1185 30.1287 97.6262 0.0000 -14.9271 0.0000
# 4 0.0000 0.0000 0.0000 30.1491 0.0000 5.9839
# 5 -27.1010 -12.9653 -14.9271 0.0000 25.5904 0.0000
# 6 0.0000 0.0000 0.0000 5.9839 0.0000 14.5713
#
#
#
# Elastic Compliance Matrix: (Units=1/GPa)
#
#
# Indices 1 2 3 4 5 6 
#
# 1 0.012277 -0.002729 -0.002112 0.000000 0.010387 0.000000
# 2 -0.002729 0.012605 -0.002576 0.000000 0.001994 0.000000
# 3 -0.002112 -0.002576 0.012382 0.000000 0.003682 0.000000
# 4 0.000000 0.000000 0.000000 0.036112 0.000000 -0.014830
# 5 0.010387 0.001994 0.003682 0.000000 0.053235 0.000000
# 6 0.000000 0.000000 0.000000 -0.014830 0.000000 0.074718
#
#
# Mechanical properties :
#
#
# Convention : Reuss Voigt Hill
#
# Bulk Modulus (GPa) = 44.58054 57.72244 51.15149
# Shear Modulus (GPa) = 22.35748 27.96344 25.16046
#
# Velocity S-wave (km/s) = 3.28773 3.67689 3.48774
# Velocity P-wave (km/s) = 5.99714 6.77740 6.39917
#
# Compressibility (1/GPa) = 0.02243131
#
# Stress axis : x y z
#
# Youngs Moduli (GPa) = 81.45427 79.33302 80.76183
#
# Poissons Ratio (x) = 0.21652 0.17053
# Poissons Ratio (y) = 0.22231 0.20800
# Poissons Ratio (z) = 0.17199 0.20432
#
# Static dielectric constant tensor:
#      x y z
#    x 3.481640 0.000000 0.190500 
#    y 0.000000 3.869560 0.000000 
#    z 0.190500 0.000000 3.770450 
# 
# 
# High freq. dielectric constant tensor:
#      x y z
#    x 1.791660 0.000000 0.015610 
#    y 0.000000 1.819480 0.000000 
#    z 0.015610 0.000000 1.812340 
# 
# From -- ./inp_files/62111.got.cif
#   From: 2010.06.25/outbox.cif.g09.slc.cpg/sg13_32_cif.got.tgz:62111.got - 2010.06.28 04:50:58.
