data_PCOD8119080
_publ_section_title
;
Structure prediction by ZEFSAII (Michael W. Deem and Ramdas Pophale) SiO2 
 PCOD8119080
Probable space group: P 2/C
;
_chemical_formula_sum "Si O2"
_cell_formula_units_Z 22
_cell_length_a 26.151546
_cell_length_b 8.270197
_cell_length_c 14.909419
_cell_angle_alpha 90.000000
_cell_angle_beta 19.551400
_cell_angle_gamma 90.000000
_cell_volume 1079.115287
_symmetry_space_group_name_H-M "P 2/C"
_symmetry_group_IT_number 13
_symmetry_cell_setting 'monoclinic'
loop_
_space_group_symop_operation_xyz
x,y,z
-x,y,1/2-z
-x,-y,-z
x,-y,1/2+z
loop_
_atom_site_type_symbol
_atom_site_label
_atom_site_fract_x
_atom_site_fract_y
_atom_site_fract_z
Si Si1 0.376111 0.829124 0.387827
Si Si2 0.881378 0.822576 0.549204
Si Si3 0.720433 0.308743 0.640497
Si Si4 0.000000 0.115255 0.250000
Si Si5 0.202637 0.681693 0.990146
Si Si6 0.463623 0.122161 0.139422
O O1 0.500000 0.745700 0.250000
O O2 0.208708 0.827487 0.709147
O O3 0.357475 0.733448 0.325892
O O4 0.438348 0.012534 0.269321
O O5 0.773563 0.753762 0.648594
O O6 0.925335 0.004972 0.450337
O O7 0.029224 0.705575 0.311811
O O8 0.746889 0.497876 0.597936
O O9 0.881086 0.223581 0.392135
O O10 0.604069 0.250457 0.911855
O O11 0.307900 0.780145 0.883761
O O12 0.500000 0.000000 0.000000
#
# Coordination Sequence:
#
# PCOD8119080 Si02
#       6
#     4   4   4   2   4   4
#     4  11  22  38  60  88 118 155 205 254 297 350
#     4  10  20  37  61  87 120 157 204 251 293 360
#     4  11  22  38  62  87 120 158 197 247 306 368
#     4  10  20  38  62  86 112 160 204 238 298 362
#     4  10  21  38  59  86 120 161 198 243 308 365
#     4  10  20  37  58  80 110 154 200 237 290 361
#
# _framework density 20.387070000000001
#
# number of rings (size 3 to 8) (size 9 to 14) (size 15 to 20)
#    0.000    1.818    0.000    9.273    0.000    3.636 
#    0.000    4.545    0.000    2.182    0.000    0.000 
#    0.000    0.000    0.000    0.000    0.000    0.000 
#
# Total GULP energy -272707.040155 kJ/mol
# GULP energy per Si atom -12395.774553 kJ/mol
# Density = 2.034067 g / cm^3
# Si number density = 20.387070 Si / 1000 Ang^3
#
#
#
# Elastic Constant Matrix: (Units=GPa)
#
#
# Indices 1 2 3 4 5 6 
#
# 1 65.6338 26.8359 34.8789 0.0000 -13.4002 0.0000
# 2 26.8359 104.8047 33.2287 0.0000 -8.1962 0.0000
# 3 34.8789 33.2287 91.9091 0.0000 1.7151 0.0000
# 4 0.0000 0.0000 0.0000 38.2007 0.0000 -6.8548
# 5 -13.4002 -8.1962 1.7151 0.0000 47.7208 0.0000
# 6 0.0000 0.0000 0.0000 -6.8548 0.0000 11.8095
#
#
#
# Elastic Compliance Matrix: (Units=1/GPa)
#
#
# Indices 1 2 3 4 5 6 
#
# 1 0.021379 -0.002727 -0.007235 0.000000 0.005795 0.000000
# 2 -0.002727 0.011317 -0.003081 0.000000 0.001289 0.000000
# 3 -0.007235 -0.003081 0.014798 0.000000 -0.003093 0.000000
# 4 0.000000 0.000000 0.000000 0.029221 0.000000 0.016961
# 5 0.005795 0.001289 -0.003093 0.000000 0.022915 0.000000
# 6 0.000000 0.000000 0.000000 0.016961 0.000000 0.094523
#
#
# Mechanical properties :
#
#
# Convention : Reuss Voigt Hill
#
# Bulk Modulus (GPa) = 46.71237 50.24828 48.48033
# Shear Modulus (GPa) = 21.99001 30.70648 26.34824
#
# Velocity S-wave (km/s) = 3.28781 3.88516 3.59890
# Velocity P-wave (km/s) = 6.11354 6.69526 6.41100
#
# Compressibility (1/GPa) = 0.02140761
#
# Stress axis : x y z
#
# Youngs Moduli (GPa) = 46.77427 88.35950 67.57814
#
# Poissons Ratio (x) = 0.24096 0.48896
# Poissons Ratio (y) = 0.12756 0.20820
# Poissons Ratio (z) = 0.33844 0.27222
#
# Static dielectric constant tensor:
#      x y z
#    x 3.479490 0.000000 -0.308920 
#    y 0.000000 3.752210 0.000000 
#    z -0.308920 0.000000 3.232520 
# 
# 
# High freq. dielectric constant tensor:
#      x y z
#    x 1.777590 0.000000 -0.012740 
#    y 0.000000 1.791040 0.000000 
#    z -0.012740 0.000000 1.813310 
# 
# From -- ./inp_files/58643.got.cif
#   From: 2010.06.25/outbox.cif.g09.slc.cpg/sg13_30_cif.got.tgz:58643.got - 2010.06.28 04:50:58.
