data_PCOD8119609
_publ_section_title
;
Structure prediction by ZEFSAII (Michael W. Deem and Ramdas Pophale) SiO2 
 PCOD8119609
Probable space group: P 2/C
;
_chemical_formula_sum "Si O2"
_cell_formula_units_Z 16
_cell_length_a 7.292887
_cell_length_b 8.520164
_cell_length_c 16.148784
_cell_angle_alpha 90.000000
_cell_angle_beta 42.705771
_cell_angle_gamma 90.000000
_cell_volume 680.560318
_symmetry_space_group_name_H-M "P 2/C"
_symmetry_group_IT_number 13
_symmetry_cell_setting 'monoclinic'
loop_
_space_group_symop_operation_xyz
x,y,z
-x,y,1/2-z
-x,-y,-z
x,-y,1/2+z
loop_
_atom_site_type_symbol
_atom_site_label
_atom_site_fract_x
_atom_site_fract_y
_atom_site_fract_z
Si Si1 0.792126 0.323533 0.984063
Si Si2 0.651936 0.881297 0.391296
Si Si3 0.681260 0.846619 0.768987
Si Si4 0.847900 0.683994 0.977975
O O1 0.860227 0.227217 0.876313
O O2 0.784254 0.508039 0.970436
O O3 0.496577 0.264534 0.111890
O O4 0.022354 0.293533 0.974934
O O5 0.435124 0.769485 0.420036
O O6 0.500000 0.000000 0.500000
O O7 0.785605 0.990171 0.275672
O O8 0.500000 0.888669 0.750000
O O9 0.954927 0.756104 0.656353
#
# Coordination Sequence:
#
# PCOD8119609 Si02
#       4
#     4   4   4   4
#     4   9  20  38  63  90 116 154 200 244 297 355
#     4  10  21  37  59  88 118 152 198 242 293 360
#     4   9  20  38  60  87 119 157 199 242 296 356
#     4  10  20  40  62  84 124 157 189 251 298 339
#
# _framework density 23.510038999999999
#
# number of rings (size 3 to 8) (size 9 to 14) (size 15 to 20)
#    0.000    2.500    0.000    0.750    0.000   13.000 
#    0.000   16.250    0.000    0.000    0.000    0.000 
#    0.000    0.000    0.000    0.000    0.000    0.000 
#
# Total GULP energy -198339.975832 kJ/mol
# GULP energy per Si atom -12396.248489 kJ/mol
# Density = 2.345653 g / cm^3
# Si number density = 23.510039 Si / 1000 Ang^3
#
#
#
# Elastic Constant Matrix: (Units=GPa)
#
#
# Indices 1 2 3 4 5 6 
#
# 1 108.2308 97.2835 42.1912 0.0000 -2.1706 0.0000
# 2 97.2835 210.4311 68.7034 0.0000 14.7791 0.0000
# 3 42.1912 68.7034 71.9970 0.0000 9.1244 0.0000
# 4 0.0000 0.0000 0.0000 36.2780 0.0000 12.5481
# 5 -2.1706 14.7791 9.1244 0.0000 25.1395 0.0000
# 6 0.0000 0.0000 0.0000 12.5481 0.0000 48.0066
#
#
#
# Elastic Compliance Matrix: (Units=1/GPa)
#
#
# Indices 1 2 3 4 5 6 
#
# 1 0.017567 -0.007222 -0.004332 0.000000 0.007335 0.000000
# 2 -0.007222 0.009946 -0.004653 0.000000 -0.004782 0.000000
# 3 -0.004332 -0.004653 0.021561 0.000000 -0.005464 0.000000
# 4 0.000000 0.000000 0.000000 0.030305 0.000000 -0.007921
# 5 0.007335 -0.004782 -0.005464 0.000000 0.045206 0.000000
# 6 0.000000 0.000000 0.000000 -0.007921 0.000000 0.022901
#
#
# Mechanical properties :
#
#
# Convention : Reuss Voigt Hill
#
# Bulk Modulus (GPa) = 60.02653 89.66834 74.84743
# Shear Modulus (GPa) = 26.96115 34.05023 30.50569
#
# Velocity S-wave (km/s) = 3.39011 3.80982 3.60607
# Velocity P-wave (km/s) = 6.39621 7.58790 7.01740
#
# Compressibility (1/GPa) = 0.01665930
#
# Stress axis : x y z
#
# Youngs Moduli (GPa) = 56.92483 100.54516 46.38086
#
# Poissons Ratio (x) = 0.72614 0.20094
# Poissons Ratio (y) = 0.41111 0.21579
# Poissons Ratio (z) = 0.24663 0.46780
#
# Static dielectric constant tensor:
#      x y z
#    x 4.562060 0.000000 0.270660 
#    y 0.000000 4.382420 0.000000 
#    z 0.270660 0.000000 4.226030 
# 
# 
# High freq. dielectric constant tensor:
#      x y z
#    x 1.952870 0.000000 0.005690 
#    y 0.000000 1.944580 0.000000 
#    z 0.005690 0.000000 1.912310 
# 
# From -- ./inp_files/31982.got.cif
#   From: 2010.06.25/outbox.cif.g09.slc.cpg/sg13_16_cif.got.tgz:31982.got - 2010.06.28 04:50:58.
