data_PCOD8119518
_publ_section_title
;
Structure prediction by ZEFSAII (Michael W. Deem and Ramdas Pophale) SiO2 
 PCOD8119518
Probable space group: P 2/C
;
_chemical_formula_sum "Si O2"
_cell_formula_units_Z 16
_cell_length_a 4.872094
_cell_length_b 5.604915
_cell_length_c 28.067903
_cell_angle_alpha 90.000000
_cell_angle_beta 52.041999
_cell_angle_gamma 90.000000
_cell_volume 604.331640
_symmetry_space_group_name_H-M "P 2/C"
_symmetry_group_IT_number 13
_symmetry_cell_setting 'monoclinic'
loop_
_space_group_symop_operation_xyz
x,y,z
-x,y,1/2-z
-x,-y,-z
x,-y,1/2+z
loop_
_atom_site_type_symbol
_atom_site_label
_atom_site_fract_x
_atom_site_fract_y
_atom_site_fract_z
Si Si1 0.343113 0.096895 0.902583
Si Si2 0.278243 0.704107 0.678941
Si Si3 0.266187 0.781953 0.509980
Si Si4 0.002985 0.482237 0.881192
O O1 0.137101 0.217816 0.880579
O O2 0.701958 0.970633 0.846758
O O3 0.395214 0.285585 0.941657
O O4 0.130497 0.875695 0.948255
O O5 0.659716 0.652455 0.659509
O O6 0.000000 0.706665 0.750000
O O7 0.180714 0.496513 0.651067
O O8 0.265642 0.561243 0.547537
O O9 0.500000 0.000000 0.500000
#
# Coordination Sequence:
#
# PCOD8119518 Si02
#       4
#     4   4   4   4
#     4  10  23  40  65  97 132 178 217 278 352 412
#     4  11  25  45  64  93 134 176 233 291 337 408
#     4  10  20  39  63  99 137 168 218 280 346 420
#     4  11  24  41  68  97 131 176 229 280 348 421
#
# _framework density 26.475532000000001
#
# number of rings (size 3 to 8) (size 9 to 14) (size 15 to 20)
#    0.000    1.500    2.500    1.500    3.500    2.000 
#    0.000    5.000    0.000    0.000    0.000    0.000 
#    0.000    0.000    0.000    0.000    0.000    0.000 
#
# Total GULP energy -198349.216003 kJ/mol
# GULP energy per Si atom -12396.826000 kJ/mol
# Density = 2.641527 g / cm^3
# Si number density = 26.475532 Si / 1000 Ang^3
#
#
#
# Elastic Constant Matrix: (Units=GPa)
#
#
# Indices 1 2 3 4 5 6 
#
# 1 81.4301 4.3758 32.0389 0.0000 18.7433 0.0000
# 2 4.3758 71.0092 40.9211 0.0000 14.2470 0.0000
# 3 32.0389 40.9211 225.2779 0.0000 -1.3972 0.0000
# 4 0.0000 0.0000 0.0000 37.9251 0.0000 4.8915
# 5 18.7433 14.2470 -1.3972 0.0000 40.7013 0.0000
# 6 0.0000 0.0000 0.0000 4.8915 0.0000 50.3816
#
#
#
# Elastic Compliance Matrix: (Units=1/GPa)
#
#
# Indices 1 2 3 4 5 6 
#
# 1 0.014946 0.002097 -0.002554 0.000000 -0.007704 0.000000
# 2 0.002097 0.017415 -0.003506 0.000000 -0.007182 0.000000
# 3 -0.002554 -0.003506 0.005455 0.000000 0.002591 0.000000
# 4 0.000000 0.000000 0.000000 0.026702 0.000000 -0.002592
# 5 -0.007704 -0.007182 0.002591 0.000000 0.030720 0.000000
# 6 0.000000 0.000000 0.000000 -0.002592 0.000000 0.020100
#
#
# Mechanical properties :
#
#
# Convention : Reuss Voigt Hill
#
# Bulk Modulus (GPa) = 33.45722 59.15431 46.30577
# Shear Modulus (GPa) = 37.52942 45.82704 41.67823
#
# Velocity S-wave (km/s) = 3.76907 4.16495 3.97194
# Velocity P-wave (km/s) = 5.62189 6.74689 6.20992
#
# Compressibility (1/GPa) = 0.02988891
#
# Stress axis : x y z
#
# Youngs Moduli (GPa) = 66.90678 57.42214 183.31225
#
# Poissons Ratio (x) = -0.12040 0.46823
# Poissons Ratio (y) = -0.14029 0.64271
# Poissons Ratio (z) = 0.17090 0.20133
#
# Static dielectric constant tensor:
#      x y z
#    x 4.946610 0.000000 -0.083450 
#    y 0.000000 4.813520 0.000000 
#    z -0.083450 0.000000 5.054370 
# 
# 
# High freq. dielectric constant tensor:
#      x y z
#    x 2.073400 0.000000 -0.012340 
#    y 0.000000 2.064250 0.000000 
#    z -0.012340 0.000000 2.057670 
# 
# From -- ./inp_files/72577.got.cif
#   From: 2010.06.25/outbox.cif.g09.slc.cpg/sg13_37_cif.got.tgz:72577.got - 2010.06.28 04:50:58.
