data_PCOD8119726
_publ_section_title
;
Structure prediction by ZEFSAII (Michael W. Deem and Ramdas Pophale) SiO2 
 PCOD8119726
Probable space group: P 2/C
;
_chemical_formula_sum "Si O2"
_cell_formula_units_Z 22
_cell_length_a 14.956452
_cell_length_b 8.754778
_cell_length_c 24.667078
_cell_angle_alpha 90.000000
_cell_angle_beta 18.854578
_cell_angle_gamma 90.000000
_cell_volume 1043.803693
_symmetry_space_group_name_H-M "P 2/C"
_symmetry_group_IT_number 13
_symmetry_cell_setting 'monoclinic'
loop_
_space_group_symop_operation_xyz
x,y,z
-x,y,1/2-z
-x,-y,-z
x,-y,1/2+z
loop_
_atom_site_type_symbol
_atom_site_label
_atom_site_fract_x
_atom_site_fract_y
_atom_site_fract_z
Si Si1 0.205738 0.387550 0.727645
Si Si2 0.500000 0.719037 0.750000
Si Si3 0.750213 0.694749 0.858707
Si Si4 0.184987 0.434259 0.346295
Si Si5 0.186255 0.131866 0.514108
Si Si6 0.242328 0.860738 0.753973
O O1 0.147545 0.528154 0.720705
O O2 0.488783 0.307782 0.548152
O O3 0.247811 0.439449 0.765664
O O4 0.952776 0.268070 0.870833
O O5 0.536764 0.613031 0.781959
O O6 0.756774 0.822287 0.581920
O O7 0.664442 0.801455 0.858218
O O8 0.000000 0.767172 0.750000
O O9 0.080055 0.276088 0.378782
O O10 0.000000 0.500000 0.500000
O O11 0.478733 0.085531 0.374633
O O12 0.973817 0.994376 0.631328
#
# Coordination Sequence:
#
# PCOD8119726 Si02
#       6
#     4   2   4   4   4   4
#     4  10  23  40  68  94 133 172 215 283 329 386
#     4  10  22  40  68  98 142 166 220 272 334 392
#     4  10  24  42  66  98 128 171 230 270 332 392
#     4  10  20  41  65  98 125 170 218 273 329 391
#     4  11  24  45  66  96 137 178 218 272 333 393
#     4  10  26  44  66  96 135 175 223 269 330 396
#
# _framework density 21.076761000000001
#
# number of rings (size 3 to 8) (size 9 to 14) (size 15 to 20)
#    0.000    1.818    1.818    0.000   12.727    3.636 
#    0.000    0.000    0.000    0.000    0.000    0.000 
#    0.000    0.000    0.000    0.000    0.000    0.000 
#
# Total GULP energy -272619.301227 kJ/mol
# GULP energy per Si atom -12391.786419 kJ/mol
# Density = 2.102879 g / cm^3
# Si number density = 21.076761 Si / 1000 Ang^3
#
#
#
# Elastic Constant Matrix: (Units=GPa)
#
#
# Indices 1 2 3 4 5 6 
#
# 1 122.5068 37.7259 51.3415 0.0000 4.3193 0.0000
# 2 37.7259 99.2908 62.4894 0.0000 0.4701 0.0000
# 3 51.3415 62.4894 142.1699 0.0000 14.5854 0.0000
# 4 0.0000 0.0000 0.0000 30.0044 0.0000 -5.0335
# 5 4.3193 0.4701 14.5854 0.0000 42.1495 0.0000
# 6 0.0000 0.0000 0.0000 -5.0335 0.0000 19.1967
#
#
#
# Elastic Compliance Matrix: (Units=1/GPa)
#
#
# Indices 1 2 3 4 5 6 
#
# 1 0.009924 -0.002101 -0.002653 0.000000 -0.000076 0.000000
# 2 -0.002101 0.014538 -0.005844 0.000000 0.002075 0.000000
# 3 -0.002653 -0.005844 0.010913 0.000000 -0.003439 0.000000
# 4 0.000000 0.000000 0.000000 0.034862 0.000000 0.009141
# 5 -0.000076 0.002075 -0.003439 0.000000 0.024900 0.000000
# 6 0.000000 0.000000 0.000000 0.009141 0.000000 0.054489
#
#
# Mechanical properties :
#
#
# Convention : Reuss Voigt Hill
#
# Bulk Modulus (GPa) = 70.52240 74.12012 72.32126
# Shear Modulus (GPa) = 28.48212 32.43083 30.45648
#
# Velocity S-wave (km/s) = 3.68006 3.92688 3.80547
# Velocity P-wave (km/s) = 7.18259 7.47018 7.32780
#
# Compressibility (1/GPa) = 0.01417989
#
# Stress axis : x y z
#
# Youngs Moduli (GPa) = 100.76406 68.78541 91.63002
#
# Poissons Ratio (x) = 0.14451 0.24307
# Poissons Ratio (y) = 0.21169 0.53551
# Poissons Ratio (z) = 0.26730 0.40200
#
# Static dielectric constant tensor:
#      x y z
#    x 4.244120 0.000000 -0.271650 
#    y 0.000000 3.947980 0.000000 
#    z -0.271650 0.000000 5.153440 
# 
# 
# High freq. dielectric constant tensor:
#      x y z
#    x 1.835180 0.000000 0.018150 
#    y 0.000000 1.814370 0.000000 
#    z 0.018150 0.000000 1.827270 
# 
# From -- ./inp_files/87251.got.cif
#   From: 2010.06.25/outbox.cif.g09.slc.cpg/sg13_44_cif.got.tgz:87251.got - 2010.06.28 04:50:58.
