data_PCOD8119401
_publ_section_title
;
Structure prediction by ZEFSAII (Michael W. Deem and Ramdas Pophale) SiO2 
 PCOD8119401
Probable space group: P 2/C
;
_chemical_formula_sum "Si O2"
_cell_formula_units_Z 20
_cell_length_a 8.837877
_cell_length_b 10.588177
_cell_length_c 10.882629
_cell_angle_alpha 90.000000
_cell_angle_beta 128.153384
_cell_angle_gamma 90.000000
_cell_volume 800.800356
_symmetry_space_group_name_H-M "P 2/C"
_symmetry_group_IT_number 13
_symmetry_cell_setting 'monoclinic'
loop_
_space_group_symop_operation_xyz
x,y,z
-x,y,1/2-z
-x,-y,-z
x,-y,1/2+z
loop_
_atom_site_type_symbol
_atom_site_label
_atom_site_fract_x
_atom_site_fract_y
_atom_site_fract_z
Si Si1 0.207277 0.575742 0.830342
Si Si2 0.760499 0.870236 0.960614
Si Si3 0.607002 0.831871 0.554445
Si Si4 0.281076 0.588107 0.606734
Si Si5 0.500000 0.056063 0.750000
Si Si6 0.000000 0.976351 0.750000
O O1 0.373400 0.681227 0.915164
O O2 0.193473 0.515748 0.683730
O O3 0.000000 0.637705 0.750000
O O4 0.248631 0.473967 0.957741
O O5 0.952623 0.929279 0.113564
O O6 0.577051 0.881770 0.962424
O O7 0.807240 0.729670 0.939506
O O8 0.684771 0.962698 0.813457
O O9 0.551402 0.850981 0.385750
O O10 0.813862 0.893005 0.689569
O O11 0.500000 0.601798 0.750000
#
# Coordination Sequence:
#
# PCOD8119401 Si02
#       6
#     4   4   4   4   2   2
#     4  12  27  49  71 109 144 189 244 299 358 429
#     4  11  23  45  68 104 143 184 239 290 367 417
#     4  11  23  44  68 102 146 182 242 291 362 423
#     4  12  26  48  76 102 146 190 242 300 359 430
#     4  10  20  38  64  96 136 182 226 288 338 430
#     4  10  22  42  70 102 142 192 232 298 352 436
#
# _framework density 24.975014000000002
#
# number of rings (size 3 to 8) (size 9 to 14) (size 15 to 20)
#    0.000    0.800    4.000    3.600    2.800    0.000 
#    7.200    9.000    0.000    0.000    0.000    0.000 
#    0.000    0.000    0.000    0.000    0.000    0.000 
#
# Total GULP energy -247761.419656 kJ/mol
# GULP energy per Si atom -12388.070983 kJ/mol
# Density = 2.491817 g / cm^3
# Si number density = 24.975014 Si / 1000 Ang^3
#
#
#
# Elastic Constant Matrix: (Units=GPa)
#
#
# Indices 1 2 3 4 5 6 
#
# 1 55.7712 55.2067 43.5694 0.0000 -31.9137 0.0000
# 2 55.2067 58.6807 50.1996 0.0000 -8.2774 0.0000
# 3 43.5694 50.1996 176.2438 0.0000 -19.1161 0.0000
# 4 0.0000 0.0000 0.0000 20.3779 0.0000 -9.7245
# 5 -31.9137 -8.2774 -19.1161 0.0000 41.8011 0.0000
# 6 0.0000 0.0000 0.0000 -9.7245 0.0000 18.6590
#
#
#
# Elastic Compliance Matrix: (Units=1/GPa)
#
#
# Indices 1 2 3 4 5 6 
#
# 1 -0.087780 0.081180 -0.007310 0.000000 -0.054285 0.000000
# 2 0.081180 -0.052441 0.000489 0.000000 0.051817 0.000000
# 3 -0.007310 0.000489 0.007099 0.000000 -0.002238 0.000000
# 4 0.000000 0.000000 0.000000 0.065318 0.000000 0.034042
# 5 -0.054285 0.051817 -0.002238 0.000000 -0.008285 0.000000
# 6 0.000000 0.000000 0.000000 0.034042 0.000000 0.071335
#
#
# Mechanical properties :
#
#
# Convention : Reuss Voigt Hill
#
# Bulk Modulus (GPa) = 64.12652 65.40526 64.76589
# Shear Modulus (GPa) = -33.72163 25.61560 -4.05301
#
# Velocity S-wave (km/s) = -3.67851 3.20605 -1.27528
# Velocity P-wave (km/s) = 2.77310 6.32061 4.88058
#
# Compressibility (1/GPa) = 0.01559417
#
# Stress axis : x y z
#
# Youngs Moduli (GPa) = -11.39209 -19.06895 140.86021
#
# Poissons Ratio (x) = 1.54801 1.02972
# Poissons Ratio (y) = 0.92481 -0.06883
# Poissons Ratio (z) = -0.08328 0.00932
#
# Static dielectric constant tensor:
#      x y z
#    x 4.683680 0.000000 -0.264620 
#    y 0.000000 4.328080 0.000000 
#    z -0.264620 0.000000 4.966000 
# 
# 
# High freq. dielectric constant tensor:
#      x y z
#    x 1.999910 0.000000 -0.010370 
#    y 0.000000 1.976060 0.000000 
#    z -0.010370 0.000000 2.021610 
# 
# From -- ./inp_files/28982.got.cif
#   From: 2010.06.25/outbox.cif.g09.slc.cpg/sg13_15_cif.got.tgz:28982.got - 2010.06.28 04:50:58.
