data_PCOD8119632
_publ_section_title
;
Structure prediction by ZEFSAII (Michael W. Deem and Ramdas Pophale) SiO2 
 PCOD8119632
Probable space group: P 2/C
;
_chemical_formula_sum "Si O2"
_cell_formula_units_Z 32
_cell_length_a 28.475474
_cell_length_b 8.854539
_cell_length_c 12.193107
_cell_angle_alpha 90.000000
_cell_angle_beta 29.350579
_cell_angle_gamma 90.000000
_cell_volume 1506.892140
_symmetry_space_group_name_H-M "P 2/C"
_symmetry_group_IT_number 13
_symmetry_cell_setting 'monoclinic'
loop_
_space_group_symop_operation_xyz
x,y,z
-x,y,1/2-z
-x,-y,-z
x,-y,1/2+z
loop_
_atom_site_type_symbol
_atom_site_label
_atom_site_fract_x
_atom_site_fract_y
_atom_site_fract_z
Si Si1 0.963904 0.370892 0.994881
Si Si2 0.695529 0.465850 0.077359
Si Si3 0.407224 0.782620 0.583113
Si Si4 0.722666 0.033461 0.566548
Si Si5 0.627251 0.240747 0.594878
Si Si6 0.808669 0.310026 0.475719
Si Si7 0.076931 0.867955 0.348341
Si Si8 0.872722 0.634518 0.082712
O O1 0.879104 0.279554 0.229312
O O2 0.922288 0.466191 0.977042
O O3 0.000000 0.500000 0.000000
O O4 0.048967 0.246969 0.802757
O O5 0.615678 0.353059 0.286376
O O6 0.646805 0.593803 0.103065
O O7 0.749610 0.537208 0.072515
O O8 0.769759 0.373011 0.851243
O O9 0.358605 0.751645 0.564284
O O10 0.519966 0.804285 0.344753
O O11 0.368056 0.938603 0.710882
O O12 0.699224 0.113980 0.497605
O O13 0.738708 0.165402 0.623597
O O14 0.815241 0.925631 0.376099
O O15 0.866303 0.320073 0.470294
O O16 0.065235 0.764489 0.481967
O O17 0.000000 0.000000 0.500000
#
# Coordination Sequence:
#
# PCOD8119632 Si02
#       8
#     4   4   4   4   4   4   4   4
#     4   9  20  37  59  80 120 156 201 257 298 352
#     4  10  20  40  64  90 123 160 202 264 313 365
#     4  11  22  41  67  93 127 163 212 252 326 380
#     4  11  23  40  63  88 135 161 205 257 315 368
#     4  10  24  41  64  97 125 163 206 266 311 387
#     4  10  21  38  60  90 118 163 207 253 310 366
#     4  11  21  39  59  84 124 162 200 253 307 366
#     4  10  21  38  64  85 118 164 206 252 305 370
#
# _framework density 21.235759000000002
#
# number of rings (size 3 to 8) (size 9 to 14) (size 15 to 20)
#    0.000    1.750    2.500    1.500    1.750    2.000 
#    0.000    0.000   11.000    6.000    0.000    0.000 
#    0.000    0.000    0.000    0.000    0.000    0.000 
#
# Total GULP energy -396580.603900 kJ/mol
# GULP energy per Si atom -12393.143872 kJ/mol
# Density = 2.118743 g / cm^3
# Si number density = 21.235759 Si / 1000 Ang^3
#
#
#
# Elastic Constant Matrix: (Units=GPa)
#
#
# Indices 1 2 3 4 5 6 
#
# 1 108.2802 43.8454 12.5020 0.0000 1.4839 0.0000
# 2 43.8454 118.7386 32.3443 0.0000 -1.7708 0.0000
# 3 12.5020 32.3443 63.3697 0.0000 -9.4808 0.0000
# 4 0.0000 0.0000 0.0000 33.0096 0.0000 -13.9012
# 5 1.4839 -1.7708 -9.4808 0.0000 29.7154 0.0000
# 6 0.0000 0.0000 0.0000 -13.9012 0.0000 31.3579
#
#
#
# Elastic Compliance Matrix: (Units=1/GPa)
#
#
# Indices 1 2 3 4 5 6 
#
# 1 0.010880 -0.003962 -0.000253 0.000000 -0.000860 0.000000
# 2 -0.003962 0.011256 -0.005076 0.000000 -0.000751 0.000000
# 3 -0.000253 -0.005076 0.019299 0.000000 0.005868 0.000000
# 4 0.000000 0.000000 0.000000 0.037248 0.000000 0.016512
# 5 -0.000860 -0.000751 0.005868 0.000000 0.035523 0.000000
# 6 0.000000 0.000000 0.000000 0.016512 0.000000 0.039210
#
#
# Mechanical properties :
#
#
# Convention : Reuss Voigt Hill
#
# Bulk Modulus (GPa) = 43.75593 51.97468 47.86530
# Shear Modulus (GPa) = 27.83714 32.26303 30.05009
#
# Velocity S-wave (km/s) = 3.62451 3.90202 3.76582
# Velocity P-wave (km/s) = 6.17784 6.69546 6.44185
#
# Compressibility (1/GPa) = 0.02285404
#
# Stress axis : x y z
#
# Youngs Moduli (GPa) = 91.90777 88.83984 51.81595
#
# Poissons Ratio (x) = 0.35194 0.01312
# Poissons Ratio (y) = 0.36410 0.26302
# Poissons Ratio (z) = 0.02328 0.45095
#
# Static dielectric constant tensor:
#      x y z
#    x 4.766040 0.000000 -0.976870 
#    y 0.000000 4.146010 0.000000 
#    z -0.976870 0.000000 4.289940 
# 
# 
# High freq. dielectric constant tensor:
#      x y z
#    x 1.832010 0.000000 -0.023050 
#    y 0.000000 1.849440 0.000000 
#    z -0.023050 0.000000 1.813030 
# 
# From -- ./inp_files/42760.got.cif
#   From: 2010.06.25/outbox.cif.g09.slc.cpg/sg13_22_cif.got.tgz:42760.got - 2010.06.28 04:50:58.
