data_PCOD8119422
_publ_section_title
;
Structure prediction by ZEFSAII (Michael W. Deem and Ramdas Pophale) SiO2 
 PCOD8119422
Probable space group: P 2/C
;
_chemical_formula_sum "Si O2"
_cell_formula_units_Z 32
_cell_length_a 22.272310
_cell_length_b 8.656151
_cell_length_c 14.429057
_cell_angle_alpha 90.000000
_cell_angle_beta 32.733878
_cell_angle_gamma 90.000000
_cell_volume 1504.231790
_symmetry_space_group_name_H-M "P 2/C"
_symmetry_group_IT_number 13
_symmetry_cell_setting 'monoclinic'
loop_
_space_group_symop_operation_xyz
x,y,z
-x,y,1/2-z
-x,-y,-z
x,-y,1/2+z
loop_
_atom_site_type_symbol
_atom_site_label
_atom_site_fract_x
_atom_site_fract_y
_atom_site_fract_z
Si Si1 0.101725 0.166694 0.671221
Si Si2 0.956650 0.249917 0.553130
Si Si3 0.100544 0.844326 0.566225
Si Si4 0.719572 0.643834 0.646947
Si Si5 0.174054 0.565800 0.800675
Si Si6 0.321703 0.306764 0.826415
Si Si7 0.384041 0.698578 0.437025
Si Si8 0.534719 0.831254 0.985910
O O1 0.071041 0.150386 0.819223
O O2 0.210883 0.269795 0.522167
O O3 0.000000 0.250682 0.750000
O O4 0.121747 0.004660 0.592017
O O5 0.934875 0.134365 0.495124
O O6 0.875240 0.396966 0.652419
O O7 0.084848 0.305703 0.383656
O O8 0.208313 0.739043 0.425168
O O9 0.000000 0.756198 0.750000
O O10 0.801000 0.596572 0.624508
O O11 0.671050 0.489647 0.664336
O O12 0.620935 0.758577 0.802781
O O13 0.292047 0.578285 0.593720
O O14 0.332609 0.219959 0.911883
O O15 0.422383 0.267801 0.627263
O O16 0.500000 0.618701 0.250000
O O17 0.411852 0.826191 0.479795
O O18 0.500000 0.000000 0.000000
#
# Coordination Sequence:
#
# PCOD8119422 Si02
#       8
#     4   4   4   4   4   4   4   4
#     4  11  24  41  61  93 135 176 222 278 336 401
#     4  11  22  42  65  96 139 176 234 275 341 407
#     4  11  25  41  63  96 135 179 224 276 338 406
#     4  11  21  40  68  96 129 175 222 279 340 393
#     4  10  20  38  66 101 129 178 221 290 333 398
#     4  11  21  41  64  96 127 169 226 274 330 403
#     4   9  20  38  65  95 130 167 218 275 339 397
#     4  10  22  41  67  94 133 171 216 273 342 405
#
# _framework density 21.273316999999999
#
# number of rings (size 3 to 8) (size 9 to 14) (size 15 to 20)
#    0.000    1.500    2.500    2.625    0.000    3.500 
#    6.750    0.000    0.000    0.000    0.000    0.000 
#    0.000    0.000    0.000    0.000    0.000    0.000 
#
# Total GULP energy -396579.403198 kJ/mol
# GULP energy per Si atom -12393.106350 kJ/mol
# Density = 2.122490 g / cm^3
# Si number density = 21.273317 Si / 1000 Ang^3
#
#
#
# Elastic Constant Matrix: (Units=GPa)
#
#
# Indices 1 2 3 4 5 6 
#
# 1 117.2524 36.4607 54.3842 0.0000 9.2730 0.0000
# 2 36.4607 108.6077 45.3993 0.0000 -2.1015 0.0000
# 3 54.3842 45.3993 148.3779 0.0000 -1.8097 0.0000
# 4 0.0000 0.0000 0.0000 23.4901 0.0000 -7.4800
# 5 9.2730 -2.1015 -1.8097 0.0000 39.7138 0.0000
# 6 0.0000 0.0000 0.0000 -7.4800 0.0000 30.3011
#
#
#
# Elastic Compliance Matrix: (Units=1/GPa)
#
#
# Indices 1 2 3 4 5 6 
#
# 1 0.011048 -0.002359 -0.003362 0.000000 -0.002858 0.000000
# 2 -0.002359 0.011068 -0.002510 0.000000 0.001022 0.000000
# 3 -0.003362 -0.002510 0.008753 0.000000 0.001051 0.000000
# 4 0.000000 0.000000 0.000000 0.046203 0.000000 0.011405
# 5 -0.002858 0.001022 0.001051 0.000000 0.025949 0.000000
# 6 0.000000 0.000000 0.000000 0.011405 0.000000 0.035818
#
#
# Mechanical properties :
#
#
# Convention : Reuss Voigt Hill
#
# Bulk Modulus (GPa) = 69.40978 71.85848 70.63413
# Shear Modulus (GPa) = 31.23015 34.56725 32.89870
#
# Velocity S-wave (km/s) = 3.83566 4.03539 3.93679
# Velocity P-wave (km/s) = 7.23290 7.45416 7.34437
#
# Compressibility (1/GPa) = 0.01440719
#
# Stress axis : x y z
#
# Youngs Moduli (GPa) = 90.51759 90.35023 114.25135
#
# Poissons Ratio (x) = 0.21310 0.38416
# Poissons Ratio (y) = 0.21349 0.28672
# Poissons Ratio (z) = 0.30436 0.22674
#
# Static dielectric constant tensor:
#      x y z
#    x 4.053090 0.000000 -0.092310 
#    y 0.000000 3.468760 0.000000 
#    z -0.092310 0.000000 4.167610 
# 
# 
# High freq. dielectric constant tensor:
#      x y z
#    x 1.843010 0.000000 -0.004890 
#    y 0.000000 1.803100 0.000000 
#    z -0.004890 0.000000 1.855380 
# 
# From -- ./inp_files/58802.got.cif
#   From: 2010.06.25/outbox.cif.g09.slc.cpg/sg13_30_cif.got.tgz:58802.got - 2010.06.28 04:50:58.
