data_PCOD8119823
_publ_section_title
;
Structure prediction by ZEFSAII (Michael W. Deem and Ramdas Pophale) SiO2 
 PCOD8119823
Probable space group: P 2/C
;
_chemical_formula_sum "Si O2"
_cell_formula_units_Z 22
_cell_length_a 27.269183
_cell_length_b 6.984721
_cell_length_c 16.551084
_cell_angle_alpha 90.000000
_cell_angle_beta 160.672689
_cell_angle_gamma 90.000000
_cell_volume 1043.346818
_symmetry_space_group_name_H-M "P 2/C"
_symmetry_group_IT_number 13
_symmetry_cell_setting 'monoclinic'
loop_
_space_group_symop_operation_xyz
x,y,z
-x,y,1/2-z
-x,-y,-z
x,-y,1/2+z
loop_
_atom_site_type_symbol
_atom_site_label
_atom_site_fract_x
_atom_site_fract_y
_atom_site_fract_z
Si Si1 0.601998 0.757515 0.577061
Si Si2 0.037983 0.697309 0.019409
Si Si3 0.853486 0.557736 0.481800
Si Si4 0.779814 0.001516 0.106225
Si Si5 0.500000 0.845336 0.250000
Si Si6 0.683117 0.884657 0.287974
O O1 0.724535 0.598684 0.784626
O O2 0.537543 0.717718 0.387134
O O3 0.467045 0.758998 0.432032
O O4 0.671171 0.972025 0.692595
O O5 0.123151 0.647078 0.069875
O O6 0.141134 0.808243 0.243394
O O7 0.000000 0.500000 0.000000
O O8 0.888473 0.816568 0.774898
O O9 0.813976 0.736169 0.477227
O O10 0.000000 0.464519 0.750000
O O11 0.644003 0.027429 0.956460
O O12 0.717877 0.981035 0.919268
#
# Coordination Sequence:
#
# PCOD8119823 Si02
#       6
#     4   4   4   4   2   4
#     4  10  23  41  67  93 129 173 218 273 328 384
#     4  11  24  41  62  96 131 174 211 265 333 387
#     4  12  24  40  64 101 133 170 220 268 329 394
#     4  10  22  41  65  90 131 165 215 271 320 395
#     4  10  20  44  66  90 124 172 222 264 324 388
#     4  10  22  43  66  96 127 172 219 276 328 386
#
# _framework density 21.085989999999999
#
# number of rings (size 3 to 8) (size 9 to 14) (size 15 to 20)
#    0.000    1.455    1.818    2.727    2.545    2.182 
#    0.000   11.818    0.000    0.000    0.000    0.000 
#    0.000    0.000    0.000    0.000    0.000    0.000 
#
# Total GULP energy -272739.950714 kJ/mol
# GULP energy per Si atom -12397.270487 kJ/mol
# Density = 2.103800 g / cm^3
# Si number density = 21.085990 Si / 1000 Ang^3
#
#
#
# Elastic Constant Matrix: (Units=GPa)
#
#
# Indices 1 2 3 4 5 6 
#
# 1 107.6703 55.6108 42.7352 0.0000 0.6269 0.0000
# 2 55.6108 109.3400 51.2481 0.0000 6.0346 0.0000
# 3 42.7352 51.2481 119.5622 0.0000 0.8683 0.0000
# 4 0.0000 0.0000 0.0000 36.5615 0.0000 3.3703
# 5 0.6269 6.0346 0.8683 0.0000 34.9431 0.0000
# 6 0.0000 0.0000 0.0000 3.3703 0.0000 22.6179
#
#
#
# Elastic Compliance Matrix: (Units=1/GPa)
#
#
# Indices 1 2 3 4 5 6 
#
# 1 0.013098 -0.005642 -0.002269 0.000000 0.000796 0.000000
# 2 -0.005642 0.013997 -0.003967 0.000000 -0.002217 0.000000
# 3 -0.002269 -0.003967 0.010872 0.000000 0.000456 0.000000
# 4 0.000000 0.000000 0.000000 0.027732 0.000000 -0.004132
# 5 0.000796 -0.002217 0.000456 0.000000 0.028975 0.000000
# 6 0.000000 0.000000 0.000000 -0.004132 0.000000 0.044829
#
#
# Mechanical properties :
#
#
# Convention : Reuss Voigt Hill
#
# Bulk Modulus (GPa) = 70.36833 70.64009 70.50421
# Shear Modulus (GPa) = 29.76284 31.28971 30.52628
#
# Velocity S-wave (km/s) = 3.76107 3.85633 3.80900
# Velocity P-wave (km/s) = 7.23224 7.30767 7.27006
#
# Compressibility (1/GPa) = 0.01421094
#
# Stress axis : x y z
#
# Youngs Moduli (GPa) = 76.35018 71.44421 91.98074
#
# Poissons Ratio (x) = 0.40308 0.20870
# Poissons Ratio (y) = 0.43076 0.36487
# Poissons Ratio (z) = 0.17323 0.28341
#
# Static dielectric constant tensor:
#      x y z
#    x 3.773100 0.000000 -0.063900 
#    y 0.000000 3.498800 0.000000 
#    z -0.063900 0.000000 3.956110 
# 
# 
# High freq. dielectric constant tensor:
#      x y z
#    x 1.837310 0.000000 0.002250 
#    y 0.000000 1.807480 0.000000 
#    z 0.002250 0.000000 1.845810 
# 
# From -- ./inp_files/72174.got.cif
#   From: 2010.06.25/outbox.cif.g09.slc.cpg/sg13_37_cif.got.tgz:72174.got - 2010.06.28 04:50:58.
