data_PCOD8119741
_publ_section_title
;
Structure prediction by ZEFSAII (Michael W. Deem and Ramdas Pophale) SiO2 
 PCOD8119741
Probable space group: P 2/C
;
_chemical_formula_sum "Si O2"
_cell_formula_units_Z 20
_cell_length_a 22.435222
_cell_length_b 8.645770
_cell_length_c 28.863700
_cell_angle_alpha 90.000000
_cell_angle_beta 170.525404
_cell_angle_gamma 90.000000
_cell_volume 921.601182
_symmetry_space_group_name_H-M "P 2/C"
_symmetry_group_IT_number 13
_symmetry_cell_setting 'monoclinic'
loop_
_space_group_symop_operation_xyz
x,y,z
-x,y,1/2-z
-x,-y,-z
x,-y,1/2+z
loop_
_atom_site_type_symbol
_atom_site_label
_atom_site_fract_x
_atom_site_fract_y
_atom_site_fract_z
Si Si1 0.866990 0.097537 0.779247
Si Si2 0.538180 0.683294 0.591815
Si Si3 0.102867 0.219930 0.448529
Si Si4 0.982192 0.175511 0.969889
Si Si5 0.297284 0.359480 0.440811
O O1 0.813950 0.223633 0.697582
O O2 0.965692 0.189495 0.901750
O O3 0.500000 0.000000 0.500000
O O4 0.168123 0.966145 0.002293
O O5 0.438898 0.504680 0.519864
O O6 0.883312 0.705751 0.822822
O O7 0.655683 0.743349 0.732831
O O8 0.885172 0.242264 0.234535
O O9 0.500000 0.297774 0.750000
O O10 0.628800 0.266073 0.718951
O O11 0.000000 0.000000 0.000000
O O12 0.000000 0.414161 0.250000
#
# Coordination Sequence:
#
# PCOD8119741 Si02
#       5
#     4   4   4   4   4
#     4  10  20  41  68  97 124 169 222 272 333 390
#     4  11  23  45  67  96 137 176 217 272 339 395
#     4  11  22  42  69  97 129 175 224 273 331 395
#     4  12  21  41  73  94 126 174 221 278 331 391
#     4  12  26  43  64 100 138 177 222 273 331 403
#
# _framework density 21.701359
#
# number of rings (size 3 to 8) (size 9 to 14) (size 15 to 20)
#    0.000    0.800    8.000    2.400    0.000    0.000 
#    3.600    1.000    0.000    0.000    0.000    0.000 
#    0.000    0.000    0.000    0.000    0.000    0.000 
#
# Total GULP energy -247929.587859 kJ/mol
# GULP energy per Si atom -12396.479393 kJ/mol
# Density = 2.165197 g / cm^3
# Si number density = 21.701359 Si / 1000 Ang^3
#
#
#
# Elastic Constant Matrix: (Units=GPa)
#
#
# Indices 1 2 3 4 5 6 
#
# 1 96.4538 40.2569 53.6497 0.0000 -16.5428 0.0000
# 2 40.2569 115.4400 37.5987 0.0000 13.2216 0.0000
# 3 53.6497 37.5987 86.6633 0.0000 -13.6220 0.0000
# 4 0.0000 0.0000 0.0000 23.3903 0.0000 -8.3481
# 5 -16.5428 13.2216 -13.6220 0.0000 43.8964 0.0000
# 6 0.0000 0.0000 0.0000 -8.3481 0.0000 34.3244
#
#
#
# Elastic Compliance Matrix: (Units=1/GPa)
#
#
# Indices 1 2 3 4 5 6 
#
# 1 0.017567 -0.004024 -0.008303 0.000000 0.005255 0.000000
# 2 -0.004024 0.011988 -0.003696 0.000000 -0.006274 0.000000
# 3 -0.008303 -0.003696 0.018887 0.000000 0.003845 0.000000
# 4 0.000000 0.000000 0.000000 0.046817 0.000000 0.011386
# 5 0.005255 -0.006274 0.003845 0.000000 0.027845 0.000000
# 6 0.000000 0.000000 0.000000 0.011386 0.000000 0.031903
#
#
# Mechanical properties :
#
#
# Convention : Reuss Voigt Hill
#
# Bulk Modulus (GPa) = 60.99135 62.39640 61.69387
# Shear Modulus (GPa) = 25.97161 31.45901 28.71531
#
# Velocity S-wave (km/s) = 3.46319 3.81154 3.64153
# Velocity P-wave (km/s) = 6.64511 6.94155 6.79495
#
# Compressibility (1/GPa) = 0.01639577
#
# Stress axis : x y z
#
# Youngs Moduli (GPa) = 56.92583 83.41577 52.94598
#
# Poissons Ratio (x) = 0.33563 0.43962
# Poissons Ratio (y) = 0.22904 0.19571
# Poissons Ratio (z) = 0.47266 0.30834
#
# Static dielectric constant tensor:
#      x y z
#    x 3.973250 0.000000 -0.260100 
#    y 0.000000 4.097390 0.000000 
#    z -0.260100 0.000000 4.314020 
# 
# 
# High freq. dielectric constant tensor:
#      x y z
#    x 1.836080 0.000000 -0.029320 
#    y 0.000000 1.853390 0.000000 
#    z -0.029320 0.000000 1.856770 
# 
# From -- ./inp_files/97662.got.cif
#   From: 2010.06.25/outbox.cif.g09.slc.cpg/sg13_49_cif.got.tgz:97662.got - 2010.06.28 04:50:58.
