data_PCOD8119922
_publ_section_title
;
Structure prediction by ZEFSAII (Michael W. Deem and Ramdas Pophale) SiO2 
 PCOD8119922
Probable space group: P 2/C
;
_chemical_formula_sum "Si O2"
_cell_formula_units_Z 24
_cell_length_a 12.072514
_cell_length_b 11.875563
_cell_length_c 17.245984
_cell_angle_alpha 90.000000
_cell_angle_beta 152.548760
_cell_angle_gamma 90.000000
_cell_volume 1139.816086
_symmetry_space_group_name_H-M "P 2/C"
_symmetry_group_IT_number 13
_symmetry_cell_setting 'monoclinic'
loop_
_space_group_symop_operation_xyz
x,y,z
-x,y,1/2-z
-x,-y,-z
x,-y,1/2+z
loop_
_atom_site_type_symbol
_atom_site_label
_atom_site_fract_x
_atom_site_fract_y
_atom_site_fract_z
Si Si1 0.253981 0.959335 0.560609
Si Si2 0.488163 0.651308 0.958886
Si Si3 0.999301 0.403985 0.434582
Si Si4 0.011835 0.848692 0.541113
Si Si5 0.500701 0.903985 0.565419
Si Si6 0.753980 0.459335 0.060608
O O1 0.500000 0.915227 0.750000
O O2 0.038743 0.888881 0.468124
O O3 0.278644 0.936678 0.484327
O O4 0.211240 0.091049 0.554022
O O5 0.254711 0.609202 0.766265
O O6 0.548861 0.782291 0.001946
O O7 0.461257 0.611119 0.031875
O O8 0.711237 0.591049 0.054019
O O9 0.048862 0.282291 0.501947
O O10 0.000000 0.500000 0.500000
O O11 0.221358 0.436677 0.515674
O O12 0.245287 0.890799 0.733734
O O13 0.500000 0.000000 0.500000
O O14 0.000000 0.415228 0.250000
#
# Coordination Sequence:
#
# PCOD8119922 Si02
#       6
#     4   4   4   4   4   4
#     4   9  19  38  56  77 114 150 183 236 292 328
#     4   9  20  39  56  80 118 148 184 240 282 338
#     4  10  21  35  59  86 109 150 194 227 289 346
#     4   9  20  39  56  80 118 148 184 240 282 338
#     4  10  21  35  59  86 109 150 194 227 289 346
#     4   9  19  38  56  77 114 150 183 236 292 328
#
# _framework density 21.05603
#
# number of rings (size 3 to 8) (size 9 to 14) (size 15 to 20)
#    0.000    2.667    0.000    0.000    4.667    1.333 
#    6.000    5.000    0.000    0.000    0.000    0.000 
#    0.000    0.000    0.000    0.000    0.000    0.000 
#
# Total GULP energy -297330.883658 kJ/mol
# GULP energy per Si atom -12388.786819 kJ/mol
# Density = 2.100811 g / cm^3
# Si number density = 21.056030 Si / 1000 Ang^3
#
#
#
# Elastic Constant Matrix: (Units=GPa)
#
#
# Indices 1 2 3 4 5 6 
#
# 1 197.3351 108.0692 17.8855 0.0000 0.7347 0.0000
# 2 108.0692 205.1653 13.2401 0.0000 -4.9951 0.0000
# 3 17.8855 13.2401 13.5832 0.0000 1.3996 0.0000
# 4 0.0000 0.0000 0.0000 31.2222 0.0000 -0.4053
# 5 0.7347 -4.9951 1.3996 0.0000 22.6814 0.0000
# 6 0.0000 0.0000 0.0000 -0.4053 0.0000 31.2766
#
#
#
# Elastic Compliance Matrix: (Units=1/GPa)
#
#
# Indices 1 2 3 4 5 6 
#
# 1 0.007640 -0.003623 -0.006461 0.000000 -0.000647 0.000000
# 2 -0.003623 0.006968 -0.002206 0.000000 0.001788 0.000000
# 3 -0.006461 -0.002206 0.084847 0.000000 -0.005512 0.000000
# 4 0.000000 0.000000 0.000000 0.032034 0.000000 0.000415
# 5 -0.000647 0.001788 -0.005512 0.000000 0.044844 0.000000
# 6 0.000000 0.000000 0.000000 0.000415 0.000000 0.031978
#
#
# Mechanical properties :
#
#
# Convention : Reuss Voigt Hill
#
# Bulk Modulus (GPa) = 13.35579 77.16370 45.25975
# Shear Modulus (GPa) = 19.39113 35.49526 27.44319
#
# Velocity S-wave (km/s) = 3.03797 4.11025 3.61410
# Velocity P-wave (km/s) = 4.32001 7.69753 6.24157
#
# Compressibility (1/GPa) = 0.07487389
#
# Stress axis : x y z
#
# Youngs Moduli (GPa) = 130.89700 143.50606 11.78593
#
# Poissons Ratio (x) = 0.51990 0.07615
# Poissons Ratio (y) = 0.47422 0.02600
# Poissons Ratio (z) = 0.84577 0.31661
#
# Static dielectric constant tensor:
#      x y z
#    x 4.231070 0.000000 0.140940 
#    y 0.000000 3.819790 0.000000 
#    z 0.140940 0.000000 3.433780 
# 
# 
# High freq. dielectric constant tensor:
#      x y z
#    x 1.841420 0.000000 0.011530 
#    y 0.000000 1.826810 0.000000 
#    z 0.011530 0.000000 1.787910 
# 
# From -- ./inp_files/39129.got.cif
#   From: 2010.06.25/outbox.cif.g09.slc.cpg/sg13_20_cif.got.tgz:39129.got - 2010.06.28 04:50:58.
