data_PCOD8119361
_publ_section_title
;
Structure prediction by ZEFSAII (Michael W. Deem and Ramdas Pophale) SiO2 
 PCOD8119361
Probable space group: P 2/C
;
_chemical_formula_sum "Si O2"
_cell_formula_units_Z 22
_cell_length_a 8.706071
_cell_length_b 7.992504
_cell_length_c 21.375569
_cell_angle_alpha 90.000000
_cell_angle_beta 39.263701
_cell_angle_gamma 90.000000
_cell_volume 941.350419
_symmetry_space_group_name_H-M "P 2/C"
_symmetry_group_IT_number 13
_symmetry_cell_setting 'monoclinic'
loop_
_space_group_symop_operation_xyz
x,y,z
-x,y,1/2-z
-x,-y,-z
x,-y,1/2+z
loop_
_atom_site_type_symbol
_atom_site_label
_atom_site_fract_x
_atom_site_fract_y
_atom_site_fract_z
Si Si1 0.850266 0.378999 0.421992
Si Si2 0.605157 0.837840 0.895067
Si Si3 0.113942 0.254331 0.585419
Si Si4 0.599067 0.394457 0.279871
Si Si5 0.191444 0.645603 0.430187
Si Si6 0.000000 0.892519 0.250000
O O1 0.767149 0.263710 0.392529
O O2 0.737283 0.567035 0.460629
O O3 0.802658 0.273760 0.501492
O O4 0.124651 0.437275 0.321657
O O5 0.556642 0.724669 0.850650
O O6 0.335307 0.880484 0.006740
O O7 0.752385 0.001001 0.828350
O O8 0.986241 0.220860 0.692258
O O9 0.914482 0.236296 0.592039
O O10 0.500000 0.297023 0.250000
O O11 0.456276 0.571610 0.331025
O O12 0.000000 0.500000 0.500000
#
# Coordination Sequence:
#
# PCOD8119361 Si02
#       6
#     4   4   4   4   4   2
#     4  11  22  39  72 102 127 171 233 292 339 380
#     4  12  24  44  67  98 138 183 226 276 340 408
#     4  11  24  43  68  98 136 177 228 288 334 401
#     4  12  20  37  71  98 135 162 224 286 344 384
#     4  10  20  38  63 102 125 165 217 298 337 376
#     4  12  28  42  66  96 150 188 220 260 344 430
#
# _framework density 23.370678999999999
#
# number of rings (size 3 to 8) (size 9 to 14) (size 15 to 20)
#    0.000    0.727    9.091    1.091    2.545    0.000 
#    0.000    0.909    8.000    0.000    0.000    0.000 
#    0.000    0.000    0.000    0.000    0.000    0.000 
#
# Total GULP energy -272622.685105 kJ/mol
# GULP energy per Si atom -12391.940232 kJ/mol
# Density = 2.331749 g / cm^3
# Si number density = 23.370679 Si / 1000 Ang^3
#
#
#
# Elastic Constant Matrix: (Units=GPa)
#
#
# Indices 1 2 3 4 5 6 
#
# 1 151.5197 38.2379 71.7048 0.0000 25.5729 0.0000
# 2 38.2379 48.0170 23.2968 0.0000 9.5163 0.0000
# 3 71.7048 23.2968 150.7306 0.0000 18.3347 0.0000
# 4 0.0000 0.0000 0.0000 25.7475 0.0000 -7.6040
# 5 25.5729 9.5163 18.3347 0.0000 44.7861 0.0000
# 6 0.0000 0.0000 0.0000 -7.6040 0.0000 8.4983
#
#
#
# Elastic Compliance Matrix: (Units=1/GPa)
#
#
# Indices 1 2 3 4 5 6 
#
# 1 0.010322 -0.005833 -0.003623 0.000000 -0.003171 0.000000
# 2 -0.005833 0.026356 -0.001076 0.000000 -0.001829 0.000000
# 3 -0.003623 -0.001076 0.008677 0.000000 -0.001255 0.000000
# 4 0.000000 0.000000 0.000000 0.052788 0.000000 0.047233
# 5 -0.003171 -0.001829 -0.001255 0.000000 0.025041 0.000000
# 6 0.000000 0.000000 0.000000 0.047233 0.000000 0.159932
#
#
# Mechanical properties :
#
#
# Convention : Reuss Voigt Hill
#
# Bulk Modulus (GPa) = 41.16976 68.52738 54.84857
# Shear Modulus (GPa) = 16.01145 30.27490 23.14317
#
# Velocity S-wave (km/s) = 2.62030 3.60310 3.15026
# Velocity P-wave (km/s) = 5.17773 6.83340 6.06235
#
# Compressibility (1/GPa) = 0.02428968
#
# Stress axis : x y z
#
# Youngs Moduli (GPa) = 96.88464 37.94232 115.25075
#
# Poissons Ratio (x) = 0.22133 0.41753
# Poissons Ratio (y) = 0.56516 0.12402
# Poissons Ratio (z) = 0.35099 0.04083
#
# Static dielectric constant tensor:
#      x y z
#    x 4.908630 0.000000 0.396790 
#    y 0.000000 3.626200 0.000000 
#    z 0.396790 0.000000 4.929450 
# 
# 
# High freq. dielectric constant tensor:
#      x y z
#    x 1.942810 0.000000 0.013340 
#    y 0.000000 1.865560 0.000000 
#    z 0.013340 0.000000 1.956790 
# 
# From -- ./inp_files/75551.got.cif
#   From: 2010.06.25/outbox.cif.g09.slc.cpg/sg13_38_cif.got.tgz:75551.got - 2010.06.28 04:50:58.
