data_PCOD8119012
_publ_section_title
;
Structure prediction by ZEFSAII (Michael W. Deem and Ramdas Pophale) SiO2 
 PCOD8119012
Probable space group: P 2/C
;
_chemical_formula_sum "Si O2"
_cell_formula_units_Z 24
_cell_length_a 9.483678
_cell_length_b 8.435972
_cell_length_c 19.615757
_cell_angle_alpha 90.000000
_cell_angle_beta 131.605859
_cell_angle_gamma 90.000000
_cell_volume 1173.442790
_symmetry_space_group_name_H-M "P 2/C"
_symmetry_group_IT_number 13
_symmetry_cell_setting 'monoclinic'
loop_
_space_group_symop_operation_xyz
x,y,z
-x,y,1/2-z
-x,-y,-z
x,-y,1/2+z
loop_
_atom_site_type_symbol
_atom_site_label
_atom_site_fract_x
_atom_site_fract_y
_atom_site_fract_z
Si Si1 0.063782 0.927035 0.949290
Si Si2 0.276536 0.798020 0.446519
Si Si3 0.448991 0.609475 0.623874
Si Si4 0.789206 0.330085 0.321892
Si Si5 0.383256 0.299229 0.522670
Si Si6 0.898593 0.488382 0.148800
O O1 0.877115 0.846216 0.857659
O O2 0.150288 0.048303 0.921358
O O3 0.228413 0.798468 0.015605
O O4 0.000000 0.000000 0.000000
O O5 0.351912 0.731091 0.541747
O O6 0.455578 0.822162 0.453127
O O7 0.142019 0.674243 0.364578
O O8 0.315491 0.604167 0.646220
O O9 0.653632 0.672512 0.712279
O O10 0.471548 0.432949 0.600294
O O11 0.958843 0.453912 0.367102
O O12 0.292748 0.387260 0.426887
O O13 0.000000 0.431819 0.250000
#
# Coordination Sequence:
#
# PCOD8119012 Si02
#       6
#     4   4   4   4   4   4
#     4  11  23  39  59  88 126 162 196 242 309 375
#     4  11  21  38  62  86 125 158 197 247 307 366
#     4  10  20  38  64  88 117 154 211 254 300 344
#     4  10  21  37  61  91 117 160 203 254 298 353
#     4  10  22  37  64  90 117 163 204 251 305 349
#     4  10  20  36  62  90 121 151 213 253 296 347
#
# _framework density 20.452638
#
# number of rings (size 3 to 8) (size 9 to 14) (size 15 to 20)
#    0.000    1.667    1.667    4.500    2.333    2.000 
#    0.000    8.333    0.000    0.000    0.000    0.000 
#    0.000    0.000    0.000    0.000    0.000    0.000 
#
# Total GULP energy -297535.512348 kJ/mol
# GULP energy per Si atom -12397.313015 kJ/mol
# Density = 2.040609 g / cm^3
# Si number density = 20.452638 Si / 1000 Ang^3
#
#
#
# Elastic Constant Matrix: (Units=GPa)
#
#
# Indices 1 2 3 4 5 6 
#
# 1 104.3691 49.7781 45.8243 0.0000 12.2563 0.0000
# 2 49.7781 96.9956 42.8835 0.0000 7.0249 0.0000
# 3 45.8243 42.8835 104.8319 0.0000 4.1278 0.0000
# 4 0.0000 0.0000 0.0000 25.5725 0.0000 5.3785
# 5 12.2563 7.0249 4.1278 0.0000 26.3228 0.0000
# 6 0.0000 0.0000 0.0000 5.3785 0.0000 44.6923
#
#
#
# Elastic Compliance Matrix: (Units=1/GPa)
#
#
# Indices 1 2 3 4 5 6 
#
# 1 0.014388 -0.005306 -0.003935 0.000000 -0.004666 0.000000
# 2 -0.005306 0.014718 -0.003666 0.000000 -0.000882 0.000000
# 3 -0.003935 -0.003666 0.012727 0.000000 0.000815 0.000000
# 4 0.000000 0.000000 0.000000 0.040120 0.000000 -0.004828
# 5 -0.004666 -0.000882 0.000815 0.000000 0.040270 0.000000
# 6 0.000000 0.000000 0.000000 -0.004828 0.000000 0.022956
#
#
# Mechanical properties :
#
#
# Convention : Reuss Voigt Hill
#
# Bulk Modulus (GPa) = 62.43205 64.79651 63.61428
# Shear Modulus (GPa) = 28.35552 30.49824 29.42688
#
# Velocity S-wave (km/s) = 3.72748 3.86575 3.79724
# Velocity P-wave (km/s) = 7.00835 7.18856 7.09902
#
# Compressibility (1/GPa) = 0.01601741
#
# Stress axis : x y z
#
# Youngs Moduli (GPa) = 69.50388 67.94524 78.57417
#
# Poissons Ratio (x) = 0.36053 0.30918
# Poissons Ratio (y) = 0.36880 0.28808
# Poissons Ratio (z) = 0.27349 0.24911
#
# Static dielectric constant tensor:
#      x y z
#    x 3.940970 0.000000 0.222690 
#    y 0.000000 3.596760 0.000000 
#    z 0.222690 0.000000 3.722810 
# 
# 
# High freq. dielectric constant tensor:
#      x y z
#    x 1.826060 0.000000 0.013280 
#    y 0.000000 1.780620 0.000000 
#    z 0.013280 0.000000 1.790240 
# 
# From -- ./inp_files/71313.got.cif
#   From: 2010.06.25/outbox.cif.g09.slc.cpg/sg13_36_cif.got.tgz:71313.got - 2010.06.28 04:50:58.
