data_PCOD8119646
_publ_section_title
;
Structure prediction by ZEFSAII (Michael W. Deem and Ramdas Pophale) SiO2 
 PCOD8119646
Probable space group: P 2/C
;
_chemical_formula_sum "Si O2"
_cell_formula_units_Z 26
_cell_length_a 8.479081
_cell_length_b 12.677904
_cell_length_c 13.562856
_cell_angle_alpha 90.000000
_cell_angle_beta 65.007388
_cell_angle_gamma 90.000000
_cell_volume 1321.445371
_symmetry_space_group_name_H-M "P 2/C"
_symmetry_group_IT_number 13
_symmetry_cell_setting 'monoclinic'
loop_
_space_group_symop_operation_xyz
x,y,z
-x,y,1/2-z
-x,-y,-z
x,-y,1/2+z
loop_
_atom_site_type_symbol
_atom_site_label
_atom_site_fract_x
_atom_site_fract_y
_atom_site_fract_z
Si Si1 0.033981 0.573203 0.582957
Si Si2 0.740809 0.749077 0.064445
Si Si3 0.000000 0.085121 0.250000
Si Si4 0.149638 0.036543 0.886024
Si Si5 0.500000 0.596613 0.250000
Si Si6 0.661708 0.791469 0.880622
Si Si7 0.500000 0.076569 0.250000
Si Si8 0.274065 0.438268 0.192687
O O1 0.103382 0.686863 0.530908
O O2 0.169724 0.519363 0.624061
O O3 0.000000 0.500000 0.500000
O O4 0.851050 0.590261 0.683886
O O5 0.827286 0.838130 0.109784
O O6 0.642212 0.669127 0.161390
O O7 0.614782 0.798160 0.011044
O O8 0.858004 0.164925 0.329844
O O9 0.919564 0.999718 0.199355
O O10 0.344315 0.989263 0.840820
O O11 0.000000 0.000000 0.000000
O O12 0.414177 0.525243 0.187518
O O13 0.548567 0.856392 0.833660
O O14 0.632718 0.670650 0.858052
#
# Coordination Sequence:
#
# PCOD8119646 Si02
#       8
#     4   4   2   4   2   4   2   4
#     4  10  20  41  64  85 120 167 212 253 309 384
#     4  11  23  41  64  90 130 170 203 264 330 375
#     4  10  20  42  70  92 128 164 218 268 322 380
#     4  11  23  44  66  95 128 168 214 271 325 383
#     4  12  24  42  58  94 140 164 208 264 328 384
#     4  10  20  40  65  93 121 166 216 265 311 377
#     4  10  24  40  66  98 126 162 220 266 312 394
#     4  10  22  38  64  91 122 164 212 264 310 376
#
# _framework density 19.675426000000002
#
# number of rings (size 3 to 8) (size 9 to 14) (size 15 to 20)
#    0.000    1.538    3.077    2.769    2.154    3.077 
#    8.308    0.000    0.000    0.000    0.000    0.000 
#    0.000    0.000    0.000    0.000    0.000    0.000 
#
# Total GULP energy -322132.290403 kJ/mol
# GULP energy per Si atom -12389.703477 kJ/mol
# Density = 1.963064 g / cm^3
# Si number density = 19.675426 Si / 1000 Ang^3
#
#
#
# Elastic Constant Matrix: (Units=GPa)
#
#
# Indices 1 2 3 4 5 6 
#
# 1 88.5628 52.1177 24.7446 0.0000 0.8590 0.0000
# 2 52.1177 126.8804 45.0469 0.0000 7.5212 0.0000
# 3 24.7446 45.0469 77.2710 0.0000 -0.0052 0.0000
# 4 0.0000 0.0000 0.0000 37.1645 0.0000 11.9730
# 5 0.8590 7.5212 -0.0052 0.0000 35.8961 0.0000
# 6 0.0000 0.0000 0.0000 11.9730 0.0000 20.9458
#
#
#
# Elastic Compliance Matrix: (Units=1/GPa)
#
#
# Indices 1 2 3 4 5 6 
#
# 1 0.015058 -0.005703 -0.001497 0.000000 0.000834 0.000000
# 2 -0.005703 0.012257 -0.005319 0.000000 -0.002432 0.000000
# 3 -0.001497 -0.005319 0.016522 0.000000 0.001153 0.000000
# 4 0.000000 0.000000 0.000000 0.032981 0.000000 -0.018853
# 5 0.000834 -0.002432 0.001153 0.000000 0.028348 0.000000
# 6 0.000000 0.000000 0.000000 -0.018853 0.000000 0.058519
#
#
# Mechanical properties :
#
#
# Convention : Reuss Voigt Hill
#
# Bulk Modulus (GPa) = 53.19844 59.61472 56.40658
# Shear Modulus (GPa) = 25.64246 30.18829 27.91537
#
# Velocity S-wave (km/s) = 3.61400 3.92128 3.77077
# Velocity P-wave (km/s) = 6.67169 7.13210 6.90573
#
# Compressibility (1/GPa) = 0.01879754
#
# Stress axis : x y z
#
# Youngs Moduli (GPa) = 66.41071 81.58783 60.52562
#
# Poissons Ratio (x) = 0.46530 0.09062
# Poissons Ratio (y) = 0.37875 0.32195
# Poissons Ratio (z) = 0.09943 0.43398
#
# Static dielectric constant tensor:
#      x y z
#    x 3.755380 0.000000 0.109920 
#    y 0.000000 3.363440 0.000000 
#    z 0.109920 0.000000 3.634770 
# 
# 
# High freq. dielectric constant tensor:
#      x y z
#    x 1.763590 0.000000 0.010550 
#    y 0.000000 1.768090 0.000000 
#    z 0.010550 0.000000 1.778560 
# 
# From -- ./inp_files/41917.got.cif
#   From: 2010.06.25/outbox.cif.g09.slc.cpg/sg13_21_cif.got.tgz:41917.got - 2010.06.28 04:50:58.
