data_PCOD8119147
_publ_section_title
;
Structure prediction by ZEFSAII (Michael W. Deem and Ramdas Pophale) SiO2 
 PCOD8119147
Probable space group: P 2/C
;
_chemical_formula_sum "Si O2"
_cell_formula_units_Z 28
_cell_length_a 6.372871
_cell_length_b 12.296529
_cell_length_c 19.058619
_cell_angle_alpha 90.000000
_cell_angle_beta 69.532403
_cell_angle_gamma 90.000000
_cell_volume 1399.227947
_symmetry_space_group_name_H-M "P 2/C"
_symmetry_group_IT_number 13
_symmetry_cell_setting 'monoclinic'
loop_
_space_group_symop_operation_xyz
x,y,z
-x,y,1/2-z
-x,-y,-z
x,-y,1/2+z
loop_
_atom_site_type_symbol
_atom_site_label
_atom_site_fract_x
_atom_site_fract_y
_atom_site_fract_z
Si Si1 0.650698 0.070206 0.532980
Si Si2 0.346881 0.741656 0.042948
Si Si3 0.856320 0.126387 0.064716
Si Si4 0.020861 0.745109 0.822246
Si Si5 0.604318 0.615134 0.907247
Si Si6 0.693671 0.448234 0.178530
Si Si7 0.924395 0.415961 0.840326
O O1 0.507097 0.177378 0.569487
O O2 0.879737 0.105528 0.469747
O O3 0.500000 0.000000 0.500000
O O4 0.720095 0.987873 0.587974
O O5 0.160459 0.699368 0.119730
O O6 0.229299 0.803097 0.991432
O O7 0.492218 0.638700 0.996411
O O8 0.827753 0.187017 0.141731
O O9 0.157225 0.633603 0.791625
O O10 0.000000 0.806928 0.750000
O O11 0.771675 0.717052 0.878235
O O12 0.395664 0.616149 0.878169
O O13 0.726235 0.500812 0.880933
O O14 0.500000 0.496410 0.250000
O O15 0.857414 0.548526 0.139649
O O16 0.000000 0.407557 0.750000
#
# Coordination Sequence:
#
# PCOD8119147 Si02
#       7
#     4   4   4   4   4   4   4
#     4   9  20  39  63  84 115 150 196 254 306 351
#     4  11  22  37  62  91 116 159 207 254 298 356
#     4  10  20  37  61  91 115 152 205 246 308 370
#     4  11  20  32  58  91 122 157 193 245 312 371
#     4  11  20  36  57  87 126 157 198 247 293 356
#     4  11  19  36  55  79 126 166 192 235 296 360
#     4  11  24  38  56  87 122 168 205 240 297 366
#
# _framework density 20.011033999999999
#
# number of rings (size 3 to 8) (size 9 to 14) (size 15 to 20)
#    0.000    1.429    5.714    1.286    0.000    1.714 
#    0.000    0.000    0.000    9.429    0.000    0.000 
#    0.000    0.000    0.000    0.000    0.000    0.000 
#
# Total GULP energy -346872.748579 kJ/mol
# GULP energy per Si atom -12388.312449 kJ/mol
# Density = 1.996549 g / cm^3
# Si number density = 20.011034 Si / 1000 Ang^3
#
#
#
# Elastic Constant Matrix: (Units=GPa)
#
#
# Indices 1 2 3 4 5 6 
#
# 1 120.6406 52.3765 40.6801 0.0000 -3.2255 0.0000
# 2 52.3765 101.5142 57.7856 0.0000 -0.0319 0.0000
# 3 40.6801 57.7856 96.1542 0.0000 -3.6315 0.0000
# 4 0.0000 0.0000 0.0000 15.5139 0.0000 -2.3372
# 5 -3.2255 -0.0319 -3.6315 0.0000 28.6354 0.0000
# 6 0.0000 0.0000 0.0000 -2.3372 0.0000 31.5678
#
#
#
# Elastic Compliance Matrix: (Units=1/GPa)
#
#
# Indices 1 2 3 4 5 6 
#
# 1 0.010927 -0.004602 -0.001820 0.000000 0.000995 0.000000
# 2 -0.004602 0.016947 -0.008297 0.000000 -0.001552 0.000000
# 3 -0.001820 -0.008297 0.016226 0.000000 0.001843 0.000000
# 4 0.000000 0.000000 0.000000 0.065185 0.000000 0.004826
# 5 0.000995 -0.001552 0.001843 0.000000 0.035266 0.000000
# 6 0.000000 0.000000 0.000000 0.004826 0.000000 0.032035
#
#
# Mechanical properties :
#
#
# Convention : Reuss Voigt Hill
#
# Bulk Modulus (GPa) = 68.19566 68.88817 68.54192
# Shear Modulus (GPa) = 23.70673 26.30787 25.00730
#
# Velocity S-wave (km/s) = 3.44566 3.62977 3.53891
# Velocity P-wave (km/s) = 7.06987 7.21573 7.14317
#
# Compressibility (1/GPa) = 0.01466369
#
# Stress axis : x y z
#
# Youngs Moduli (GPa) = 91.51497 59.00667 61.63127
#
# Poissons Ratio (x) = 0.27152 0.11217
# Poissons Ratio (y) = 0.42111 0.51133
# Poissons Ratio (z) = 0.16656 0.48955
#
# Static dielectric constant tensor:
#      x y z
#    x 4.065330 0.000000 -0.069450 
#    y 0.000000 3.743920 0.000000 
#    z -0.069450 0.000000 3.329570 
# 
# 
# High freq. dielectric constant tensor:
#      x y z
#    x 1.807270 0.000000 -0.008060 
#    y 0.000000 1.764920 0.000000 
#    z -0.008060 0.000000 1.745060 
# 
# From -- ./inp_files/73599.got.cif
#   From: 2010.06.25/outbox.cif.g09.slc.cpg/sg13_37_cif.got.tgz:73599.got - 2010.06.28 04:50:58.
