data_PCOD8119458
_publ_section_title
;
Structure prediction by ZEFSAII (Michael W. Deem and Ramdas Pophale) SiO2 
 PCOD8119458
Probable space group: P 2/C
;
_chemical_formula_sum "Si O2"
_cell_formula_units_Z 28
_cell_length_a 13.572282
_cell_length_b 6.866272
_cell_length_c 16.955724
_cell_angle_alpha 90.000000
_cell_angle_beta 56.895699
_cell_angle_gamma 90.000000
_cell_volume 1323.631767
_symmetry_space_group_name_H-M "P 2/C"
_symmetry_group_IT_number 13
_symmetry_cell_setting 'monoclinic'
loop_
_space_group_symop_operation_xyz
x,y,z
-x,y,1/2-z
-x,-y,-z
x,-y,1/2+z
loop_
_atom_site_type_symbol
_atom_site_label
_atom_site_fract_x
_atom_site_fract_y
_atom_site_fract_z
Si Si1 0.158333 0.621352 0.312471
Si Si2 0.397256 0.457829 0.643804
Si Si3 0.201196 0.662933 0.554457
Si Si4 0.000000 0.521294 0.750000
Si Si5 0.500000 0.455037 0.250000
Si Si6 0.559835 0.790537 0.973986
Si Si7 0.131763 0.939038 0.448368
Si Si8 0.248525 0.653044 0.907455
O O1 0.262930 0.607947 0.204002
O O2 0.164939 0.829941 0.352472
O O3 0.171180 0.451614 0.372833
O O4 0.041166 0.601630 0.309570
O O5 0.461961 0.401288 0.696471
O O6 0.407811 0.694215 0.625220
O O7 0.453182 0.342151 0.548824
O O8 0.112283 0.644016 0.668279
O O9 0.322080 0.771987 0.525736
O O10 0.137994 0.795750 0.518834
O O11 0.231701 0.456030 0.498965
O O12 0.613983 0.331358 0.175349
O O13 0.500000 0.000000 0.000000
O O14 0.212078 0.124278 0.429717
O O15 0.000000 0.000000 0.500000
#
# Coordination Sequence:
#
# PCOD8119458 Si02
#       8
#     4   4   4   2   2   4   4   4
#     4  10  23  43  67  97 129 178 219 274 335 401
#     4  10  22  43  65  95 136 166 217 273 333 392
#     4  11  24  44  69  96 131 182 219 271 341 403
#     4  12  22  44  70  90 136 182 220 274 344 396
#     4  10  20  38  72  96 124 170 210 272 328 394
#     4  11  24  42  66  96 135 173 216 273 334 404
#     4  11  24  44  65  97 131 173 229 280 327 399
#     4  10  22  44  69  94 134 171 224 274 335 395
#
# _framework density 21.153919999999999
#
# number of rings (size 3 to 8) (size 9 to 14) (size 15 to 20)
#    0.000    1.429    2.857    1.714    2.000    4.571 
#    5.143    2.143    0.000    0.000    0.000    0.000 
#    0.000    0.000    0.000    0.000    0.000    0.000 
#
# Total GULP energy -346934.249573 kJ/mol
# GULP energy per Si atom -12390.508913 kJ/mol
# Density = 2.110577 g / cm^3
# Si number density = 21.153920 Si / 1000 Ang^3
#
#
#
# Elastic Constant Matrix: (Units=GPa)
#
#
# Indices 1 2 3 4 5 6 
#
# 1 121.6854 40.3186 35.7293 0.0000 2.5436 0.0000
# 2 40.3186 134.0121 50.6209 0.0000 -9.3554 0.0000
# 3 35.7293 50.6209 117.3472 0.0000 -17.0923 0.0000
# 4 0.0000 0.0000 0.0000 21.8107 0.0000 -1.7365
# 5 2.5436 -9.3554 -17.0923 0.0000 36.5938 0.0000
# 6 0.0000 0.0000 0.0000 -1.7365 0.0000 27.5048
#
#
#
# Elastic Compliance Matrix: (Units=1/GPa)
#
#
# Indices 1 2 3 4 5 6 
#
# 1 0.009680 -0.002190 -0.002341 0.000000 -0.002326 0.000000
# 2 -0.002190 0.009419 -0.003244 0.000000 0.001045 0.000000
# 3 -0.002341 -0.003244 0.011306 0.000000 0.004614 0.000000
# 4 0.000000 0.000000 0.000000 0.046081 0.000000 0.002909
# 5 -0.002326 0.001045 0.004614 0.000000 0.029911 0.000000
# 6 0.000000 0.000000 0.000000 0.002909 0.000000 0.036541
#
#
# Mechanical properties :
#
#
# Convention : Reuss Voigt Hill
#
# Bulk Modulus (GPa) = 67.32288 69.59804 68.46046
# Shear Modulus (GPa) = 30.59214 33.60692 32.09953
#
# Velocity S-wave (km/s) = 3.80698 3.99016 3.89964
# Velocity P-wave (km/s) = 7.15671 7.36211 7.26013
#
# Compressibility (1/GPa) = 0.01485379
#
# Stress axis : x y z
#
# Youngs Moduli (GPa) = 103.30918 106.16429 88.44752
#
# Poissons Ratio (x) = 0.23253 0.20708
# Poissons Ratio (y) = 0.22627 0.28694
# Poissons Ratio (z) = 0.24187 0.34442
#
# Static dielectric constant tensor:
#      x y z
#    x 3.807100 0.000000 0.058530 
#    y 0.000000 3.898610 0.000000 
#    z 0.058530 0.000000 3.894330 
# 
# 
# High freq. dielectric constant tensor:
#      x y z
#    x 1.850630 0.000000 -0.003930 
#    y 0.000000 1.800720 0.000000 
#    z -0.003930 0.000000 1.842940 
# 
# From -- ./inp_files/67530.got.cif
#   From: 2010.06.25/outbox.cif.g09.slc.cpg/sg13_34_cif.got.tgz:67530.got - 2010.06.28 04:50:58.
