data_PCOD8119395
_publ_section_title
;
Structure prediction by ZEFSAII (Michael W. Deem and Ramdas Pophale) SiO2 
 PCOD8119395
Probable space group: P 2/C
;
_chemical_formula_sum "Si O2"
_cell_formula_units_Z 24
_cell_length_a 14.780824
_cell_length_b 8.159825
_cell_length_c 10.137486
_cell_angle_alpha 90.000000
_cell_angle_beta 108.556861
_cell_angle_gamma 90.000000
_cell_volume 1159.102637
_symmetry_space_group_name_H-M "P 2/C"
_symmetry_group_IT_number 13
_symmetry_cell_setting 'monoclinic'
loop_
_space_group_symop_operation_xyz
x,y,z
-x,y,1/2-z
-x,-y,-z
x,-y,1/2+z
loop_
_atom_site_type_symbol
_atom_site_label
_atom_site_fract_x
_atom_site_fract_y
_atom_site_fract_z
Si Si1 0.788900 0.413363 0.897126
Si Si2 0.252635 0.336063 0.901904
Si Si3 0.971069 0.762605 0.593811
Si Si4 0.300297 0.924112 0.116865
Si Si5 0.394295 0.059121 0.919342
Si Si6 0.877122 0.897265 0.020749
O O1 0.780686 0.451934 0.735915
O O2 0.747076 0.563427 0.961652
O O3 0.715286 0.267020 0.878781
O O4 0.894261 0.359382 0.992655
O O5 0.169838 0.197361 0.876866
O O6 0.357286 0.247447 0.931897
O O7 0.000000 0.689767 0.750000
O O8 0.061383 0.768689 0.537009
O O9 0.936945 0.949127 0.602762
O O10 0.380310 0.980335 0.258569
O O11 0.206450 0.029045 0.110236
O O12 0.328699 0.946449 0.979370
O O13 0.500000 0.000000 0.000000
#
# Coordination Sequence:
#
# PCOD8119395 Si02
#       6
#     4   4   4   4   4   4
#     4  10  23  39  56  84 124 162 200 237 308 358
#     4  10  23  40  60  84 123 162 197 249 303 369
#     4  10  22  34  58  86 118 160 215 260 291 350
#     4   9  20  36  62  87 118 154 192 252 296 364
#     4  10  20  38  64  93 114 146 198 251 305 363
#     4   9  21  36  57  83 117 160 213 251 302 337
#
# _framework density 20.705673000000001
#
# number of rings (size 3 to 8) (size 9 to 14) (size 15 to 20)
#    0.000    2.333    0.000    0.500   16.333    2.000 
#    0.000    0.833    0.000    6.000    0.000    0.000 
#    0.000    0.000    0.000    0.000    0.000    0.000 
#
# Total GULP energy -297333.306131 kJ/mol
# GULP energy per Si atom -12388.887755 kJ/mol
# Density = 2.065855 g / cm^3
# Si number density = 20.705673 Si / 1000 Ang^3
#
#
#
# Elastic Constant Matrix: (Units=GPa)
#
#
# Indices 1 2 3 4 5 6 
#
# 1 99.3767 27.8369 33.9697 0.0000 9.7640 0.0000
# 2 27.8369 51.0323 32.3208 0.0000 -1.4359 0.0000
# 3 33.9697 32.3208 100.1384 0.0000 0.0940 0.0000
# 4 0.0000 0.0000 0.0000 30.8014 0.0000 -8.1377
# 5 9.7640 -1.4359 0.0940 0.0000 30.3887 0.0000
# 6 0.0000 0.0000 0.0000 -8.1377 0.0000 25.4160
#
#
#
# Elastic Compliance Matrix: (Units=1/GPa)
#
#
# Indices 1 2 3 4 5 6 
#
# 1 0.012934 -0.005534 -0.002597 0.000000 -0.004409 0.000000
# 2 -0.005534 0.027041 -0.006853 0.000000 0.003077 0.000000
# 3 -0.002597 -0.006853 0.013079 0.000000 0.000470 0.000000
# 4 0.000000 0.000000 0.000000 0.035466 0.000000 0.011356
# 5 -0.004409 0.003077 0.000470 0.000000 0.034468 0.000000
# 6 0.000000 0.000000 0.000000 0.011356 0.000000 0.042981
#
#
# Mechanical properties :
#
#
# Convention : Reuss Voigt Hill
#
# Bulk Modulus (GPa) = 43.31939 48.75580 46.03759
# Shear Modulus (GPa) = 24.55390 27.74923 26.15156
#
# Velocity S-wave (km/s) = 3.44736 3.66481 3.55775
# Velocity P-wave (km/s) = 6.06734 6.44251 6.25774
#
# Compressibility (1/GPa) = 0.02308435
#
# Stress axis : x y z
#
# Youngs Moduli (GPa) = 77.31579 36.98028 76.45974
#
# Poissons Ratio (x) = 0.20466 0.19858
# Poissons Ratio (y) = 0.42789 0.52401
# Poissons Ratio (z) = 0.20080 0.25344
#
# Static dielectric constant tensor:
#      x y z
#    x 3.896950 0.000000 -0.115660 
#    y 0.000000 3.725320 0.000000 
#    z -0.115660 0.000000 3.976150 
# 
# 
# High freq. dielectric constant tensor:
#      x y z
#    x 1.798070 0.000000 -0.009370 
#    y 0.000000 1.793220 0.000000 
#    z -0.009370 0.000000 1.818800 
# 
# From -- ./inp_files/18180.got.cif
#   From: 2010.06.25/outbox.cif.g09.slc.cpg/sg13_10_cif.got.tgz:18180.got - 2010.06.28 04:50:58.
