data_PCOD8119077
_publ_section_title
;
Structure prediction by ZEFSAII (Michael W. Deem and Ramdas Pophale) SiO2 
 PCOD8119077
Probable space group: P 2/C
;
_chemical_formula_sum "Si O2"
_cell_formula_units_Z 28
_cell_length_a 7.952236
_cell_length_b 12.025347
_cell_length_c 14.211047
_cell_angle_alpha 90.000000
_cell_angle_beta 72.825293
_cell_angle_gamma 90.000000
_cell_volume 1298.381127
_symmetry_space_group_name_H-M "P 2/C"
_symmetry_group_IT_number 13
_symmetry_cell_setting 'monoclinic'
loop_
_space_group_symop_operation_xyz
x,y,z
-x,y,1/2-z
-x,-y,-z
x,-y,1/2+z
loop_
_atom_site_type_symbol
_atom_site_label
_atom_site_fract_x
_atom_site_fract_y
_atom_site_fract_z
Si Si1 0.357325 0.955805 0.134953
Si Si2 0.809462 0.291522 0.539467
Si Si3 0.833566 0.434517 0.713111
Si Si4 0.434856 0.282265 0.659617
Si Si5 0.083404 0.666406 0.836875
Si Si6 0.147494 0.909440 0.806463
Si Si7 0.769126 0.036596 0.533051
O O1 0.322910 0.822192 0.139635
O O2 0.562732 0.979853 0.089014
O O3 0.309910 0.019054 0.239617
O O4 0.222458 0.001893 0.077799
O O5 0.874340 0.343660 0.626735
O O6 0.598681 0.314198 0.564236
O O7 0.839408 0.160490 0.534154
O O8 0.922638 0.344080 0.437215
O O9 0.676053 0.394679 0.807112
O O10 0.792897 0.556251 0.673321
O O11 0.000000 0.447569 0.750000
O O12 0.500000 0.238468 0.750000
O O13 0.194533 0.781061 0.825331
O O14 0.000000 0.665812 0.750000
O O15 0.000000 0.915507 0.750000
O O16 0.107075 0.963663 0.916461
#
# Coordination Sequence:
#
# PCOD8119077 Si02
#       7
#     4   4   4   4   4   4   4
#     4  10  20  37  57  83 118 152 186 236 291 348
#     4  10  20  39  61  81 114 154 188 234 293 346
#     4  10  21  38  60  86 112 144 195 248 290 338
#     4   9  19  37  62  86 113 151 194 239 290 346
#     4  10  22  38  55  81 118 155 192 238 291 342
#     4  11  22  35  55  84 120 154 188 236 291 344
#     4  10  21  36  59  86 114 151 193 232 290 356
#
# _framework density 21.565315999999999
#
# number of rings (size 3 to 8) (size 9 to 14) (size 15 to 20)
#    0.000    2.000    0.000    5.143    0.000    5.714 
#    0.000    7.143    0.000    0.000    0.000    0.000 
#    0.000    0.000    0.000    0.000    0.000    0.000 
#
# Total GULP energy -346922.032071 kJ/mol
# GULP energy per Si atom -12390.072574 kJ/mol
# Density = 2.151623 g / cm^3
# Si number density = 21.565316 Si / 1000 Ang^3
#
#
#
# Elastic Constant Matrix: (Units=GPa)
#
#
# Indices 1 2 3 4 5 6 
#
# 1 43.3489 41.1475 11.6909 0.0000 3.2975 0.0000
# 2 41.1475 181.3581 45.7401 0.0000 -9.4738 0.0000
# 3 11.6909 45.7401 90.4476 0.0000 -8.9848 0.0000
# 4 0.0000 0.0000 0.0000 38.4943 0.0000 -0.8284
# 5 3.2975 -9.4738 -8.9848 0.0000 42.8735 0.0000
# 6 0.0000 0.0000 0.0000 -0.8284 0.0000 32.0988
#
#
#
# Elastic Compliance Matrix: (Units=1/GPa)
#
#
# Indices 1 2 3 4 5 6 
#
# 1 0.030072 -0.006821 -0.000834 0.000000 -0.003995 0.000000
# 2 -0.006821 0.007890 -0.002945 0.000000 0.001651 0.000000
# 3 -0.000834 -0.002945 0.012863 0.000000 0.002109 0.000000
# 4 0.000000 0.000000 0.000000 0.025992 0.000000 0.000671
# 5 -0.003995 0.001651 0.002109 0.000000 0.024439 0.000000
# 6 0.000000 0.000000 0.000000 0.000671 0.000000 0.031171
#
#
# Mechanical properties :
#
#
# Convention : Reuss Voigt Hill
#
# Bulk Modulus (GPa) = 33.75515 56.92353 45.33934
# Shear Modulus (GPa) = 30.58053 37.13174 33.85613
#
# Velocity S-wave (km/s) = 3.76978 4.15399 3.96654
# Velocity P-wave (km/s) = 5.88513 7.03283 6.48442
#
# Compressibility (1/GPa) = 0.02962510
#
# Stress axis : x y z
#
# Youngs Moduli (GPa) = 33.25312 126.73471 77.74497
#
# Poissons Ratio (x) = 0.86449 0.06486
# Poissons Ratio (y) = 0.22683 0.22893
# Poissons Ratio (z) = 0.02774 0.37318
#
# Static dielectric constant tensor:
#      x y z
#    x 3.487480 0.000000 0.169570 
#    y 0.000000 4.705300 0.000000 
#    z 0.169570 0.000000 3.723030 
# 
# 
# High freq. dielectric constant tensor:
#      x y z
#    x 1.821720 0.000000 -0.009380 
#    y 0.000000 1.852610 0.000000 
#    z -0.009380 0.000000 1.861850 
# 
# From -- ./inp_files/46871.got.cif
#   From: 2010.06.25/outbox.cif.g09.slc.cpg/sg13_24_cif.got.tgz:46871.got - 2010.06.28 04:50:58.
