data_PCOD8119976
_publ_section_title
;
Structure prediction by ZEFSAII (Michael W. Deem and Ramdas Pophale) SiO2 
 PCOD8119976
Probable space group: P 2/C
;
_chemical_formula_sum "Si O2"
_cell_formula_units_Z 28
_cell_length_a 19.437342
_cell_length_b 14.060068
_cell_length_c 4.972072
_cell_angle_alpha 90.000000
_cell_angle_beta 75.630052
_cell_angle_gamma 90.000000
_cell_volume 1316.306554
_symmetry_space_group_name_H-M "P 2/C"
_symmetry_group_IT_number 13
_symmetry_cell_setting 'monoclinic'
loop_
_space_group_symop_operation_xyz
x,y,z
-x,y,1/2-z
-x,-y,-z
x,-y,1/2+z
loop_
_atom_site_type_symbol
_atom_site_label
_atom_site_fract_x
_atom_site_fract_y
_atom_site_fract_z
Si Si1 0.546646 0.751686 0.455960
Si Si2 0.924509 0.806214 0.884472
Si Si3 0.637222 0.935103 0.217183
Si Si4 0.075042 0.315470 0.622320
Si Si5 0.798895 0.941839 0.081052
Si Si6 0.635579 0.566754 0.517104
Si Si7 0.793094 0.559529 0.451680
O O1 0.500000 0.716624 0.250000
O O2 0.594192 0.838782 0.306209
O O3 0.589758 0.660964 0.522489
O O4 0.500000 0.789406 0.750000
O O5 0.917571 0.713929 0.696430
O O6 0.000000 0.859047 0.750000
O O7 0.927724 0.778609 0.193036
O O8 0.855631 0.869333 0.906903
O O9 0.719245 0.902123 0.127687
O O10 0.618415 0.983856 0.952614
O O11 0.142079 0.371657 0.672735
O O12 0.000000 0.371372 0.750000
O O13 0.809600 0.964858 0.384450
O O14 0.618940 0.512177 0.808809
O O15 0.716977 0.604985 0.448228
O O16 0.799499 0.533774 0.759307
#
# Coordination Sequence:
#
# PCOD8119976 Si02
#       7
#     4   4   4   4   4   4   4
#     4  12  26  42  66  98 122 164 212 240 314 386
#     4  10  21  36  55  85 120 157 199 246 301 353
#     4  10  23  43  63  92 129 160 203 258 304 360
#     4  10  21  36  55  85 120 157 199 246 301 353
#     4  10  21  38  59  86 116 156 202 244 301 356
#     4  10  23  43  63  92 129 160 203 258 304 360
#     4  10  21  38  59  86 116 156 202 244 301 356
#
# _framework density 21.271639
#
# number of rings (size 3 to 8) (size 9 to 14) (size 15 to 20)
#    0.000    1.714    0.000    3.429    2.000    4.571 
#    2.571    0.000    0.000    0.000    0.000    0.000 
#    0.000    0.000    0.000    0.000    0.000    0.000 
#
# Total GULP energy -347049.237201 kJ/mol
# GULP energy per Si atom -12394.615614 kJ/mol
# Density = 2.122322 g / cm^3
# Si number density = 21.271639 Si / 1000 Ang^3
#
#
#
# Elastic Constant Matrix: (Units=GPa)
#
#
# Indices 1 2 3 4 5 6 
#
# 1 132.6419 60.1545 41.5153 0.0000 -14.0204 0.0000
# 2 60.1545 73.7735 16.7877 0.0000 -16.6079 0.0000
# 3 41.5153 16.7877 97.4890 0.0000 -1.9128 0.0000
# 4 0.0000 0.0000 0.0000 23.0773 0.0000 -5.4097
# 5 -14.0204 -16.6079 -1.9128 0.0000 38.7943 0.0000
# 6 0.0000 0.0000 0.0000 -5.4097 0.0000 25.9022
#
#
#
# Elastic Compliance Matrix: (Units=1/GPa)
#
#
# Indices 1 2 3 4 5 6 
#
# 1 0.013281 -0.009842 -0.003953 0.000000 0.000392 0.000000
# 2 -0.009842 0.022907 0.000369 0.000000 0.006268 0.000000
# 3 -0.003953 0.000369 0.011864 0.000000 -0.000686 0.000000
# 4 0.000000 0.000000 0.000000 0.045563 0.000000 0.009516
# 5 0.000392 0.006268 -0.000686 0.000000 0.028568 0.000000
# 6 0.000000 0.000000 0.000000 0.009516 0.000000 0.040594
#
#
# Mechanical properties :
#
#
# Convention : Reuss Voigt Hill
#
# Bulk Modulus (GPa) = 47.16773 60.09104 53.62939
# Shear Modulus (GPa) = 25.42006 29.91788 27.66897
#
# Velocity S-wave (km/s) = 3.46066 3.75436 3.61050
# Velocity P-wave (km/s) = 6.17983 6.86326 6.53049
#
# Compressibility (1/GPa) = 0.02120093
#
# Stress axis : x y z
#
# Youngs Moduli (GPa) = 75.29524 43.65537 84.28864
#
# Poissons Ratio (x) = 0.42963 0.33322
# Poissons Ratio (y) = 0.74102 -0.03114
# Poissons Ratio (z) = 0.29766 -0.01613
#
# Static dielectric constant tensor:
#      x y z
#    x 4.190280 0.000000 -0.104190 
#    y 0.000000 3.302530 0.000000 
#    z -0.104190 0.000000 4.033600 
# 
# 
# High freq. dielectric constant tensor:
#      x y z
#    x 1.853900 0.000000 0.000680 
#    y 0.000000 1.795670 0.000000 
#    z 0.000680 0.000000 1.858780 
# 
# From -- ./inp_files/6900.got.cif
#   From: 2010.06.25/outbox.cif.g09.slc.cpg/sg13_4_cif.got.tgz:6900.got - 2010.06.28 04:50:58.
