data_PCOD8119710
_publ_section_title
;
Structure prediction by ZEFSAII (Michael W. Deem and Ramdas Pophale) SiO2 
 PCOD8119710
Probable space group: P 2/C
;
_chemical_formula_sum "Si O2"
_cell_formula_units_Z 24
_cell_length_a 14.640792
_cell_length_b 9.247914
_cell_length_c 9.307096
_cell_angle_alpha 90.000000
_cell_angle_beta 100.183004
_cell_angle_gamma 90.000000
_cell_volume 1240.301101
_symmetry_space_group_name_H-M "P 2/C"
_symmetry_group_IT_number 13
_symmetry_cell_setting 'monoclinic'
loop_
_space_group_symop_operation_xyz
x,y,z
-x,y,1/2-z
-x,-y,-z
x,-y,1/2+z
loop_
_atom_site_type_symbol
_atom_site_label
_atom_site_fract_x
_atom_site_fract_y
_atom_site_fract_z
Si Si1 0.233793 0.858553 0.585599
Si Si2 0.059850 0.677843 0.642690
Si Si3 0.405359 0.650089 0.647929
Si Si4 0.760123 0.154207 0.744788
Si Si5 0.071249 0.355768 0.655316
Si Si6 0.592013 0.361283 0.690729
O O1 0.143573 0.776869 0.617180
O O2 0.326399 0.769308 0.644945
O O3 0.219966 0.885319 0.413858
O O4 0.242462 0.010805 0.663605
O O5 0.099843 0.521098 0.703610
O O6 0.000000 0.756157 0.750000
O O7 0.980174 0.649001 0.507519
O O8 0.500000 0.706485 0.750000
O O9 0.371014 0.508013 0.724287
O O10 0.424042 0.614297 0.484834
O O11 0.837243 0.260739 0.827662
O O12 0.662189 0.231554 0.735394
O O13 0.000000 0.289365 0.750000
O O14 0.500000 0.313933 0.750000
#
# Coordination Sequence:
#
# PCOD8119710 Si02
#       6
#     4   4   4   4   4   4
#     4  11  25  41  57  87 123 158 199 237 294 353
#     4  10  22  39  63  90 114 154 199 247 296 344
#     4  10  21  40  65  91 118 151 196 245 292 349
#     4  11  25  40  59  86 122 161 195 241 291 352
#     4  10  20  41  63  85 119 151 199 247 292 346
#     4  10  21  40  64  92 119 150 196 244 294 346
#
# _framework density 19.350138999999999
#
# number of rings (size 3 to 8) (size 9 to 14) (size 15 to 20)
#    0.000    1.667    1.667    3.000    2.333    4.667 
#    0.000    3.333    0.000    0.000    0.000    0.000 
#    0.000    0.000    0.000    0.000    0.000    0.000 
#
# Total GULP energy -297527.339411 kJ/mol
# GULP energy per Si atom -12396.972475 kJ/mol
# Density = 1.930610 g / cm^3
# Si number density = 19.350139 Si / 1000 Ang^3
#
#
#
# Elastic Constant Matrix: (Units=GPa)
#
#
# Indices 1 2 3 4 5 6 
#
# 1 103.6084 71.2277 61.1232 0.0000 -6.7249 0.0000
# 2 71.2277 123.9344 59.7352 0.0000 0.9988 0.0000
# 3 61.1232 59.7352 119.5851 0.0000 -9.4702 0.0000
# 4 0.0000 0.0000 0.0000 46.8850 0.0000 -3.4515
# 5 -6.7249 0.9988 -9.4702 0.0000 32.3482 0.0000
# 6 0.0000 0.0000 0.0000 -3.4515 0.0000 -3.7932
#
#
#
# Elastic Compliance Matrix: (Units=1/GPa)
#
#
# Indices 1 2 3 4 5 6 
#
# 1 0.018465 -0.008143 -0.005166 0.000000 0.002578 0.000000
# 2 -0.008143 0.014337 -0.003244 0.000000 -0.003085 0.000000
# 3 -0.005166 -0.003244 0.012844 0.000000 0.002786 0.000000
# 4 0.000000 0.000000 0.000000 0.019990 0.000000 -0.018189
# 5 0.002578 -0.003085 0.002786 0.000000 0.032360 0.000000
# 6 0.000000 0.000000 0.000000 -0.018189 0.000000 -0.247080
#
#
# Mechanical properties :
#
#
# Convention : Reuss Voigt Hill
#
# Bulk Modulus (GPa) = 79.74631 81.25557 80.50094
# Shear Modulus (GPa) = -44.72353 25.42412 -9.64971
#
# Velocity S-wave (km/s) = -4.81279 3.62871 -2.23556
# Velocity P-wave (km/s) = 3.22766 7.72270 5.91853
#
# Compressibility (1/GPa) = 0.01253977
#
# Stress axis : x y z
#
# Youngs Moduli (GPa) = 54.15733 69.74944 77.85777
#
# Poissons Ratio (x) = 0.56795 0.40223
# Poissons Ratio (y) = 0.44099 0.25257
# Poissons Ratio (z) = 0.27979 0.22627
#
# Static dielectric constant tensor:
#      x y z
#    x 3.597110 0.000000 -0.018210 
#    y 0.000000 3.506780 0.000000 
#    z -0.018210 0.000000 3.768790 
# 
# 
# High freq. dielectric constant tensor:
#      x y z
#    x 1.764350 0.000000 -0.004200 
#    y 0.000000 1.745560 0.000000 
#    z -0.004200 0.000000 1.770330 
# 
# From -- ./inp_files/18055.got.cif
#   From: 2010.06.25/outbox.cif.g09.slc.cpg/sg13_10_cif.got.tgz:18055.got - 2010.06.28 04:50:58.
