data_PCOD8119074
_publ_section_title
;
Structure prediction by ZEFSAII (Michael W. Deem and Ramdas Pophale) SiO2 
 PCOD8119074
Probable space group: P 2/C
;
_chemical_formula_sum "Si O2"
_cell_formula_units_Z 28
_cell_length_a 20.350372
_cell_length_b 10.906403
_cell_length_c 17.158416
_cell_angle_alpha 90.000000
_cell_angle_beta 160.364198
_cell_angle_gamma 90.000000
_cell_volume 1279.741550
_symmetry_space_group_name_H-M "P 2/C"
_symmetry_group_IT_number 13
_symmetry_cell_setting 'monoclinic'
loop_
_space_group_symop_operation_xyz
x,y,z
-x,y,1/2-z
-x,-y,-z
x,-y,1/2+z
loop_
_atom_site_type_symbol
_atom_site_label
_atom_site_fract_x
_atom_site_fract_y
_atom_site_fract_z
Si Si1 0.614077 0.169410 0.797358
Si Si2 0.411018 0.766488 0.922688
Si Si3 0.000000 0.985685 0.750000
Si Si4 0.303344 0.574092 0.062731
Si Si5 0.000000 0.379529 0.750000
Si Si6 0.833587 0.413488 0.249618
Si Si7 0.029937 0.181357 0.912348
Si Si8 0.212603 0.670877 0.247779
O O1 0.500000 0.140773 0.750000
O O2 0.487885 0.141599 0.577574
O O3 0.656769 0.314527 0.833361
O O4 0.812806 0.094412 0.020615
O O5 0.295029 0.652160 0.828788
O O6 0.253570 0.838209 0.692067
O O7 0.586558 0.714270 0.066389
O O8 0.959707 0.066381 0.782315
O O9 0.500000 0.513412 0.250000
O O10 0.195722 0.640324 0.869451
O O11 0.186283 0.465560 0.971340
O O12 0.995774 0.301911 0.667764
O O13 0.762295 0.556345 0.164747
O O14 0.063333 0.390706 0.519373
O O15 0.881622 0.206572 0.818357
#
# Coordination Sequence:
#
# PCOD8119074 Si02
#       8
#     4   4   2   4   2   4   4   4
#     4  11  25  44  66  94 126 163 219 272 315 379
#     4  11  23  40  66  94 131 167 211 261 322 382
#     4  11  27  48  70  88 121 171 218 276 324 365
#     4  11  22  36  62  97 131 166 213 256 313 384
#     4  11  23  38  64  92 135 175 200 258 324 375
#     4  10  20  37  57 100 136 166 208 244 312 394
#     4  10  25  45  62  96 128 164 224 260 310 393
#     4  10  22  37  63  93 137 173 196 257 316 381
#
# _framework density 21.879417
#
# number of rings (size 3 to 8) (size 9 to 14) (size 15 to 20)
#    0.000    1.429    4.286    0.857    6.000    1.714 
#    0.000    4.286    0.000    0.000    0.000    0.000 
#    0.000    0.000    0.000    0.000    0.000    0.000 
#
# Total GULP energy -347002.294141 kJ/mol
# GULP energy per Si atom -12392.939076 kJ/mol
# Density = 2.182962 g / cm^3
# Si number density = 21.879417 Si / 1000 Ang^3
#
#
#
# Elastic Constant Matrix: (Units=GPa)
#
#
# Indices 1 2 3 4 5 6 
#
# 1 40.4793 0.7543 15.3434 0.0000 -0.2308 0.0000
# 2 0.7543 50.7027 23.8908 0.0000 10.0499 0.0000
# 3 15.3434 23.8908 108.3291 0.0000 -0.1794 0.0000
# 4 0.0000 0.0000 0.0000 108.1237 0.0000 10.8761
# 5 -0.2308 10.0499 -0.1794 0.0000 43.6411 0.0000
# 6 0.0000 0.0000 0.0000 10.8761 0.0000 10.7281
#
#
#
# Elastic Compliance Matrix: (Units=1/GPa)
#
#
# Indices 1 2 3 4 5 6 
#
# 1 0.026212 0.001570 -0.004059 0.000000 -0.000240 0.000000
# 2 0.001570 0.023295 -0.005369 0.000000 -0.005378 0.000000
# 3 -0.004059 -0.005369 0.010992 0.000000 0.001260 0.000000
# 4 0.000000 0.000000 0.000000 0.010299 0.000000 -0.010441
# 5 -0.000240 -0.005378 0.001260 0.000000 0.024157 0.000000
# 6 0.000000 0.000000 0.000000 -0.010441 0.000000 0.103798
#
#
# Mechanical properties :
#
#
# Convention : Reuss Voigt Hill
#
# Bulk Modulus (GPa) = 22.32953 31.05426 26.69189
# Shear Modulus (GPa) = 21.79629 43.13342 32.46485
#
# Velocity S-wave (km/s) = 3.15969 4.44488 3.85620
# Velocity P-wave (km/s) = 4.85174 6.36921 5.66154
#
# Compressibility (1/GPa) = 0.04478375
#
# Stress axis : x y z
#
# Youngs Moduli (GPa) = 38.15042 42.92719 90.97358
#
# Poissons Ratio (x) = -0.06741 0.36929
# Poissons Ratio (y) = -0.05991 0.48842
# Poissons Ratio (z) = 0.15486 0.23047
#
# Static dielectric constant tensor:
#      x y z
#    x 4.006060 0.000000 -0.253710 
#    y 0.000000 3.722860 0.000000 
#    z -0.253710 0.000000 4.365730 
# 
# 
# High freq. dielectric constant tensor:
#      x y z
#    x 1.864460 0.000000 -0.008650 
#    y 0.000000 1.829960 0.000000 
#    z -0.008650 0.000000 1.878010 
# 
# From -- ./inp_files/70745.got.cif
#   From: 2010.06.25/outbox.cif.g09.slc.cpg/sg13_36_cif.got.tgz:70745.got - 2010.06.28 04:50:58.
