data_PCOD8119952
_publ_section_title
;
Structure prediction by ZEFSAII (Michael W. Deem and Ramdas Pophale) SiO2 
 PCOD8119952
Probable space group: P 2/C
;
_chemical_formula_sum "Si O2"
_cell_formula_units_Z 20
_cell_length_a 25.530011
_cell_length_b 7.984790
_cell_length_c 5.049471
_cell_angle_alpha 90.000000
_cell_angle_beta 78.671772
_cell_angle_gamma 90.000000
_cell_volume 1009.289964
_symmetry_space_group_name_H-M "P 2/C"
_symmetry_group_IT_number 13
_symmetry_cell_setting 'monoclinic'
loop_
_space_group_symop_operation_xyz
x,y,z
-x,y,1/2-z
-x,-y,-z
x,-y,1/2+z
loop_
_atom_site_type_symbol
_atom_site_label
_atom_site_fract_x
_atom_site_fract_y
_atom_site_fract_z
Si Si1 0.642781 0.893573 0.573279
Si Si2 0.764267 0.111149 0.001255
Si Si3 0.938254 0.890475 0.326795
Si Si4 0.148055 0.613215 0.084851
Si Si5 0.559615 0.607890 0.657397
O O1 0.703147 0.826930 0.544770
O O2 0.602499 0.747191 0.685327
O O3 0.632542 0.045947 0.785120
O O4 0.799864 0.274018 0.922834
O O5 0.777197 0.970153 0.771166
O O6 0.904992 0.722260 0.319779
O O7 0.000000 0.838122 0.250000
O O8 0.923477 0.972425 0.621273
O O9 0.148432 0.461581 0.290772
O O10 0.500000 0.683319 0.750000
O O11 0.567963 0.546182 0.349814
#
# Coordination Sequence:
#
# PCOD8119952 Si02
#       5
#     4   4   4   4   4
#     4  10  21  36  57  82 105 138 183 228 267 308
#     4  10  21  39  58  77 108 146 182 219 266 325
#     4  10  21  39  61  81 107 148 187 217 263 325
#     4  12  24  36  56  86 114 141 178 226 274 314
#     4  10  21  36  54  78 110 145 176 214 270 328
#
# _framework density 19.815912000000001
#
# number of rings (size 3 to 8) (size 9 to 14) (size 15 to 20)
#    0.000    1.600    0.000    4.800    0.000    3.200 
#    0.000    0.000    0.000    0.000    0.000    0.000 
#    0.000    0.000    0.000    0.000    0.000    0.000 
#
# Total GULP energy -248136.013342 kJ/mol
# GULP energy per Si atom -12406.800667 kJ/mol
# Density = 1.977081 g / cm^3
# Si number density = 19.815912 Si / 1000 Ang^3
#
#
#
# Elastic Constant Matrix: (Units=GPa)
#
#
# Indices 1 2 3 4 5 6 
#
# 1 123.3827 71.7897 32.8285 0.0000 -10.6328 0.0000
# 2 71.7897 83.7794 10.9261 0.0000 -12.8929 0.0000
# 3 32.8285 10.9261 79.1684 0.0000 0.9050 0.0000
# 4 0.0000 0.0000 0.0000 22.2532 0.0000 5.8273
# 5 -10.6328 -12.8929 0.9050 0.0000 26.3775 0.0000
# 6 0.0000 0.0000 0.0000 5.8273 0.0000 -1.8602
#
#
#
# Elastic Compliance Matrix: (Units=1/GPa)
#
#
# Indices 1 2 3 4 5 6 
#
# 1 0.018255 -0.014881 -0.005519 0.000000 0.000275 0.000000
# 2 -0.014881 0.025315 0.002605 0.000000 0.006286 0.000000
# 3 -0.005519 0.002605 0.014577 0.000000 -0.001452 0.000000
# 4 0.000000 0.000000 0.000000 0.024686 0.000000 0.077335
# 5 0.000275 0.006286 -0.001452 0.000000 0.041144 0.000000
# 6 0.000000 0.000000 0.000000 0.077335 0.000000 -0.295323
#
#
# Mechanical properties :
#
#
# Convention : Reuss Voigt Hill
#
# Bulk Modulus (GPa) = 44.33196 57.49100 50.91148
# Shear Modulus (GPa) = -38.99055 20.73986 -9.12534
#
# Velocity S-wave (km/s) = -4.44062 3.23867 -2.14827
# Velocity P-wave (km/s) = 1.96765 6.56208 4.42658
#
# Compressibility (1/GPa) = 0.02255709
#
# Stress axis : x y z
#
# Youngs Moduli (GPa) = 54.77839 39.50243 68.60089
#
# Poissons Ratio (x) = 0.58783 0.37863
# Poissons Ratio (y) = 0.81515 -0.17870
# Poissons Ratio (z) = 0.30234 -0.10290
#
# Static dielectric constant tensor:
#      x y z
#    x 3.779500 0.000000 -0.006370 
#    y 0.000000 3.239830 0.000000 
#    z -0.006370 0.000000 3.764990 
# 
# 
# High freq. dielectric constant tensor:
#      x y z
#    x 1.785680 0.000000 0.001480 
#    y 0.000000 1.755460 0.000000 
#    z 0.001480 0.000000 1.793700 
# 
# From -- ./inp_files/7627.got.cif
#   From: 2010.06.25/outbox.cif.g09.slc.cpg/sg13_4_cif.got.tgz:7627.got - 2010.06.28 04:50:58.
