data_PCOD8119876
_publ_section_title
;
Structure prediction by ZEFSAII (Michael W. Deem and Ramdas Pophale) SiO2 
 PCOD8119876
Probable space group: P 2/C
;
_chemical_formula_sum "Si O2"
_cell_formula_units_Z 28
_cell_length_a 21.382987
_cell_length_b 11.416917
_cell_length_c 18.744696
_cell_angle_alpha 90.000000
_cell_angle_beta 161.284905
_cell_angle_gamma 90.000000
_cell_volume 1468.299394
_symmetry_space_group_name_H-M "P 2/C"
_symmetry_group_IT_number 13
_symmetry_cell_setting 'monoclinic'
loop_
_space_group_symop_operation_xyz
x,y,z
-x,y,1/2-z
-x,-y,-z
x,-y,1/2+z
loop_
_atom_site_type_symbol
_atom_site_label
_atom_site_fract_x
_atom_site_fract_y
_atom_site_fract_z
Si Si1 0.933959 0.282186 0.878099
Si Si2 0.482861 0.917748 0.387044
Si Si3 0.826109 0.174854 0.616140
Si Si4 0.378407 0.321023 0.390355
Si Si5 0.800786 0.064707 0.802352
Si Si6 0.500000 0.985315 0.250000
Si Si7 0.408770 0.558133 0.502195
Si Si8 0.500000 0.360857 0.250000
O O1 0.925834 0.200146 0.799639
O O2 0.834717 0.204031 0.832636
O O3 0.817461 0.403476 0.742907
O O4 0.149367 0.316210 0.132123
O O5 0.549777 0.797398 0.495695
O O6 0.276580 0.956520 0.200206
O O7 0.459970 0.905192 0.276824
O O8 0.637238 0.020301 0.570251
O O9 0.693382 0.283726 0.449430
O O10 0.000000 0.153543 0.750000
O O11 0.691912 0.060416 0.473469
O O12 0.436628 0.427698 0.504464
O O13 0.473903 0.344472 0.416575
O O14 0.000000 0.000000 0.000000
O O15 0.489050 0.557092 0.669121
#
# Coordination Sequence:
#
# PCOD8119876 Si02
#       8
#     4   4   4   4   4   2   4   2
#     4  11  20  37  61  88 112 148 202 244 289 338
#     4  11  24  38  58  86 121 156 196 240 296 363
#     4  10  21  34  58  84 119 152 190 249 294 344
#     4  11  22  38  62  84 120 155 198 243 292 346
#     4  11  22  37  61  85 115 153 197 243 293 348
#     4  11  24  37  52  88 122 157 195 234 300 360
#     4  10  22  39  59  90 114 154 197 246 292 349
#     4   9  20  37  58  86 118 147 197 240 298 350
#
# _framework density 19.069680999999999
#
# number of rings (size 3 to 8) (size 9 to 14) (size 15 to 20)
#    0.000    1.429    4.286    1.286    2.000    0.571 
#    0.000    0.000    0.000    0.000    0.000    0.000 
#    0.000    0.000    0.000    0.000    0.000    0.000 
#
# Total GULP energy -347174.980905 kJ/mol
# GULP energy per Si atom -12399.106461 kJ/mol
# Density = 1.902628 g / cm^3
# Si number density = 19.069681 Si / 1000 Ang^3
#
#
#
# Elastic Constant Matrix: (Units=GPa)
#
#
# Indices 1 2 3 4 5 6 
#
# 1 143.8099 19.8406 52.8248 0.0000 -4.3251 0.0000
# 2 19.8406 54.1605 19.1363 0.0000 -2.3360 0.0000
# 3 52.8248 19.1363 75.7261 0.0000 6.9542 0.0000
# 4 0.0000 0.0000 0.0000 20.5101 0.0000 0.4223
# 5 -4.3251 -2.3360 6.9542 0.0000 36.1897 0.0000
# 6 0.0000 0.0000 0.0000 0.4223 0.0000 23.5982
#
#
#
# Elastic Compliance Matrix: (Units=1/GPa)
#
#
# Indices 1 2 3 4 5 6 
#
# 1 0.009617 -0.001070 -0.006655 0.000000 0.002359 0.000000
# 2 -0.001070 0.020588 -0.004649 0.000000 0.002094 0.000000
# 3 -0.006655 -0.004649 0.019466 0.000000 -0.004836 0.000000
# 4 0.000000 0.000000 0.000000 0.048774 0.000000 -0.000873
# 5 0.002359 0.002094 -0.004836 0.000000 0.028979 0.000000
# 6 0.000000 0.000000 0.000000 -0.000873 0.000000 0.042392
#
#
# Mechanical properties :
#
#
# Convention : Reuss Voigt Hill
#
# Bulk Modulus (GPa) = 40.12040 50.81110 45.46575
# Shear Modulus (GPa) = 24.64621 28.18592 26.41606
#
# Velocity S-wave (km/s) = 3.59894 3.84871 3.72592
# Velocity P-wave (km/s) = 6.19309 6.81564 6.51181
#
# Compressibility (1/GPa) = 0.02492498
#
# Stress axis : x y z
#
# Youngs Moduli (GPa) = 103.98734 48.57096 51.37048
#
# Poissons Ratio (x) = 0.05196 0.34185
# Poissons Ratio (y) = 0.11125 0.23881
# Poissons Ratio (z) = 0.69199 0.22580
#
# Static dielectric constant tensor:
#      x y z
#    x 3.657070 0.000000 0.083240 
#    y 0.000000 3.383930 0.000000 
#    z 0.083240 0.000000 3.476380 
# 
# 
# High freq. dielectric constant tensor:
#      x y z
#    x 1.750730 0.000000 0.011590 
#    y 0.000000 1.727740 0.000000 
#    z 0.011590 0.000000 1.742710 
# 
# From -- ./inp_files/70738.got.cif
#   From: 2010.06.25/outbox.cif.g09.slc.cpg/sg13_36_cif.got.tgz:70738.got - 2010.06.28 04:50:58.
