data_PCOD8119364
_publ_section_title
;
Structure prediction by ZEFSAII (Michael W. Deem and Ramdas Pophale) SiO2 
 PCOD8119364
Probable space group: P 2/C
;
_chemical_formula_sum "Si O2"
_cell_formula_units_Z 16
_cell_length_a 6.259481
_cell_length_b 18.880470
_cell_length_c 7.711741
_cell_angle_alpha 90.000000
_cell_angle_beta 42.906771
_cell_angle_gamma 90.000000
_cell_volume 620.480091
_symmetry_space_group_name_H-M "P 2/C"
_symmetry_group_IT_number 13
_symmetry_cell_setting 'monoclinic'
loop_
_space_group_symop_operation_xyz
x,y,z
-x,y,1/2-z
-x,-y,-z
x,-y,1/2+z
loop_
_atom_site_type_symbol
_atom_site_label
_atom_site_fract_x
_atom_site_fract_y
_atom_site_fract_z
Si Si1 0.643395 0.718172 0.358177
Si Si2 0.864578 0.221955 0.149420
Si Si3 0.868135 0.926277 0.515924
Si Si4 0.374770 0.574712 0.513419
O O1 0.500000 0.734185 0.250000
O O2 0.512949 0.773460 0.585251
O O3 0.545742 0.641885 0.501287
O O4 0.015615 0.730380 0.090251
O O5 0.977452 0.140767 0.065881
O O6 0.000000 0.255017 0.250000
O O7 0.500000 0.933086 0.750000
O O8 0.000000 0.000000 0.500000
O O9 0.000000 0.909993 0.250000
O O10 0.500000 0.500000 0.500000
O O11 0.000000 0.578047 0.750000
O O12 0.500000 0.584751 0.250000
#
# Coordination Sequence:
#
# PCOD8119364 Si02
#       4
#     4   4   4   4
#     4   9  18  35  61  86 115 156 201 242 295 364
#     4  10  20  38  63  88 114 154 202 248 296 354
#     4  12  26  44  64  92 126 162 200 247 300 360
#     4  11  22  39  60  88 122 162 206 251 300 360
#
# _framework density 25.786484000000002
#
# number of rings (size 3 to 8) (size 9 to 14) (size 15 to 20)
#    0.000    1.500    0.000    7.500    0.000    3.000 
#    0.000    7.500    0.000    0.000    0.000    0.000 
#    0.000    0.000    0.000    0.000    0.000    0.000 
#
# Total GULP energy -198229.037917 kJ/mol
# GULP energy per Si atom -12389.314870 kJ/mol
# Density = 2.572779 g / cm^3
# Si number density = 25.786484 Si / 1000 Ang^3
#
#
#
# Elastic Constant Matrix: (Units=GPa)
#
#
# Indices 1 2 3 4 5 6 
#
# 1 37.5863 19.1852 62.4444 0.0000 -22.5879 0.0000
# 2 19.1852 212.8953 87.2590 0.0000 -10.6803 0.0000
# 3 62.4444 87.2590 282.7802 0.0000 -21.1047 0.0000
# 4 0.0000 0.0000 0.0000 53.4543 0.0000 1.3711
# 5 -22.5879 -10.6803 -21.1047 0.0000 51.4129 0.0000
# 6 0.0000 0.0000 0.0000 1.3711 0.0000 42.0410
#
#
#
# Elastic Compliance Matrix: (Units=1/GPa)
#
#
# Indices 1 2 3 4 5 6 
#
# 1 0.057687 0.000492 -0.011339 0.000000 0.020792 0.000000
# 2 0.000492 0.005392 -0.001725 0.000000 0.000628 0.000000
# 3 -0.011339 -0.001725 0.006369 0.000000 -0.002725 0.000000
# 4 0.000000 0.000000 0.000000 0.018723 0.000000 -0.000611
# 5 0.020792 0.000628 -0.002725 0.000000 0.027597 0.000000
# 6 0.000000 0.000000 0.000000 -0.000611 0.000000 0.023806
#
#
# Mechanical properties :
#
#
# Convention : Reuss Voigt Hill
#
# Bulk Modulus (GPa) = 22.57157 96.78210 59.67683
# Shear Modulus (GPa) = 27.85724 53.67320 40.76522
#
# Velocity S-wave (km/s) = 3.29036 4.56724 3.98034
# Velocity P-wave (km/s) = 4.81742 8.08866 6.65710
#
# Compressibility (1/GPa) = 0.04430353
#
# Stress axis : x y z
#
# Youngs Moduli (GPa) = 17.33486 185.47640 157.00614
#
# Poissons Ratio (x) = -0.09124 1.78024
# Poissons Ratio (y) = -0.00853 0.27091
# Poissons Ratio (z) = 0.19655 0.32003
#
# Static dielectric constant tensor:
#      x y z
#    x 4.877660 0.000000 -0.184130 
#    y 0.000000 5.237820 0.000000 
#    z -0.184130 0.000000 5.589410 
# 
# 
# High freq. dielectric constant tensor:
#      x y z
#    x 2.036530 0.000000 0.000480 
#    y 0.000000 2.034050 0.000000 
#    z 0.000480 0.000000 2.087720 
# 
# From -- ./inp_files/9288.got.cif
#   From: 2010.06.25/outbox.cif.g09.slc.cpg/sg13_5_cif.got.tgz:9288.got - 2010.06.28 04:50:58.
