data_PCOD8119400
_publ_section_title
;
Structure prediction by ZEFSAII (Michael W. Deem and Ramdas Pophale) SiO2 
 PCOD8119400
Probable space group: P 2/C
;
_chemical_formula_sum "Si O2"
_cell_formula_units_Z 26
_cell_length_a 5.045771
_cell_length_b 13.352155
_cell_length_c 19.241995
_cell_angle_alpha 90.000000
_cell_angle_beta 113.336393
_cell_angle_gamma 90.000000
_cell_volume 1190.320467
_symmetry_space_group_name_H-M "P 2/C"
_symmetry_group_IT_number 13
_symmetry_cell_setting 'monoclinic'
loop_
_space_group_symop_operation_xyz
x,y,z
-x,y,1/2-z
-x,-y,-z
x,-y,1/2+z
loop_
_atom_site_type_symbol
_atom_site_label
_atom_site_fract_x
_atom_site_fract_y
_atom_site_fract_z
Si Si1 0.162028 0.771955 0.939229
Si Si2 0.536878 0.867319 0.872921
Si Si3 0.500000 0.737218 0.750000
Si Si4 0.420219 0.269806 0.609473
Si Si5 0.023703 0.603505 0.669772
Si Si6 0.984643 0.374490 0.665919
Si Si7 0.334237 0.075690 0.802487
O O1 0.423539 0.839459 0.937544
O O2 0.199147 0.666454 0.900595
O O3 0.871178 0.836504 0.897405
O O4 0.198946 0.751148 0.024328
O O5 0.352799 0.810231 0.792639
O O6 0.486204 0.984905 0.858661
O O7 0.685481 0.662995 0.817545
O O8 0.655943 0.351746 0.609339
O O9 0.617521 0.173647 0.645965
O O10 0.228100 0.306684 0.654717
O O11 0.042834 0.488709 0.649151
O O12 0.000000 0.615196 0.750000
O O13 0.000000 0.357631 0.750000
O O14 0.500000 0.096565 0.750000
O O15 0.000000 0.056562 0.750000
#
# Coordination Sequence:
#
# PCOD8119400 Si02
#       7
#     4   4   2   4   4   4   4
#     4  11  25  42  66  98 139 173 207 273 332 399
#     4  11  23  40  68  97 128 165 219 267 332 382
#     4  10  20  38  64  96 126 156 210 284 324 384
#     4  12  26  45  63  95 140 178 216 260 329 394
#     4  10  22  38  66  96 126 167 224 277 330 371
#     4  11  25  42  69  93 126 174 229 276 311 385
#     4  12  25  42  69  98 126 174 222 275 318 382
#
# _framework density 21.842856999999999
#
# number of rings (size 3 to 8) (size 9 to 14) (size 15 to 20)
#    0.000    0.923    2.308    4.615    6.462    2.462 
#    0.000    0.000    0.000    0.000    0.000    0.000 
#    0.000    0.000    0.000    0.000    0.000    0.000 
#
# Total GULP energy -322218.538769 kJ/mol
# GULP energy per Si atom -12393.020722 kJ/mol
# Density = 2.179314 g / cm^3
# Si number density = 21.842857 Si / 1000 Ang^3
#
#
#
# Elastic Constant Matrix: (Units=GPa)
#
#
# Indices 1 2 3 4 5 6 
#
# 1 104.7262 31.8274 16.3291 0.0000 -1.5474 0.0000
# 2 31.8274 122.8230 37.7018 0.0000 -5.6203 0.0000
# 3 16.3291 37.7018 81.2924 0.0000 -3.3907 0.0000
# 4 0.0000 0.0000 0.0000 20.2340 0.0000 2.5418
# 5 -1.5474 -5.6203 -3.3907 0.0000 31.5233 0.0000
# 6 0.0000 0.0000 0.0000 2.5418 0.0000 28.6999
#
#
#
# Elastic Compliance Matrix: (Units=1/GPa)
#
#
# Indices 1 2 3 4 5 6 
#
# 1 0.010432 -0.002403 -0.000982 0.000000 -0.000022 0.000000
# 2 -0.002403 0.010094 -0.004147 0.000000 0.001236 0.000000
# 3 -0.000982 -0.004147 0.014454 0.000000 0.000767 0.000000
# 4 0.000000 0.000000 0.000000 0.049978 0.000000 -0.004426
# 5 -0.000022 0.001236 0.000767 0.000000 0.032024 0.000000
# 6 0.000000 0.000000 0.000000 -0.004426 0.000000 0.035235
#
#
# Mechanical properties :
#
#
# Convention : Reuss Voigt Hill
#
# Bulk Modulus (GPa) = 50.21156 53.39534 51.80345
# Shear Modulus (GPa) = 28.74889 30.95697 29.85293
#
# Velocity S-wave (km/s) = 3.63184 3.76873 3.70092
# Velocity P-wave (km/s) = 6.37374 6.59061 6.48308
#
# Compressibility (1/GPa) = 0.01991573
#
# Stress axis : x y z
#
# Youngs Moduli (GPa) = 95.86146 99.06864 69.18540
#
# Poissons Ratio (x) = 0.23804 0.06794
# Poissons Ratio (y) = 0.23033 0.28693
# Poissons Ratio (z) = 0.09413 0.41086
#
# Static dielectric constant tensor:
#      x y z
#    x 3.805480 0.000000 0.037750 
#    y 0.000000 4.079780 0.000000 
#    z 0.037750 0.000000 3.835990 
# 
# 
# High freq. dielectric constant tensor:
#      x y z
#    x 1.859200 0.000000 -0.003130 
#    y 0.000000 1.871430 0.000000 
#    z -0.003130 0.000000 1.846100 
# 
# From -- ./inp_files/73724.got.cif
#   From: 2010.06.25/outbox.cif.g09.slc.cpg/sg13_37_cif.got.tgz:73724.got - 2010.06.28 04:50:58.
