data_PCOD8119512
_publ_section_title
;
Structure prediction by ZEFSAII (Michael W. Deem and Ramdas Pophale) SiO2 
 PCOD8119512
Probable space group: P 2/C
;
_chemical_formula_sum "Si O2"
_cell_formula_units_Z 30
_cell_length_a 17.691901
_cell_length_b 7.380850
_cell_length_c 21.081209
_cell_angle_alpha 90.000000
_cell_angle_beta 31.888727
_cell_angle_gamma 90.000000
_cell_volume 1454.231009
_symmetry_space_group_name_H-M "P 2/C"
_symmetry_group_IT_number 13
_symmetry_cell_setting 'monoclinic'
loop_
_space_group_symop_operation_xyz
x,y,z
-x,y,1/2-z
-x,-y,-z
x,-y,1/2+z
loop_
_atom_site_type_symbol
_atom_site_label
_atom_site_fract_x
_atom_site_fract_y
_atom_site_fract_z
Si Si1 0.622609 0.914388 0.760416
Si Si2 0.500000 0.630744 0.750000
Si Si3 0.124480 0.823185 0.457320
Si Si4 0.068046 0.125146 0.861952
Si Si5 0.758836 0.595599 0.019951
Si Si6 0.676686 0.068920 0.499469
Si Si7 0.337826 0.948971 0.629259
Si Si8 0.881789 0.250630 0.884695
O O1 0.584543 0.750061 0.741261
O O2 0.667753 0.839517 0.799322
O O3 0.746551 0.030218 0.638822
O O4 0.490673 0.051502 0.865468
O O5 0.391993 0.500128 0.862728
O O6 0.083000 0.759868 0.416012
O O7 0.165061 0.642588 0.467438
O O8 0.985239 0.919190 0.586866
O O9 0.946525 0.219043 0.907700
O O10 0.225509 0.116287 0.717007
O O11 0.747912 0.787931 0.994457
O O12 0.845605 0.463337 0.911273
O O13 0.707508 0.142579 0.405528
O O14 0.744424 0.872524 0.467187
O O15 0.500000 0.000000 0.500000
O O16 0.000000 0.200566 0.750000
#
# Coordination Sequence:
#
# PCOD8119512 Si02
#       8
#     4   2   4   4   4   4   4   4
#     4  10  20  40  68  93 122 172 206 258 321 374
#     4  12  22  38  62  96 138 156 214 270 310 380
#     4  10  21  38  63  92 126 161 213 248 317 380
#     4  10  20  39  63  89 123 166 203 262 311 369
#     4  12  25  38  62 100 123 171 211 254 319 377
#     4  11  21  43  65  88 128 166 212 261 307 379
#     4   9  20  37  69  90 114 168 215 251 320 371
#     4  12  24  40  64  91 128 166 211 262 313 368
#
# _framework density 20.629462
#
# number of rings (size 3 to 8) (size 9 to 14) (size 15 to 20)
#    0.000    1.333    4.000    2.400    0.000    2.133 
#    0.000    2.000    0.000    0.000    0.000    0.000 
#    0.000    0.000    0.000    0.000    0.000    0.000 
#
# Total GULP energy -371711.738672 kJ/mol
# GULP energy per Si atom -12390.391289 kJ/mol
# Density = 2.058251 g / cm^3
# Si number density = 20.629462 Si / 1000 Ang^3
#
#
#
# Elastic Constant Matrix: (Units=GPa)
#
#
# Indices 1 2 3 4 5 6 
#
# 1 125.8184 29.5710 16.3580 0.0000 11.7197 0.0000
# 2 29.5710 64.3818 18.6802 0.0000 8.0474 0.0000
# 3 16.3580 18.6802 80.8710 0.0000 -3.6263 0.0000
# 4 0.0000 0.0000 0.0000 19.1069 0.0000 -1.4379
# 5 11.7197 8.0474 -3.6263 0.0000 32.4240 0.0000
# 6 0.0000 0.0000 0.0000 -1.4379 0.0000 23.0779
#
#
#
# Elastic Compliance Matrix: (Units=1/GPa)
#
#
# Indices 1 2 3 4 5 6 
#
# 1 0.009172 -0.003560 -0.001148 0.000000 -0.002560 0.000000
# 2 -0.003560 0.018737 -0.003778 0.000000 -0.003786 0.000000
# 3 -0.001148 -0.003778 0.013599 0.000000 0.002873 0.000000
# 4 0.000000 0.000000 0.000000 0.052584 0.000000 0.003276
# 5 -0.002560 -0.003786 0.002873 0.000000 0.033028 0.000000
# 6 0.000000 0.000000 0.000000 0.003276 0.000000 0.043536
#
#
# Mechanical properties :
#
#
# Convention : Reuss Voigt Hill
#
# Bulk Modulus (GPa) = 40.75421 44.47663 42.61542
# Shear Modulus (GPa) = 25.53559 28.68588 27.11073
#
# Velocity S-wave (km/s) = 3.52209 3.73303 3.62909
# Velocity P-wave (km/s) = 6.02813 6.33934 6.18569
#
# Compressibility (1/GPa) = 0.02453734
#
# Stress axis : x y z
#
# Youngs Moduli (GPa) = 109.02340 53.37112 73.53488
#
# Poissons Ratio (x) = 0.18999 0.08441
# Poissons Ratio (y) = 0.38811 0.27779
# Poissons Ratio (z) = 0.12514 0.20162
#
# Static dielectric constant tensor:
#      x y z
#    x 4.329410 0.000000 0.086250 
#    y 0.000000 3.232590 0.000000 
#    z 0.086250 0.000000 4.009470 
# 
# 
# High freq. dielectric constant tensor:
#      x y z
#    x 1.834860 0.000000 0.001010 
#    y 0.000000 1.752280 0.000000 
#    z 0.001010 0.000000 1.827100 
# 
# From -- ./inp_files/88338.got.cif
#   From: 2010.06.25/outbox.cif.g09.slc.cpg/sg13_45_cif.got.tgz:88338.got - 2010.06.28 04:50:58.
