data_PCOD8119285
_publ_section_title
;
Structure prediction by ZEFSAII (Michael W. Deem and Ramdas Pophale) SiO2 
 PCOD8119285
Probable space group: P 2/C
;
_chemical_formula_sum "Si O2"
_cell_formula_units_Z 30
_cell_length_a 14.916242
_cell_length_b 11.716734
_cell_length_c 26.492105
_cell_angle_alpha 90.000000
_cell_angle_beta 20.297296
_cell_angle_gamma 90.000000
_cell_volume 1606.112558
_symmetry_space_group_name_H-M "P 2/C"
_symmetry_group_IT_number 13
_symmetry_cell_setting 'monoclinic'
loop_
_space_group_symop_operation_xyz
x,y,z
-x,y,1/2-z
-x,-y,-z
x,-y,1/2+z
loop_
_atom_site_type_symbol
_atom_site_label
_atom_site_fract_x
_atom_site_fract_y
_atom_site_fract_z
Si Si1 0.130287 0.341634 0.893565
Si Si2 0.654060 0.214936 0.289022
Si Si3 0.221416 0.122855 0.672834
Si Si4 0.043101 0.045587 0.032344
Si Si5 0.500000 0.172182 0.750000
Si Si6 0.239717 0.144129 0.159143
Si Si7 0.302238 0.585107 0.807607
Si Si8 0.077028 0.820451 0.076837
O O1 0.335048 0.246013 0.798644
O O2 0.277843 0.456697 0.798652
O O3 0.946373 0.289671 0.947185
O O4 0.972026 0.370729 0.027460
O O5 0.777795 0.217761 0.279862
O O6 0.625921 0.339578 0.278869
O O7 0.363687 0.168255 0.448224
O O8 0.824480 0.137374 0.161807
O O9 0.496293 0.172000 0.509879
O O10 0.000000 0.148969 0.750000
O O11 0.140197 0.192007 0.765550
O O12 0.235437 0.988240 0.676981
O O13 0.329008 0.099570 0.879740
O O14 0.024196 0.940917 0.079398
O O15 0.000000 0.000000 0.000000
O O16 0.000000 0.177754 0.250000
O O17 0.500000 0.592163 0.750000
#
# Coordination Sequence:
#
# PCOD8119285 Si02
#       8
#     4   4   4   4   2   4   4   4
#     4  11  24  39  60  88 119 164 205 254 295 358
#     4  12  23  39  63  88 121 166 208 250 311 367
#     4  10  20  38  60  88 123 158 205 253 305 376
#     4  12  24  36  54  91 132 164 192 241 309 378
#     4  12  22  38  52  84 132 160 196 246 304 350
#     4  10  22  38  61  91 124 160 203 262 312 364
#     4  11  22  42  64  85 119 162 214 253 294 359
#     4  12  23  38  63  90 123 167 203 248 310 375
#
# _framework density 18.678640999999999
#
# number of rings (size 3 to 8) (size 9 to 14) (size 15 to 20)
#    0.000    0.800    7.333    0.800    0.000    1.067 
#    0.000    0.000    0.000    1.600    0.000    0.000 
#    0.000    0.000    0.000    0.000    0.000    0.000 
#
# Total GULP energy -372003.378963 kJ/mol
# GULP energy per Si atom -12400.112632 kJ/mol
# Density = 1.863613 g / cm^3
# Si number density = 18.678641 Si / 1000 Ang^3
#
#
#
# Elastic Constant Matrix: (Units=GPa)
#
#
# Indices 1 2 3 4 5 6 
#
# 1 106.5809 39.6512 43.5376 0.0000 -3.1170 0.0000
# 2 39.6512 85.4040 27.8706 0.0000 3.1420 0.0000
# 3 43.5376 27.8706 121.1226 0.0000 1.6389 0.0000
# 4 0.0000 0.0000 0.0000 24.2991 0.0000 -5.6868
# 5 -3.1170 3.1420 1.6389 0.0000 35.0264 0.0000
# 6 0.0000 0.0000 0.0000 -5.6868 0.0000 14.5004
#
#
#
# Elastic Compliance Matrix: (Units=1/GPa)
#
#
# Indices 1 2 3 4 5 6 
#
# 1 0.012631 -0.004799 -0.003459 0.000000 0.001716 0.000000
# 2 -0.004799 0.014518 -0.001593 0.000000 -0.001655 0.000000
# 3 -0.003459 -0.001593 0.009875 0.000000 -0.000627 0.000000
# 4 0.000000 0.000000 0.000000 0.045313 0.000000 0.017771
# 5 0.001716 -0.001655 -0.000627 0.000000 0.028880 0.000000
# 6 0.000000 0.000000 0.000000 0.017771 0.000000 0.075933
#
#
# Mechanical properties :
#
#
# Convention : Reuss Voigt Hill
#
# Bulk Modulus (GPa) = 57.73316 59.46961 58.60139
# Shear Modulus (GPa) = 23.51548 28.23505 25.87527
#
# Velocity S-wave (km/s) = 3.55202 3.89218 3.72598
# Velocity P-wave (km/s) = 6.91362 7.21846 7.06768
#
# Compressibility (1/GPa) = 0.01732107
#
# Stress axis : x y z
#
# Youngs Moduli (GPa) = 79.17001 68.88114 101.26935
#
# Poissons Ratio (x) = 0.33053 0.35032
# Poissons Ratio (y) = 0.37990 0.16136
# Poissons Ratio (z) = 0.27387 0.10975
#
# Static dielectric constant tensor:
#      x y z
#    x 5.112620 0.000000 -0.994110 
#    y 0.000000 3.330900 0.000000 
#    z -0.994110 0.000000 4.029800 
# 
# 
# High freq. dielectric constant tensor:
#      x y z
#    x 1.720030 0.000000 -0.008520 
#    y 0.000000 1.703480 0.000000 
#    z -0.008520 0.000000 1.740450 
# 
# From -- ./inp_files/92931.got.cif
#   From: 2010.06.25/outbox.cif.g09.slc.cpg/sg13_47_cif.got.tgz:92931.got - 2010.06.28 04:50:58.
