data_PCOD8119745
_publ_section_title
;
Structure prediction by ZEFSAII (Michael W. Deem and Ramdas Pophale) SiO2 
 PCOD8119745
Probable space group: P 2/C
;
_chemical_formula_sum "Si O2"
_cell_formula_units_Z 26
_cell_length_a 14.019570
_cell_length_b 12.517628
_cell_length_c 13.689484
_cell_angle_alpha 90.000000
_cell_angle_beta 150.117889
_cell_angle_gamma 90.000000
_cell_volume 1196.912493
_symmetry_space_group_name_H-M "P 2/C"
_symmetry_group_IT_number 13
_symmetry_cell_setting 'monoclinic'
loop_
_space_group_symop_operation_xyz
x,y,z
-x,y,1/2-z
-x,-y,-z
x,-y,1/2+z
loop_
_atom_site_type_symbol
_atom_site_label
_atom_site_fract_x
_atom_site_fract_y
_atom_site_fract_z
Si Si1 0.809680 0.975980 0.635940
Si Si2 0.000000 0.397788 0.250000
Si Si3 0.319650 0.569452 0.526595
Si Si4 0.832895 0.154543 0.789162
Si Si5 0.520739 0.263416 0.086136
Si Si6 0.108504 0.766124 0.696438
Si Si7 0.000000 0.727995 0.250000
Si Si8 0.500000 0.110099 0.250000
O O1 0.793485 0.848661 0.639820
O O2 0.000000 0.004640 0.750000
O O3 0.806769 0.029192 0.741867
O O4 0.655110 0.027192 0.426799
O O5 0.017584 0.323482 0.361149
O O6 0.192054 0.464459 0.397689
O O7 0.500000 0.535092 0.750000
O O8 0.413663 0.624158 0.514373
O O9 0.176015 0.656289 0.447908
O O10 0.620703 0.203416 0.615292
O O11 0.926483 0.203309 0.774441
O O12 0.959521 0.170131 0.996748
O O13 0.722705 0.289274 0.215217
O O14 0.563825 0.189525 0.219494
#
# Coordination Sequence:
#
# PCOD8119745 Si02
#       8
#     4   2   4   4   4   4   2   2
#     4  11  22  39  64  96 133 182 213 259 328 384
#     4  11  28  45  58  94 138 177 222 257 326 398
#     4  10  20  41  70  91 122 167 220 281 326 376
#     4  10  21  37  68  98 128 168 224 263 322 386
#     4  10  22  40  70 100 124 164 224 282 329 369
#     4  12  25  43  60  94 141 179 214 263 320 400
#     4   9  18  37  66 102 120 155 218 283 326 372
#     4  10  22  40  70 102 130 162 224 278 314 388
#
# _framework density 21.722556000000001
#
# number of rings (size 3 to 8) (size 9 to 14) (size 15 to 20)
#    0.000    1.538    2.308    2.308    2.154    5.538 
#    1.385   10.769    0.000    0.000    0.000    0.000 
#    0.000    0.000    0.000    0.000    0.000    0.000 
#
# Total GULP energy -322139.814370 kJ/mol
# GULP energy per Si atom -12389.992860 kJ/mol
# Density = 2.167311 g / cm^3
# Si number density = 21.722556 Si / 1000 Ang^3
#
#
#
# Elastic Constant Matrix: (Units=GPa)
#
#
# Indices 1 2 3 4 5 6 
#
# 1 56.6819 29.8058 40.0592 0.0000 1.0267 0.0000
# 2 29.8058 112.1841 43.5115 0.0000 -1.1576 0.0000
# 3 40.0592 43.5115 121.3303 0.0000 6.1216 0.0000
# 4 0.0000 0.0000 0.0000 23.2293 0.0000 1.5256
# 5 1.0267 -1.1576 6.1216 0.0000 18.7670 0.0000
# 6 0.0000 0.0000 0.0000 1.5256 0.0000 20.5375
#
#
#
# Elastic Compliance Matrix: (Units=1/GPa)
#
#
# Indices 1 2 3 4 5 6 
#
# 1 0.024405 -0.003880 -0.006697 0.000000 0.000610 0.000000
# 2 -0.003880 0.011037 -0.002767 0.000000 0.001796 0.000000
# 3 -0.006697 -0.002767 0.011627 0.000000 -0.003597 0.000000
# 4 0.000000 0.000000 0.000000 0.043260 0.000000 -0.003214
# 5 0.000610 0.001796 -0.003597 0.000000 0.054536 0.000000
# 6 0.000000 0.000000 0.000000 -0.003214 0.000000 0.048930
#
#
# Mechanical properties :
#
#
# Convention : Reuss Voigt Hill
#
# Bulk Modulus (GPa) = 49.06958 57.43880 53.25419
# Shear Modulus (GPa) = 21.99965 24.29475 23.14720
#
# Velocity S-wave (km/s) = 3.18584 3.34789 3.26787
# Velocity P-wave (km/s) = 6.01423 6.43770 6.22956
#
# Compressibility (1/GPa) = 0.02037923
#
# Stress axis : x y z
#
# Youngs Moduli (GPa) = 40.97594 90.60616 86.00686
#
# Poissons Ratio (x) = 0.35158 0.57597
# Poissons Ratio (y) = 0.15900 0.23802
# Poissons Ratio (z) = 0.27441 0.25075
#
# Static dielectric constant tensor:
#      x y z
#    x 3.746420 0.000000 0.202750 
#    y 0.000000 3.948020 0.000000 
#    z 0.202750 0.000000 3.993910 
# 
# 
# High freq. dielectric constant tensor:
#      x y z
#    x 1.834170 0.000000 0.017410 
#    y 0.000000 1.851500 0.000000 
#    z 0.017410 0.000000 1.858980 
# 
# From -- ./inp_files/53798.got.cif
#   From: 2010.06.25/outbox.cif.g09.slc.cpg/sg13_27_cif.got.tgz:53798.got - 2010.06.28 04:50:58.
