data_PCOD8119610
_publ_section_title
;
Structure prediction by ZEFSAII (Michael W. Deem and Ramdas Pophale) SiO2 
 PCOD8119610
Probable space group: P 2/C
;
_chemical_formula_sum "Si O2"
_cell_formula_units_Z 28
_cell_length_a 16.045973
_cell_length_b 8.331314
_cell_length_c 21.323052
_cell_angle_alpha 90.000000
_cell_angle_beta 29.165040
_cell_angle_gamma 90.000000
_cell_volume 1389.150650
_symmetry_space_group_name_H-M "P 2/C"
_symmetry_group_IT_number 13
_symmetry_cell_setting 'monoclinic'
loop_
_space_group_symop_operation_xyz
x,y,z
-x,y,1/2-z
-x,-y,-z
x,-y,1/2+z
loop_
_atom_site_type_symbol
_atom_site_label
_atom_site_fract_x
_atom_site_fract_y
_atom_site_fract_z
Si Si1 0.397901 0.159812 0.580676
Si Si2 0.808694 0.612861 0.360740
Si Si3 0.500000 0.737181 0.250000
Si Si4 0.164872 0.958194 0.812050
Si Si5 0.686934 0.639143 0.847768
Si Si6 0.500000 0.764478 0.750000
Si Si7 0.515494 0.478500 0.135002
Si Si8 0.219860 0.001960 0.920180
O O1 0.279965 0.219145 0.600748
O O2 0.539005 0.302769 0.494941
O O3 0.500000 0.000000 0.500000
O O4 0.273910 0.116395 0.720058
O O5 0.811494 0.478704 0.303635
O O6 0.712406 0.545284 0.485138
O O7 0.000000 0.658056 0.250000
O O8 0.506277 0.641127 0.180605
O O9 0.676491 0.833604 0.140398
O O10 0.218267 0.794886 0.741811
O O11 0.195224 0.942785 0.865404
O O12 0.965518 0.984507 0.925927
O O13 0.607153 0.529655 0.844971
O O14 0.550315 0.662316 0.777013
O O15 0.335148 0.868670 0.878636
#
# Coordination Sequence:
#
# PCOD8119610 Si02
#       8
#     4   4   2   4   4   2   4   4
#     4   9  20  40  65  89 118 167 201 244 312 373
#     4  11  25  39  64  97 124 157 208 265 306 363
#     4  10  24  38  64  90 120 164 200 252 306 362
#     4  10  21  39  62  89 123 156 213 251 307 361
#     4  10  21  42  65  89 123 167 200 245 317 382
#     4  10  20  40  62  86 122 166 200 254 306 362
#     4  10  21  41  62  87 124 161 204 240 317 382
#     4  10  22  38  59  90 121 162 203 262 296 358
#
# _framework density 20.156202
#
# number of rings (size 3 to 8) (size 9 to 14) (size 15 to 20)
#    0.000    2.000    1.429    1.714    8.000    0.000 
#    0.000    3.571    0.000    0.000    0.000    0.000 
#    0.000    0.000    0.000    0.000    0.000    0.000 
#
# Total GULP energy -346973.429702 kJ/mol
# GULP energy per Si atom -12391.908204 kJ/mol
# Density = 2.011033 g / cm^3
# Si number density = 20.156202 Si / 1000 Ang^3
#
#
#
# Elastic Constant Matrix: (Units=GPa)
#
#
# Indices 1 2 3 4 5 6 
#
# 1 52.0046 43.0357 31.3838 0.0000 -10.9593 0.0000
# 2 43.0357 105.0293 38.5265 0.0000 -5.5983 0.0000
# 3 31.3838 38.5265 118.6977 0.0000 -14.0145 0.0000
# 4 0.0000 0.0000 0.0000 22.9570 0.0000 -1.7576
# 5 -10.9593 -5.5983 -14.0145 0.0000 39.0542 0.0000
# 6 0.0000 0.0000 0.0000 -1.7576 0.0000 7.9753
#
#
#
# Elastic Compliance Matrix: (Units=1/GPa)
#
#
# Indices 1 2 3 4 5 6 
#
# 1 0.032491 -0.011468 -0.004163 0.000000 0.005980 0.000000
# 2 -0.011468 0.014859 -0.002004 0.000000 -0.001807 0.000000
# 3 -0.004163 -0.002004 0.010447 0.000000 0.002293 0.000000
# 4 0.000000 0.000000 0.000000 0.044307 0.000000 0.009764
# 5 0.005980 -0.001807 0.002293 0.000000 0.027847 0.000000
# 6 0.000000 0.000000 0.000000 0.009764 0.000000 0.127539
#
#
# Mechanical properties :
#
#
# Convention : Reuss Voigt Hill
#
# Bulk Modulus (GPa) = 44.38916 55.73595 50.06255
# Shear Modulus (GPa) = 16.65178 24.84968 20.75073
#
# Velocity S-wave (km/s) = 2.87738 3.51501 3.21206
# Velocity P-wave (km/s) = 5.75408 6.64724 6.21672
#
# Compressibility (1/GPa) = 0.02252802
#
# Stress axis : x y z
#
# Youngs Moduli (GPa) = 30.77765 67.30018 95.72476
#
# Poissons Ratio (x) = 0.77177 0.39846
# Poissons Ratio (y) = 0.35294 0.19185
# Poissons Ratio (z) = 0.12811 0.13488
#
# Static dielectric constant tensor:
#      x y z
#    x 3.697420 0.000000 0.076280 
#    y 0.000000 3.799900 0.000000 
#    z 0.076280 0.000000 3.892520 
# 
# 
# High freq. dielectric constant tensor:
#      x y z
#    x 1.775090 0.000000 0.000470 
#    y 0.000000 1.797740 0.000000 
#    z 0.000470 0.000000 1.789250 
# 
# From -- ./inp_files/79789.got.cif
#   From: 2010.06.25/outbox.cif.g09.slc.cpg/sg13_40_cif.got.tgz:79789.got - 2010.06.28 04:50:58.
