data_PCOD8119279
_publ_section_title
;
Structure prediction by ZEFSAII (Michael W. Deem and Ramdas Pophale) SiO2 
 PCOD8119279
Probable space group: P 2/C
;
_chemical_formula_sum "Si O2"
_cell_formula_units_Z 20
_cell_length_a 5.938494
_cell_length_b 13.978153
_cell_length_c 11.887914
_cell_angle_alpha 90.000000
_cell_angle_beta 107.745800
_cell_angle_gamma 90.000000
_cell_volume 939.851907
_symmetry_space_group_name_H-M "P 2/C"
_symmetry_group_IT_number 13
_symmetry_cell_setting 'monoclinic'
loop_
_space_group_symop_operation_xyz
x,y,z
-x,y,1/2-z
-x,-y,-z
x,-y,1/2+z
loop_
_atom_site_type_symbol
_atom_site_label
_atom_site_fract_x
_atom_site_fract_y
_atom_site_fract_z
Si Si1 0.248756 0.509981 0.905814
Si Si2 0.500000 0.920231 0.250000
Si Si3 0.095873 0.351584 0.032708
Si Si4 0.500000 0.412643 0.250000
Si Si5 0.190474 0.986060 0.873780
Si Si6 0.087862 0.144587 0.549935
O O1 0.301439 0.520215 0.780507
O O2 0.112877 0.605935 0.922520
O O3 0.500000 0.500000 0.000000
O O4 0.105352 0.415215 0.919737
O O5 0.565676 0.987890 0.153089
O O6 0.716856 0.852546 0.320481
O O7 0.349147 0.349657 0.137664
O O8 0.029701 0.246294 0.985316
O O9 0.000000 0.963967 0.750000
O O10 0.120571 0.073632 0.944472
O O11 0.211655 0.890938 0.953020
#
# Coordination Sequence:
#
# PCOD8119279 Si02
#       6
#     4   2   4   2   4   4
#     4   9  20  39  58  83 118 152 194 245 296 350
#     4  10  20  38  60  86 122 160 194 240 300 356
#     4  10  21  39  60  87 120 155 199 245 295 356
#     4  10  20  38  62  86 118 158 198 246 300 350
#     4   9  20  39  60  85 118 154 196 245 295 352
#     4  10  21  39  60  87 120 154 196 243 294 355
#
# _framework density 21.279948000000001
#
# number of rings (size 3 to 8) (size 9 to 14) (size 15 to 20)
#    0.000    2.400    0.000    1.200    0.000    4.800 
#    0.000   40.000    0.000    0.000    0.000    0.000 
#    0.000    0.000    0.000    0.000    0.000    0.000 
#
# Total GULP energy -247884.712397 kJ/mol
# GULP energy per Si atom -12394.235620 kJ/mol
# Density = 2.123151 g / cm^3
# Si number density = 21.279948 Si / 1000 Ang^3
#
#
#
# Elastic Constant Matrix: (Units=GPa)
#
#
# Indices 1 2 3 4 5 6 
#
# 1 92.7606 32.1932 27.2632 0.0000 -21.3856 0.0000
# 2 32.1932 123.8131 46.7154 0.0000 -10.0315 0.0000
# 3 27.2632 46.7154 81.2249 0.0000 -18.3534 0.0000
# 4 0.0000 0.0000 0.0000 22.5257 0.0000 6.2292
# 5 -21.3856 -10.0315 -18.3534 0.0000 51.9016 0.0000
# 6 0.0000 0.0000 0.0000 6.2292 0.0000 17.5017
#
#
#
# Elastic Compliance Matrix: (Units=1/GPa)
#
#
# Indices 1 2 3 4 5 6 
#
# 1 0.013178 -0.002267 -0.002164 0.000000 0.004226 0.000000
# 2 -0.002267 0.010706 -0.005586 0.000000 -0.000840 0.000000
# 3 -0.002164 -0.005586 0.017178 0.000000 0.004103 0.000000
# 4 0.000000 0.000000 0.000000 0.049240 0.000000 -0.017526
# 5 0.004226 -0.000840 0.004103 0.000000 0.022297 0.000000
# 6 0.000000 0.000000 0.000000 -0.017526 0.000000 0.063375
#
#
# Mechanical properties :
#
#
# Convention : Reuss Voigt Hill
#
# Bulk Modulus (GPa) = 47.56009 56.68246 52.12128
# Shear Modulus (GPa) = 24.62841 31.16095 27.89468
#
# Velocity S-wave (km/s) = 3.40568 3.83081 3.62448
# Velocity P-wave (km/s) = 6.15330 6.80156 6.48554
#
# Compressibility (1/GPa) = 0.02102603
#
# Stress axis : x y z
#
# Youngs Moduli (GPa) = 75.88535 93.40673 58.21477
#
# Poissons Ratio (x) = 0.21180 0.12598
# Poissons Ratio (y) = 0.17207 0.32520
# Poissons Ratio (z) = 0.16422 0.52179
#
# Static dielectric constant tensor:
#      x y z
#    x 4.256340 0.000000 -0.421390 
#    y 0.000000 3.486490 0.000000 
#    z -0.421390 0.000000 4.462410 
# 
# 
# High freq. dielectric constant tensor:
#      x y z
#    x 1.851420 0.000000 -0.003840 
#    y 0.000000 1.793800 0.000000 
#    z -0.003840 0.000000 1.846800 
# 
# From -- ./inp_files/26062.got.cif
#   From: 2010.06.25/outbox.cif.g09.slc.cpg/sg13_14_cif.got.tgz:26062.got - 2010.06.28 04:50:58.
