data_PCOD8119955
_publ_section_title
;
Structure prediction by ZEFSAII (Michael W. Deem and Ramdas Pophale) SiO2 
 PCOD8119955
Probable space group: P 2/C
;
_chemical_formula_sum "Si O2"
_cell_formula_units_Z 20
_cell_length_a 23.736235
_cell_length_b 7.980493
_cell_length_c 5.148249
_cell_angle_alpha 90.000000
_cell_angle_beta 99.248388
_cell_angle_gamma 90.000000
_cell_volume 962.539679
_symmetry_space_group_name_H-M "P 2/C"
_symmetry_group_IT_number 13
_symmetry_cell_setting 'monoclinic'
loop_
_space_group_symop_operation_xyz
x,y,z
-x,y,1/2-z
-x,-y,-z
x,-y,1/2+z
loop_
_atom_site_type_symbol
_atom_site_label
_atom_site_fract_x
_atom_site_fract_y
_atom_site_fract_z
Si Si1 0.064080 0.894133 0.769617
Si Si2 0.281444 0.607980 0.977949
Si Si3 0.563601 0.574112 0.532351
Si Si4 0.624594 0.111792 0.983137
Si Si5 0.847641 0.394783 0.165352
O O1 0.108790 0.751145 0.867110
O O2 0.000000 0.821380 0.750000
O O3 0.073889 0.958513 0.485015
O O4 0.292876 0.535464 0.272829
O O5 0.321266 0.767236 0.949347
O O6 0.216701 0.674863 0.909364
O O7 0.500000 0.500000 0.500000
O O8 0.595924 0.477626 0.321345
O O9 0.567482 0.773572 0.485169
O O10 0.624384 0.032405 0.698083
O O11 0.858282 0.458717 0.464640
#
# Coordination Sequence:
#
# PCOD8119955 Si02
#       5
#     4   4   4   4   4
#     4  10  21  36  54  78 112 152 188 229 288 344
#     4  10  21  39  60  82 114 154 187 222 282 349
#     4  10  21  41  63  82 111 156 189 215 274 340
#     4  12  24  38  60  92 118 142 187 240 278 321
#     4  10  21  36  57  84 110 144 193 238 275 328
#
# _framework density 20.778364
#
# number of rings (size 3 to 8) (size 9 to 14) (size 15 to 20)
#    0.000    1.600    0.000    4.800    0.000    2.400 
#    0.000   12.000    0.000    0.000    0.000    0.000 
#    0.000    0.000    0.000    0.000    0.000    0.000 
#
# Total GULP energy -247956.313623 kJ/mol
# GULP energy per Si atom -12397.815681 kJ/mol
# Density = 2.073107 g / cm^3
# Si number density = 20.778364 Si / 1000 Ang^3
#
#
#
# Elastic Constant Matrix: (Units=GPa)
#
#
# Indices 1 2 3 4 5 6 
#
# 1 119.5407 54.2418 10.1342 0.0000 -2.5864 0.0000
# 2 54.2418 91.0364 12.5198 0.0000 -2.1223 0.0000
# 3 10.1342 12.5198 117.1765 0.0000 -18.3170 0.0000
# 4 0.0000 0.0000 0.0000 32.0632 0.0000 -6.8506
# 5 -2.5864 -2.1223 -18.3170 0.0000 20.1481 0.0000
# 6 0.0000 0.0000 0.0000 -6.8506 0.0000 28.3680
#
#
#
# Elastic Compliance Matrix: (Units=1/GPa)
#
#
# Indices 1 2 3 4 5 6 
#
# 1 0.011479 -0.006802 -0.000172 0.000000 0.000601 0.000000
# 2 -0.006802 0.015179 -0.001073 0.000000 -0.000249 0.000000
# 3 -0.000172 -0.001073 0.010074 0.000000 0.009024 0.000000
# 4 0.000000 0.000000 0.000000 0.032885 0.000000 0.007941
# 5 0.000601 -0.000249 0.009024 0.000000 0.057887 0.000000
# 6 0.000000 0.000000 0.000000 0.007941 0.000000 0.037169
#
#
# Mechanical properties :
#
#
# Convention : Reuss Voigt Hill
#
# Bulk Modulus (GPa) = 48.45133 53.50503 50.97818
# Shear Modulus (GPa) = 26.64585 32.83973 29.74279
#
# Velocity S-wave (km/s) = 3.58492 3.97983 3.78753
# Velocity P-wave (km/s) = 6.36430 6.85018 6.61171
#
# Compressibility (1/GPa) = 0.02063927
#
# Stress axis : x y z
#
# Youngs Moduli (GPa) = 87.11274 65.87997 99.26371
#
# Poissons Ratio (x) = 0.44812 0.01709
# Poissons Ratio (y) = 0.59254 0.10646
# Poissons Ratio (z) = 0.01500 0.07066
#
# Static dielectric constant tensor:
#      x y z
#    x 3.892160 0.000000 2.488570 
#    y 0.000000 3.519640 0.000000 
#    z 2.488570 0.000000 -41.784780 
# 
# 
# High freq. dielectric constant tensor:
#      x y z
#    x 1.821920 0.000000 -0.009630 
#    y 0.000000 1.792390 0.000000 
#    z -0.009630 0.000000 1.843610 
# 
# From -- ./inp_files/7619.got.cif
#   From: 2010.06.25/outbox.cif.g09.slc.cpg/sg13_4_cif.got.tgz:7619.got - 2010.06.28 04:50:58.
