data_PCOD8119384
_publ_section_title
;
Structure prediction by ZEFSAII (Michael W. Deem and Ramdas Pophale) SiO2 
 PCOD8119384
Probable space group: P 2/C
;
_chemical_formula_sum "Si O2"
_cell_formula_units_Z 28
_cell_length_a 9.013678
_cell_length_b 14.711172
_cell_length_c 13.414304
_cell_angle_alpha 90.000000
_cell_angle_beta 131.192210
_cell_angle_gamma 90.000000
_cell_volume 1338.525145
_symmetry_space_group_name_H-M "P 2/C"
_symmetry_group_IT_number 13
_symmetry_cell_setting 'monoclinic'
loop_
_space_group_symop_operation_xyz
x,y,z
-x,y,1/2-z
-x,-y,-z
x,-y,1/2+z
loop_
_atom_site_type_symbol
_atom_site_label
_atom_site_fract_x
_atom_site_fract_y
_atom_site_fract_z
Si Si1 0.970575 0.624119 0.463904
Si Si2 0.374129 0.779017 0.470344
Si Si3 0.339973 0.411599 0.845482
Si Si4 0.817841 0.927287 0.241207
Si Si5 0.261965 0.499686 0.507733
Si Si6 0.350664 0.111687 0.273402
Si Si7 0.949115 0.180512 0.507615
O O1 0.831626 0.604451 0.308174
O O2 0.906295 0.571473 0.534901
O O3 0.196954 0.593647 0.536347
O O4 0.940359 0.728845 0.477462
O O5 0.402509 0.679509 0.434607
O O6 0.324064 0.847606 0.359219
O O7 0.572290 0.812604 0.614385
O O8 0.195986 0.784389 0.469742
O O9 0.257699 0.484920 0.887617
O O10 0.524681 0.457602 0.869113
O O11 0.000000 0.948070 0.250000
O O12 0.901866 0.896204 0.386016
O O13 0.683783 0.016503 0.187107
O O14 0.500000 0.094563 0.250000
O O15 0.146904 0.143375 0.135241
#
# Coordination Sequence:
#
# PCOD8119384 Si02
#       7
#     4   4   4   4   4   4   4
#     4  11  21  43  63  92 126 163 213 255 315 374
#     4  10  20  38  64  88 121 166 203 246 310 380
#     4  11  21  43  63  92 126 163 213 255 315 374
#     4  10  20  38  66  87 115 164 206 245 307 378
#     4  10  24  38  62  94 118 160 208 266 306 368
#     4  10  22  40  56  91 125 156 202 257 309 364
#     4  10  20  38  64  88 121 166 203 246 310 380
#
# _framework density 20.918548000000001
#
# number of rings (size 3 to 8) (size 9 to 14) (size 15 to 20)
#    0.000    1.714    2.857    1.714    0.000    0.000 
#   20.571    0.000    0.000    0.000    0.000    0.000 
#    0.000    0.000    0.000    0.000    0.000    0.000 
#
# Total GULP energy -347060.629681 kJ/mol
# GULP energy per Si atom -12395.022489 kJ/mol
# Density = 2.087094 g / cm^3
# Si number density = 20.918548 Si / 1000 Ang^3
#
#
#
# Elastic Constant Matrix: (Units=GPa)
#
#
# Indices 1 2 3 4 5 6 
#
# 1 67.7662 26.5387 14.1887 0.0000 1.0045 0.0000
# 2 26.5387 108.9230 43.5002 0.0000 -5.1188 0.0000
# 3 14.1887 43.5002 117.9808 0.0000 -6.2988 0.0000
# 4 0.0000 0.0000 0.0000 32.9423 0.0000 1.5595
# 5 1.0045 -5.1188 -6.2988 0.0000 17.3788 0.0000
# 6 0.0000 0.0000 0.0000 1.5595 0.0000 26.2282
#
#
#
# Elastic Compliance Matrix: (Units=1/GPa)
#
#
# Indices 1 2 3 4 5 6 
#
# 1 0.016439 -0.003841 -0.000685 0.000000 -0.002330 0.000000
# 2 -0.003841 0.011717 -0.003734 0.000000 0.002320 0.000000
# 3 -0.000685 -0.003734 0.010074 0.000000 0.002591 0.000000
# 4 0.000000 0.000000 0.000000 0.030442 0.000000 -0.001810
# 5 -0.002330 0.002320 0.002591 0.000000 0.059298 0.000000
# 6 0.000000 0.000000 0.000000 -0.001810 0.000000 0.038235
#
#
# Mechanical properties :
#
#
# Convention : Reuss Voigt Hill
#
# Bulk Modulus (GPa) = 46.06545 51.45836 48.76190
# Shear Modulus (GPa) = 26.32113 29.33936 27.83024
#
# Velocity S-wave (km/s) = 3.55105 3.74913 3.65144
# Velocity P-wave (km/s) = 6.23558 6.58742 6.41391
#
# Compressibility (1/GPa) = 0.02170824
#
# Stress axis : x y z
#
# Youngs Moduli (GPa) = 60.83141 85.34555 99.26995
#
# Poissons Ratio (x) = 0.32783 0.06801
# Poissons Ratio (y) = 0.23366 0.37071
# Poissons Ratio (z) = 0.04168 0.31871
#
# Static dielectric constant tensor:
#      x y z
#    x 3.699650 0.000000 0.043800 
#    y 0.000000 3.934300 0.000000 
#    z 0.043800 0.000000 3.806090 
# 
# 
# High freq. dielectric constant tensor:
#      x y z
#    x 1.802120 0.000000 -0.003030 
#    y 0.000000 1.826990 0.000000 
#    z -0.003030 0.000000 1.815640 
# 
# From -- ./inp_files/47737.got.cif
#   From: 2010.06.25/outbox.cif.g09.slc.cpg/sg13_24_cif.got.tgz:47737.got - 2010.06.28 04:50:58.
