data_PCOD8119614
_publ_section_title
;
Structure prediction by ZEFSAII (Michael W. Deem and Ramdas Pophale) SiO2 
 PCOD8119614
Probable space group: P 2/C
;
_chemical_formula_sum "Si O2"
_cell_formula_units_Z 32
_cell_length_a 15.942203
_cell_length_b 9.194039
_cell_length_c 23.919622
_cell_angle_alpha 90.000000
_cell_angle_beta 152.264747
_cell_angle_gamma 90.000000
_cell_volume 1631.634871
_symmetry_space_group_name_H-M "P 2/C"
_symmetry_group_IT_number 13
_symmetry_cell_setting 'monoclinic'
loop_
_space_group_symop_operation_xyz
x,y,z
-x,y,1/2-z
-x,-y,-z
x,-y,1/2+z
loop_
_atom_site_type_symbol
_atom_site_label
_atom_site_fract_x
_atom_site_fract_y
_atom_site_fract_z
Si Si1 0.561070 0.766420 0.935768
Si Si2 0.986629 0.669256 0.504552
Si Si3 0.368984 0.154432 0.722813
Si Si4 0.961253 0.272180 0.118685
Si Si5 0.178326 0.480414 0.886327
Si Si6 0.344356 0.816970 0.701361
Si Si7 0.349394 0.905023 0.022422
Si Si8 0.317990 0.725702 0.895188
O O1 0.404770 0.753565 0.797217
O O2 0.485550 0.734899 0.952735
O O3 0.718054 0.648474 0.021395
O O4 0.651335 0.922274 0.981553
O O5 0.800534 0.737445 0.372031
O O6 0.000000 0.500000 0.500000
O O7 0.005992 0.698586 0.581354
O O8 0.155754 0.743554 0.573102
O O9 0.500000 0.206585 0.750000
O O10 0.306648 0.988959 0.676533
O O11 0.474399 0.161300 0.843597
O O12 0.139408 0.229086 0.256905
O O13 0.870966 0.412758 0.092536
O O14 0.825039 0.136878 0.043835
O O15 0.300795 0.566219 0.912991
O O16 0.000000 0.420331 0.750000
O O17 0.500000 0.772370 0.750000
O O18 0.345887 0.846892 0.958092
#
# Coordination Sequence:
#
# PCOD8119614 Si02
#       8
#     4   4   4   4   4   4   4   4
#     4  11  21  38  63  93 119 155 210 256 299 362
#     4  12  25  40  64  93 122 160 214 258 307 377
#     4  10  21  43  65  89 125 163 200 253 318 370
#     4  10  21  42  60  85 123 168 197 244 314 367
#     4   9  21  37  58  85 126 162 194 245 310 364
#     4  10  24  43  63  88 122 163 207 259 316 367
#     4  10  21  38  65  92 120 162 203 251 304 371
#     4  10  20  40  62  86 125 163 203 245 308 370
#
# _framework density 19.612231000000001
#
# number of rings (size 3 to 8) (size 9 to 14) (size 15 to 20)
#    0.000    1.750    2.500    2.250    1.750    3.500 
#    4.500    0.000    0.000    0.000    0.000    0.000 
#    0.000    0.000    0.000    0.000    0.000    0.000 
#
# Total GULP energy -396842.331743 kJ/mol
# GULP energy per Si atom -12401.322867 kJ/mol
# Density = 1.956759 g / cm^3
# Si number density = 19.612231 Si / 1000 Ang^3
#
#
#
# Elastic Constant Matrix: (Units=GPa)
#
#
# Indices 1 2 3 4 5 6 
#
# 1 93.0182 28.7310 29.4378 0.0000 6.3058 0.0000
# 2 28.7310 103.6713 71.1231 0.0000 11.9552 0.0000
# 3 29.4378 71.1231 114.9089 0.0000 7.8019 0.0000
# 4 0.0000 0.0000 0.0000 42.4653 0.0000 -2.8764
# 5 6.3058 11.9552 7.8019 0.0000 35.9825 0.0000
# 6 0.0000 0.0000 0.0000 -2.8764 0.0000 23.2617
#
#
#
# Elastic Compliance Matrix: (Units=1/GPa)
#
#
# Indices 1 2 3 4 5 6 
#
# 1 0.011997 -0.001987 -0.001771 0.000000 -0.001058 0.000000
# 2 -0.001987 0.017506 -0.010104 0.000000 -0.003277 0.000000
# 3 -0.001771 -0.010104 0.015388 0.000000 0.000331 0.000000
# 4 0.000000 0.000000 0.000000 0.023748 0.000000 0.002936
# 5 -0.001058 -0.003277 0.000331 0.000000 0.028994 0.000000
# 6 0.000000 0.000000 0.000000 0.002936 0.000000 0.043352
#
#
# Mechanical properties :
#
#
# Convention : Reuss Voigt Hill
#
# Bulk Modulus (GPa) = 58.25714 63.35359 60.80536
# Shear Modulus (GPa) = 28.66452 32.49568 30.58010
#
# Velocity S-wave (km/s) = 3.82719 4.07493 3.95300
# Velocity P-wave (km/s) = 7.02131 7.38331 7.20459
#
# Compressibility (1/GPa) = 0.01716528
#
# Stress axis : x y z
#
# Youngs Moduli (GPa) = 83.35566 57.12218 64.98704
#
# Poissons Ratio (x) = 0.11353 0.11512
# Poissons Ratio (y) = 0.16567 0.65662
# Poissons Ratio (z) = 0.14766 0.57716
#
# Static dielectric constant tensor:
#      x y z
#    x 3.697970 0.000000 -0.045470 
#    y 0.000000 3.419990 0.000000 
#    z -0.045470 0.000000 3.708720 
# 
# 
# High freq. dielectric constant tensor:
#      x y z
#    x 1.769020 0.000000 -0.001680 
#    y 0.000000 1.755630 0.000000 
#    z -0.001680 0.000000 1.773430 
# 
# From -- ./inp_files/87418.got.cif
#   From: 2010.06.25/outbox.cif.g09.slc.cpg/sg13_44_cif.got.tgz:87418.got - 2010.06.28 04:50:58.
