data_PCOD8119679
_publ_section_title
;
Structure prediction by ZEFSAII (Michael W. Deem and Ramdas Pophale) SiO2 
 PCOD8119679
Probable space group: P 2/C
;
_chemical_formula_sum "Si O2"
_cell_formula_units_Z 26
_cell_length_a 8.205038
_cell_length_b 17.370243
_cell_length_c 18.231807
_cell_angle_alpha 90.000000
_cell_angle_beta 29.818678
_cell_angle_gamma 90.000000
_cell_volume 1292.102461
_symmetry_space_group_name_H-M "P 2/C"
_symmetry_group_IT_number 13
_symmetry_cell_setting 'monoclinic'
loop_
_space_group_symop_operation_xyz
x,y,z
-x,y,1/2-z
-x,-y,-z
x,-y,1/2+z
loop_
_atom_site_type_symbol
_atom_site_label
_atom_site_fract_x
_atom_site_fract_y
_atom_site_fract_z
Si Si1 0.417149 0.104411 0.989516
Si Si2 0.372102 0.343891 0.965499
Si Si3 0.636958 0.503384 0.867410
Si Si4 0.326297 0.756041 0.025273
Si Si5 0.000000 0.988981 0.750000
Si Si6 0.384314 0.347841 0.211420
Si Si7 0.438622 0.211886 0.693546
O O1 0.518688 0.160776 0.016939
O O2 0.682463 0.040787 0.862428
O O3 0.375441 0.152884 0.932398
O O4 0.078807 0.063821 0.147438
O O5 0.533435 0.422424 0.871862
O O6 0.598092 0.305723 0.940468
O O7 0.369647 0.291892 0.893458
O O8 0.008119 0.350331 0.139774
O O9 0.494775 0.571607 0.871632
O O10 0.000000 0.517336 0.750000
O O11 0.500000 0.500000 0.000000
O O12 0.941294 0.773155 0.174061
O O13 0.467392 0.723698 0.892954
O O14 0.500000 0.341655 0.250000
O O15 0.500000 0.179829 0.750000
#
# Coordination Sequence:
#
# PCOD8119679 Si02
#       7
#     4   4   4   4   2   4   4
#     4  10  21  39  68  92 124 164 210 252 303 372
#     4  11  23  40  65  86 120 169 217 256 309 373
#     4  12  22  42  63  86 118 165 218 261 310 375
#     4  11  21  41  64  91 121 167 213 250 307 375
#     4  10  20  40  68  96 120 158 220 254 288 376
#     4  12  26  40  59  93 128 161 209 270 321 367
#     4  11  23  40  62  96 131 163 205 261 319 369
#
# _framework density 20.122242
#
# number of rings (size 3 to 8) (size 9 to 14) (size 15 to 20)
#    0.000    0.923    4.615    3.692    4.308    1.231 
#    0.000    0.769    0.000    0.000    0.000    0.000 
#    0.000    0.000    0.000    0.000    0.000    0.000 
#
# Total GULP energy -322126.230178 kJ/mol
# GULP energy per Si atom -12389.470391 kJ/mol
# Density = 2.007644 g / cm^3
# Si number density = 20.122242 Si / 1000 Ang^3
#
#
#
# Elastic Constant Matrix: (Units=GPa)
#
#
# Indices 1 2 3 4 5 6 
#
# 1 90.5360 45.4347 47.4523 0.0000 22.3341 0.0000
# 2 45.4347 136.7847 52.5375 0.0000 20.3256 0.0000
# 3 47.4523 52.5375 94.3771 0.0000 20.3505 0.0000
# 4 0.0000 0.0000 0.0000 45.7566 0.0000 6.0538
# 5 22.3341 20.3256 20.3505 0.0000 34.6854 0.0000
# 6 0.0000 0.0000 0.0000 6.0538 0.0000 11.0710
#
#
#
# Elastic Compliance Matrix: (Units=1/GPa)
#
#
# Indices 1 2 3 4 5 6 
#
# 1 0.016786 -0.002469 -0.005778 0.000000 -0.005972 0.000000
# 2 -0.002469 0.009899 -0.003848 0.000000 -0.001953 0.000000
# 3 -0.005778 -0.003848 0.016433 0.000000 -0.003667 0.000000
# 4 0.000000 0.000000 0.000000 0.023559 0.000000 -0.012883
# 5 -0.005972 -0.001953 -0.003667 0.000000 0.035972 0.000000
# 6 0.000000 0.000000 0.000000 -0.012883 0.000000 0.097370
#
#
# Mechanical properties :
#
#
# Convention : Reuss Voigt Hill
#
# Bulk Modulus (GPa) = 52.82908 68.06075 60.44491
# Shear Modulus (GPa) = 21.69025 30.05418 25.87221
#
# Velocity S-wave (km/s) = 3.28674 3.86888 3.58963
# Velocity P-wave (km/s) = 6.38080 7.33858 6.87638
#
# Compressibility (1/GPa) = 0.01892897
#
# Stress axis : x y z
#
# Youngs Moduli (GPa) = 59.57423 101.01923 60.85150
#
# Poissons Ratio (x) = 0.24943 0.35158
# Poissons Ratio (y) = 0.14709 0.23415
# Poissons Ratio (z) = 0.34420 0.38872
#
# Static dielectric constant tensor:
#      x y z
#    x 3.315390 0.000000 0.146850 
#    y 0.000000 4.000510 0.000000 
#    z 0.146850 0.000000 3.925460 
# 
# 
# High freq. dielectric constant tensor:
#      x y z
#    x 1.750320 0.000000 0.006450 
#    y 0.000000 1.799500 0.000000 
#    z 0.006450 0.000000 1.808790 
# 
# From -- ./inp_files/64746.got.cif
#   From: 2010.06.25/outbox.cif.g09.slc.cpg/sg13_33_cif.got.tgz:64746.got - 2010.06.28 04:50:58.
