data_PCOD8119718
_publ_section_title
;
Structure prediction by ZEFSAII (Michael W. Deem and Ramdas Pophale) SiO2 
 PCOD8119718
Probable space group: P 2/C
;
_chemical_formula_sum "Si O2"
_cell_formula_units_Z 20
_cell_length_a 9.147064
_cell_length_b 8.321142
_cell_length_c 27.406813
_cell_angle_alpha 90.000000
_cell_angle_beta 151.817755
_cell_angle_gamma 90.000000
_cell_volume 985.191311
_symmetry_space_group_name_H-M "P 2/C"
_symmetry_group_IT_number 13
_symmetry_cell_setting 'monoclinic'
loop_
_space_group_symop_operation_xyz
x,y,z
-x,y,1/2-z
-x,-y,-z
x,-y,1/2+z
loop_
_atom_site_type_symbol
_atom_site_label
_atom_site_fract_x
_atom_site_fract_y
_atom_site_fract_z
Si Si1 0.125392 0.418131 0.940513
Si Si2 0.804038 0.860236 0.968412
Si Si3 0.427954 0.083503 0.529999
Si Si4 0.764982 0.591767 0.137518
Si Si5 0.196988 0.737796 0.632402
O O1 0.034477 0.254084 0.942626
O O2 0.066940 0.407079 0.865364
O O3 0.892633 0.553122 0.889838
O O4 0.485155 0.463256 0.056628
O O5 0.523491 0.948071 0.914132
O O6 0.700179 0.748644 0.893814
O O7 0.000000 0.000000 0.000000
O O8 0.647770 0.227543 0.609894
O O9 0.072204 0.144524 0.427025
O O10 0.500000 0.000000 0.500000
O O11 0.000000 0.546622 0.250000
O O12 0.500000 0.787193 0.750000
#
# Coordination Sequence:
#
# PCOD8119718 Si02
#       5
#     4   4   4   4   4
#     4  10  21  41  62  89 127 159 211 266 303 379
#     4  10  21  40  62  84 125 165 196 260 318 366
#     4  10  20  41  64  87 130 163 210 267 311 374
#     4  10  22  38  64  93 120 165 215 262 315 368
#     4  10  23  39  60  94 124 165 209 257 321 376
#
# _framework density 20.300626000000001
#
# number of rings (size 3 to 8) (size 9 to 14) (size 15 to 20)
#    0.000    2.000    2.000    0.600    2.800    1.600 
#    0.000    2.000    0.000    0.000    0.000    0.000 
#    0.000    0.000    0.000    0.000    0.000    0.000 
#
# Total GULP energy -247781.924882 kJ/mol
# GULP energy per Si atom -12389.096244 kJ/mol
# Density = 2.025442 g / cm^3
# Si number density = 20.300626 Si / 1000 Ang^3
#
#
#
# Elastic Constant Matrix: (Units=GPa)
#
#
# Indices 1 2 3 4 5 6 
#
# 1 141.7777 70.3240 45.1908 0.0000 -37.0608 0.0000
# 2 70.3240 111.1781 22.7937 0.0000 -13.4438 0.0000
# 3 45.1908 22.7937 106.9106 0.0000 -21.9204 0.0000
# 4 0.0000 0.0000 0.0000 3.1389 0.0000 -21.4716
# 5 -37.0608 -13.4438 -21.9204 0.0000 34.3337 0.0000
# 6 0.0000 0.0000 0.0000 -21.4716 0.0000 44.1538
#
#
#
# Elastic Compliance Matrix: (Units=1/GPa)
#
#
# Indices 1 2 3 4 5 6 
#
# 1 0.014246 -0.007212 -0.002198 0.000000 0.011150 0.000000
# 2 -0.007212 0.013291 -0.000362 0.000000 -0.002812 0.000000
# 3 -0.002198 -0.000362 0.011327 0.000000 0.004718 0.000000
# 4 0.000000 0.000000 0.000000 -0.136937 0.000000 -0.066591
# 5 0.011150 -0.002812 0.004718 0.000000 0.043073 0.000000
# 6 0.000000 0.000000 0.000000 -0.066591 0.000000 -0.009735
#
#
# Mechanical properties :
#
#
# Convention : Reuss Voigt Hill
#
# Bulk Modulus (GPa) = 51.75866 70.72040 61.23953
# Shear Modulus (GPa) = -129.02452 31.09580 -48.96436
#
# Velocity S-wave (km/s) = -7.98091 3.91802 -4.91650
# Velocity P-wave (km/s) = 7.70552 7.44178 1.41333
#
# Compressibility (1/GPa) = 0.01932044
#
# Stress axis : x y z
#
# Youngs Moduli (GPa) = 70.19605 75.24113 88.28437
#
# Poissons Ratio (x) = 0.54265 0.19404
# Poissons Ratio (y) = 0.50626 0.03192
# Poissons Ratio (z) = 0.15428 0.02721
#
# Static dielectric constant tensor:
#      x y z
#    x 4.206250 0.000000 -0.298920 
#    y 0.000000 4.026830 0.000000 
#    z -0.298920 0.000000 3.322210 
# 
# 
# High freq. dielectric constant tensor:
#      x y z
#    x 1.815830 0.000000 -0.023180 
#    y 0.000000 1.813270 0.000000 
#    z -0.023180 0.000000 1.750760 
# 
# From -- ./inp_files/28139.got.cif
#   From: 2010.06.25/outbox.cif.g09.slc.cpg/sg13_15_cif.got.tgz:28139.got - 2010.06.28 04:50:58.
