data_PCOD8119911
_publ_section_title
;
Structure prediction by ZEFSAII (Michael W. Deem and Ramdas Pophale) SiO2 
 PCOD8119911
Probable space group: P 2/C
;
_chemical_formula_sum "Si O2"
_cell_formula_units_Z 28
_cell_length_a 9.809571
_cell_length_b 15.200050
_cell_length_c 14.238009
_cell_angle_alpha 90.000000
_cell_angle_beta 136.788855
_cell_angle_gamma 90.000000
_cell_volume 1453.575436
_symmetry_space_group_name_H-M "P 2/C"
_symmetry_group_IT_number 13
_symmetry_cell_setting 'monoclinic'
loop_
_space_group_symop_operation_xyz
x,y,z
-x,y,1/2-z
-x,-y,-z
x,-y,1/2+z
loop_
_atom_site_type_symbol
_atom_site_label
_atom_site_fract_x
_atom_site_fract_y
_atom_site_fract_z
Si Si1 0.338248 0.278551 0.250135
Si Si2 0.789224 0.559048 0.697329
Si Si3 0.275079 0.870752 0.228905
Si Si4 0.658991 0.229198 0.550480
Si Si5 0.841452 0.850445 0.973621
Si Si6 0.500000 0.979843 0.750000
Si Si7 0.500000 0.276559 0.750000
Si Si8 0.431721 0.606980 0.388842
O O1 0.500000 0.303673 0.250000
O O2 0.221965 0.364017 0.230334
O O3 0.444436 0.227655 0.389804
O O4 0.174062 0.211734 0.125920
O O5 0.623686 0.567127 0.534683
O O6 0.730265 0.467742 0.721130
O O7 0.000000 0.555835 0.750000
O O8 0.325272 0.843230 0.360205
O O9 0.316462 0.789581 0.178142
O O10 0.404221 0.958088 0.280584
O O11 0.050931 0.899158 0.090247
O O12 0.829404 0.210704 0.560112
O O13 0.691481 0.326929 0.606433
O O14 0.663514 0.920741 0.884228
O O15 0.469087 0.340217 0.646845
#
# Coordination Sequence:
#
# PCOD8119911 Si02
#       8
#     4   4   4   4   4   2   2   4
#     4   9  19  37  61  83 118 156 195 243 297 343
#     4  10  21  35  57  86 117 151 195 243 285 342
#     4  10  22  35  62  83 112 149 193 237 291 353
#     4   9  18  39  59  79 112 156 189 233 291 350
#     4  11  20  38  61  85 111 153 196 239 287 357
#     4  11  22  40  55  86 122 142 187 248 302 341
#     4   9  20  38  55  80 112 152 185 234 286 349
#     4   9  20  37  56  80 120 150 187 240 293 332
#
# _framework density 19.262848000000002
#
# number of rings (size 3 to 8) (size 9 to 14) (size 15 to 20)
#    0.000    2.286    2.143    0.857    3.000    2.857 
#    0.000    0.714    0.000    0.000    0.000    0.000 
#    0.000    0.000    0.000    0.000    0.000    0.000 
#
# Total GULP energy -346974.157410 kJ/mol
# GULP energy per Si atom -12391.934193 kJ/mol
# Density = 1.921900 g / cm^3
# Si number density = 19.262848 Si / 1000 Ang^3
#
#
#
# Elastic Constant Matrix: (Units=GPa)
#
#
# Indices 1 2 3 4 5 6 
#
# 1 77.2955 44.5634 53.0082 0.0000 -0.7461 0.0000
# 2 44.5634 111.2082 53.8059 0.0000 -2.9671 0.0000
# 3 53.0082 53.8059 94.9826 0.0000 1.2505 0.0000
# 4 0.0000 0.0000 0.0000 14.1801 0.0000 -4.6887
# 5 -0.7461 -2.9671 1.2505 0.0000 27.9550 0.0000
# 6 0.0000 0.0000 0.0000 -4.6887 0.0000 23.3971
#
#
#
# Elastic Compliance Matrix: (Units=1/GPa)
#
#
# Indices 1 2 3 4 5 6 
#
# 1 0.022186 -0.003966 -0.010143 0.000000 0.000625 0.000000
# 2 -0.003966 0.013171 -0.005268 0.000000 0.001528 0.000000
# 3 -0.010143 -0.005268 0.019195 0.000000 -0.001688 0.000000
# 4 0.000000 0.000000 0.000000 0.075526 0.000000 0.015135
# 5 0.000625 0.001528 -0.001688 0.000000 0.036026 0.000000
# 6 0.000000 0.000000 0.000000 0.015135 0.000000 0.045773
#
#
# Mechanical properties :
#
#
# Convention : Reuss Voigt Hill
#
# Bulk Modulus (GPa) = 63.29855 65.13791 64.21823
# Shear Modulus (GPa) = 19.53903 21.91369 20.72636
#
# Velocity S-wave (km/s) = 3.18832 3.37651 3.28377
# Velocity P-wave (km/s) = 6.81804 7.00641 6.91287
#
# Compressibility (1/GPa) = 0.01579815
#
# Stress axis : x y z
#
# Youngs Moduli (GPa) = 45.07338 75.92481 52.09620
#
# Poissons Ratio (x) = 0.30113 0.52842
# Poissons Ratio (y) = 0.17877 0.27443
# Poissons Ratio (z) = 0.45718 0.39995
#
# Static dielectric constant tensor:
#      x y z
#    x 3.580510 0.000000 -0.110040 
#    y 0.000000 3.689760 0.000000 
#    z -0.110040 0.000000 3.409120 
# 
# 
# High freq. dielectric constant tensor:
#      x y z
#    x 1.743660 0.000000 -0.005260 
#    y 0.000000 1.756080 0.000000 
#    z -0.005260 0.000000 1.737830 
# 
# From -- ./inp_files/47980.got.cif
#   From: 2010.06.25/outbox.cif.g09.slc.cpg/sg13_24_cif.got.tgz:47980.got - 2010.06.28 04:50:58.
