data_PCOD8119766
_publ_section_title
;
Structure prediction by ZEFSAII (Michael W. Deem and Ramdas Pophale) SiO2 
 PCOD8119766
Probable space group: P 2/C
;
_chemical_formula_sum "Si O2"
_cell_formula_units_Z 22
_cell_length_a 8.850320
_cell_length_b 11.641736
_cell_length_c 14.764713
_cell_angle_alpha 90.000000
_cell_angle_beta 45.356069
_cell_angle_gamma 90.000000
_cell_volume 1082.353147
_symmetry_space_group_name_H-M "P 2/C"
_symmetry_group_IT_number 13
_symmetry_cell_setting 'monoclinic'
loop_
_space_group_symop_operation_xyz
x,y,z
-x,y,1/2-z
-x,-y,-z
x,-y,1/2+z
loop_
_atom_site_type_symbol
_atom_site_label
_atom_site_fract_x
_atom_site_fract_y
_atom_site_fract_z
Si Si1 0.297386 0.236526 0.772440
Si Si2 0.554770 0.337714 0.408486
Si Si3 0.767995 0.559748 0.324986
Si Si4 0.500000 0.223550 0.250000
Si Si5 0.613554 0.119574 0.948331
Si Si6 0.899250 0.883061 0.504562
O O1 0.500000 0.213672 0.750000
O O2 0.307154 0.367967 0.731636
O O3 0.291351 0.146574 0.690654
O O4 0.086493 0.212330 0.921025
O O5 0.760918 0.420826 0.316497
O O6 0.365748 0.411606 0.529974
O O7 0.491065 0.310978 0.334820
O O8 0.569995 0.216532 0.455566
O O9 0.000000 0.602517 0.250000
O O10 0.285276 0.147129 0.344697
O O11 0.796776 0.113852 0.947191
O O12 0.500000 0.000000 0.000000
O O13 0.000000 0.000000 0.500000
#
# Coordination Sequence:
#
# PCOD8119766 Si02
#       6
#     4   4   4   2   4   4
#     4  11  23  40  65  93 124 172 220 260 325 390
#     4   9  21  39  63  89 127 162 204 264 314 379
#     4  10  20  42  64  89 125 167 215 260 322 379
#     4  10  22  42  60  94 130 160 214 260 320 382
#     4  10  21  41  66  90 129 168 210 265 323 386
#     4  11  24  40  65  94 131 170 209 273 320 388
#
# _framework density 20.326083000000001
#
# number of rings (size 3 to 8) (size 9 to 14) (size 15 to 20)
#    0.000    1.818    0.000    4.909    7.636    0.000 
#   13.091    1.818    0.000    0.000    0.000    0.000 
#    0.000    0.000    0.000    0.000    0.000    0.000 
#
# Total GULP energy -272562.319250 kJ/mol
# GULP energy per Si atom -12389.196330 kJ/mol
# Density = 2.027982 g / cm^3
# Si number density = 20.326083 Si / 1000 Ang^3
#
#
#
# Elastic Constant Matrix: (Units=GPa)
#
#
# Indices 1 2 3 4 5 6 
#
# 1 113.1782 38.0999 34.5378 0.0000 -7.7548 0.0000
# 2 38.0999 148.6087 45.4431 0.0000 -8.2018 0.0000
# 3 34.5378 45.4431 102.1508 0.0000 -11.9528 0.0000
# 4 0.0000 0.0000 0.0000 12.6337 0.0000 -6.2675
# 5 -7.7548 -8.2018 -11.9528 0.0000 31.9525 0.0000
# 6 0.0000 0.0000 0.0000 -6.2675 0.0000 29.6858
#
#
#
# Elastic Compliance Matrix: (Units=1/GPa)
#
#
# Indices 1 2 3 4 5 6 
#
# 1 0.010295 -0.001799 -0.002554 0.000000 0.001081 0.000000
# 2 -0.001799 0.008119 -0.002940 0.000000 0.000548 0.000000
# 3 -0.002554 -0.002940 0.012340 0.000000 0.003242 0.000000
# 4 0.000000 0.000000 0.000000 0.088414 0.000000 0.018667
# 5 0.001081 0.000548 0.003242 0.000000 0.032912 0.000000
# 6 0.000000 0.000000 0.000000 0.018667 0.000000 0.037627
#
#
# Mechanical properties :
#
#
# Convention : Reuss Voigt Hill
#
# Bulk Modulus (GPa) = 61.84564 66.67768 64.26166
# Shear Modulus (GPa) = 23.84561 31.24485 27.54523
#
# Velocity S-wave (km/s) = 3.42885 3.92494 3.68525
# Velocity P-wave (km/s) = 6.79476 7.30859 7.05635
#
# Compressibility (1/GPa) = 0.01616929
#
# Stress axis : x y z
#
# Youngs Moduli (GPa) = 97.13844 123.16178 81.03674
#
# Poissons Ratio (x) = 0.22152 0.20697
# Poissons Ratio (y) = 0.17472 0.23823
# Poissons Ratio (z) = 0.24809 0.36207
#
# Static dielectric constant tensor:
#      x y z
#    x 3.795700 0.000000 -0.009460 
#    y 0.000000 3.973790 0.000000 
#    z -0.009460 0.000000 4.074470 
# 
# 
# High freq. dielectric constant tensor:
#      x y z
#    x 1.779320 0.000000 0.003540 
#    y 0.000000 1.801450 0.000000 
#    z 0.003540 0.000000 1.802730 
# 
# From -- ./inp_files/46485.got.cif
#   From: 2010.06.25/outbox.cif.g09.slc.cpg/sg13_24_cif.got.tgz:46485.got - 2010.06.28 04:50:58.
