data_PCOD8119369
_publ_section_title
;
Structure prediction by ZEFSAII (Michael W. Deem and Ramdas Pophale) SiO2 
 PCOD8119369
Probable space group: P 2/C
;
_chemical_formula_sum "Si O2"
_cell_formula_units_Z 24
_cell_length_a 24.641594
_cell_length_b 8.342141
_cell_length_c 16.447741
_cell_angle_alpha 90.000000
_cell_angle_beta 159.394480
_cell_angle_gamma 90.000000
_cell_volume 1189.901820
_symmetry_space_group_name_H-M "P 2/C"
_symmetry_group_IT_number 13
_symmetry_cell_setting 'monoclinic'
loop_
_space_group_symop_operation_xyz
x,y,z
-x,y,1/2-z
-x,-y,-z
x,-y,1/2+z
loop_
_atom_site_type_symbol
_atom_site_label
_atom_site_fract_x
_atom_site_fract_y
_atom_site_fract_z
Si Si1 0.598325 0.788527 0.314990
Si Si2 0.106111 0.414024 0.264411
Si Si3 0.163005 0.688815 0.460373
Si Si4 0.803834 0.632619 0.259068
Si Si5 0.344323 0.156675 0.067193
Si Si6 0.603985 0.407633 0.083254
O O1 0.500000 0.711059 0.250000
O O2 0.771842 0.727179 0.555765
O O3 0.616335 0.976342 0.354611
O O4 0.500465 0.737226 0.098773
O O5 0.112348 0.515560 0.355559
O O6 0.140671 0.522228 0.235951
O O7 0.935992 0.338858 0.012235
O O8 0.277136 0.770059 0.555849
O O9 0.249568 0.673434 0.667696
O O10 0.000000 0.782330 0.250000
O O11 0.658494 0.540790 0.094862
O O12 0.768495 0.806946 0.168058
O O13 0.500000 0.240124 0.250000
O O14 0.500000 0.500000 0.000000
#
# Coordination Sequence:
#
# PCOD8119369 Si02
#       6
#     4   4   4   4   4   4
#     4  11  23  40  62  92 128 167 216 264 313 381
#     4  10  20  38  63  89 121 160 214 260 306 380
#     4  11  22  40  63  96 132 164 211 269 321 375
#     4  10  21  37  63  91 116 162 216 257 312 373
#     4  10  24  42  62  91 130 173 210 258 319 389
#     4  12  22  35  66  96 122 165 212 267 321 370
#
# _framework density 20.169732
#
# number of rings (size 3 to 8) (size 9 to 14) (size 15 to 20)
#    0.000    1.333    5.000    1.000    2.333    1.333 
#    0.000    4.167    0.000    0.000    0.000    0.000 
#    0.000    0.000    0.000    0.000    0.000    0.000 
#
# Total GULP energy -297322.565962 kJ/mol
# GULP energy per Si atom -12388.440248 kJ/mol
# Density = 2.012382 g / cm^3
# Si number density = 20.169732 Si / 1000 Ang^3
#
#
#
# Elastic Constant Matrix: (Units=GPa)
#
#
# Indices 1 2 3 4 5 6 
#
# 1 84.3677 47.4325 40.4577 0.0000 6.6962 0.0000
# 2 47.4325 84.3608 63.1820 0.0000 -11.4157 0.0000
# 3 40.4577 63.1820 144.5150 0.0000 -14.8811 0.0000
# 4 0.0000 0.0000 0.0000 28.8221 0.0000 -2.9306
# 5 6.6962 -11.4157 -14.8811 0.0000 44.8321 0.0000
# 6 0.0000 0.0000 0.0000 -2.9306 0.0000 25.0413
#
#
#
# Elastic Compliance Matrix: (Units=1/GPa)
#
#
# Indices 1 2 3 4 5 6 
#
# 1 0.018784 -0.010357 -0.001337 0.000000 -0.005886 0.000000
# 2 -0.010357 0.023510 -0.006837 0.000000 0.005264 0.000000
# 3 -0.001337 -0.006837 0.010483 0.000000 0.001938 0.000000
# 4 0.000000 0.000000 0.000000 0.035113 0.000000 0.004109
# 5 -0.005886 0.005264 0.001938 0.000000 0.025168 0.000000
# 6 0.000000 0.000000 0.000000 0.004109 0.000000 0.040415
#
#
# Mechanical properties :
#
#
# Convention : Reuss Voigt Hill
#
# Bulk Modulus (GPa) = 63.63259 68.37644 66.00452
# Shear Modulus (GPa) = 25.53980 30.55051 28.04516
#
# Velocity S-wave (km/s) = 3.56229 3.89610 3.73293
# Velocity P-wave (km/s) = 6.96685 7.36299 7.16765
#
# Compressibility (1/GPa) = 0.01571522
#
# Stress axis : x y z
#
# Youngs Moduli (GPa) = 53.23744 42.53522 95.39512
#
# Poissons Ratio (x) = 0.44052 0.12753
# Poissons Ratio (y) = 0.55136 0.65223
# Poissons Ratio (z) = 0.07117 0.29082
#
# Static dielectric constant tensor:
#      x y z
#    x 2.540390 0.000000 3.831750 
#    y 0.000000 3.300930 0.000000 
#    z 3.831750 0.000000 -4.225000 
# 
# 
# High freq. dielectric constant tensor:
#      x y z
#    x 1.802560 0.000000 0.007930 
#    y 0.000000 1.747240 0.000000 
#    z 0.007930 0.000000 1.807960 
# 
# From -- ./inp_files/71854.got.cif
#   From: 2010.06.25/outbox.cif.g09.slc.cpg/sg13_36_cif.got.tgz:71854.got - 2010.06.28 04:50:58.
