data_PCOD8119174
_publ_section_title
;
Structure prediction by ZEFSAII (Michael W. Deem and Ramdas Pophale) SiO2 
 PCOD8119174
Probable space group: P 2/C
;
_chemical_formula_sum "Si O2"
_cell_formula_units_Z 24
_cell_length_a 18.310808
_cell_length_b 7.393411
_cell_length_c 16.653770
_cell_angle_alpha 90.000000
_cell_angle_beta 148.075916
_cell_angle_gamma 90.000000
_cell_volume 1192.208965
_symmetry_space_group_name_H-M "P 2/C"
_symmetry_group_IT_number 13
_symmetry_cell_setting 'monoclinic'
loop_
_space_group_symop_operation_xyz
x,y,z
-x,y,1/2-z
-x,-y,-z
x,-y,1/2+z
loop_
_atom_site_type_symbol
_atom_site_label
_atom_site_fract_x
_atom_site_fract_y
_atom_site_fract_z
Si Si1 0.987054 0.084113 0.332588
Si Si2 0.463002 0.063134 0.130335
Si Si3 0.102573 0.476577 0.277296
Si Si4 0.266959 0.887152 0.166082
Si Si5 0.644796 0.688567 0.402576
Si Si6 0.776472 0.803007 0.194948
O O1 0.963773 0.298495 0.324425
O O2 0.000000 0.041569 0.250000
O O3 0.122711 0.016197 0.507090
O O4 0.856801 0.985585 0.248994
O O5 0.500000 0.157607 0.250000
O O6 0.605906 0.028553 0.215464
O O7 0.385657 0.873476 0.076824
O O8 0.366334 0.195527 0.988600
O O9 0.253706 0.437094 0.453613
O O10 0.126419 0.632083 0.234168
O O11 0.000000 0.552965 0.250000
O O12 0.285663 0.730676 0.117814
O O13 0.259110 0.793920 0.245007
O O14 0.500000 0.586158 0.250000
#
# Coordination Sequence:
#
# PCOD8119174 Si02
#       6
#     4   4   4   4   4   4
#     4  11  20  41  61  81 121 160 196 236 294 361
#     4   9  19  38  64  84 114 162 199 233 296 359
#     4  11  22  38  61  84 117 162 196 240 293 355
#     4  10  20  37  63  87 118 159 186 251 302 342
#     4   9  18  39  63  78 114 164 196 230 300 358
#     4  12  23  35  62  94 117 145 205 246 298 345
#
# _framework density 20.130699
#
# number of rings (size 3 to 8) (size 9 to 14) (size 15 to 20)
#    0.000    2.000    5.000    2.500    0.000    1.333 
#    0.000    3.333    0.000    0.000    0.000    0.000 
#    0.000    0.000    0.000    0.000    0.000    0.000 
#
# Total GULP energy -297539.639860 kJ/mol
# GULP energy per Si atom -12397.484994 kJ/mol
# Density = 2.008488 g / cm^3
# Si number density = 20.130699 Si / 1000 Ang^3
#
#
#
# Elastic Constant Matrix: (Units=GPa)
#
#
# Indices 1 2 3 4 5 6 
#
# 1 84.5360 28.0324 28.1274 0.0000 -0.1556 0.0000
# 2 28.0324 51.1294 12.6472 0.0000 2.6691 0.0000
# 3 28.1274 12.6472 117.6461 0.0000 10.2525 0.0000
# 4 0.0000 0.0000 0.0000 14.1382 0.0000 5.3275
# 5 -0.1556 2.6691 10.2525 0.0000 34.2234 0.0000
# 6 0.0000 0.0000 0.0000 5.3275 0.0000 10.8931
#
#
#
# Elastic Compliance Matrix: (Units=1/GPa)
#
#
# Indices 1 2 3 4 5 6 
#
# 1 0.015409 -0.007792 -0.002983 0.000000 0.001571 0.000000
# 2 -0.007792 0.024063 -0.000572 0.000000 -0.001741 0.000000
# 3 -0.002983 -0.000572 0.009521 0.000000 -0.002821 0.000000
# 4 0.000000 0.000000 0.000000 0.086710 0.000000 -0.042408
# 5 0.001571 -0.001741 -0.002821 0.000000 0.030208 0.000000
# 6 0.000000 0.000000 0.000000 -0.042408 0.000000 0.112542
#
#
# Mechanical properties :
#
#
# Convention : Reuss Voigt Hill
#
# Bulk Modulus (GPa) = 38.02703 43.43616 40.73160
# Shear Modulus (GPa) = 16.13358 24.15126 20.14242
#
# Velocity S-wave (km/s) = 2.83405 3.46746 3.16663
# Velocity P-wave (km/s) = 5.44428 6.13636 5.80065
#
# Compressibility (1/GPa) = 0.02629709
#
# Stress axis : x y z
#
# Youngs Moduli (GPa) = 64.89851 41.55802 105.03461
#
# Poissons Ratio (x) = 0.32383 0.31335
# Poissons Ratio (y) = 0.50570 0.06009
# Poissons Ratio (z) = 0.19361 0.02378
#
# Static dielectric constant tensor:
#      x y z
#    x 3.641240 0.000000 0.230240 
#    y 0.000000 3.173430 0.000000 
#    z 0.230240 0.000000 4.008360 
# 
# 
# High freq. dielectric constant tensor:
#      x y z
#    x 1.784840 0.000000 0.017710 
#    y 0.000000 1.743730 0.000000 
#    z 0.017710 0.000000 1.804280 
# 
# From -- ./inp_files/53214.got.cif
#   From: 2010.06.25/outbox.cif.g09.slc.cpg/sg13_27_cif.got.tgz:53214.got - 2010.06.28 04:50:58.
