data_PCOD8119559
_publ_section_title
;
Structure prediction by ZEFSAII (Michael W. Deem and Ramdas Pophale) SiO2 
 PCOD8119559
Probable space group: P 2/C
;
_chemical_formula_sum "Si O2"
_cell_formula_units_Z 16
_cell_length_a 16.325073
_cell_length_b 4.911917
_cell_length_c 13.414333
_cell_angle_alpha 90.000000
_cell_angle_beta 138.459497
_cell_angle_gamma 90.000000
_cell_volume 713.323560
_symmetry_space_group_name_H-M "P 2/C"
_symmetry_group_IT_number 13
_symmetry_cell_setting 'monoclinic'
loop_
_space_group_symop_operation_xyz
x,y,z
-x,y,1/2-z
-x,-y,-z
x,-y,1/2+z
loop_
_atom_site_type_symbol
_atom_site_label
_atom_site_fract_x
_atom_site_fract_y
_atom_site_fract_z
Si Si1 0.644861 0.236016 0.884525
Si Si2 0.804898 0.813195 0.713393
Si Si3 0.966069 0.351375 0.866304
Si Si4 0.236625 0.744027 0.601713
O O1 0.500000 0.191563 0.750000
O O2 0.676880 0.543078 0.882550
O O3 0.713485 0.047171 0.867488
O O4 0.689478 0.145021 0.035314
O O5 0.890344 0.582464 0.737183
O O6 0.755837 0.689109 0.773103
O O7 0.882027 0.085638 0.805676
O O8 0.000000 0.500000 0.000000
O O9 0.095054 0.269777 0.930781
#
# Coordination Sequence:
#
# PCOD8119559 Si02
#       4
#     4   4   4   4
#     4  12  27  42  61  92 125 171 224 250 296 379
#     4  11  23  41  66  95 128 162 203 263 320 371
#     4  10  20  39  67  98 124 155 203 257 326 387
#     4  11  23  42  65  90 127 163 202 267 319 363
#
# _framework density 22.430212000000001
#
# number of rings (size 3 to 8) (size 9 to 14) (size 15 to 20)
#    0.000    1.000    0.000    9.750    0.000    8.000 
#    0.000    0.000    0.000    0.000    0.000    0.000 
#    0.000    0.000    0.000    0.000    0.000    0.000 
#
# Total GULP energy -198394.186858 kJ/mol
# GULP energy per Si atom -12399.636679 kJ/mol
# Density = 2.237916 g / cm^3
# Si number density = 22.430212 Si / 1000 Ang^3
#
#
#
# Elastic Constant Matrix: (Units=GPa)
#
#
# Indices 1 2 3 4 5 6 
#
# 1 66.2144 22.0498 56.6841 0.0000 0.2485 0.0000
# 2 22.0498 114.2531 34.9317 0.0000 6.6058 0.0000
# 3 56.6841 34.9317 163.1894 0.0000 16.8845 0.0000
# 4 0.0000 0.0000 0.0000 17.8694 0.0000 8.6873
# 5 0.2485 6.6058 16.8845 0.0000 30.0155 0.0000
# 6 0.0000 0.0000 0.0000 8.6873 0.0000 40.6056
#
#
#
# Elastic Compliance Matrix: (Units=1/GPa)
#
#
# Indices 1 2 3 4 5 6 
#
# 1 0.022537 -0.002225 -0.007840 0.000000 0.004713 0.000000
# 2 -0.002225 0.009613 -0.001134 0.000000 -0.001459 0.000000
# 3 -0.007840 -0.001134 0.009621 0.000000 -0.005098 0.000000
# 4 0.000000 0.000000 0.000000 0.062458 0.000000 -0.013362
# 5 0.004713 -0.001459 -0.005098 0.000000 0.036466 0.000000
# 6 0.000000 0.000000 0.000000 -0.013362 0.000000 0.027486
#
#
# Mechanical properties :
#
#
# Convention : Reuss Voigt Hill
#
# Bulk Modulus (GPa) = 51.61556 63.44313 57.52934
# Shear Modulus (GPa) = 25.37612 33.03084 29.20348
#
# Velocity S-wave (km/s) = 3.36718 3.84162 3.61220
# Velocity P-wave (km/s) = 6.17890 6.92989 6.56514
#
# Compressibility (1/GPa) = 0.01937400
#
# Stress axis : x y z
#
# Youngs Moduli (GPa) = 44.37158 104.02636 103.93826
#
# Poissons Ratio (x) = 0.23146 0.81484
# Poissons Ratio (y) = 0.09873 0.11785
# Poissons Ratio (z) = 0.34786 0.11795
#
# Static dielectric constant tensor:
#      x y z
#    x 3.762550 0.000000 0.136980 
#    y 0.000000 4.305700 0.000000 
#    z 0.136980 0.000000 4.222660 
# 
# 
# High freq. dielectric constant tensor:
#      x y z
#    x 1.871490 0.000000 -0.003440 
#    y 0.000000 1.903030 0.000000 
#    z -0.003440 0.000000 1.883420 
# 
# From -- ./inp_files/52409.got.cif
#   From: 2010.06.25/outbox.cif.g09.slc.cpg/sg13_27_cif.got.tgz:52409.got - 2010.06.28 04:50:58.
