data_PCOD8119546
_publ_section_title
;
Structure prediction by ZEFSAII (Michael W. Deem and Ramdas Pophale) SiO2 
 PCOD8119546
Probable space group: P 2/C
;
_chemical_formula_sum "Si O2"
_cell_formula_units_Z 28
_cell_length_a 8.805702
_cell_length_b 11.758468
_cell_length_c 15.887258
_cell_angle_alpha 90.000000
_cell_angle_beta 118.182377
_cell_angle_gamma 90.000000
_cell_volume 1449.975766
_symmetry_space_group_name_H-M "P 2/C"
_symmetry_group_IT_number 13
_symmetry_cell_setting 'monoclinic'
loop_
_space_group_symop_operation_xyz
x,y,z
-x,y,1/2-z
-x,-y,-z
x,-y,1/2+z
loop_
_atom_site_type_symbol
_atom_site_label
_atom_site_fract_x
_atom_site_fract_y
_atom_site_fract_z
Si Si1 0.660946 0.944253 0.584178
Si Si2 0.963714 0.273827 0.335313
Si Si3 0.338731 0.316935 0.453849
Si Si4 0.422036 0.675002 0.322001
Si Si5 0.022087 0.027850 0.100752
Si Si6 0.353437 0.429075 0.282965
Si Si7 0.669426 0.912129 0.239174
O O1 0.641441 0.812602 0.565757
O O2 0.841211 0.993314 0.598613
O O3 0.500000 0.000000 0.500000
O O4 0.650867 0.975294 0.678746
O O5 0.914918 0.158911 0.372695
O O6 0.810434 0.364328 0.297729
O O7 0.000000 0.232192 0.250000
O O8 0.134073 0.337746 0.416225
O O9 0.439024 0.344773 0.566450
O O10 0.410238 0.384263 0.390628
O O11 0.500000 0.689965 0.250000
O O12 0.304887 0.561709 0.286336
O O13 0.316154 0.792537 0.309848
O O14 0.156779 0.931477 0.164055
O O15 0.000000 0.000000 0.000000
O O16 0.500000 0.416550 0.250000
O O17 0.500000 0.907254 0.250000
#
# Coordination Sequence:
#
# PCOD8119546 Si02
#       7
#     4   4   4   4   4   4   4
#     4  11  21  38  60  89 120 154 198 241 300 361
#     4   9  20  39  61  84 115 157 195 241 300 361
#     4  10  20  39  66  83 118 160 200 239 303 363
#     4  10  22  38  61  85 121 162 200 243 304 359
#     4  11  23  36  59  90 121 155 197 243 297 366
#     4  10  21  39  62  90 116 150 206 257 292 352
#     4  11  22  38  60  86 124 163 192 245 305 359
#
# _framework density 19.310669000000001
#
# number of rings (size 3 to 8) (size 9 to 14) (size 15 to 20)
#    0.000    1.714    1.429    4.286    6.000    3.429 
#    0.000    7.143    0.000    0.000    0.000    0.000 
#    0.000    0.000    0.000    0.000    0.000    0.000 
#
# Total GULP energy -346928.713576 kJ/mol
# GULP energy per Si atom -12390.311199 kJ/mol
# Density = 1.926672 g / cm^3
# Si number density = 19.310669 Si / 1000 Ang^3
#
#
#
# Elastic Constant Matrix: (Units=GPa)
#
#
# Indices 1 2 3 4 5 6 
#
# 1 86.0152 70.2596 39.9527 0.0000 12.9347 0.0000
# 2 70.2596 115.2015 51.5183 0.0000 10.0350 0.0000
# 3 39.9527 51.5183 134.9694 0.0000 9.2267 0.0000
# 4 0.0000 0.0000 0.0000 19.7732 0.0000 16.5194
# 5 12.9347 10.0350 9.2267 0.0000 36.8657 0.0000
# 6 0.0000 0.0000 0.0000 16.5194 0.0000 6.3286
#
#
#
# Elastic Compliance Matrix: (Units=1/GPa)
#
#
# Indices 1 2 3 4 5 6 
#
# 1 0.024183 -0.013627 -0.001659 0.000000 -0.004360 0.000000
# 2 -0.013627 0.018276 -0.002980 0.000000 0.000552 0.000000
# 3 -0.001659 -0.002980 0.009098 0.000000 -0.000884 0.000000
# 4 0.000000 0.000000 0.000000 -0.042832 0.000000 0.111804
# 5 -0.004360 0.000552 -0.000884 0.000000 0.028726 0.000000
# 6 0.000000 0.000000 0.000000 0.111804 0.000000 -0.133826
#
#
# Mechanical properties :
#
#
# Convention : Reuss Voigt Hill
#
# Bulk Modulus (GPa) = 66.55547 73.29414 69.92480
# Shear Modulus (GPa) = -91.18336 24.22387 -33.47974
#
# Velocity S-wave (km/s) = -6.87907 3.54563 -4.16834
# Velocity P-wave (km/s) = 5.34370 7.40268 3.62247
#
# Compressibility (1/GPa) = 0.01502506
#
# Stress axis : x y z
#
# Youngs Moduli (GPa) = 41.35099 54.71647 109.91416
#
# Poissons Ratio (x) = 0.74564 0.18233
# Poissons Ratio (y) = 0.56350 0.32754
# Poissons Ratio (z) = 0.06860 0.16305
#
# Static dielectric constant tensor:
#      x y z
#    x 3.459870 0.000000 0.173010 
#    y 0.000000 3.832000 0.000000 
#    z 0.173010 0.000000 3.509780 
# 
# 
# High freq. dielectric constant tensor:
#      x y z
#    x 1.732810 0.000000 0.005640 
#    y 0.000000 1.761630 0.000000 
#    z 0.005640 0.000000 1.766540 
# 
# From -- ./inp_files/46971.got.cif
#   From: 2010.06.25/outbox.cif.g09.slc.cpg/sg13_24_cif.got.tgz:46971.got - 2010.06.28 04:50:58.
