data_PCOD8119668
_publ_section_title
;
Structure prediction by ZEFSAII (Michael W. Deem and Ramdas Pophale) SiO2 
 PCOD8119668
Probable space group: P 2/C
;
_chemical_formula_sum "Si O2"
_cell_formula_units_Z 18
_cell_length_a 6.089013
_cell_length_b 11.401251
_cell_length_c 11.055777
_cell_angle_alpha 90.000000
_cell_angle_beta 95.590186
_cell_angle_gamma 90.000000
_cell_volume 763.867953
_symmetry_space_group_name_H-M "P 2/C"
_symmetry_group_IT_number 13
_symmetry_cell_setting 'monoclinic'
loop_
_space_group_symop_operation_xyz
x,y,z
-x,y,1/2-z
-x,-y,-z
x,-y,1/2+z
loop_
_atom_site_type_symbol
_atom_site_label
_atom_site_fract_x
_atom_site_fract_y
_atom_site_fract_z
Si Si1 0.161729 0.602336 0.046403
Si Si2 0.795961 0.777580 0.084700
Si Si3 0.370165 0.010370 0.367028
Si Si4 0.500000 0.632912 0.250000
Si Si5 0.560431 0.734732 0.624061
O O1 0.329844 0.556050 0.159571
O O2 0.034096 0.716122 0.091133
O O3 0.300318 0.635959 0.936092
O O4 0.000000 0.500000 0.000000
O O5 0.637534 0.715091 0.170265
O O6 0.826456 0.913678 0.128759
O O7 0.672932 0.767238 0.949712
O O8 0.500000 0.979230 0.250000
O O9 0.291377 0.145905 0.354069
O O10 0.500000 0.000000 0.500000
O O11 0.500000 0.680519 0.750000
#
# Coordination Sequence:
#
# PCOD8119668 Si02
#       5
#     4   4   4   2   4
#     4  11  25  45  67 102 131 181 240 278 340 411
#     4  10  20  40  67  99 131 172 230 274 342 407
#     4   9  17  35  67 100 140 179 220 284 348 413
#     4  10  22  44  68  96 132 172 226 294 334 402
#     4   9  21  41  65  99 143 177 217 281 346 408
#
# _framework density 23.56428
#
# number of rings (size 3 to 8) (size 9 to 14) (size 15 to 20)
#    0.000    2.222    1.111    0.667    0.000    5.333 
#   12.000    0.000    4.889    0.000    0.000    1.556 
#    0.000    0.000    0.000    0.000    0.000    0.000 
#
# Total GULP energy -223033.442378 kJ/mol
# GULP energy per Si atom -12390.746799 kJ/mol
# Density = 2.351065 g / cm^3
# Si number density = 23.564280 Si / 1000 Ang^3
#
#
#
# Elastic Constant Matrix: (Units=GPa)
#
#
# Indices 1 2 3 4 5 6 
#
# 1 92.4101 43.0131 62.7122 0.0000 13.4256 0.0000
# 2 43.0131 98.2582 48.3103 0.0000 18.5706 0.0000
# 3 62.7122 48.3103 182.0193 0.0000 -2.9174 0.0000
# 4 0.0000 0.0000 0.0000 17.7210 0.0000 -1.8955
# 5 13.4256 18.5706 -2.9174 0.0000 31.4382 0.0000
# 6 0.0000 0.0000 0.0000 -1.8955 0.0000 37.7735
#
#
#
# Elastic Compliance Matrix: (Units=1/GPa)
#
#
# Indices 1 2 3 4 5 6 
#
# 1 0.016662 -0.003961 -0.004773 0.000000 -0.005219 0.000000
# 2 -0.003961 0.014544 -0.002610 0.000000 -0.007142 0.000000
# 3 -0.004773 -0.002610 0.007900 0.000000 0.004313 0.000000
# 4 0.000000 0.000000 0.000000 0.056735 0.000000 0.002847
# 5 -0.005219 -0.007142 0.004313 0.000000 0.038656 0.000000
# 6 0.000000 0.000000 0.000000 0.002847 0.000000 0.026616
#
#
# Mechanical properties :
#
#
# Convention : Reuss Voigt Hill
#
# Bulk Modulus (GPa) = 60.90592 75.63986 68.27289
# Shear Modulus (GPa) = 26.41652 31.96334 29.18993
#
# Velocity S-wave (km/s) = 3.35183 3.68697 3.52339
# Velocity P-wave (km/s) = 6.39394 7.09183 6.75191
#
# Compressibility (1/GPa) = 0.01641877
#
# Stress axis : x y z
#
# Youngs Moduli (GPa) = 60.01540 68.75558 126.57716
#
# Poissons Ratio (x) = 0.27233 0.60417
# Poissons Ratio (y) = 0.23772 0.33037
# Poissons Ratio (z) = 0.28646 0.17945
#
# Static dielectric constant tensor:
#      x y z
#    x 3.923110 0.000000 0.635500 
#    y 0.000000 4.394170 0.000000 
#    z 0.635500 0.000000 2.752310 
# 
# 
# High freq. dielectric constant tensor:
#      x y z
#    x 1.897630 0.000000 -0.010380 
#    y 0.000000 1.934860 0.000000 
#    z -0.010380 0.000000 1.959480 
# 
# From -- ./inp_files/25711.got.cif
#   From: 2010.06.25/outbox.cif.g09.slc.cpg/sg13_13_cif.got.tgz:25711.got - 2010.06.28 04:50:58.
