data_PCOD8119621
_publ_section_title
;
Structure prediction by ZEFSAII (Michael W. Deem and Ramdas Pophale) SiO2 
 PCOD8119621
Probable space group: P 2/C
;
_chemical_formula_sum "Si O2"
_cell_formula_units_Z 30
_cell_length_a 14.648291
_cell_length_b 8.359929
_cell_length_c 22.591074
_cell_angle_alpha 90.000000
_cell_angle_beta 32.656360
_cell_angle_gamma 90.000000
_cell_volume 1492.786632
_symmetry_space_group_name_H-M "P 2/C"
_symmetry_group_IT_number 13
_symmetry_cell_setting 'monoclinic'
loop_
_space_group_symop_operation_xyz
x,y,z
-x,y,1/2-z
-x,-y,-z
x,-y,1/2+z
loop_
_atom_site_type_symbol
_atom_site_label
_atom_site_fract_x
_atom_site_fract_y
_atom_site_fract_z
Si Si1 0.931166 0.322700 0.052358
Si Si2 0.211802 0.818136 0.478488
Si Si3 0.776548 0.191354 0.027719
Si Si4 0.165259 0.313846 0.629456
Si Si5 0.564229 0.629603 0.796729
Si Si6 0.523313 0.332556 0.457080
Si Si7 0.177456 0.692327 0.628611
Si Si8 0.500000 0.344851 0.750000
O O1 0.922236 0.224942 0.996273
O O2 0.742490 0.305758 0.179030
O O3 0.036378 0.230119 0.044313
O O4 0.000000 0.500000 0.000000
O O5 0.220893 0.735995 0.537548
O O6 0.350260 0.765415 0.355099
O O7 0.236975 0.004262 0.476096
O O8 0.591998 0.265947 0.144340
O O9 0.850499 0.280556 0.930748
O O10 0.341873 0.238707 0.558642
O O11 0.169685 0.502397 0.638087
O O12 0.000000 0.235978 0.750000
O O13 0.567823 0.631893 0.865126
O O14 0.552222 0.449966 0.778196
O O15 0.500000 0.500000 0.500000
O O16 0.673016 0.239157 0.409988
O O17 0.000000 0.765065 0.750000
#
# Coordination Sequence:
#
# PCOD8119621 Si02
#       8
#     4   4   4   4   4   4   4   2
#     4  12  22  41  65  92 119 165 221 260 306 378
#     4  12  26  40  60  97 131 171 205 264 332 383
#     4  11  24  42  61  91 137 165 206 263 335 382
#     4   9  19  38  62  89 118 164 217 266 310 372
#     4  11  21  41  67  91 120 170 211 268 312 372
#     4   9  18  33  60  90 117 151 209 264 309 361
#     4  10  20  40  63  88 123 162 219 267 308 376
#     4  12  22  40  64  90 128 166 218 258 312 388
#
# _framework density 20.096644000000001
#
# number of rings (size 3 to 8) (size 9 to 14) (size 15 to 20)
#    0.000    1.333    2.667    4.400    1.867    2.667 
#    2.400    2.667    0.000    0.000    0.000    0.000 
#    0.000    0.000    0.000    0.000    0.000    0.000 
#
# Total GULP energy -371795.119252 kJ/mol
# GULP energy per Si atom -12393.170642 kJ/mol
# Density = 2.005090 g / cm^3
# Si number density = 20.096644 Si / 1000 Ang^3
#
#
#
# Elastic Constant Matrix: (Units=GPa)
#
#
# Indices 1 2 3 4 5 6 
#
# 1 162.9246 4.2885 55.4661 0.0000 -7.9156 0.0000
# 2 4.2885 26.5489 12.3131 0.0000 -6.7462 0.0000
# 3 55.4661 12.3131 135.6094 0.0000 -5.0968 0.0000
# 4 0.0000 0.0000 0.0000 7.4402 0.0000 -3.7228
# 5 -7.9156 -6.7462 -5.0968 0.0000 22.2715 0.0000
# 6 0.0000 0.0000 0.0000 -3.7228 0.0000 13.6859
#
#
#
# Elastic Compliance Matrix: (Units=1/GPa)
#
#
# Indices 1 2 3 4 5 6 
#
# 1 0.007223 0.000735 -0.002941 0.000000 0.002117 0.000000
# 2 0.000735 0.042371 -0.003688 0.000000 0.012252 0.000000
# 3 -0.002941 -0.003688 0.008907 0.000000 -0.000124 0.000000
# 4 0.000000 0.000000 0.000000 0.155580 0.000000 0.042320
# 5 0.002117 0.012252 -0.000124 0.000000 0.049336 0.000000
# 6 0.000000 0.000000 0.000000 0.042320 0.000000 0.084579
#
#
# Mechanical properties :
#
#
# Convention : Reuss Voigt Hill
#
# Bulk Modulus (GPa) = 21.40687 52.13538 36.77113
# Shear Modulus (GPa) = 13.32073 25.54719 19.43396
#
# Velocity S-wave (km/s) = 2.57735 3.56928 3.11308
# Velocity P-wave (km/s) = 4.41951 6.55630 5.59093
#
# Compressibility (1/GPa) = 0.04671398
#
# Stress axis : x y z
#
# Youngs Moduli (GPa) = 138.45320 23.60101 112.26686
#
# Poissons Ratio (x) = -0.01735 0.33022
# Poissons Ratio (y) = -0.10181 0.41398
# Poissons Ratio (z) = 0.40724 0.08703
#
# Static dielectric constant tensor:
#      x y z
#    x 4.519360 0.000000 -0.130340 
#    y 0.000000 3.294170 0.000000 
#    z -0.130340 0.000000 4.300990 
# 
# 
# High freq. dielectric constant tensor:
#      x y z
#    x 1.804270 0.000000 -0.001020 
#    y 0.000000 1.748180 0.000000 
#    z -0.001020 0.000000 1.803520 
# 
# From -- ./inp_files/87276.got.cif
#   From: 2010.06.25/outbox.cif.g09.slc.cpg/sg13_44_cif.got.tgz:87276.got - 2010.06.28 04:50:58.
