data_PCOD8119669
_publ_section_title
;
Structure prediction by ZEFSAII (Michael W. Deem and Ramdas Pophale) SiO2 
 PCOD8119669
Probable space group: P 2/C
;
_chemical_formula_sum "Si O2"
_cell_formula_units_Z 30
_cell_length_a 25.608920
_cell_length_b 9.258410
_cell_length_c 9.307709
_cell_angle_alpha 90.000000
_cell_angle_beta 137.396824
_cell_angle_gamma 90.000000
_cell_volume 1493.845710
_symmetry_space_group_name_H-M "P 2/C"
_symmetry_group_IT_number 13
_symmetry_cell_setting 'monoclinic'
loop_
_space_group_symop_operation_xyz
x,y,z
-x,y,1/2-z
-x,-y,-z
x,-y,1/2+z
loop_
_atom_site_type_symbol
_atom_site_label
_atom_site_fract_x
_atom_site_fract_y
_atom_site_fract_z
Si Si1 0.078334 0.128792 0.973056
Si Si2 0.732576 0.247590 0.849479
Si Si3 0.161164 0.004238 0.882827
Si Si4 0.711734 0.808351 0.986853
Si Si5 0.804576 0.453781 0.587239
Si Si6 0.395972 0.064592 0.787500
Si Si7 0.500000 0.989677 0.250000
Si Si8 0.086256 0.451422 0.951220
O O1 0.074574 0.297887 0.007018
O O2 0.000000 0.069055 0.750000
O O3 0.143282 0.105871 0.981970
O O4 0.088386 0.036461 0.137496
O O5 0.696653 0.248692 0.617400
O O6 0.758196 0.400927 0.961368
O O7 0.671019 0.182691 0.837195
O O8 0.806481 0.145629 0.991499
O O9 0.219008 0.078853 0.888171
O O10 0.737445 0.667956 0.946992
O O11 0.635887 0.897138 0.779355
O O12 0.873295 0.422587 0.617452
O O13 0.852691 0.452369 0.834806
O O14 0.440703 0.102320 0.729199
O O15 0.451581 0.084948 0.037880
O O16 0.000000 0.520589 0.750000
#
# Coordination Sequence:
#
# PCOD8119669 Si02
#       8
#     4   4   4   4   4   4   2   4
#     4  11  22  36  53  79 112 150 199 255 315 361
#     4  11  22  38  61  90 121 151 203 245 296 343
#     4  11  21  37  57  81 111 148 198 258 303 351
#     4  11  22  38  61  90 121 151 203 245 296 343
#     4  12  23  40  62  83 120 166 202 260 302 349
#     4  10  22  39  69  98 122 160 186 244 278 364
#     4  10  20  40  68 100 128 152 192 220 300 350
#     4  11  24  39  55  83 118 162 213 257 313 365
#
# _framework density 20.082394000000001
#
# number of rings (size 3 to 8) (size 9 to 14) (size 15 to 20)
#    0.000    1.067    6.667    0.800    0.000    1.067 
#    0.000    1.333    0.000    4.800    0.000    0.000 
#    0.000    0.000    0.000    0.000    0.000    0.000 
#
# Total GULP energy -371747.523377 kJ/mol
# GULP energy per Si atom -12391.584113 kJ/mol
# Density = 2.003669 g / cm^3
# Si number density = 20.082394 Si / 1000 Ang^3
#
#
#
# Elastic Constant Matrix: (Units=GPa)
#
#
# Indices 1 2 3 4 5 6 
#
# 1 108.5544 22.0616 18.5245 0.0000 0.6567 0.0000
# 2 22.0616 88.7172 26.4245 0.0000 12.6635 0.0000
# 3 18.5245 26.4245 89.7325 0.0000 1.2090 0.0000
# 4 0.0000 0.0000 0.0000 15.9627 0.0000 -4.1675
# 5 0.6567 12.6635 1.2090 0.0000 30.4338 0.0000
# 6 0.0000 0.0000 0.0000 -4.1675 0.0000 18.4649
#
#
#
# Elastic Compliance Matrix: (Units=1/GPa)
#
#
# Indices 1 2 3 4 5 6 
#
# 1 0.009885 -0.002140 -0.001420 0.000000 0.000733 0.000000
# 2 -0.002140 0.013629 -0.003498 0.000000 -0.005486 0.000000
# 3 -0.001420 -0.003498 0.012454 0.000000 0.000991 0.000000
# 4 0.000000 0.000000 0.000000 0.066569 0.000000 0.015025
# 5 0.000733 -0.005486 0.000991 0.000000 0.035086 0.000000
# 6 0.000000 0.000000 0.000000 0.015025 0.000000 0.057548
#
#
# Mechanical properties :
#
#
# Convention : Reuss Voigt Hill
#
# Bulk Modulus (GPa) = 45.76265 46.78058 46.27161
# Shear Modulus (GPa) = 23.08727 27.63850 25.36289
#
# Velocity S-wave (km/s) = 3.39429 3.71382 3.55764
# Velocity P-wave (km/s) = 6.18050 6.46025 6.32192
#
# Compressibility (1/GPa) = 0.02185188
#
# Stress axis : x y z
#
# Youngs Moduli (GPa) = 101.16568 73.37456 80.29462
#
# Poissons Ratio (x) = 0.15700 0.11405
# Poissons Ratio (y) = 0.21646 0.28085
# Poissons Ratio (z) = 0.14370 0.25665
#
# Static dielectric constant tensor:
#      x y z
#    x 3.851970 0.000000 0.031540 
#    y 0.000000 3.434730 0.000000 
#    z 0.031540 0.000000 3.673930 
# 
# 
# High freq. dielectric constant tensor:
#      x y z
#    x 1.792570 0.000000 -0.007130 
#    y 0.000000 1.757350 0.000000 
#    z -0.007130 0.000000 1.781880 
# 
# From -- ./inp_files/24634.got.cif
#   From: 2010.06.25/outbox.cif.g09.slc.cpg/sg13_13_cif.got.tgz:24634.got - 2010.06.28 04:50:58.
