data_PCOD8119921
_publ_section_title
;
Structure prediction by ZEFSAII (Michael W. Deem and Ramdas Pophale) SiO2 
 PCOD8119921
Probable space group: P 2/C
;
_chemical_formula_sum "Si O2"
_cell_formula_units_Z 28
_cell_length_a 5.143890
_cell_length_b 14.671882
_cell_length_c 18.948013
_cell_angle_alpha 90.000000
_cell_angle_beta 64.034340
_cell_angle_gamma 90.000000
_cell_volume 1285.666169
_symmetry_space_group_name_H-M "P 2/C"
_symmetry_group_IT_number 13
_symmetry_cell_setting 'monoclinic'
loop_
_space_group_symop_operation_xyz
x,y,z
-x,y,1/2-z
-x,-y,-z
x,-y,1/2+z
loop_
_atom_site_type_symbol
_atom_site_label
_atom_site_fract_x
_atom_site_fract_y
_atom_site_fract_z
Si Si1 0.236006 0.196244 0.604815
Si Si2 0.839049 0.995320 0.445379
Si Si3 0.137164 0.400817 0.988573
Si Si4 0.542455 0.694165 0.542961
Si Si5 0.363044 0.708021 0.338941
Si Si6 0.820000 0.091639 0.209150
Si Si7 0.293847 0.291069 0.221434
O O1 0.116823 0.094748 0.607414
O O2 0.442365 0.222855 0.514126
O O3 0.434098 0.211986 0.651093
O O4 0.956255 0.259166 0.642556
O O5 0.500000 0.000000 0.500000
O O6 0.000000 0.000000 0.500000
O O7 0.994891 0.076793 0.384051
O O8 0.335896 0.376851 0.896749
O O9 0.340327 0.386601 0.033955
O O10 0.000000 0.500000 0.000000
O O11 0.865938 0.334192 0.023761
O O12 0.417495 0.732705 0.630489
O O13 0.500000 0.671941 0.250000
O O14 0.500000 0.046550 0.250000
O O15 0.789583 0.199663 0.225200
O O16 0.000000 0.044162 0.250000
O O17 0.500000 0.347758 0.250000
O O18 0.000000 0.349851 0.250000
#
# Coordination Sequence:
#
# PCOD8119921 Si02
#       7
#     4   4   4   4   4   4   4
#     4  10  23  38  61  90 121 163 218 267 308 386
#     4  12  26  40  62  92 127 169 224 274 334 380
#     4  10  21  40  65  97 128 163 204 258 319 388
#     4  10  21  38  62  88 125 168 210 248 317 389
#     4  10  21  41  65  92 121 169 211 261 323 370
#     4  10  23  40  58  85 119 168 211 267 337 371
#     4  10  21  35  59  84 119 165 208 260 308 382
#
# _framework density 21.778592
#
# number of rings (size 3 to 8) (size 9 to 14) (size 15 to 20)
#    0.000    1.714    0.000    3.429    8.000    1.714 
#    0.000    2.143    0.000    1.714    0.000    0.000 
#    0.000    0.000    0.000    0.000    0.000    0.000 
#
# Total GULP energy -346939.085466 kJ/mol
# GULP energy per Si atom -12390.681624 kJ/mol
# Density = 2.172902 g / cm^3
# Si number density = 21.778592 Si / 1000 Ang^3
#
#
#
# Elastic Constant Matrix: (Units=GPa)
#
#
# Indices 1 2 3 4 5 6 
#
# 1 178.2650 -1.8134 53.1904 0.0000 2.0679 0.0000
# 2 -1.8134 55.5289 17.3876 0.0000 2.2870 0.0000
# 3 53.1904 17.3876 149.6791 0.0000 0.9653 0.0000
# 4 0.0000 0.0000 0.0000 20.3655 0.0000 -1.5287
# 5 2.0679 2.2870 0.9653 0.0000 38.7757 0.0000
# 6 0.0000 0.0000 0.0000 -1.5287 0.0000 20.0448
#
#
#
# Elastic Compliance Matrix: (Units=1/GPa)
#
#
# Indices 1 2 3 4 5 6 
#
# 1 0.006327 0.000959 -0.002357 0.000000 -0.000335 0.000000
# 2 0.000959 0.018876 -0.002526 0.000000 -0.001102 0.000000
# 3 -0.002357 -0.002526 0.007812 0.000000 0.000080 0.000000
# 4 0.000000 0.000000 0.000000 0.049385 0.000000 0.003766
# 5 -0.000335 -0.001102 0.000080 0.000000 0.025870 0.000000
# 6 0.000000 0.000000 0.000000 0.003766 0.000000 0.050175
#
#
# Mechanical properties :
#
#
# Convention : Reuss Voigt Hill
#
# Bulk Modulus (GPa) = 39.73882 57.88915 48.81398
# Shear Modulus (GPa) = 28.62306 36.81776 32.72041
#
# Velocity S-wave (km/s) = 3.62923 4.11609 3.88030
# Velocity P-wave (km/s) = 5.98732 7.01627 6.52212
#
# Compressibility (1/GPa) = 0.02516431
#
# Stress axis : x y z
#
# Youngs Moduli (GPa) = 158.06072 52.97630 128.01361
#
# Poissons Ratio (x) = -0.05078 0.30179
# Poissons Ratio (y) = -0.15152 0.32341
# Poissons Ratio (z) = 0.37262 0.13384
#
# Static dielectric constant tensor:
#      x y z
#    x 1.910280 0.000000 -0.811330 
#    y 0.000000 3.433970 0.000000 
#    z -0.811330 0.000000 3.871900 
# 
# 
# High freq. dielectric constant tensor:
#      x y z
#    x 1.894370 0.000000 -0.002490 
#    y 0.000000 1.800740 0.000000 
#    z -0.002490 0.000000 1.863310 
# 
# From -- ./inp_files/61520.got.cif
#   From: 2010.06.25/outbox.cif.g09.slc.cpg/sg13_31_cif.got.tgz:61520.got - 2010.06.28 04:50:58.
