data_PCOD8119615
_publ_section_title
;
Structure prediction by ZEFSAII (Michael W. Deem and Ramdas Pophale) SiO2 
 PCOD8119615
Probable space group: P 2/C
;
_chemical_formula_sum "Si O2"
_cell_formula_units_Z 24
_cell_length_a 7.888857
_cell_length_b 11.344338
_cell_length_c 23.245203
_cell_angle_alpha 90.000000
_cell_angle_beta 145.749054
_cell_angle_gamma 90.000000
_cell_volume 1170.833142
_symmetry_space_group_name_H-M "P 2/C"
_symmetry_group_IT_number 13
_symmetry_cell_setting 'monoclinic'
loop_
_space_group_symop_operation_xyz
x,y,z
-x,y,1/2-z
-x,-y,-z
x,-y,1/2+z
loop_
_atom_site_type_symbol
_atom_site_label
_atom_site_fract_x
_atom_site_fract_y
_atom_site_fract_z
Si Si1 0.180738 0.275963 0.434337
Si Si2 0.313382 0.218194 0.644492
Si Si3 0.271730 0.659912 0.784424
Si Si4 0.682015 0.440829 0.921126
Si Si5 0.752572 0.059626 0.970929
Si Si6 0.386987 0.813841 0.542172
O O1 0.308093 0.373225 0.514680
O O2 0.107460 0.149012 0.442546
O O3 0.440737 0.255169 0.459996
O O4 0.865537 0.325547 0.318586
O O5 0.500000 0.172560 0.750000
O O6 0.382066 0.352924 0.649115
O O7 0.436749 0.140822 0.625633
O O8 0.965738 0.205505 0.563460
O O9 0.411414 0.533486 0.839437
O O10 0.517728 0.761051 0.868538
O O11 0.000000 0.685665 0.750000
O O12 0.000000 0.500000 0.000000
O O13 0.550542 0.955558 0.942465
O O14 0.000000 0.000000 0.000000
#
# Coordination Sequence:
#
# PCOD8119615 Si02
#       6
#     4   4   4   4   4   4
#     4  10  23  40  64  90 123 167 202 252 319 362
#     4  10  22  38  59  89 121 163 206 252 309 361
#     4  10  23  39  63  94 122 163 208 250 308 372
#     4  11  23  40  58  89 126 161 209 254 302 368
#     4   9  20  40  61  90 125 156 206 259 305 368
#     4  10  20  40  62  89 126 157 207 256 302 376
#
# _framework density 20.498225999999999
#
# number of rings (size 3 to 8) (size 9 to 14) (size 15 to 20)
#    0.000    2.000    1.667    0.500    2.333    6.667 
#    0.000    4.167    0.000    0.000    0.000    0.000 
#    0.000    0.000    0.000    0.000    0.000    0.000 
#
# Total GULP energy -297363.493938 kJ/mol
# GULP energy per Si atom -12390.145581 kJ/mol
# Density = 2.045157 g / cm^3
# Si number density = 20.498226 Si / 1000 Ang^3
#
#
#
# Elastic Constant Matrix: (Units=GPa)
#
#
# Indices 1 2 3 4 5 6 
#
# 1 61.4082 28.7445 38.0668 0.0000 -9.6572 0.0000
# 2 28.7445 152.9498 65.0110 0.0000 -13.9400 0.0000
# 3 38.0668 65.0110 152.6540 0.0000 -16.2138 0.0000
# 4 0.0000 0.0000 0.0000 15.1582 0.0000 -2.5787
# 5 -9.6572 -13.9400 -16.2138 0.0000 31.4346 0.0000
# 6 0.0000 0.0000 0.0000 -2.5787 0.0000 37.0748
#
#
#
# Elastic Compliance Matrix: (Units=1/GPa)
#
#
# Indices 1 2 3 4 5 6 
#
# 1 0.020064 -0.001819 -0.003872 0.000000 0.003360 0.000000
# 2 -0.001819 0.008256 -0.002891 0.000000 0.001611 0.000000
# 3 -0.003872 -0.002891 0.008977 0.000000 0.002159 0.000000
# 4 0.000000 0.000000 0.000000 0.066761 0.000000 0.004643
# 5 0.003360 0.001611 0.002159 0.000000 0.034672 0.000000
# 6 0.000000 0.000000 0.000000 0.004643 0.000000 0.027295
#
#
# Mechanical properties :
#
#
# Convention : Reuss Voigt Hill
#
# Bulk Modulus (GPa) = 49.66925 70.07295 59.87110
# Shear Modulus (GPa) = 26.32957 32.41281 29.37119
#
# Velocity S-wave (km/s) = 3.58785 3.98081 3.78943
# Velocity P-wave (km/s) = 6.43795 7.44232 6.95828
#
# Compressibility (1/GPa) = 0.02013318
#
# Stress axis : x y z
#
# Youngs Moduli (GPa) = 49.83927 121.12953 111.39785
#
# Poissons Ratio (x) = 0.22031 0.43132
# Poissons Ratio (y) = 0.09065 0.32207
# Poissons Ratio (z) = 0.19297 0.35021
#
# Static dielectric constant tensor:
#      x y z
#    x 3.663630 0.000000 -0.244920 
#    y 0.000000 5.200860 0.000000 
#    z -0.244920 0.000000 3.974650 
# 
# 
# High freq. dielectric constant tensor:
#      x y z
#    x 1.793270 0.000000 -0.014180 
#    y 0.000000 1.821280 0.000000 
#    z -0.014180 0.000000 1.794760 
# 
# From -- ./inp_files/85180.got.cif
#   From: 2010.06.25/outbox.cif.g09.slc.cpg/sg13_43_cif.got.tgz:85180.got - 2010.06.28 04:50:58.
