data_PCOD8119051
_publ_section_title
;
Structure prediction by ZEFSAII (Michael W. Deem and Ramdas Pophale) SiO2 
 PCOD8119051
Probable space group: P 2/C
;
_chemical_formula_sum "Si O2"
_cell_formula_units_Z 18
_cell_length_a 12.844825
_cell_length_b 7.363223
_cell_length_c 9.208612
_cell_angle_alpha 90.000000
_cell_angle_beta 55.677982
_cell_angle_gamma 90.000000
_cell_volume 719.296838
_symmetry_space_group_name_H-M "P 2/C"
_symmetry_group_IT_number 13
_symmetry_cell_setting 'monoclinic'
loop_
_space_group_symop_operation_xyz
x,y,z
-x,y,1/2-z
-x,-y,-z
x,-y,1/2+z
loop_
_atom_site_type_symbol
_atom_site_label
_atom_site_fract_x
_atom_site_fract_y
_atom_site_fract_z
Si Si1 0.770586 0.914082 0.156709
Si Si2 0.500000 0.559757 0.750000
Si Si3 0.088026 0.582429 0.310308
Si Si4 0.456342 0.728905 0.067575
Si Si5 0.245848 0.230443 0.139862
O O1 0.839443 0.758148 0.192197
O O2 0.621508 0.903321 0.318909
O O3 0.809065 0.116892 0.178566
O O4 0.795129 0.888150 0.967822
O O5 0.578312 0.684772 0.574370
O O6 0.587936 0.435945 0.787685
O O7 0.186566 0.429214 0.179700
O O8 0.000000 0.648060 0.250000
O O9 0.000000 0.500000 0.500000
O O10 0.604142 0.753206 0.974938
#
# Coordination Sequence:
#
# PCOD8119051 Si02
#       5
#     4   2   4   4   4
#     4  12  28  47  76 111 149 193 240 303 367 440
#     4  10  20  36  66 100 144 200 232 280 342 434
#     4  12  28  52  76 104 143 193 255 308 357 424
#     4  11  23  42  71 111 153 186 240 293 372 441
#     4  12  28  47  76 112 148 193 242 298 371 438
#
# _framework density 25.024440999999999
#
# number of rings (size 3 to 8) (size 9 to 14) (size 15 to 20)
#    0.000    0.444    4.444    3.333    6.222    1.778 
#    0.000    0.000    0.000    0.000    0.000    0.000 
#    0.000    0.000    0.000    0.000    0.000    0.000 
#
# Total GULP energy -223129.018672 kJ/mol
# GULP energy per Si atom -12396.056593 kJ/mol
# Density = 2.496748 g / cm^3
# Si number density = 25.024441 Si / 1000 Ang^3
#
#
#
# Elastic Constant Matrix: (Units=GPa)
#
#
# Indices 1 2 3 4 5 6 
#
# 1 111.2432 20.8286 30.4064 0.0000 9.8702 0.0000
# 2 20.8286 64.4570 -13.4926 0.0000 -1.5764 0.0000
# 3 30.4064 -13.4926 86.5262 0.0000 27.3636 0.0000
# 4 0.0000 0.0000 0.0000 33.3750 0.0000 15.3060
# 5 9.8702 -1.5764 27.3636 0.0000 51.3103 0.0000
# 6 0.0000 0.0000 0.0000 15.3060 0.0000 21.5426
#
#
#
# Elastic Compliance Matrix: (Units=1/GPa)
#
#
# Indices 1 2 3 4 5 6 
#
# 1 0.011104 -0.004563 -0.004684 0.000000 0.000222 0.000000
# 2 -0.004563 0.017957 0.004753 0.000000 -0.001105 0.000000
# 3 -0.004684 0.004753 0.016375 0.000000 -0.007686 0.000000
# 4 0.000000 0.000000 0.000000 0.044444 0.000000 -0.031578
# 5 0.000222 -0.001105 -0.007686 0.000000 0.023511 0.000000
# 6 0.000000 0.000000 0.000000 -0.031578 0.000000 0.068855
#
#
# Mechanical properties :
#
#
# Convention : Reuss Voigt Hill
#
# Bulk Modulus (GPa) = 27.43612 37.52347 32.47979
# Shear Modulus (GPa) = 24.58401 36.21119 30.39760
#
# Velocity S-wave (km/s) = 3.13773 3.80812 3.48906
# Velocity P-wave (km/s) = 4.91066 5.86199 5.40729
#
# Compressibility (1/GPa) = 0.03644831
#
# Stress axis : x y z
#
# Youngs Moduli (GPa) = 90.05507 55.68936 61.06886
#
# Poissons Ratio (x) = 0.25413 0.28604
# Poissons Ratio (y) = 0.41095 -0.29028
# Poissons Ratio (z) = 0.42181 -0.26471
#
# Static dielectric constant tensor:
#      x y z
#    x 4.465720 0.000000 0.316760 
#    y 0.000000 4.716910 0.000000 
#    z 0.316760 0.000000 4.874780 
# 
# 
# High freq. dielectric constant tensor:
#      x y z
#    x 1.989030 0.000000 0.021270 
#    y 0.000000 1.999050 0.000000 
#    z 0.021270 0.000000 2.003650 
# 
# From -- ./inp_files/14745.got.cif
#   From: 2010.06.25/outbox.cif.g09.slc.cpg/sg13_8_cif.got.tgz:14745.got - 2010.06.28 04:50:58.
