data_PCOD8119411
_publ_section_title
;
Structure prediction by ZEFSAII (Michael W. Deem and Ramdas Pophale) SiO2 
 PCOD8119411
Probable space group: P 2/C
;
_chemical_formula_sum "Si O2"
_cell_formula_units_Z 28
_cell_length_a 16.472375
_cell_length_b 11.857171
_cell_length_c 18.074168
_cell_angle_alpha 90.000000
_cell_angle_beta 23.809746
_cell_angle_gamma 90.000000
_cell_volume 1425.132890
_symmetry_space_group_name_H-M "P 2/C"
_symmetry_group_IT_number 13
_symmetry_cell_setting 'monoclinic'
loop_
_space_group_symop_operation_xyz
x,y,z
-x,y,1/2-z
-x,-y,-z
x,-y,1/2+z
loop_
_atom_site_type_symbol
_atom_site_label
_atom_site_fract_x
_atom_site_fract_y
_atom_site_fract_z
Si Si1 0.965782 0.174073 0.978859
Si Si2 0.594791 0.394632 0.750421
Si Si3 0.173268 0.584858 0.877270
Si Si4 0.320061 0.011512 0.846451
Si Si5 0.074660 0.209240 0.047705
Si Si6 0.403027 0.894556 0.119333
Si Si7 0.680415 0.687187 0.893498
O O1 0.916203 0.305869 0.005923
O O2 0.961885 0.152966 0.070499
O O3 0.796836 0.100833 0.078760
O O4 0.184569 0.135834 0.766960
O O5 0.500000 0.377920 0.750000
O O6 0.681461 0.520544 0.686513
O O7 0.767812 0.300566 0.616276
O O8 0.420878 0.382603 0.956490
O O9 0.293381 0.613268 0.702104
O O10 0.000000 0.500000 0.000000
O O11 0.500000 0.974938 0.750000
O O12 0.398708 0.080774 0.710277
O O13 0.178377 0.105607 0.005827
O O14 0.899882 0.270204 0.240596
O O15 0.543010 0.790369 0.984635
O O16 0.500000 0.000000 0.000000
#
# Coordination Sequence:
#
# PCOD8119411 Si02
#       7
#     4   4   4   4   4   4   4
#     4  10  20  38  65  87 125 171 212 256 311 382
#     4  12  24  40  62  98 131 162 212 274 326 369
#     4  11  21  43  63  90 124 171 219 262 311 380
#     4  11  22  39  61  92 135 165 200 272 328 369
#     4  10  20  40  62  92 124 162 209 261 312 381
#     4  11  20  37  63  97 120 161 221 259 308 390
#     4  11  21  38  69  90 122 170 215 257 318 380
#
# _framework density 19.647290000000002
#
# number of rings (size 3 to 8) (size 9 to 14) (size 15 to 20)
#    0.000    1.143    5.714    5.143    0.000    1.143 
#    0.000    2.143    0.000    1.714    0.000    0.000 
#    0.000    0.000    0.000    0.000    0.000    0.000 
#
# Total GULP energy -347098.180981 kJ/mol
# GULP energy per Si atom -12396.363606 kJ/mol
# Density = 1.960257 g / cm^3
# Si number density = 19.647290 Si / 1000 Ang^3
#
#
#
# Elastic Constant Matrix: (Units=GPa)
#
#
# Indices 1 2 3 4 5 6 
#
# 1 77.0461 43.6692 40.5348 0.0000 -22.7436 0.0000
# 2 43.6692 146.2770 63.5942 0.0000 -13.0277 0.0000
# 3 40.5348 63.5942 129.3726 0.0000 -13.2821 0.0000
# 4 0.0000 0.0000 0.0000 49.0342 0.0000 -3.9461
# 5 -22.7436 -13.0277 -13.2821 0.0000 27.2668 0.0000
# 6 0.0000 0.0000 0.0000 -3.9461 0.0000 21.8328
#
#
#
# Elastic Compliance Matrix: (Units=1/GPa)
#
#
# Indices 1 2 3 4 5 6 
#
# 1 0.020919 -0.003520 -0.003374 0.000000 0.014123 0.000000
# 2 -0.003520 0.009412 -0.003540 0.000000 -0.000164 0.000000
# 3 -0.003374 -0.003540 0.010594 0.000000 0.000655 0.000000
# 4 0.000000 0.000000 0.000000 0.020695 0.000000 0.003740
# 5 0.014123 -0.000164 0.000655 0.000000 0.048696 0.000000
# 6 0.000000 0.000000 0.000000 0.003740 0.000000 0.046479
#
#
# Mechanical properties :
#
#
# Convention : Reuss Voigt Hill
#
# Bulk Modulus (GPa) = 49.86112 72.03244 60.94678
# Shear Modulus (GPa) = 27.12260 33.28659 30.20460
#
# Velocity S-wave (km/s) = 3.71951 4.12054 3.92515
# Velocity P-wave (km/s) = 6.62416 7.70590 7.18541
#
# Compressibility (1/GPa) = 0.02005571
#
# Stress axis : x y z
#
# Youngs Moduli (GPa) = 47.80437 106.24880 94.39143
#
# Poissons Ratio (x) = 0.37404 0.31845
# Poissons Ratio (y) = 0.16829 0.33418
# Poissons Ratio (z) = 0.16128 0.37615
#
# Static dielectric constant tensor:
#      x y z
#    x 3.230390 0.000000 -0.098460 
#    y 0.000000 3.936940 0.000000 
#    z -0.098460 0.000000 3.881620 
# 
# 
# High freq. dielectric constant tensor:
#      x y z
#    x 1.724650 0.000000 -0.012760 
#    y 0.000000 1.780210 0.000000 
#    z -0.012760 0.000000 1.782140 
# 
# From -- ./inp_files/81031.got.cif
#   From: 2010.06.25/outbox.cif.g09.slc.cpg/sg13_41_cif.got.tgz:81031.got - 2010.06.28 04:50:58.
