data_PCOD8119527
_publ_section_title
;
Structure prediction by ZEFSAII (Michael W. Deem and Ramdas Pophale) SiO2 
 PCOD8119527
Probable space group: P 2/C
;
_chemical_formula_sum "Si O2"
_cell_formula_units_Z 24
_cell_length_a 16.781833
_cell_length_b 8.721134
_cell_length_c 23.695838
_cell_angle_alpha 90.000000
_cell_angle_beta 19.307794
_cell_angle_gamma 90.000000
_cell_volume 1146.683240
_symmetry_space_group_name_H-M "P 2/C"
_symmetry_group_IT_number 13
_symmetry_cell_setting 'monoclinic'
loop_
_space_group_symop_operation_xyz
x,y,z
-x,y,1/2-z
-x,-y,-z
x,-y,1/2+z
loop_
_atom_site_type_symbol
_atom_site_label
_atom_site_fract_x
_atom_site_fract_y
_atom_site_fract_z
Si Si1 0.221153 0.633430 0.447283
Si Si2 0.069558 0.700863 0.065342
Si Si3 0.126418 0.861839 0.608305
Si Si4 0.919284 0.827547 0.563238
Si Si5 0.391258 0.148803 0.446329
Si Si6 0.735359 0.101441 0.849147
O O1 0.500000 0.593174 0.250000
O O2 0.064658 0.481916 0.562549
O O3 0.195763 0.723340 0.522457
O O4 0.121044 0.729703 0.461162
O O5 0.798658 0.763581 0.261823
O O6 0.147092 0.761579 0.953017
O O7 0.264231 0.753887 0.981972
O O8 0.000000 0.799397 0.750000
O O9 0.367406 0.962855 0.457030
O O10 0.949968 0.981669 0.696111
O O11 0.673210 0.815902 0.763178
O O12 0.000000 0.000000 0.500000
O O13 0.263883 0.188066 0.591106
O O14 0.500000 0.000000 0.000000
#
# Coordination Sequence:
#
# PCOD8119527 Si02
#       6
#     4   4   4   4   4   4
#     4  12  25  41  59  90 130 166 208 265 329 390
#     4  11  24  40  60  89 126 164 203 257 321 384
#     4   9  20  37  60  87 117 156 206 254 304 372
#     4  12  23  39  64  90 119 165 217 265 314 378
#     4  10  20  40  64  89 120 161 210 262 313 376
#     4  10  20  39  64  91 120 158 209 257 303 374
#
# _framework density 20.929931
#
# number of rings (size 3 to 8) (size 9 to 14) (size 15 to 20)
#    0.000    1.333    0.000    8.500    0.000    2.667 
#    0.000    3.333    0.000    0.000    0.000    0.000 
#    0.000    0.000    0.000    0.000    0.000    0.000 
#
# Total GULP energy -297461.538357 kJ/mol
# GULP energy per Si atom -12394.230765 kJ/mol
# Density = 2.088229 g / cm^3
# Si number density = 20.929931 Si / 1000 Ang^3
#
#
#
# Elastic Constant Matrix: (Units=GPa)
#
#
# Indices 1 2 3 4 5 6 
#
# 1 78.1709 36.9757 24.2199 0.0000 8.0204 0.0000
# 2 36.9757 132.3482 49.7727 0.0000 16.0536 0.0000
# 3 24.2199 49.7727 114.5592 0.0000 -1.2083 0.0000
# 4 0.0000 0.0000 0.0000 37.2039 0.0000 4.1163
# 5 8.0204 16.0536 -1.2083 0.0000 37.3168 0.0000
# 6 0.0000 0.0000 0.0000 4.1163 0.0000 20.5386
#
#
#
# Elastic Compliance Matrix: (Units=1/GPa)
#
#
# Indices 1 2 3 4 5 6 
#
# 1 0.015107 -0.003329 -0.001767 0.000000 -0.001872 0.000000
# 2 -0.003329 0.010409 -0.003860 0.000000 -0.003887 0.000000
# 3 -0.001767 -0.003860 0.010805 0.000000 0.002390 0.000000
# 4 0.000000 0.000000 0.000000 0.027488 0.000000 -0.005509
# 5 -0.001872 -0.003887 0.002390 0.000000 0.028950 0.000000
# 6 0.000000 0.000000 0.000000 -0.005509 0.000000 0.049793
#
#
# Mechanical properties :
#
#
# Convention : Reuss Voigt Hill
#
# Bulk Modulus (GPa) = 54.32134 60.77945 57.55039
# Shear Modulus (GPa) = 30.01217 33.28587 31.64902
#
# Velocity S-wave (km/s) = 3.79084 3.99224 3.89285
# Velocity P-wave (km/s) = 6.72093 7.09600 6.91101
#
# Compressibility (1/GPa) = 0.01840897
#
# Stress axis : x y z
#
# Youngs Moduli (GPa) = 66.19588 96.07204 92.55113
#
# Poissons Ratio (x) = 0.31981 0.16357
# Poissons Ratio (y) = 0.22035 0.35721
# Poissons Ratio (z) = 0.11699 0.37080
#
# Static dielectric constant tensor:
#      x y z
#    x 4.054010 0.000000 0.042840 
#    y 0.000000 4.825630 0.000000 
#    z 0.042840 0.000000 4.477310 
# 
# 
# High freq. dielectric constant tensor:
#      x y z
#    x 1.826590 0.000000 0.011170 
#    y 0.000000 1.804020 0.000000 
#    z 0.011170 0.000000 1.831030 
# 
# From -- ./inp_files/87854.got.cif
#   From: 2010.06.25/outbox.cif.g09.slc.cpg/sg13_44_cif.got.tgz:87854.got - 2010.06.28 04:50:58.
