data_PCOD8119363
_publ_section_title
;
Structure prediction by ZEFSAII (Michael W. Deem and Ramdas Pophale) SiO2 
 PCOD8119363
Probable space group: P 2/C
;
_chemical_formula_sum "Si O2"
_cell_formula_units_Z 28
_cell_length_a 8.801719
_cell_length_b 15.525611
_cell_length_c 21.070025
_cell_angle_alpha 90.000000
_cell_angle_beta 153.792817
_cell_angle_gamma 90.000000
_cell_volume 1271.535084
_symmetry_space_group_name_H-M "P 2/C"
_symmetry_group_IT_number 13
_symmetry_cell_setting 'monoclinic'
loop_
_space_group_symop_operation_xyz
x,y,z
-x,y,1/2-z
-x,-y,-z
x,-y,1/2+z
loop_
_atom_site_type_symbol
_atom_site_label
_atom_site_fract_x
_atom_site_fract_y
_atom_site_fract_z
Si Si1 0.364388 0.975986 0.266861
Si Si2 0.205453 0.863915 0.391328
Si Si3 0.798219 0.691748 0.534598
Si Si4 0.242980 0.679013 0.431061
Si Si5 0.171843 0.893358 0.953211
Si Si6 0.549997 0.407592 0.694431
Si Si7 0.268401 0.414597 0.296485
O O1 0.500000 0.945558 0.250000
O O2 0.661326 0.953656 0.428669
O O3 0.003286 0.930495 0.145365
O O4 0.220542 0.075265 0.209464
O O5 0.247454 0.779766 0.450582
O O6 0.582140 0.902348 0.516189
O O7 0.000000 0.839764 0.250000
O O8 0.452719 0.669816 0.444393
O O9 0.836678 0.792437 0.530490
O O10 0.784883 0.632626 0.466265
O O11 0.118680 0.661701 0.697031
O O12 0.396119 0.622946 0.545045
O O13 0.855629 0.648240 0.279100
O O14 0.500000 0.394902 0.750000
O O15 0.609671 0.507119 0.701266
O O16 0.000000 0.445842 0.250000
#
# Coordination Sequence:
#
# PCOD8119363 Si02
#       7
#     4   4   4   4   4   4   4
#     4  11  22  38  59  87 119 155 197 241 299 358
#     4   9  19  37  62  88 116 152 200 249 294 348
#     4  10  22  42  63  87 118 154 203 252 295 346
#     4  10  20  38  63  87 113 155 201 247 295 348
#     4  10  22  40  61  86 118 156 198 248 296 349
#     4  12  24  38  59  88 122 160 197 239 297 362
#     4  10  22  39  62  90 118 153 199 248 297 349
#
# _framework density 22.020627999999999
#
# number of rings (size 3 to 8) (size 9 to 14) (size 15 to 20)
#    0.000    1.714    0.000    5.571    0.000    8.000 
#    0.000    8.571    0.000    0.000    0.000    0.000 
#    0.000    0.000    0.000    0.000    0.000    0.000 
#
# Total GULP energy -347077.240904 kJ/mol
# GULP energy per Si atom -12395.615747 kJ/mol
# Density = 2.197051 g / cm^3
# Si number density = 22.020628 Si / 1000 Ang^3
#
#
#
# Elastic Constant Matrix: (Units=GPa)
#
#
# Indices 1 2 3 4 5 6 
#
# 1 68.9797 49.3134 23.7263 0.0000 -16.2282 0.0000
# 2 49.3134 106.0534 32.4358 0.0000 -10.2823 0.0000
# 3 23.7263 32.4358 65.2082 0.0000 -13.2454 0.0000
# 4 0.0000 0.0000 0.0000 31.8110 0.0000 -7.2477
# 5 -16.2282 -10.2823 -13.2454 0.0000 19.7394 0.0000
# 6 0.0000 0.0000 0.0000 -7.2477 0.0000 10.6423
#
#
#
# Elastic Compliance Matrix: (Units=1/GPa)
#
#
# Indices 1 2 3 4 5 6 
#
# 1 0.025684 -0.010098 -0.001275 0.000000 0.014999 0.000000
# 2 -0.010098 0.015191 -0.004586 0.000000 -0.003466 0.000000
# 3 -0.001275 -0.004586 0.020126 0.000000 0.010067 0.000000
# 4 0.000000 0.000000 0.000000 0.037209 0.000000 0.025340
# 5 0.014999 -0.003466 0.010067 0.000000 0.067941 0.000000
# 6 0.000000 0.000000 0.000000 0.025340 0.000000 0.111222
#
#
# Mechanical properties :
#
#
# Convention : Reuss Voigt Hill
#
# Bulk Modulus (GPa) = 34.38678 50.13249 42.25964
# Shear Modulus (GPa) = 15.67469 21.42293 18.54881
#
# Velocity S-wave (km/s) = 2.67089 3.12245 2.90545
# Velocity P-wave (km/s) = 5.01609 5.98458 5.52161
#
# Compressibility (1/GPa) = 0.02908094
#
# Stress axis : x y z
#
# Youngs Moduli (GPa) = 38.93537 65.82676 49.68768
#
# Poissons Ratio (x) = 0.66474 0.06337
# Poissons Ratio (y) = 0.39318 0.22788
# Poissons Ratio (z) = 0.04966 0.30190
#
# Static dielectric constant tensor:
#      x y z
#    x 3.789530 0.000000 0.089150 
#    y 0.000000 3.995800 0.000000 
#    z 0.089150 0.000000 3.914000 
# 
# 
# High freq. dielectric constant tensor:
#      x y z
#    x 1.850740 0.000000 -0.000950 
#    y 0.000000 1.872220 0.000000 
#    z -0.000950 0.000000 1.864850 
# 
# From -- ./inp_files/76748.got.cif
#   From: 2010.06.25/outbox.cif.g09.slc.cpg/sg13_39_cif.got.tgz:76748.got - 2010.06.28 04:50:58.
