data_PCOD8119283
_publ_section_title
;
Structure prediction by ZEFSAII (Michael W. Deem and Ramdas Pophale) SiO2 
 PCOD8119283
Probable space group: P 2/C
;
_chemical_formula_sum "Si O2"
_cell_formula_units_Z 28
_cell_length_a 6.641687
_cell_length_b 10.831834
_cell_length_c 23.434988
_cell_angle_alpha 90.000000
_cell_angle_beta 59.992187
_cell_angle_gamma 90.000000
_cell_volume 1459.962063
_symmetry_space_group_name_H-M "P 2/C"
_symmetry_group_IT_number 13
_symmetry_cell_setting 'monoclinic'
loop_
_space_group_symop_operation_xyz
x,y,z
-x,y,1/2-z
-x,-y,-z
x,-y,1/2+z
loop_
_atom_site_type_symbol
_atom_site_label
_atom_site_fract_x
_atom_site_fract_y
_atom_site_fract_z
Si Si1 0.216732 0.384920 0.689169
Si Si2 0.000000 0.830383 0.750000
Si Si3 0.965102 0.389365 0.176123
Si Si4 0.656275 0.055168 0.381765
Si Si5 0.179702 0.240232 0.052059
Si Si6 0.659347 0.210051 0.928119
Si Si7 0.500000 0.535382 0.250000
Si Si8 0.852194 0.875674 0.516126
O O1 0.142343 0.527712 0.688483
O O2 0.252719 0.320070 0.623880
O O3 0.432072 0.383234 0.703550
O O4 0.000000 0.315797 0.750000
O O5 0.095589 0.741481 0.786080
O O6 0.788987 0.915564 0.803548
O O7 0.107274 0.359945 0.098474
O O8 0.721763 0.456429 0.198443
O O9 0.801812 0.113986 0.413441
O O10 0.399304 0.112199 0.418911
O O11 0.623934 0.909329 0.393533
O O12 0.983017 0.229406 0.032282
O O13 0.424142 0.263537 0.987459
O O14 0.836675 0.172136 0.953181
O O15 0.000000 0.000000 0.500000
#
# Coordination Sequence:
#
# PCOD8119283 Si02
#       8
#     4   2   4   4   4   4   2   4
#     4  10  23  42  60  83 119 159 194 246 302 348
#     4  10  20  38  60  88 116 150 200 246 300 350
#     4  10  21  39  60  87 114 150 204 249 295 345
#     4  10  21  36  58  89 122 153 191 247 293 350
#     4  10  21  36  61  90 117 155 197 240 295 353
#     4  11  22  38  60  86 126 158 189 247 296 352
#     4  10  20  40  62  80 112 160 198 244 296 352
#     4  11  19  38  60  86 122 161 192 233 301 351
#
# _framework density 19.178581000000001
#
# number of rings (size 3 to 8) (size 9 to 14) (size 15 to 20)
#    0.000    1.714    5.000    0.857    3.000    4.000 
#    0.000    1.429    0.000    0.000    0.000    0.000 
#    0.000    0.000    0.000    0.000    0.000    0.000 
#
# Total GULP energy -347057.467599 kJ/mol
# GULP energy per Si atom -12394.909557 kJ/mol
# Density = 1.913493 g / cm^3
# Si number density = 19.178581 Si / 1000 Ang^3
#
#
#
# Elastic Constant Matrix: (Units=GPa)
#
#
# Indices 1 2 3 4 5 6 
#
# 1 124.7310 27.2881 54.9285 0.0000 11.3802 0.0000
# 2 27.2881 55.0193 52.6548 0.0000 0.2356 0.0000
# 3 54.9285 52.6548 153.6286 0.0000 -8.8587 0.0000
# 4 0.0000 0.0000 0.0000 33.1637 0.0000 -0.4495
# 5 11.3802 0.2356 -8.8587 0.0000 29.4868 0.0000
# 6 0.0000 0.0000 0.0000 -0.4495 0.0000 12.3302
#
#
#
# Elastic Compliance Matrix: (Units=1/GPa)
#
#
# Indices 1 2 3 4 5 6 
#
# 1 0.010361 -0.001930 -0.003330 0.000000 -0.004984 0.000000
# 2 -0.001930 0.027680 -0.008921 0.000000 -0.002156 0.000000
# 3 -0.003330 -0.008921 0.011027 0.000000 0.004669 0.000000
# 4 0.000000 0.000000 0.000000 0.030168 0.000000 0.001100
# 5 -0.004984 -0.002156 0.004669 0.000000 0.037257 0.000000
# 6 0.000000 0.000000 0.000000 0.001100 0.000000 0.081142
#
#
# Mechanical properties :
#
#
# Convention : Reuss Voigt Hill
#
# Bulk Modulus (GPa) = 48.29957 67.01351 57.65654
# Shear Modulus (GPa) = 21.46850 28.22998 24.84924
#
# Velocity S-wave (km/s) = 3.34937 3.84077 3.60346
# Velocity P-wave (km/s) = 6.34007 7.39502 6.88777
#
# Compressibility (1/GPa) = 0.02070412
#
# Stress axis : x y z
#
# Youngs Moduli (GPa) = 96.51773 36.12732 90.68804
#
# Poissons Ratio (x) = 0.06973 0.30201
# Poissons Ratio (y) = 0.18630 0.80905
# Poissons Ratio (z) = 0.32142 0.32230
#
# Static dielectric constant tensor:
#      x y z
#    x 3.545250 0.000000 0.000710 
#    y 0.000000 3.269320 0.000000 
#    z 0.000710 0.000000 3.782690 
# 
# 
# High freq. dielectric constant tensor:
#      x y z
#    x 1.742960 0.000000 -0.002790 
#    y 0.000000 1.724480 0.000000 
#    z -0.002790 0.000000 1.756330 
# 
# From -- ./inp_files/73621.got.cif
#   From: 2010.06.25/outbox.cif.g09.slc.cpg/sg13_37_cif.got.tgz:73621.got - 2010.06.28 04:50:58.
