data_PCOD8119687
_publ_section_title
;
Structure prediction by ZEFSAII (Michael W. Deem and Ramdas Pophale) SiO2 
 PCOD8119687
Probable space group: P 2/C
;
_chemical_formula_sum "Si O2"
_cell_formula_units_Z 26
_cell_length_a 9.334108
_cell_length_b 15.912991
_cell_length_c 9.266399
_cell_angle_alpha 90.000000
_cell_angle_beta 111.780188
_cell_angle_gamma 90.000000
_cell_volume 1278.117992
_symmetry_space_group_name_H-M "P 2/C"
_symmetry_group_IT_number 13
_symmetry_cell_setting 'monoclinic'
loop_
_space_group_symop_operation_xyz
x,y,z
-x,y,1/2-z
-x,-y,-z
x,-y,1/2+z
loop_
_atom_site_type_symbol
_atom_site_label
_atom_site_fract_x
_atom_site_fract_y
_atom_site_fract_z
Si Si1 0.347218 0.149327 0.765047
Si Si2 0.194544 0.731466 0.990140
Si Si3 0.029222 0.415122 0.094254
Si Si4 0.000000 0.859865 0.750000
Si Si5 0.838822 0.012462 0.366079
Si Si6 0.646655 0.149084 0.405439
Si Si7 0.678219 0.310912 0.268277
O O1 0.500000 0.111878 0.750000
O O2 0.294326 0.233222 0.660475
O O3 0.220018 0.076377 0.713118
O O4 0.389706 0.174378 0.943974
O O5 0.070346 0.802197 0.900797
O O6 0.305939 0.704541 0.898439
O O7 0.094555 0.652864 0.009170
O O8 0.206996 0.385267 0.138636
O O9 0.000000 0.431807 0.250000
O O10 0.000000 0.500000 0.000000
O O11 0.141293 0.920213 0.755252
O O12 0.729018 0.058546 0.440333
O O13 0.000000 0.000000 0.500000
O O14 0.500000 0.138410 0.250000
O O15 0.741623 0.226660 0.371177
O O16 0.500000 0.330224 0.250000
#
# Coordination Sequence:
#
# PCOD8119687 Si02
#       7
#     4   4   4   2   4   4   4
#     4  12  27  40  59  93 129 170 223 277 328 383
#     4  11  21  44  68  89 131 176 216 263 330 396
#     4  10  22  42  68 100 131 172 211 262 327 397
#     4  12  20  42  64  86 120 176 218 260 326 382
#     4  12  24  38  60  88 123 166 220 272 318 377
#     4  11  24  41  62  87 121 168 217 269 325 377
#     4  10  20  40  69  94 125 171 218 264 331 391
#
# _framework density 20.342409
#
# number of rings (size 3 to 8) (size 9 to 14) (size 15 to 20)
#    0.000    0.923    5.385    3.231    0.000    2.462 
#    0.000    3.846    0.000    0.000    0.000    0.000 
#    0.000    0.000    0.000    0.000    0.000    0.000 
#
# Total GULP energy -322289.860366 kJ/mol
# GULP energy per Si atom -12395.763860 kJ/mol
# Density = 2.029611 g / cm^3
# Si number density = 20.342409 Si / 1000 Ang^3
#
#
#
# Elastic Constant Matrix: (Units=GPa)
#
#
# Indices 1 2 3 4 5 6 
#
# 1 114.9413 54.3115 51.1312 0.0000 8.2265 0.0000
# 2 54.3115 137.4954 56.4094 0.0000 9.0157 0.0000
# 3 51.1312 56.4094 131.4607 0.0000 5.8636 0.0000
# 4 0.0000 0.0000 0.0000 34.2862 0.0000 0.2829
# 5 8.2265 9.0157 5.8636 0.0000 27.1383 0.0000
# 6 0.0000 0.0000 0.0000 0.2829 0.0000 31.7099
#
#
#
# Elastic Compliance Matrix: (Units=1/GPa)
#
#
# Indices 1 2 3 4 5 6 
#
# 1 0.011741 -0.003251 -0.003091 0.000000 -0.001811 0.000000
# 2 -0.003251 0.009851 -0.002889 0.000000 -0.001663 0.000000
# 3 -0.003091 -0.002889 0.010061 0.000000 -0.000277 0.000000
# 4 0.000000 0.000000 0.000000 0.029168 0.000000 -0.000260
# 5 -0.001811 -0.001663 -0.000277 0.000000 0.038010 0.000000
# 6 0.000000 0.000000 0.000000 -0.000260 0.000000 0.031538
#
#
# Mechanical properties :
#
#
# Convention : Reuss Voigt Hill
#
# Bulk Modulus (GPa) = 75.80134 78.62240 77.21187
# Shear Modulus (GPa) = 32.63133 33.42989 33.03061
#
# Velocity S-wave (km/s) = 4.00947 4.05824 4.03393
# Velocity P-wave (km/s) = 7.66669 7.79054 7.72886
#
# Compressibility (1/GPa) = 0.01319238
#
# Stress axis : x y z
#
# Youngs Moduli (GPa) = 85.17357 101.51056 99.39543
#
# Poissons Ratio (x) = 0.33000 0.30721
# Poissons Ratio (y) = 0.27689 0.28711
# Poissons Ratio (z) = 0.26326 0.29322
#
# Static dielectric constant tensor:
#      x y z
#    x 5.064310 0.000000 0.190370 
#    y 0.000000 3.935340 0.000000 
#    z 0.190370 0.000000 3.627040 
# 
# 
# High freq. dielectric constant tensor:
#      x y z
#    x 1.805080 0.000000 0.001630 
#    y 0.000000 1.784450 0.000000 
#    z 0.001630 0.000000 1.787060 
# 
# From -- ./inp_files/30228.got.cif
#   From: 2010.06.25/outbox.cif.g09.slc.cpg/sg13_16_cif.got.tgz:30228.got - 2010.06.28 04:50:58.
