data_PCOD8119492
_publ_section_title
;
Structure prediction by ZEFSAII (Michael W. Deem and Ramdas Pophale) SiO2 
 PCOD8119492
Probable space group: P 2/C
;
_chemical_formula_sum "Si O2"
_cell_formula_units_Z 28
_cell_length_a 8.824887
_cell_length_b 7.698359
_cell_length_c 27.387991
_cell_angle_alpha 90.000000
_cell_angle_beta 38.542506
_cell_angle_gamma 90.000000
_cell_volume 1159.369301
_symmetry_space_group_name_H-M "P 2/C"
_symmetry_group_IT_number 13
_symmetry_cell_setting 'monoclinic'
loop_
_space_group_symop_operation_xyz
x,y,z
-x,y,1/2-z
-x,-y,-z
x,-y,1/2+z
loop_
_atom_site_type_symbol
_atom_site_label
_atom_site_fract_x
_atom_site_fract_y
_atom_site_fract_z
Si Si1 0.569190 0.244407 0.942743
Si Si2 0.365763 0.746191 0.181406
Si Si3 0.113269 0.439342 0.048731
Si Si4 0.167780 0.039562 0.549691
Si Si5 0.277703 0.441962 0.272132
Si Si6 0.061865 0.751110 0.470012
Si Si7 0.274755 0.948650 0.773508
O O1 0.715185 0.255747 0.854803
O O2 0.756151 0.220952 0.940982
O O3 0.395491 0.412594 0.992761
O O4 0.407003 0.070835 0.980822
O O5 0.254324 0.572459 0.233066
O O6 0.655793 0.740866 0.114821
O O7 0.253898 0.918421 0.234029
O O8 0.966873 0.456568 0.135153
O O9 0.086709 0.597718 0.018750
O O10 0.029982 0.267302 0.037059
O O11 0.057149 0.076351 0.523581
O O12 0.972687 0.943757 0.633036
O O13 0.500000 0.501759 0.250000
O O14 0.318451 0.246173 0.242128
O O15 0.500000 0.009650 0.750000
#
# Coordination Sequence:
#
# PCOD8119492 Si02
#       7
#     4   4   4   4   4   4   4
#     4  10  25  42  63  93 136 177 222 265 329 402
#     4  11  22  42  65  99 131 170 224 279 333 393
#     4  10  20  39  61  97 129 166 218 275 326 392
#     4  11  22  43  66  93 134 179 217 272 330 401
#     4  11  21  36  65  99 134 163 216 288 333 384
#     4  10  21  37  67  94 128 167 218 276 330 389
#     4  11  22  37  68 101 125 171 221 277 339 388
#
# _framework density 24.151064000000002
#
# number of rings (size 3 to 8) (size 9 to 14) (size 15 to 20)
#    0.000    1.429    4.286    1.286    0.000    5.714 
#    0.000    0.000    0.000    3.429    0.000    0.000 
#    0.000    0.000    0.000    0.000    0.000    0.000 
#
# Total GULP energy -347216.379275 kJ/mol
# GULP energy per Si atom -12400.584974 kJ/mol
# Density = 2.409610 g / cm^3
# Si number density = 24.151064 Si / 1000 Ang^3
#
#
#
# Elastic Constant Matrix: (Units=GPa)
#
#
# Indices 1 2 3 4 5 6 
#
# 1 102.0996 11.2246 29.0383 0.0000 23.9802 0.0000
# 2 11.2246 48.7213 24.5522 0.0000 4.8419 0.0000
# 3 29.0383 24.5522 124.0390 0.0000 35.3291 0.0000
# 4 0.0000 0.0000 0.0000 35.1486 0.0000 -5.0378
# 5 23.9802 4.8419 35.3291 0.0000 21.2261 0.0000
# 6 0.0000 0.0000 0.0000 -5.0378 0.0000 27.5635
#
#
#
# Elastic Compliance Matrix: (Units=1/GPa)
#
#
# Indices 1 2 3 4 5 6 
#
# 1 0.013980 -0.002736 0.003022 0.000000 -0.020200 0.000000
# 2 -0.002736 0.023552 -0.006411 0.000000 0.008389 0.000000
# 3 0.003022 -0.006411 0.017453 0.000000 -0.031002 0.000000
# 4 0.000000 0.000000 0.000000 0.029216 0.000000 0.005340
# 5 -0.020200 0.008389 -0.031002 0.000000 0.119619 0.000000
# 6 0.000000 0.000000 0.000000 0.005340 0.000000 0.037256
#
#
# Mechanical properties :
#
#
# Convention : Reuss Voigt Hill
#
# Bulk Modulus (GPa) = 23.39943 44.94335 34.17139
# Shear Modulus (GPa) = 18.68661 30.79063 24.73862
#
# Velocity S-wave (km/s) = 2.78463 3.57447 3.20399
# Velocity P-wave (km/s) = 4.47758 5.97373 5.27893
#
# Compressibility (1/GPa) = 0.04273608
#
# Stress axis : x y z
#
# Youngs Moduli (GPa) = 71.53074 42.45896 57.29556
#
# Poissons Ratio (x) = 0.11618 -0.17316
# Poissons Ratio (y) = 0.19573 0.36730
# Poissons Ratio (z) = -0.21618 0.27219
#
# Static dielectric constant tensor:
#      x y z
#    x 4.558000 0.000000 0.104430 
#    y 0.000000 4.530160 0.000000 
#    z 0.104430 0.000000 4.198610 
# 
# 
# High freq. dielectric constant tensor:
#      x y z
#    x 1.955610 0.000000 0.002750 
#    y 0.000000 1.973360 0.000000 
#    z 0.002750 0.000000 1.951460 
# 
# From -- ./inp_files/91430.got.cif
#   From: 2010.06.25/outbox.cif.g09.slc.cpg/sg13_46_cif.got.tgz:91430.got - 2010.06.28 04:50:58.
