data_PCOD8119751
_publ_section_title
;
Structure prediction by ZEFSAII (Michael W. Deem and Ramdas Pophale) SiO2 
 PCOD8119751
Probable space group: P 2/C
;
_chemical_formula_sum "Si O2"
_cell_formula_units_Z 32
_cell_length_a 8.743418
_cell_length_b 11.115361
_cell_length_c 14.578708
_cell_angle_alpha 90.000000
_cell_angle_beta 95.120380
_cell_angle_gamma 90.000000
_cell_volume 1411.195818
_symmetry_space_group_name_H-M "P 2/C"
_symmetry_group_IT_number 13
_symmetry_cell_setting 'monoclinic'
loop_
_space_group_symop_operation_xyz
x,y,z
-x,y,1/2-z
-x,-y,-z
x,-y,1/2+z
loop_
_atom_site_type_symbol
_atom_site_label
_atom_site_fract_x
_atom_site_fract_y
_atom_site_fract_z
Si Si1 0.661298 0.859007 0.723037
Si Si2 0.576597 0.773333 0.437507
Si Si3 0.061826 0.632019 0.509111
Si Si4 0.635848 0.431428 0.554682
Si Si5 0.678102 0.948698 0.068292
Si Si6 0.954641 0.811399 0.148136
Si Si7 0.777903 0.964232 0.381224
Si Si8 0.789124 0.666619 0.608989
O O1 0.500000 0.808569 0.750000
O O2 0.761160 0.741980 0.700004
O O3 0.636911 0.943177 0.633981
O O4 0.738002 0.929604 0.810261
O O5 0.453478 0.673862 0.393052
O O6 0.478600 0.884952 0.474860
O O7 0.675963 0.840427 0.363108
O O8 0.686462 0.717825 0.520250
O O9 0.249243 0.629435 0.516447
O O10 0.000000 0.500000 0.500000
O O11 0.002284 0.705250 0.418571
O O12 0.971728 0.682855 0.594327
O O13 0.500000 0.500000 0.500000
O O14 0.737212 0.525515 0.621075
O O15 0.777271 0.850078 0.130298
O O16 0.772854 0.992403 0.985673
O O17 0.047437 0.932684 0.131141
O O18 0.000000 0.761436 0.250000
#
# Coordination Sequence:
#
# PCOD8119751 Si02
#       8
#     4   4   4   4   4   4   4   4
#     4  12  23  39  66  97 140 177 232 288 348 426
#     4  11  19  37  65  96 126 175 227 276 343 410
#     4  10  20  41  71  94 130 180 224 283 356 412
#     4   9  20  37  68 104 126 170 236 284 343 422
#     4  12  23  40  63  96 134 174 228 284 350 413
#     4  12  24  41  65  96 133 173 229 289 345 420
#     4  12  24  39  64  99 133 185 224 284 355 415
#     4  10  21  39  67  97 135 178 226 286 352 420
#
# _framework density 22.675805
#
# number of rings (size 3 to 8) (size 9 to 14) (size 15 to 20)
#    0.000    1.000    6.250    1.500    0.000    0.000 
#    0.000    0.000   13.750    0.000    0.000    0.000 
#    0.000    0.000    0.000    0.000    0.000    0.000 
#
# Total GULP energy -396424.589734 kJ/mol
# GULP energy per Si atom -12388.268429 kJ/mol
# Density = 2.262419 g / cm^3
# Si number density = 22.675805 Si / 1000 Ang^3
#
#
#
# Elastic Constant Matrix: (Units=GPa)
#
#
# Indices 1 2 3 4 5 6 
#
# 1 110.4671 24.1215 27.5531 0.0000 -11.9446 0.0000
# 2 24.1215 97.5678 28.1807 0.0000 -13.0369 0.0000
# 3 27.5531 28.1807 88.3038 0.0000 -17.6003 0.0000
# 4 0.0000 0.0000 0.0000 28.9467 0.0000 -15.8346
# 5 -11.9446 -13.0369 -17.6003 0.0000 24.3130 0.0000
# 6 0.0000 0.0000 0.0000 -15.8346 0.0000 40.0401
#
#
#
# Elastic Compliance Matrix: (Units=1/GPa)
#
#
# Indices 1 2 3 4 5 6 
#
# 1 0.010215 -0.001549 -0.002172 0.000000 0.002616 0.000000
# 2 -0.001549 0.011872 -0.002557 0.000000 0.003754 0.000000
# 3 -0.002172 -0.002557 0.014412 0.000000 0.007994 0.000000
# 4 0.000000 0.000000 0.000000 0.044083 0.000000 0.017433
# 5 0.002616 0.003754 0.007994 0.000000 0.050215 0.000000
# 6 0.000000 0.000000 0.000000 0.017433 0.000000 0.031869
#
#
# Mechanical properties :
#
#
# Convention : Reuss Voigt Hill
#
# Bulk Modulus (GPa) = 41.76475 50.67214 46.21845
# Shear Modulus (GPa) = 27.29200 33.09220 30.19210
#
# Velocity S-wave (km/s) = 3.47302 3.82430 3.65289
# Velocity P-wave (km/s) = 5.87713 6.47265 6.18207
#
# Compressibility (1/GPa) = 0.02394364
#
# Stress axis : x y z
#
# Youngs Moduli (GPa) = 97.89341 84.22876 69.38779
#
# Poissons Ratio (x) = 0.13044 0.15069
# Poissons Ratio (y) = 0.15160 0.17746
# Poissons Ratio (z) = 0.21260 0.21541
#
# Static dielectric constant tensor:
#      x y z
#    x 3.797700 0.000000 -0.625960 
#    y 0.000000 4.798760 0.000000 
#    z -0.625960 0.000000 3.718360 
# 
# 
# High freq. dielectric constant tensor:
#      x y z
#    x 1.916330 0.000000 -0.017960 
#    y 0.000000 1.909210 0.000000 
#    z -0.017960 0.000000 1.842730 
# 
# From -- ./inp_files/47234.got.cif
#   From: 2010.06.25/outbox.cif.g09.slc.cpg/sg13_24_cif.got.tgz:47234.got - 2010.06.28 04:50:58.
