data_PCOD8119052
_publ_section_title
;
Structure prediction by ZEFSAII (Michael W. Deem and Ramdas Pophale) SiO2 
 PCOD8119052
Probable space group: P 2/C
;
_chemical_formula_sum "Si O2"
_cell_formula_units_Z 28
_cell_length_a 14.451291
_cell_length_b 11.207590
_cell_length_c 9.019043
_cell_angle_alpha 90.000000
_cell_angle_beta 88.526119
_cell_angle_gamma 90.000000
_cell_volume 1460.278297
_symmetry_space_group_name_H-M "P 2/C"
_symmetry_group_IT_number 13
_symmetry_cell_setting 'monoclinic'
loop_
_space_group_symop_operation_xyz
x,y,z
-x,y,1/2-z
-x,-y,-z
x,-y,1/2+z
loop_
_atom_site_type_symbol
_atom_site_label
_atom_site_fract_x
_atom_site_fract_y
_atom_site_fract_z
Si Si1 0.218188 0.710751 0.641158
Si Si2 0.000000 0.705410 0.250000
Si Si3 0.111530 0.930339 0.754262
Si Si4 0.750344 0.638419 0.544478
Si Si5 0.098359 0.450637 0.960018
Si Si6 0.376288 0.578972 0.504317
Si Si7 0.141714 0.843899 0.078254
Si Si8 0.500000 0.505681 0.250000
O O1 0.165553 0.837364 0.644400
O O2 0.272847 0.691350 0.793121
O O3 0.138529 0.616492 0.602301
O O4 0.300952 0.686855 0.516620
O O5 0.086709 0.632193 0.314733
O O6 0.042864 0.781717 0.113674
O O7 0.000000 0.922815 0.750000
O O8 0.153775 0.058550 0.707155
O O9 0.137942 0.909990 0.922224
O O10 0.840730 0.563493 0.582321
O O11 0.670595 0.553501 0.484268
O O12 0.775146 0.745803 0.428587
O O13 0.000000 0.500000 0.000000
O O14 0.430146 0.590770 0.345992
O O15 0.446848 0.582105 0.639015
#
# Coordination Sequence:
#
# PCOD8119052 Si02
#       8
#     4   2   4   4   4   4   4   2
#     4  10  22  35  54  80 119 152 193 245 290 339
#     4  12  22  34  50  80 110 160 214 252 286 336
#     4  11  23  39  55  78 113 166 215 252 276 322
#     4  10  21  37  53  85 121 151 190 249 289 351
#     4  11  21  32  51  77 114 158 196 235 292 346
#     4  10  20  38  59  94 119 147 183 234 308 380
#     4  11  24  37  56  76 113 160 212 252 284 316
#     4  10  20  36  66  88 120 144 178 230 308 400
#
# _framework density 19.174427000000001
#
# number of rings (size 3 to 8) (size 9 to 14) (size 15 to 20)
#    0.000    1.429    3.571    2.143    6.000    0.000 
#    0.000    0.000    0.000    0.000    0.000    6.000 
#    0.000    0.000    0.000    0.000    0.000    0.000 
#
# Total GULP energy -346921.283689 kJ/mol
# GULP energy per Si atom -12390.045846 kJ/mol
# Density = 1.913078 g / cm^3
# Si number density = 19.174427 Si / 1000 Ang^3
#
#
#
# Elastic Constant Matrix: (Units=GPa)
#
#
# Indices 1 2 3 4 5 6 
#
# 1 90.3885 36.1950 32.1650 0.0000 -19.2402 0.0000
# 2 36.1950 96.2510 33.9447 0.0000 -18.5918 0.0000
# 3 32.1650 33.9447 87.9970 0.0000 -16.1858 0.0000
# 4 0.0000 0.0000 0.0000 30.5846 0.0000 -8.5369
# 5 -19.2402 -18.5918 -16.1858 0.0000 36.6816 0.0000
# 6 0.0000 0.0000 0.0000 -8.5369 0.0000 18.6337
#
#
#
# Elastic Compliance Matrix: (Units=1/GPa)
#
#
# Indices 1 2 3 4 5 6 
#
# 1 0.014531 -0.003494 -0.003143 0.000000 0.004464 0.000000
# 2 -0.003494 0.013557 -0.003293 0.000000 0.003586 0.000000
# 3 -0.003143 -0.003293 0.014336 0.000000 0.003009 0.000000
# 4 0.000000 0.000000 0.000000 0.037490 0.000000 0.017176
# 5 0.004464 0.003586 0.003009 0.000000 0.032748 0.000000
# 6 0.000000 0.000000 0.000000 0.017176 0.000000 0.061535
#
#
# Mechanical properties :
#
#
# Convention : Reuss Voigt Hill
#
# Bulk Modulus (GPa) = 44.31468 53.24953 48.78211
# Shear Modulus (GPa) = 24.80412 28.66876 26.73644
#
# Velocity S-wave (km/s) = 3.60057 3.87092 3.73819
# Velocity P-wave (km/s) = 6.35980 6.91448 6.64293
#
# Compressibility (1/GPa) = 0.02256588
#
# Stress axis : x y z
#
# Youngs Moduli (GPa) = 68.81867 73.76087 69.75249
#
# Poissons Ratio (x) = 0.25770 0.21920
# Poissons Ratio (y) = 0.24043 0.22970
# Poissons Ratio (z) = 0.21627 0.24290
#
# Static dielectric constant tensor:
#      x y z
#    x 3.346490 0.000000 -0.236510 
#    y 0.000000 3.617770 0.000000 
#    z -0.236510 0.000000 3.902670 
# 
# 
# High freq. dielectric constant tensor:
#      x y z
#    x 1.724760 0.000000 -0.010340 
#    y 0.000000 1.722010 0.000000 
#    z -0.010340 0.000000 1.758190 
# 
# From -- ./inp_files/18579.got.cif
#   From: 2010.06.25/outbox.cif.g09.slc.cpg/sg13_10_cif.got.tgz:18579.got - 2010.06.28 04:50:58.
