data_PCOD8119293
_publ_section_title
;
Structure prediction by ZEFSAII (Michael W. Deem and Ramdas Pophale) SiO2 
 PCOD8119293
Probable space group: P 2/C
;
_chemical_formula_sum "Si O2"
_cell_formula_units_Z 28
_cell_length_a 5.229646
_cell_length_b 10.038635
_cell_length_c 26.308142
_cell_angle_alpha 90.000000
_cell_angle_beta 113.063136
_cell_angle_gamma 90.000000
_cell_volume 1270.748971
_symmetry_space_group_name_H-M "P 2/C"
_symmetry_group_IT_number 13
_symmetry_cell_setting 'monoclinic'
loop_
_space_group_symop_operation_xyz
x,y,z
-x,y,1/2-z
-x,-y,-z
x,-y,1/2+z
loop_
_atom_site_type_symbol
_atom_site_label
_atom_site_fract_x
_atom_site_fract_y
_atom_site_fract_z
Si Si1 0.316008 0.261938 0.689502
Si Si2 0.714421 0.345288 0.061784
Si Si3 0.798593 0.901193 0.628384
Si Si4 0.425314 0.196412 0.185172
Si Si5 0.224042 0.528247 0.641036
Si Si6 0.303352 0.805508 0.373505
Si Si7 0.368285 0.410743 0.549725
O O1 0.500000 0.208466 0.750000
O O2 0.305552 0.424061 0.691078
O O3 0.456508 0.200840 0.650273
O O4 0.000975 0.216177 0.673645
O O5 0.654809 0.195592 0.075533
O O6 0.444970 0.437923 0.039737
O O7 0.917695 0.409244 0.120188
O O8 0.821236 0.348309 0.010783
O O9 0.667968 0.880944 0.674365
O O10 0.131241 0.879067 0.655418
O O11 0.711384 0.048013 0.602726
O O12 0.500000 0.205226 0.250000
O O13 0.429281 0.345149 0.160485
O O14 0.210680 0.434501 0.589900
O O15 0.373768 0.692448 0.421122
#
# Coordination Sequence:
#
# PCOD8119293 Si02
#       7
#     4   4   4   4   4   4   4
#     4  11  23  39  63  89 121 162 203 249 302 356
#     4  10  20  38  64  88 120 159 202 248 302 361
#     4  11  24  41  60  90 126 158 201 250 299 360
#     4  11  23  39  63  89 121 162 203 249 302 356
#     4  10  20  38  60  92 124 152 204 256 302 352
#     4  11  24  41  60  90 126 158 201 250 299 360
#     4  10  20  38  64  88 120 159 202 248 302 361
#
# _framework density 22.034247000000001
#
# number of rings (size 3 to 8) (size 9 to 14) (size 15 to 20)
#    0.000    1.429    2.857    2.571    0.000    4.000 
#    0.000    2.857    0.000    5.143    0.000    0.000 
#    0.000    0.000    0.000    0.000    0.000    0.000 
#
# Total GULP energy -346886.452178 kJ/mol
# GULP energy per Si atom -12388.801863 kJ/mol
# Density = 2.198410 g / cm^3
# Si number density = 22.034247 Si / 1000 Ang^3
#
#
#
# Elastic Constant Matrix: (Units=GPa)
#
#
# Indices 1 2 3 4 5 6 
#
# 1 82.7855 15.3109 3.1684 0.0000 2.9408 0.0000
# 2 15.3109 145.3764 19.5419 0.0000 3.6953 0.0000
# 3 3.1684 19.5419 76.8592 0.0000 1.6744 0.0000
# 4 0.0000 0.0000 0.0000 15.4326 0.0000 -0.8207
# 5 2.9408 3.6953 1.6744 0.0000 26.4734 0.0000
# 6 0.0000 0.0000 0.0000 -0.8207 0.0000 27.1428
#
#
#
# Elastic Compliance Matrix: (Units=1/GPa)
#
#
# Indices 1 2 3 4 5 6 
#
# 1 0.012359 -0.001249 -0.000166 0.000000 -0.001188 0.000000
# 2 -0.001249 0.007269 -0.001780 0.000000 -0.000763 0.000000
# 3 -0.000166 -0.001780 0.013483 0.000000 -0.000586 0.000000
# 4 0.000000 0.000000 0.000000 0.064902 0.000000 0.001963
# 5 -0.001188 -0.000763 -0.000586 0.000000 0.038049 0.000000
# 6 0.000000 0.000000 0.000000 0.001963 0.000000 0.036902
#
#
# Mechanical properties :
#
#
# Convention : Reuss Voigt Hill
#
# Bulk Modulus (GPa) = 37.42434 42.34040 39.88237
# Shear Modulus (GPa) = 26.55884 31.60976 29.08430
#
# Velocity S-wave (km/s) = 3.47557 3.79169 3.63707
# Velocity P-wave (km/s) = 5.75566 6.19892 5.98140
#
# Compressibility (1/GPa) = 0.02672058
#
# Stress axis : x y z
#
# Youngs Moduli (GPa) = 80.91279 137.57172 74.16749
#
# Poissons Ratio (x) = 0.17184 0.01231
# Poissons Ratio (y) = 0.10107 0.13202
# Poissons Ratio (z) = 0.01343 0.24488
#
# Static dielectric constant tensor:
#      x y z
#    x 3.743040 0.000000 -0.080880 
#    y 0.000000 4.368200 0.000000 
#    z -0.080880 0.000000 4.137300 
# 
# 
# High freq. dielectric constant tensor:
#      x y z
#    x 1.854050 0.000000 -0.000320 
#    y 0.000000 1.876890 0.000000 
#    z -0.000320 0.000000 1.853300 
# 
# From -- ./inp_files/95109.got.cif
#   From: 2010.06.25/outbox.cif.g09.slc.cpg/sg13_48_cif.got.tgz:95109.got - 2010.06.28 04:50:58.
