data_PCOD8119737
_publ_section_title
;
Structure prediction by ZEFSAII (Michael W. Deem and Ramdas Pophale) SiO2 
 PCOD8119737
Probable space group: P 2/C
;
_chemical_formula_sum "Si O2"
_cell_formula_units_Z 24
_cell_length_a 11.007150
_cell_length_b 12.223477
_cell_length_c 21.911183
_cell_angle_alpha 90.000000
_cell_angle_beta 24.442064
_cell_angle_gamma 90.000000
_cell_volume 1219.824960
_symmetry_space_group_name_H-M "P 2/C"
_symmetry_group_IT_number 13
_symmetry_cell_setting 'monoclinic'
loop_
_space_group_symop_operation_xyz
x,y,z
-x,y,1/2-z
-x,-y,-z
x,-y,1/2+z
loop_
_atom_site_type_symbol
_atom_site_label
_atom_site_fract_x
_atom_site_fract_y
_atom_site_fract_z
Si Si1 0.157910 0.616462 0.926520
Si Si2 0.268929 0.683695 0.477114
Si Si3 0.048572 0.304875 0.851931
Si Si4 0.192414 0.497104 0.108906
Si Si5 0.191798 0.894096 0.104855
Si Si6 0.754142 0.135574 0.412469
O O1 0.500000 0.607036 0.750000
O O2 0.000000 0.500000 0.000000
O O3 0.970420 0.693476 0.967095
O O4 0.136303 0.669572 0.003012
O O5 0.600885 0.682886 0.298954
O O6 0.203614 0.570853 0.541727
O O7 0.203733 0.783857 0.550834
O O8 0.939710 0.383732 0.847155
O O9 0.976912 0.179192 0.867522
O O10 0.000000 0.440999 0.250000
O O11 0.500000 0.500000 0.000000
O O12 0.000000 0.923315 0.250000
O O13 0.276444 0.015342 0.041562
O O14 0.470284 0.829201 0.003387
O O15 0.000000 0.148487 0.250000
#
# Coordination Sequence:
#
# PCOD8119737 Si02
#       6
#     4   4   4   4   4   4
#     4  12  28  46  65  90 124 174 219 266 318 375
#     4  12  24  43  65  91 128 170 217 258 319 379
#     4  12  24  43  66  89 129 172 214 261 317 381
#     4  12  24  36  60  96 128 159 201 259 318 380
#     4  10  20  41  67  97 131 170 209 259 325 385
#     4  10  22  38  67 100 132 167 210 262 322 383
#
# _framework density 19.674954
#
# number of rings (size 3 to 8) (size 9 to 14) (size 15 to 20)
#    0.000    0.667    5.000    3.500    4.667    0.000 
#    0.000    0.833    0.000    0.000    0.000    0.000 
#    0.000    0.000    0.000    0.000    0.000    0.000 
#
# Total GULP energy -297534.159430 kJ/mol
# GULP energy per Si atom -12397.256643 kJ/mol
# Density = 1.963017 g / cm^3
# Si number density = 19.674954 Si / 1000 Ang^3
#
#
#
# Elastic Constant Matrix: (Units=GPa)
#
#
# Indices 1 2 3 4 5 6 
#
# 1 96.6650 34.8554 48.3170 0.0000 -6.9457 0.0000
# 2 34.8554 93.8990 24.9241 0.0000 -0.4946 0.0000
# 3 48.3170 24.9241 146.5595 0.0000 -10.3300 0.0000
# 4 0.0000 0.0000 0.0000 24.1062 0.0000 -1.2924
# 5 -6.9457 -0.4946 -10.3300 0.0000 42.1882 0.0000
# 6 0.0000 0.0000 0.0000 -1.2924 0.0000 28.8114
#
#
#
# Elastic Compliance Matrix: (Units=1/GPa)
#
#
# Indices 1 2 3 4 5 6 
#
# 1 0.013802 -0.004119 -0.003758 0.000000 0.001304 0.000000
# 2 -0.004119 0.012387 -0.000800 0.000000 -0.000729 0.000000
# 3 -0.003758 -0.000800 0.008297 0.000000 0.001404 0.000000
# 4 0.000000 0.000000 0.000000 0.041583 0.000000 0.001865
# 5 0.001304 -0.000729 0.001404 0.000000 0.024253 0.000000
# 6 0.000000 0.000000 0.000000 0.001865 0.000000 0.034792
#
#
# Mechanical properties :
#
#
# Convention : Reuss Voigt Hill
#
# Bulk Modulus (GPa) = 58.36810 61.47963 59.92386
# Shear Modulus (GPa) = 31.60958 34.28960 32.94959
#
# Velocity S-wave (km/s) = 4.01258 4.17922 4.09675
# Velocity P-wave (km/s) = 7.15530 7.38941 7.27329
#
# Compressibility (1/GPa) = 0.01713265
#
# Stress axis : x y z
#
# Youngs Moduli (GPa) = 72.45173 80.72810 120.52531
#
# Poissons Ratio (x) = 0.33253 0.45292
# Poissons Ratio (y) = 0.29844 0.09642
# Poissons Ratio (z) = 0.27226 0.06458
#
# Static dielectric constant tensor:
#      x y z
#    x 3.583320 0.000000 -0.088710 
#    y 0.000000 3.589550 0.000000 
#    z -0.088710 0.000000 3.715100 
# 
# 
# High freq. dielectric constant tensor:
#      x y z
#    x 1.758190 0.000000 -0.006530 
#    y 0.000000 1.762360 0.000000 
#    z -0.006530 0.000000 1.788220 
# 
# From -- ./inp_files/15812.got.cif
#   From: 2010.06.25/outbox.cif.g09.slc.cpg/sg13_8_cif.got.tgz:15812.got - 2010.06.28 04:50:58.
