data_PCOD8119841
_publ_section_title
;
Structure prediction by ZEFSAII (Michael W. Deem and Ramdas Pophale) SiO2 
 PCOD8119841
Probable space group: P 2/C
;
_chemical_formula_sum "Si O2"
_cell_formula_units_Z 28
_cell_length_a 18.190447
_cell_length_b 11.092309
_cell_length_c 23.702021
_cell_angle_alpha 90.000000
_cell_angle_beta 162.336964
_cell_angle_gamma 90.000000
_cell_volume 1451.084205
_symmetry_space_group_name_H-M "P 2/C"
_symmetry_group_IT_number 13
_symmetry_cell_setting 'monoclinic'
loop_
_space_group_symop_operation_xyz
x,y,z
-x,y,1/2-z
-x,-y,-z
x,-y,1/2+z
loop_
_atom_site_type_symbol
_atom_site_label
_atom_site_fract_x
_atom_site_fract_y
_atom_site_fract_z
Si Si1 0.718836 0.886831 0.055091
Si Si2 0.347487 0.199851 0.189537
Si Si3 0.060519 0.975765 0.979796
Si Si4 0.262124 0.168622 0.421393
Si Si5 0.933483 0.365728 0.434103
Si Si6 0.668551 0.788708 0.653598
Si Si7 0.604459 0.763668 0.268867
O O1 0.000000 0.847502 0.250000
O O2 0.703707 0.026472 0.059670
O O3 0.540295 0.863626 0.872046
O O4 0.605834 0.813116 0.025463
O O5 0.500000 0.256527 0.250000
O O6 0.201491 0.307197 0.111554
O O7 0.146581 0.104750 0.017940
O O8 0.294828 0.894241 0.141203
O O9 0.830143 0.910186 0.783152
O O10 0.000000 0.000000 0.000000
O O11 0.331873 0.233334 0.413537
O O12 0.408249 0.228584 0.577715
O O13 0.000000 0.203755 0.250000
O O14 0.772673 0.332133 0.260783
O O15 0.000000 0.500000 0.500000
O O16 0.192502 0.312965 0.612065
O O17 0.500000 0.703966 0.250000
#
# Coordination Sequence:
#
# PCOD8119841 Si02
#       7
#     4   4   4   4   4   4   4
#     4  10  21  32  49  84 128 159 183 227 296 375
#     4  11  22  35  59  87 120 156 200 248 299 360
#     4  11  17  34  57  85 122 154 193 234 298 361
#     4  11  21  32  52  90 124 155 184 223 303 372
#     4  10  23  43  62  81 108 156 219 264 292 334
#     4  10  21  36  57  85 121 155 196 247 294 359
#     4  11  21  36  61  88 118 156 191 244 295 362
#
# _framework density 19.295915999999998
#
# number of rings (size 3 to 8) (size 9 to 14) (size 15 to 20)
#    0.000    1.429    5.714    2.571    4.000    1.714 
#    0.000    0.714    0.000    3.429    0.000    0.000 
#    0.000    0.000    0.000    0.000    0.000    0.000 
#
# Total GULP energy -346887.824122 kJ/mol
# GULP energy per Si atom -12388.850862 kJ/mol
# Density = 1.925200 g / cm^3
# Si number density = 19.295916 Si / 1000 Ang^3
#
#
#
# Elastic Constant Matrix: (Units=GPa)
#
#
# Indices 1 2 3 4 5 6 
#
# 1 129.1771 31.9860 66.7331 0.0000 33.1713 0.0000
# 2 31.9860 86.2976 40.1650 0.0000 13.0080 0.0000
# 3 66.7331 40.1650 110.7288 0.0000 13.1161 0.0000
# 4 0.0000 0.0000 0.0000 -33.3884 0.0000 -75.2167
# 5 33.1713 13.0080 13.1161 0.0000 26.5028 0.0000
# 6 0.0000 0.0000 0.0000 -75.2167 0.0000 -91.7983
#
#
#
# Elastic Compliance Matrix: (Units=1/GPa)
#
#
# Indices 1 2 3 4 5 6 
#
# 1 0.015781 0.000132 -0.007660 0.000000 -0.016026 0.000000
# 2 0.000132 0.014494 -0.004753 0.000000 -0.004926 0.000000
# 3 -0.007660 -0.004753 0.014829 0.000000 0.004582 0.000000
# 4 0.000000 0.000000 0.000000 0.035409 0.000000 -0.029013
# 5 -0.016026 -0.004926 0.004582 0.000000 0.057940 0.000000
# 6 0.000000 0.000000 0.000000 -0.029013 0.000000 0.012879
#
#
# Mechanical properties :
#
#
# Convention : Reuss Voigt Hill
#
# Bulk Modulus (GPa) = 48.68462 67.10796 57.89629
# Shear Modulus (GPa) = 27.36092 -7.24882 10.05605
#
# Velocity S-wave (km/s) = 3.76967 -1.94031 2.28535
# Velocity P-wave (km/s) = 6.65075 5.46206 6.08550
#
# Compressibility (1/GPa) = 0.02054037
#
# Stress axis : x y z
#
# Youngs Moduli (GPa) = 63.36607 68.99492 67.43456
#
# Poissons Ratio (x) = -0.00908 0.51658
# Poissons Ratio (y) = -0.00834 0.32053
# Poissons Ratio (z) = 0.48541 0.32795
#
# Static dielectric constant tensor:
#      x y z
#    x 3.423900 0.000000 0.238480 
#    y 0.000000 5.450640 0.000000 
#    z 0.238480 0.000000 3.792080 
# 
# 
# High freq. dielectric constant tensor:
#      x y z
#    x 1.769900 0.000000 0.019020 
#    y 0.000000 1.696710 0.000000 
#    z 0.019020 0.000000 1.760250 
# 
# From -- ./inp_files/88126.got.cif
#   From: 2010.06.25/outbox.cif.g09.slc.cpg/sg13_45_cif.got.tgz:88126.got - 2010.06.28 04:50:58.
