data_PCOD8119505
_publ_section_title
;
Structure prediction by ZEFSAII (Michael W. Deem and Ramdas Pophale) SiO2 
 PCOD8119505
Probable space group: P 2/C
;
_chemical_formula_sum "Si O2"
_cell_formula_units_Z 22
_cell_length_a 6.660025
_cell_length_b 6.353593
_cell_length_c 26.379807
_cell_angle_alpha 90.000000
_cell_angle_beta 72.807141
_cell_angle_gamma 90.000000
_cell_volume 1066.383844
_symmetry_space_group_name_H-M "P 2/C"
_symmetry_group_IT_number 13
_symmetry_cell_setting 'monoclinic'
loop_
_space_group_symop_operation_xyz
x,y,z
-x,y,1/2-z
-x,-y,-z
x,-y,1/2+z
loop_
_atom_site_type_symbol
_atom_site_label
_atom_site_fract_x
_atom_site_fract_y
_atom_site_fract_z
Si Si1 0.059328 0.265305 0.936625
Si Si2 0.436421 0.183480 0.700550
Si Si3 0.325323 0.594536 0.977618
Si Si4 0.000000 0.372481 0.750000
Si Si5 0.201887 0.508917 0.834005
Si Si6 0.672413 0.886731 0.611966
O O1 0.208738 0.395682 0.962666
O O2 0.052384 0.374437 0.882155
O O3 0.141894 0.027726 0.925531
O O4 0.826409 0.260469 0.976910
O O5 0.500000 0.079532 0.750000
O O6 0.568749 0.399835 0.685651
O O7 0.188290 0.225468 0.715617
O O8 0.489359 0.027739 0.650189
O O9 0.422223 0.739743 0.925571
O O10 0.500000 0.500000 0.000000
O O11 0.910733 0.519660 0.712058
O O12 0.225221 0.745983 0.851545
#
# Coordination Sequence:
#
# PCOD8119505 Si02
#       6
#     4   4   4   2   4   4
#     4   9  20  39  59  85 120 154 192 240 292 345
#     4   9  20  39  58  84 118 151 194 247 295 346
#     4  10  21  38  60  87 119 155 194 241 293 346
#     4  10  20  40  64  84 118 158 194 242 296 350
#     4   9  20  38  60  86 119 154 193 243 293 346
#     4  10  20  39  63  86 119 156 193 243 295 347
#
# _framework density 20.630472999999999
#
# number of rings (size 3 to 8) (size 9 to 14) (size 15 to 20)
#    0.000    2.545    0.000    0.545    0.000    7.273 
#    0.000   32.727    0.000    0.000    0.000    0.000 
#    0.000    0.000    0.000    0.000    0.000    0.000 
#
# Total GULP energy -272808.877284 kJ/mol
# GULP energy per Si atom -12400.403513 kJ/mol
# Density = 2.058352 g / cm^3
# Si number density = 20.630473 Si / 1000 Ang^3
#
#
#
# Elastic Constant Matrix: (Units=GPa)
#
#
# Indices 1 2 3 4 5 6 
#
# 1 123.8702 60.2626 75.9987 0.0000 -1.2539 0.0000
# 2 60.2626 114.0092 59.5090 0.0000 4.1949 0.0000
# 3 75.9987 59.5090 138.3986 0.0000 -0.1299 0.0000
# 4 0.0000 0.0000 0.0000 37.8446 0.0000 2.1979
# 5 -1.2539 4.1949 -0.1299 0.0000 33.3762 0.0000
# 6 0.0000 0.0000 0.0000 2.1979 0.0000 5.7729
#
#
#
# Elastic Compliance Matrix: (Units=1/GPa)
#
#
# Indices 1 2 3 4 5 6 
#
# 1 0.013635 -0.004303 -0.005636 0.000000 0.001031 0.000000
# 2 -0.004303 0.012737 -0.003115 0.000000 -0.001775 0.000000
# 3 -0.005636 -0.003115 0.011660 0.000000 0.000225 0.000000
# 4 0.000000 0.000000 0.000000 0.027021 0.000000 -0.010288
# 5 0.001031 -0.001775 0.000225 0.000000 0.030224 0.000000
# 6 0.000000 0.000000 0.000000 -0.010288 0.000000 0.177141
#
#
# Mechanical properties :
#
#
# Convention : Reuss Voigt Hill
#
# Bulk Modulus (GPa) = 83.87174 85.31317 84.59246
# Shear Modulus (GPa) = 16.52882 27.43257 21.98069
#
# Velocity S-wave (km/s) = 2.83359 3.65048 3.26766
# Velocity P-wave (km/s) = 7.17274 7.69485 7.43838
#
# Compressibility (1/GPa) = 0.01192297
#
# Stress axis : x y z
#
# Youngs Moduli (GPa) = 73.34189 78.50991 85.76178
#
# Poissons Ratio (x) = 0.33784 0.48335
# Poissons Ratio (y) = 0.31560 0.26719
# Poissons Ratio (z) = 0.41335 0.24459
#
# Static dielectric constant tensor:
#      x y z
#    x 3.405500 0.000000 -0.126620 
#    y 0.000000 3.606920 0.000000 
#    z -0.126620 0.000000 4.194660 
# 
# 
# High freq. dielectric constant tensor:
#      x y z
#    x 1.779360 0.000000 -0.005680 
#    y 0.000000 1.796680 0.000000 
#    z -0.005680 0.000000 1.835010 
# 
# From -- ./inp_files/94560.got.cif
#   From: 2010.06.25/outbox.cif.g09.slc.cpg/sg13_48_cif.got.tgz:94560.got - 2010.06.28 04:50:58.
