data_PCOD8119319
_publ_section_title
;
Structure prediction by ZEFSAII (Michael W. Deem and Ramdas Pophale) SiO2 
 PCOD8119319
Probable space group: P 2/C
;
_chemical_formula_sum "Si O2"
_cell_formula_units_Z 20
_cell_length_a 4.986471
_cell_length_b 11.277310
_cell_length_c 18.442035
_cell_angle_alpha 90.000000
_cell_angle_beta 68.241727
_cell_angle_gamma 90.000000
_cell_volume 963.184109
_symmetry_space_group_name_H-M "P 2/C"
_symmetry_group_IT_number 13
_symmetry_cell_setting 'monoclinic'
loop_
_space_group_symop_operation_xyz
x,y,z
-x,y,1/2-z
-x,-y,-z
x,-y,1/2+z
loop_
_atom_site_type_symbol
_atom_site_label
_atom_site_fract_x
_atom_site_fract_y
_atom_site_fract_z
Si Si1 0.090543 0.225509 0.096388
Si Si2 0.330595 0.605975 0.196846
Si Si3 0.508678 0.344464 0.164525
Si Si4 0.480404 0.184916 0.918809
Si Si5 0.009038 0.031106 0.915338
O O1 0.258676 0.272233 0.149521
O O2 0.822687 0.309788 0.102759
O O3 0.968722 0.094168 0.128901
O O4 0.296016 0.226912 0.005971
O O5 0.500000 0.652263 0.250000
O O6 0.465665 0.483646 0.154648
O O7 0.360887 0.702177 0.130823
O O8 0.000000 0.584314 0.250000
O O9 0.500000 0.312672 0.250000
O O10 0.716740 0.092621 0.920970
O O11 0.282122 0.119122 0.877607
O O12 0.000000 0.000000 0.000000
#
# Coordination Sequence:
#
# PCOD8119319 Si02
#       5
#     4   4   4   4   4
#     4  11  21  38  64  90 117 154 201 243 288 353
#     4  11  24  43  62  84 122 162 195 242 303 352
#     4  11  23  40  60  85 122 161 193 241 304 349
#     4  11  22  39  65  90 117 156 201 244 288 351
#     4  10  20  38  61  89 124 155 187 243 307 346
#
# _framework density 20.764462000000002
#
# number of rings (size 3 to 8) (size 9 to 14) (size 15 to 20)
#    0.000    1.200    0.000   10.200    0.000    1.600 
#    0.000   10.000    0.000    0.000    0.000    0.000 
#    0.000    0.000    0.000    0.000    0.000    0.000 
#
# Total GULP energy -248034.609878 kJ/mol
# GULP energy per Si atom -12401.730494 kJ/mol
# Density = 2.071720 g / cm^3
# Si number density = 20.764462 Si / 1000 Ang^3
#
#
#
# Elastic Constant Matrix: (Units=GPa)
#
#
# Indices 1 2 3 4 5 6 
#
# 1 129.4138 54.6764 17.0675 0.0000 -16.0161 0.0000
# 2 54.6764 151.5431 57.7559 0.0000 -10.7466 0.0000
# 3 17.0675 57.7559 46.0341 0.0000 -5.2258 0.0000
# 4 0.0000 0.0000 0.0000 26.9656 0.0000 4.4648
# 5 -16.0161 -10.7466 -5.2258 0.0000 33.9871 0.0000
# 6 0.0000 0.0000 0.0000 4.4648 0.0000 37.9815
#
#
#
# Elastic Compliance Matrix: (Units=1/GPa)
#
#
# Indices 1 2 3 4 5 6 
#
# 1 0.009567 -0.003836 0.001669 0.000000 0.003552 0.000000
# 2 -0.003836 0.014268 -0.016459 0.000000 0.000173 0.000000
# 3 0.001669 -0.016459 0.041986 0.000000 0.002038 0.000000
# 4 0.000000 0.000000 0.000000 0.037820 0.000000 -0.004446
# 5 0.003552 0.000173 0.002038 0.000000 0.031465 0.000000
# 6 0.000000 0.000000 0.000000 -0.004446 0.000000 0.026851
#
#
# Mechanical properties :
#
#
# Convention : Reuss Voigt Hill
#
# Bulk Modulus (GPa) = 35.00360 65.11006 50.05683
# Shear Modulus (GPa) = 23.95403 32.95293 28.45348
#
# Velocity S-wave (km/s) = 3.40016 3.98802 3.70577
# Velocity P-wave (km/s) = 5.68409 7.25468 6.51687
#
# Compressibility (1/GPa) = 0.02856849
#
# Stress axis : x y z
#
# Youngs Moduli (GPa) = 104.52210 70.08697 23.81756
#
# Poissons Ratio (x) = 0.26885 -0.03975
# Poissons Ratio (y) = 0.40095 0.39202
# Poissons Ratio (z) = -0.17443 1.15358
#
# Static dielectric constant tensor:
#      x y z
#    x 4.178950 0.000000 0.039810 
#    y 0.000000 4.165710 0.000000 
#    z 0.039810 0.000000 3.505470 
# 
# 
# High freq. dielectric constant tensor:
#      x y z
#    x 1.840640 0.000000 0.003160 
#    y 0.000000 1.828080 0.000000 
#    z 0.003160 0.000000 1.783630 
# 
# From -- ./inp_files/72775.got.cif
#   From: 2010.06.25/outbox.cif.g09.slc.cpg/sg13_37_cif.got.tgz:72775.got - 2010.06.28 04:50:58.
