data_PCOD8119493
_publ_section_title
;
Structure prediction by ZEFSAII (Michael W. Deem and Ramdas Pophale) SiO2 
 PCOD8119493
Probable space group: P 2/C
;
_chemical_formula_sum "Si O2"
_cell_formula_units_Z 26
_cell_length_a 25.625097
_cell_length_b 8.449635
_cell_length_c 10.889598
_cell_angle_alpha 90.000000
_cell_angle_beta 31.739127
_cell_angle_gamma 90.000000
_cell_volume 1240.350538
_symmetry_space_group_name_H-M "P 2/C"
_symmetry_group_IT_number 13
_symmetry_cell_setting 'monoclinic'
loop_
_space_group_symop_operation_xyz
x,y,z
-x,y,1/2-z
-x,-y,-z
x,-y,1/2+z
loop_
_atom_site_type_symbol
_atom_site_label
_atom_site_fract_x
_atom_site_fract_y
_atom_site_fract_z
Si Si1 0.830890 0.500020 0.088377
Si Si2 0.667905 0.295777 0.027400
Si Si3 0.924128 0.801727 0.510496
Si Si4 0.331791 0.295995 0.199166
Si Si5 0.759300 0.000217 0.231651
Si Si6 0.075878 0.802129 0.706778
Si Si7 0.500000 0.500563 0.750000
O O1 0.762594 0.591471 0.321850
O O2 0.896496 0.379991 0.037307
O O3 0.763429 0.407707 0.126144
O O4 0.896399 0.620560 0.877472
O O5 0.683486 0.134313 0.924074
O O6 0.659780 0.239798 0.180722
O O7 0.567087 0.385678 0.197558
O O8 0.829874 0.920095 0.694080
O O9 0.966939 0.811822 0.566174
O O10 0.000000 0.854672 0.250000
O O11 0.316693 0.134519 0.157034
O O12 0.432210 0.386954 0.966642
O O13 0.829968 0.920690 0.986575
O O14 0.000000 0.855158 0.750000
#
# Coordination Sequence:
#
# PCOD8119493 Si02
#       7
#     4   4   4   4   4   4   2
#     4   9  21  37  59  86 114 154 201 241 289 341
#     4  10  20  39  62  84 116 150 187 237 290 346
#     4  11  23  38  58  86 120 158 202 247 291 342
#     4  10  20  39  62  84 116 150 187 237 290 346
#     4  10  23  39  58  84 116 156 196 233 289 350
#     4  11  23  38  58  86 120 158 202 247 291 342
#     4  10  22  38  62  94 110 138 188 236 292 354
#
# _framework density 20.961817
#
# number of rings (size 3 to 8) (size 9 to 14) (size 15 to 20)
#    0.000    1.846    0.000    3.231    0.000   10.462 
#    0.000    6.154    0.000    0.000    0.000    0.000 
#    0.000    0.000    0.000    0.000    0.000    0.000 
#
# Total GULP energy -322178.197292 kJ/mol
# GULP energy per Si atom -12391.469127 kJ/mol
# Density = 2.091411 g / cm^3
# Si number density = 20.961817 Si / 1000 Ang^3
#
#
#
# Elastic Constant Matrix: (Units=GPa)
#
#
# Indices 1 2 3 4 5 6 
#
# 1 109.3995 35.4227 74.5003 0.0000 24.6802 0.0000
# 2 35.4227 143.5520 47.1680 0.0000 -10.3132 0.0000
# 3 74.5003 47.1680 81.2052 0.0000 -4.7457 0.0000
# 4 0.0000 0.0000 0.0000 32.2961 0.0000 -25.2121
# 5 24.6802 -10.3132 -4.7457 0.0000 24.1347 0.0000
# 6 0.0000 0.0000 0.0000 -25.2121 0.0000 0.6197
#
#
#
# Elastic Compliance Matrix: (Units=1/GPa)
#
#
# Indices 1 2 3 4 5 6 
#
# 1 0.175416 -0.002075 -0.172241 0.000000 -0.214135 0.000000
# 2 -0.002075 0.008815 -0.002906 0.000000 0.005317 0.000000
# 3 -0.172241 -0.002906 0.184361 0.000000 0.211144 0.000000
# 4 0.000000 0.000000 0.000000 -0.001007 0.000000 -0.040953
# 5 -0.214135 0.005317 0.211144 0.000000 0.304199 0.000000
# 6 0.000000 0.000000 0.000000 -0.040953 0.000000 -0.052460
#
#
# Mechanical properties :
#
#
# Convention : Reuss Voigt Hill
#
# Bulk Modulus (GPa) = 70.67985 72.03762 71.35874
# Shear Modulus (GPa) = 5.10995 23.21448 14.16222
#
# Velocity S-wave (km/s) = 1.56302 3.33147 2.60209
# Velocity P-wave (km/s) = 6.08679 7.01705 6.56841
#
# Compressibility (1/GPa) = 0.01414830
#
# Stress axis : x y z
#
# Youngs Moduli (GPa) = 5.70075 113.44425 5.42413
#
# Poissons Ratio (x) = 0.23536 0.93426
# Poissons Ratio (y) = 0.01183 0.01576
# Poissons Ratio (z) = 0.98190 0.32967
#
# Static dielectric constant tensor:
#      x y z
#    x 3.665940 0.000000 -0.144960 
#    y 0.000000 4.205980 0.000000 
#    z -0.144960 0.000000 3.839260 
# 
# 
# High freq. dielectric constant tensor:
#      x y z
#    x 1.808350 0.000000 -0.001020 
#    y 0.000000 1.848590 0.000000 
#    z -0.001020 0.000000 1.809170 
# 
# From -- ./inp_files/42263.got.cif
#   From: 2010.06.25/outbox.cif.g09.slc.cpg/sg13_22_cif.got.tgz:42263.got - 2010.06.28 04:50:58.
