data_PCOD8119133
_publ_section_title
;
Structure prediction by ZEFSAII (Michael W. Deem and Ramdas Pophale) SiO2 
 PCOD8119133
Probable space group: P 2/C
;
_chemical_formula_sum "Si O2"
_cell_formula_units_Z 20
_cell_length_a 9.299713
_cell_length_b 7.711680
_cell_length_c 18.800183
_cell_angle_alpha 90.000000
_cell_angle_beta 132.241292
_cell_angle_gamma 90.000000
_cell_volume 998.160283
_symmetry_space_group_name_H-M "P 2/C"
_symmetry_group_IT_number 13
_symmetry_cell_setting 'monoclinic'
loop_
_space_group_symop_operation_xyz
x,y,z
-x,y,1/2-z
-x,-y,-z
x,-y,1/2+z
loop_
_atom_site_type_symbol
_atom_site_label
_atom_site_fract_x
_atom_site_fract_y
_atom_site_fract_z
Si Si1 0.264608 0.123988 0.041684
Si Si2 0.704003 0.962437 0.690645
Si Si3 0.334240 0.288841 0.916972
Si Si4 0.762125 0.664602 0.600853
Si Si5 0.958294 0.156133 0.398203
O O1 0.479097 0.062178 0.133645
O O2 0.169470 0.223100 0.077573
O O3 0.269124 0.250894 0.976030
O O4 0.141118 0.954282 0.984630
O O5 0.784738 0.806271 0.669777
O O6 0.823661 0.964287 0.803363
O O7 0.742143 0.142864 0.662192
O O8 0.242638 0.474003 0.865269
O O9 0.567544 0.298372 0.990703
O O10 0.950775 0.678807 0.612546
#
# Coordination Sequence:
#
# PCOD8119133 Si02
#       5
#     4   4   4   4   4
#     4  10  21  38  59  84 119 155 191 235 300 342
#     4  11  20  40  60  85 117 155 193 245 290 347
#     4  10  20  38  64  82 116 156 193 246 294 344
#     4  10  20  37  61  87 112 153 201 242 291 348
#     4  11  21  36  60  88 116 155 193 240 289 353
#
# _framework density 20.036860999999998
#
# number of rings (size 3 to 8) (size 9 to 14) (size 15 to 20)
#    0.000    1.600    4.000    2.400    0.000    0.800 
#    7.200    0.000    0.000    2.400    0.000    0.000 
#    0.000    0.000    0.000    0.000    0.000    0.000 
#
# Total GULP energy -248004.496920 kJ/mol
# GULP energy per Si atom -12400.224846 kJ/mol
# Density = 1.999126 g / cm^3
# Si number density = 20.036861 Si / 1000 Ang^3
#
#
#
# Elastic Constant Matrix: (Units=GPa)
#
#
# Indices 1 2 3 4 5 6 
#
# 1 142.6587 40.3363 38.1935 0.0000 1.9534 0.0000
# 2 40.3363 101.6904 6.9363 0.0000 -7.8672 0.0000
# 3 38.1935 6.9363 60.3299 0.0000 -1.4053 0.0000
# 4 0.0000 0.0000 0.0000 3.8032 0.0000 7.4369
# 5 1.9534 -7.8672 -1.4053 0.0000 20.1669 0.0000
# 6 0.0000 0.0000 0.0000 7.4369 0.0000 22.3891
#
#
#
# Elastic Compliance Matrix: (Units=1/GPa)
#
#
# Indices 1 2 3 4 5 6 
#
# 1 0.009608 -0.003633 -0.005729 0.000000 -0.002747 0.000000
# 2 -0.003633 0.011584 0.001083 0.000000 0.004946 0.000000
# 3 -0.005729 0.001083 0.020133 0.000000 0.002381 0.000000
# 4 0.000000 0.000000 0.000000 0.750269 0.000000 -0.249214
# 5 -0.002747 0.004946 0.002381 0.000000 0.051948 0.000000
# 6 0.000000 0.000000 0.000000 -0.249214 0.000000 0.127445
#
#
# Mechanical properties :
#
#
# Convention : Reuss Voigt Hill
#
# Bulk Modulus (GPa) = 40.37485 52.84567 46.61026
# Shear Modulus (GPa) = 5.02108 23.88603 14.45356
#
# Velocity S-wave (km/s) = 1.58473 3.45643 2.68871
# Velocity P-wave (km/s) = 4.85206 6.50851 5.74035
#
# Compressibility (1/GPa) = 0.02476789
#
# Stress axis : x y z
#
# Youngs Moduli (GPa) = 104.07535 86.32900 49.66860
#
# Poissons Ratio (x) = 0.31363 0.28456
# Poissons Ratio (y) = 0.37811 -0.05381
# Poissons Ratio (z) = 0.59627 -0.09353
#
# Static dielectric constant tensor:
#      x y z
#    x 4.017700 0.000000 0.065960 
#    y 0.000000 3.430680 0.000000 
#    z 0.065960 0.000000 3.563640 
# 
# 
# High freq. dielectric constant tensor:
#      x y z
#    x 1.794560 0.000000 0.013710 
#    y 0.000000 1.757920 0.000000 
#    z 0.013710 0.000000 1.778280 
# 
# From -- ./inp_files/45712.got.cif
#   From: 2010.06.25/outbox.cif.g09.slc.cpg/sg13_23_cif.got.tgz:45712.got - 2010.06.28 04:50:58.
