data_PCOD8119214
_publ_section_title
;
Structure prediction by ZEFSAII (Michael W. Deem and Ramdas Pophale) SiO2 
 PCOD8119214
Probable space group: P 2/C
;
_chemical_formula_sum "Si O2"
_cell_formula_units_Z 26
_cell_length_a 9.967016
_cell_length_b 19.972114
_cell_length_c 5.360112
_cell_angle_alpha 90.000000
_cell_angle_beta 85.665814
_cell_angle_gamma 90.000000
_cell_volume 1063.945274
_symmetry_space_group_name_H-M "P 2/C"
_symmetry_group_IT_number 13
_symmetry_cell_setting 'monoclinic'
loop_
_space_group_symop_operation_xyz
x,y,z
-x,y,1/2-z
-x,-y,-z
x,-y,1/2+z
loop_
_atom_site_type_symbol
_atom_site_label
_atom_site_fract_x
_atom_site_fract_y
_atom_site_fract_z
Si Si1 0.341778 0.538293 0.259819
Si Si2 0.000000 0.720625 0.750000
Si Si3 0.635861 0.789150 0.332680
Si Si4 0.210499 0.956610 0.745690
Si Si5 0.738299 0.667768 0.018197
Si Si6 0.101003 0.843491 0.028467
Si Si7 0.500000 0.696634 0.750000
Si Si8 0.500000 0.958548 0.750000
O O1 0.500000 0.551784 0.250000
O O2 0.295911 0.496197 0.509407
O O3 0.261200 0.609402 0.274661
O O4 0.116911 0.671917 0.634692
O O5 0.940367 0.768493 0.542898
O O6 0.500000 0.826009 0.250000
O O7 0.747677 0.843892 0.381293
O O8 0.591516 0.743140 0.565472
O O9 0.703615 0.741858 0.116747
O O10 0.188252 0.991074 0.480177
O O11 0.357648 0.919962 0.752745
O O12 0.105072 0.895393 0.794418
O O13 0.609841 0.647745 0.861875
O O14 0.000000 0.871694 0.250000
O O15 0.500000 0.000000 0.500000
#
# Coordination Sequence:
#
# PCOD8119214 Si02
#       8
#     4   2   4   4   4   4   2   2
#     4  10  23  40  68 107 143 184 236 294 351 414
#     4  12  26  46  68  98 140 192 234 290 362 418
#     4  10  22  41  65 100 129 175 233 291 357 407
#     4  10  24  45  70 100 138 184 229 290 358 432
#     4  11  23  41  68  97 141 184 231 289 353 415
#     4  12  26  45  68  99 140 179 238 289 351 431
#     4  10  20  37  66  96 130 172 233 286 354 406
#     4   8  16  39  64  92 126 166 217 268 340 408
#
# _framework density 24.437346000000002
#
# number of rings (size 3 to 8) (size 9 to 14) (size 15 to 20)
#    0.000    1.538    3.077    1.385    7.538    1.231 
#    8.308    0.769    0.000    0.000    0.000    0.000 
#    0.000    0.000    0.000    0.000    0.000    0.000 
#
# Total GULP energy -322182.663456 kJ/mol
# GULP energy per Si atom -12391.640902 kJ/mol
# Density = 2.438173 g / cm^3
# Si number density = 24.437346 Si / 1000 Ang^3
#
#
#
# Elastic Constant Matrix: (Units=GPa)
#
#
# Indices 1 2 3 4 5 6 
#
# 1 125.0098 25.7829 32.2076 0.0000 -22.6095 0.0000
# 2 25.7829 62.5286 11.0027 0.0000 -19.3710 0.0000
# 3 32.2076 11.0027 112.0843 0.0000 -17.6499 0.0000
# 4 0.0000 0.0000 0.0000 51.9674 0.0000 -7.2468
# 5 -22.6095 -19.3710 -17.6499 0.0000 41.5120 0.0000
# 6 0.0000 0.0000 0.0000 -7.2468 0.0000 -23.2232
#
#
#
# Elastic Compliance Matrix: (Units=1/GPa)
#
#
# Indices 1 2 3 4 5 6 
#
# 1 0.009634 -0.002639 -0.002011 0.000000 0.003160 0.000000
# 2 -0.002639 0.019444 0.000056 0.000000 0.007660 0.000000
# 3 -0.002011 0.000056 0.009995 0.000000 0.003180 0.000000
# 4 0.000000 0.000000 0.000000 0.018440 0.000000 -0.005754
# 5 0.003160 0.007660 0.003180 0.000000 0.030737 0.000000
# 6 0.000000 0.000000 0.000000 -0.005754 0.000000 -0.041265
#
#
# Mechanical properties :
#
#
# Convention : Reuss Voigt Hill
#
# Bulk Modulus (GPa) = 33.46419 48.62325 41.04372
# Shear Modulus (GPa) = 75.60158 29.42653 52.51405
#
# Velocity S-wave (km/s) = 5.56813 3.47387 4.64068
# Velocity P-wave (km/s) = 7.42040 6.00255 6.74881
#
# Compressibility (1/GPa) = 0.02988269
#
# Stress axis : x y z
#
# Youngs Moduli (GPa) = 103.80442 51.42966 100.04831
#
# Poissons Ratio (x) = 0.13574 0.20125
# Poissons Ratio (y) = 0.27398 -0.00559
# Poissons Ratio (z) = 0.20880 -0.00287
#
# Static dielectric constant tensor:
#      x y z
#    x 4.805920 0.000000 -0.185340 
#    y 0.000000 3.944750 0.000000 
#    z -0.185340 0.000000 4.698550 
# 
# 
# High freq. dielectric constant tensor:
#      x y z
#    x 1.976020 0.000000 -0.011990 
#    y 0.000000 1.940210 0.000000 
#    z -0.011990 0.000000 1.988460 
# 
# From -- ./inp_files/3918.got.cif
#   From: 2010.06.25/outbox.cif.g09.slc.cpg/sg13_2_cif.got.tgz:3918.got - 2010.06.28 04:50:58.
