data_PCOD8119085
_publ_section_title
;
Structure prediction by ZEFSAII (Michael W. Deem and Ramdas Pophale) SiO2 
 PCOD8119085
Probable space group: P 2/C
;
_chemical_formula_sum "Si O2"
_cell_formula_units_Z 32
_cell_length_a 22.709288
_cell_length_b 11.204780
_cell_length_c 16.971239
_cell_angle_alpha 90.000000
_cell_angle_beta 160.250441
_cell_angle_gamma 90.000000
_cell_volume 1459.219987
_symmetry_space_group_name_H-M "P 2/C"
_symmetry_group_IT_number 13
_symmetry_cell_setting 'monoclinic'
loop_
_space_group_symop_operation_xyz
x,y,z
-x,y,1/2-z
-x,-y,-z
x,-y,1/2+z
loop_
_atom_site_type_symbol
_atom_site_label
_atom_site_fract_x
_atom_site_fract_y
_atom_site_fract_z
Si Si1 0.155059 0.753873 0.384156
Si Si2 0.398709 0.809904 0.255711
Si Si3 0.628226 0.400751 0.070117
Si Si4 0.535492 0.648754 0.632461
Si Si5 0.765533 0.196465 0.794073
Si Si6 0.971286 0.280035 0.496467
Si Si7 0.695825 0.002580 0.480114
Si Si8 0.740654 0.057843 0.208401
O O1 0.314502 0.674567 0.616057
O O2 0.205451 0.893512 0.442287
O O3 0.000000 0.741141 0.250000
O O4 0.106034 0.696968 0.237514
O O5 0.508706 0.692230 0.369207
O O6 0.256097 0.769256 0.141208
O O7 0.538597 0.905804 0.465517
O O8 0.300093 0.874427 0.059610
O O9 0.611983 0.374146 0.142387
O O10 0.833495 0.386781 0.308043
O O11 0.572571 0.533002 0.975997
O O12 0.406813 0.762256 0.470198
O O13 0.931825 0.260454 0.964737
O O14 0.782736 0.054240 0.815862
O O15 0.863769 0.164727 0.390453
O O16 0.500000 0.046006 0.250000
O O17 0.790433 0.978985 0.681936
#
# Coordination Sequence:
#
# PCOD8119085 Si02
#       8
#     4   4   4   4   4   4   4   4
#     4  12  24  36  60  96 123 157 205 265 318 367
#     4   9  20  35  62  87 117 168 213 240 299 381
#     4   9  20  42  62  86 116 167 209 255 310 371
#     4  10  21  39  65  84 119 163 212 256 310 370
#     4  11  21  35  61  91 123 159 207 253 310 378
#     4  11  23  37  61  91 127 156 204 258 317 366
#     4  10  21  37  60  89 130 164 207 256 306 371
#     4  10  20  37  58  86 130 166 193 252 311 371
#
# _framework density 21.929523
#
# number of rings (size 3 to 8) (size 9 to 14) (size 15 to 20)
#    0.000    1.750    2.500    2.250    1.750    0.500 
#    0.000    0.000   16.500    0.750    0.000    0.000 
#    0.000    0.000    0.000    0.000    0.000    0.000 
#
# Total GULP energy -396806.917699 kJ/mol
# GULP energy per Si atom -12400.216178 kJ/mol
# Density = 2.187961 g / cm^3
# Si number density = 21.929523 Si / 1000 Ang^3
#
#
#
# Elastic Constant Matrix: (Units=GPa)
#
#
# Indices 1 2 3 4 5 6 
#
# 1 66.8943 12.4794 16.6247 0.0000 20.1354 0.0000
# 2 12.4794 82.9407 32.4246 0.0000 -2.1375 0.0000
# 3 16.6247 32.4246 71.9899 0.0000 5.4662 0.0000
# 4 0.0000 0.0000 0.0000 25.7683 0.0000 2.8479
# 5 20.1354 -2.1375 5.4662 0.0000 35.0633 0.0000
# 6 0.0000 0.0000 0.0000 2.8479 0.0000 24.1904
#
#
#
# Elastic Compliance Matrix: (Units=1/GPa)
#
#
# Indices 1 2 3 4 5 6 
#
# 1 0.019251 -0.002131 -0.002668 0.000000 -0.010769 0.000000
# 2 -0.002131 0.015001 -0.006504 0.000000 0.003152 0.000000
# 3 -0.002668 -0.006504 0.017558 0.000000 -0.001601 0.000000
# 4 0.000000 0.000000 0.000000 0.039319 0.000000 -0.004629
# 5 -0.010769 0.003152 -0.001601 0.000000 0.035146 0.000000
# 6 0.000000 0.000000 0.000000 -0.004629 0.000000 0.041884
#
#
# Mechanical properties :
#
#
# Convention : Reuss Voigt Hill
#
# Bulk Modulus (GPa) = 34.24155 38.32025 36.28090
# Shear Modulus (GPa) = 24.93769 27.69082 26.31425
#
# Velocity S-wave (km/s) = 3.37586 3.55733 3.46778
# Velocity P-wave (km/s) = 5.55369 5.86387 5.71089
#
# Compressibility (1/GPa) = 0.02920428
#
# Stress axis : x y z
#
# Youngs Moduli (GPa) = 51.94497 66.66099 56.95418
#
# Poissons Ratio (x) = 0.14206 0.15196
# Poissons Ratio (y) = 0.11070 0.37042
# Poissons Ratio (z) = 0.13860 0.43355
#
# Static dielectric constant tensor:
#      x y z
#    x 3.873770 0.000000 0.137880 
#    y 0.000000 3.889460 0.000000 
#    z 0.137880 0.000000 3.926570 
# 
# 
# High freq. dielectric constant tensor:
#      x y z
#    x 1.854460 0.000000 0.014660 
#    y 0.000000 1.849980 0.000000 
#    z 0.014660 0.000000 1.853490 
# 
# From -- ./inp_files/71479.got.cif
#   From: 2010.06.25/outbox.cif.g09.slc.cpg/sg13_36_cif.got.tgz:71479.got - 2010.06.28 04:50:58.
