data_PCOD8119557
_publ_section_title
;
Structure prediction by ZEFSAII (Michael W. Deem and Ramdas Pophale) SiO2 
 PCOD8119557
Probable space group: P 2/C
;
_chemical_formula_sum "Si O2"
_cell_formula_units_Z 20
_cell_length_a 15.975043
_cell_length_b 11.204042
_cell_length_c 12.815659
_cell_angle_alpha 90.000000
_cell_angle_beta 24.134699
_cell_angle_gamma 90.000000
_cell_volume 937.900966
_symmetry_space_group_name_H-M "P 2/C"
_symmetry_group_IT_number 13
_symmetry_cell_setting 'monoclinic'
loop_
_space_group_symop_operation_xyz
x,y,z
-x,y,1/2-z
-x,-y,-z
x,-y,1/2+z
loop_
_atom_site_type_symbol
_atom_site_label
_atom_site_fract_x
_atom_site_fract_y
_atom_site_fract_z
Si Si1 0.781260 0.797207 0.964172
Si Si2 0.941741 0.827500 0.558514
Si Si3 0.827025 0.572600 0.638239
Si Si4 0.575255 0.560361 0.267622
Si Si5 0.276218 0.040275 0.787492
O O1 0.786648 0.826264 0.834545
O O2 0.000000 0.749327 0.750000
O O3 0.628657 0.692848 0.168226
O O4 0.718769 0.917710 0.097750
O O5 0.921688 0.704319 0.517703
O O6 0.176623 0.852021 0.330236
O O7 0.877045 0.929114 0.550325
O O8 0.771199 0.509794 0.591808
O O9 0.000000 0.500000 0.500000
O O10 0.613099 0.575262 0.940963
O O11 0.500000 0.488453 0.250000
O O12 0.500000 0.000000 0.500000
#
# Coordination Sequence:
#
# PCOD8119557 Si02
#       5
#     4   4   4   4   4
#     4  10  20  39  67  91 120 164 211 259 314 377
#     4  10  21  40  62  89 122 162 207 256 313 372
#     4  11  23  39  64  94 129 164 211 269 322 382
#     4  11  23  38  66  97 122 164 219 264 319 387
#     4  10  21  34  62  93 122 157 206 258 308 373
#
# _framework density 21.324213
#
# number of rings (size 3 to 8) (size 9 to 14) (size 15 to 20)
#    0.000    1.600    2.000    3.600    0.000    1.600 
#    0.000    0.000   35.200    0.000    0.000    0.000 
#    0.000    0.000    0.000    0.000    0.000    0.000 
#
# Total GULP energy -247839.720217 kJ/mol
# GULP energy per Si atom -12391.986011 kJ/mol
# Density = 2.127568 g / cm^3
# Si number density = 21.324213 Si / 1000 Ang^3
#
#
#
# Elastic Constant Matrix: (Units=GPa)
#
#
# Indices 1 2 3 4 5 6 
#
# 1 130.7561 63.5156 26.5062 0.0000 -10.2890 0.0000
# 2 63.5156 132.3514 30.2981 0.0000 -3.1461 0.0000
# 3 26.5062 30.2981 87.6627 0.0000 -19.6869 0.0000
# 4 0.0000 0.0000 0.0000 32.2700 0.0000 -8.9154
# 5 -10.2890 -3.1461 -19.6869 0.0000 37.4823 0.0000
# 6 0.0000 0.0000 0.0000 -8.9154 0.0000 22.9461
#
#
#
# Elastic Compliance Matrix: (Units=1/GPa)
#
#
# Indices 1 2 3 4 5 6 
#
# 1 0.010265 -0.004634 -0.001085 0.000000 0.001859 0.000000
# 2 -0.004634 0.010324 -0.002560 0.000000 -0.001750 0.000000
# 3 -0.001085 -0.002560 0.014177 0.000000 0.006934 0.000000
# 4 0.000000 0.000000 0.000000 0.034715 0.000000 0.013488
# 5 0.001859 -0.001750 0.006934 0.000000 0.030685 0.000000
# 6 0.000000 0.000000 0.000000 0.013488 0.000000 0.048821
#
#
# Mechanical properties :
#
#
# Convention : Reuss Voigt Hill
#
# Bulk Modulus (GPa) = 54.91785 65.71223 60.31504
# Shear Modulus (GPa) = 29.13531 33.90301 31.51916
#
# Velocity S-wave (km/s) = 3.70036 3.99166 3.84877
# Velocity P-wave (km/s) = 6.63827 7.21991 6.93519
#
# Compressibility (1/GPa) = 0.01820902
#
# Stress axis : x y z
#
# Youngs Moduli (GPa) = 97.42039 96.86398 70.53514
#
# Poissons Ratio (x) = 0.44883 0.07651
# Poissons Ratio (y) = 0.45140 0.18058
# Poissons Ratio (z) = 0.10568 0.24798
#
# Static dielectric constant tensor:
#      x y z
#    x 4.435210 0.000000 -0.120410 
#    y 0.000000 4.029590 0.000000 
#    z -0.120410 0.000000 3.779640 
# 
# 
# High freq. dielectric constant tensor:
#      x y z
#    x 1.849030 0.000000 -0.025930 
#    y 0.000000 1.827590 0.000000 
#    z -0.025930 0.000000 1.826610 
# 
# From -- ./inp_files/37100.got.cif
#   From: 2010.06.25/outbox.cif.g09.slc.cpg/sg13_19_cif.got.tgz:37100.got - 2010.06.28 04:50:58.
