data_PCOD8119616
_publ_section_title
;
Structure prediction by ZEFSAII (Michael W. Deem and Ramdas Pophale) SiO2 
 PCOD8119616
Probable space group: P 2/C
;
_chemical_formula_sum "Si O2"
_cell_formula_units_Z 18
_cell_length_a 6.557135
_cell_length_b 14.574971
_cell_length_c 12.974910
_cell_angle_alpha 90.000000
_cell_angle_beta 136.954062
_cell_angle_gamma 90.000000
_cell_volume 846.413559
_symmetry_space_group_name_H-M "P 2/C"
_symmetry_group_IT_number 13
_symmetry_cell_setting 'monoclinic'
loop_
_space_group_symop_operation_xyz
x,y,z
-x,y,1/2-z
-x,-y,-z
x,-y,1/2+z
loop_
_atom_site_type_symbol
_atom_site_label
_atom_site_fract_x
_atom_site_fract_y
_atom_site_fract_z
Si Si1 0.244470 0.708549 0.581573
Si Si2 0.564533 0.120240 0.476993
Si Si3 0.599709 0.749187 0.402944
Si Si4 0.292872 0.414191 0.908023
Si Si5 0.000000 0.003640 0.250000
O O1 0.500000 0.670394 0.750000
O O2 0.347740 0.803596 0.571233
O O3 0.195774 0.630912 0.479186
O O4 0.947716 0.725046 0.537706
O O5 0.464644 0.162394 0.550193
O O6 0.286312 0.065358 0.322399
O O7 0.862393 0.058504 0.606379
O O8 0.500000 0.772404 0.250000
O O9 0.424486 0.661563 0.380040
O O10 0.000000 0.457085 0.750000
O O11 0.500000 0.500000 0.000000
#
# Coordination Sequence:
#
# PCOD8119616 Si02
#       5
#     4   4   4   4   2
#     4  11  24  42  66  95 127 170 213 256 313 377
#     4  10  22  40  63  89 131 163 214 257 319 363
#     4  11  22  42  67  90 127 172 211 254 316 377
#     4  11  26  44  66  96 129 164 209 259 313 374
#     4  10  20  40  62  90 126 170 202 272 310 366
#
# _framework density 21.266200000000001
#
# number of rings (size 3 to 8) (size 9 to 14) (size 15 to 20)
#    0.000    1.333    2.222    2.667    6.222    3.556 
#    0.000   22.222    0.000    0.000    0.000    0.000 
#    0.000    0.000    0.000    0.000    0.000    0.000 
#
# Total GULP energy -223200.656295 kJ/mol
# GULP energy per Si atom -12400.036461 kJ/mol
# Density = 2.121780 g / cm^3
# Si number density = 21.266200 Si / 1000 Ang^3
#
#
#
# Elastic Constant Matrix: (Units=GPa)
#
#
# Indices 1 2 3 4 5 6 
#
# 1 87.4093 24.7082 36.9785 0.0000 2.6448 0.0000
# 2 24.7082 108.7797 46.6248 0.0000 3.1512 0.0000
# 3 36.9785 46.6248 182.0934 0.0000 20.2343 0.0000
# 4 0.0000 0.0000 0.0000 40.1333 0.0000 10.6127
# 5 2.6448 3.1512 20.2343 0.0000 33.8776 0.0000
# 6 0.0000 0.0000 0.0000 10.6127 0.0000 0.0814
#
#
#
# Elastic Compliance Matrix: (Units=1/GPa)
#
#
# Indices 1 2 3 4 5 6 
#
# 1 0.012910 -0.002022 -0.002156 0.000000 0.000468 0.000000
# 2 -0.002022 0.010657 -0.002384 0.000000 0.000590 0.000000
# 3 -0.002156 -0.002384 0.006958 0.000000 -0.003766 0.000000
# 4 0.000000 0.000000 0.000000 -0.000745 0.000000 0.097043
# 5 0.000468 0.000590 -0.003766 0.000000 0.031676 0.000000
# 6 0.000000 0.000000 0.000000 0.097043 0.000000 -0.366984
#
#
# Mechanical properties :
#
#
# Convention : Reuss Voigt Hill
#
# Bulk Modulus (GPa) = 57.46463 66.10061 61.78262
# Shear Modulus (GPa) = -17.44567 32.81652 7.68542
#
# Velocity S-wave (km/s) = -2.86728 3.93253 1.90309
# Velocity P-wave (km/s) = 4.01479 7.19512 5.82616
#
# Compressibility (1/GPa) = 0.01740201
#
# Stress axis : x y z
#
# Youngs Moduli (GPa) = 77.46012 93.83766 143.71272
#
# Poissons Ratio (x) = 0.18972 0.30984
# Poissons Ratio (y) = 0.15661 0.34256
# Poissons Ratio (z) = 0.16700 0.22368
#
# Static dielectric constant tensor:
#      x y z
#    x 3.672110 0.000000 0.296110 
#    y 0.000000 3.909780 0.000000 
#    z 0.296110 0.000000 3.881450 
# 
# 
# High freq. dielectric constant tensor:
#      x y z
#    x 1.822480 0.000000 0.009920 
#    y 0.000000 1.839150 0.000000 
#    z 0.009920 0.000000 1.857190 
# 
# From -- ./inp_files/44160.got.cif
#   From: 2010.06.25/outbox.cif.g09.slc.cpg/sg13_23_cif.got.tgz:44160.got - 2010.06.28 04:50:58.
