data_PCOD8119993
_publ_section_title
;
Structure prediction by ZEFSAII (Michael W. Deem and Ramdas Pophale) SiO2 
 PCOD8119993
Probable space group: P 2/C
;
_chemical_formula_sum "Si O2"
_cell_formula_units_Z 18
_cell_length_a 9.605117
_cell_length_b 11.004740
_cell_length_c 8.479547
_cell_angle_alpha 90.000000
_cell_angle_beta 94.603006
_cell_angle_gamma 90.000000
_cell_volume 893.412635
_symmetry_space_group_name_H-M "P 2/C"
_symmetry_group_IT_number 13
_symmetry_cell_setting 'monoclinic'
loop_
_space_group_symop_operation_xyz
x,y,z
-x,y,1/2-z
-x,-y,-z
x,-y,1/2+z
loop_
_atom_site_type_symbol
_atom_site_label
_atom_site_fract_x
_atom_site_fract_y
_atom_site_fract_z
Si Si1 0.637967 0.837859 0.997837
Si Si2 0.864546 0.655477 0.946434
Si Si3 0.456297 0.627290 0.065811
Si Si4 0.500000 0.014837 0.750000
Si Si5 0.170055 0.597741 0.908250
O O1 0.795271 0.781888 0.000904
O O2 0.607885 0.934917 0.859638
O O3 0.533300 0.725979 0.965973
O O4 0.606875 0.901749 0.161565
O O5 0.796280 0.617618 0.772865
O O6 0.030977 0.671438 0.943669
O O7 0.840501 0.547739 0.070018
O O8 0.500000 0.639199 0.250000
O O9 0.500000 0.500000 0.000000
O O10 0.291712 0.650916 0.029453
#
# Coordination Sequence:
#
# PCOD8119993 Si02
#       5
#     4   4   4   2   4
#     4  11  22  41  62  89 119 169 211 264 305 365
#     4  10  21  37  61  88 132 166 194 247 320 385
#     4  12  23  35  60  97 129 156 198 259 323 378
#     4  10  24  40  64  86 122 168 232 260 292 352
#     4  10  21  36  57  96 132 159 193 245 328 395
#
# _framework density 20.147466000000001
#
# number of rings (size 3 to 8) (size 9 to 14) (size 15 to 20)
#    0.000    1.333    3.333    2.667    1.556    0.000 
#    0.000    0.000    0.000   24.000    0.000    0.000 
#    0.000    0.000    0.000    0.000    0.000    0.000 
#
# Total GULP energy -223187.510967 kJ/mol
# GULP energy per Si atom -12399.306165 kJ/mol
# Density = 2.010161 g / cm^3
# Si number density = 20.147466 Si / 1000 Ang^3
#
#
#
# Elastic Constant Matrix: (Units=GPa)
#
#
# Indices 1 2 3 4 5 6 
#
# 1 139.6713 56.4471 55.7161 0.0000 9.8076 0.0000
# 2 56.4471 126.6090 47.2590 0.0000 -13.9746 0.0000
# 3 55.7161 47.2590 116.3989 0.0000 -0.7933 0.0000
# 4 0.0000 0.0000 0.0000 15.4229 0.0000 -10.5512
# 5 9.8076 -13.9746 -0.7933 0.0000 33.7679 0.0000
# 6 0.0000 0.0000 0.0000 -10.5512 0.0000 43.0355
#
#
#
# Elastic Compliance Matrix: (Units=1/GPa)
#
#
# Indices 1 2 3 4 5 6 
#
# 1 0.010439 -0.003887 -0.003451 0.000000 -0.004722 0.000000
# 2 -0.003887 0.011261 -0.002672 0.000000 0.005726 0.000000
# 3 -0.003451 -0.002672 0.011329 0.000000 0.000162 0.000000
# 4 0.000000 0.000000 0.000000 0.077905 0.000000 0.019100
# 5 -0.004722 0.005726 0.000162 0.000000 0.033359 0.000000
# 6 0.000000 0.000000 0.000000 0.019100 0.000000 0.027920
#
#
# Mechanical properties :
#
#
# Convention : Reuss Voigt Hill
#
# Bulk Modulus (GPa) = 76.87372 77.94708 77.41040
# Shear Modulus (GPa) = 25.43639 33.32905 29.38272
#
# Velocity S-wave (km/s) = 3.55704 4.07167 3.82302
# Velocity P-wave (km/s) = 7.42350 7.80236 7.61529
#
# Compressibility (1/GPa) = 0.01300835
#
# Stress axis : x y z
#
# Youngs Moduli (GPa) = 95.79815 88.80260 88.26938
#
# Poissons Ratio (x) = 0.34518 0.30458
# Poissons Ratio (y) = 0.37238 0.23589
# Poissons Ratio (z) = 0.33056 0.23732
#
# Static dielectric constant tensor:
#      x y z
#    x 3.867940 0.000000 -0.000160 
#    y 0.000000 3.994800 0.000000 
#    z -0.000160 0.000000 3.847980 
# 
# 
# High freq. dielectric constant tensor:
#      x y z
#    x 1.784630 0.000000 -0.007750 
#    y 0.000000 1.771500 0.000000 
#    z -0.007750 0.000000 1.796620 
# 
# From -- ./inp_files/11762.got.cif
#   From: 2010.06.25/outbox.cif.g09.slc.cpg/sg13_6_cif.got.tgz:11762.got - 2010.06.28 04:50:58.
