data_PCOD8119807
_publ_section_title
;
Structure prediction by ZEFSAII (Michael W. Deem and Ramdas Pophale) SiO2 
 PCOD8119807
Probable space group: P 2/C
;
_chemical_formula_sum "Si O2"
_cell_formula_units_Z 20
_cell_length_a 9.099712
_cell_length_b 11.477861
_cell_length_c 10.433438
_cell_angle_alpha 90.000000
_cell_angle_beta 57.937105
_cell_angle_gamma 90.000000
_cell_volume 923.502914
_symmetry_space_group_name_H-M "P 2/C"
_symmetry_group_IT_number 13
_symmetry_cell_setting 'monoclinic'
loop_
_space_group_symop_operation_xyz
x,y,z
-x,y,1/2-z
-x,-y,-z
x,-y,1/2+z
loop_
_atom_site_type_symbol
_atom_site_label
_atom_site_fract_x
_atom_site_fract_y
_atom_site_fract_z
Si Si1 0.000000 0.135600 0.250000
Si Si2 0.729246 0.703582 0.817059
Si Si3 0.500000 0.151381 0.250000
Si Si4 0.304895 0.272299 0.865354
Si Si5 0.887921 0.528508 0.174139
Si Si6 0.194519 0.024846 0.954845
O O1 0.100443 0.220028 0.305587
O O2 0.841551 0.057750 0.379666
O O3 0.557276 0.765537 0.841020
O O4 0.743767 0.573046 0.756623
O O5 0.736239 0.699608 0.967806
O O6 0.664259 0.076813 0.124005
O O7 0.500000 0.304675 0.750000
O O8 0.199925 0.348247 0.811670
O O9 0.267985 0.137699 0.847500
O O10 0.000000 0.538742 0.250000
O O11 0.000000 0.500000 0.000000
O O12 0.000000 0.000000 0.000000
#
# Coordination Sequence:
#
# PCOD8119807 Si02
#       6
#     2   4   2   4   4   4
#     4  10  20  42  72  92 146 190 230 304 376 420
#     4  11  24  45  69 104 143 192 242 303 372 435
#     4  12  26  42  78 106 142 194 254 296 378 442
#     4  11  26  46  69 105 150 185 241 314 363 431
#     4  12  24  47  75 104 143 194 247 297 370 443
#     4  11  23  45  69 105 142 194 242 304 362 443
#
# _framework density 21.656673000000001
#
# number of rings (size 3 to 8) (size 9 to 14) (size 15 to 20)
#    0.000    0.800    6.000    1.200    1.400    7.200 
#    1.800    0.000    0.000    0.000    0.000    0.000 
#    0.000    0.000    0.000    0.000    0.000    0.000 
#
# Total GULP energy -247822.608448 kJ/mol
# GULP energy per Si atom -12391.130422 kJ/mol
# Density = 2.160738 g / cm^3
# Si number density = 21.656673 Si / 1000 Ang^3
#
#
#
# Elastic Constant Matrix: (Units=GPa)
#
#
# Indices 1 2 3 4 5 6 
#
# 1 149.3591 75.7886 44.7849 0.0000 -0.6352 0.0000
# 2 75.7886 135.3229 39.8924 0.0000 5.9040 0.0000
# 3 44.7849 39.8924 86.7825 0.0000 -1.7085 0.0000
# 4 0.0000 0.0000 0.0000 26.4137 0.0000 -1.5364
# 5 -0.6352 5.9040 -1.7085 0.0000 34.6531 0.0000
# 6 0.0000 0.0000 0.0000 -1.5364 0.0000 47.6576
#
#
#
# Elastic Compliance Matrix: (Units=1/GPa)
#
#
# Indices 1 2 3 4 5 6 
#
# 1 0.010005 -0.004770 -0.002954 0.000000 0.000850 0.000000
# 2 -0.004770 0.010917 -0.002598 0.000000 -0.002076 0.000000
# 3 -0.002954 -0.002598 0.014263 0.000000 0.001092 0.000000
# 4 0.000000 0.000000 0.000000 0.037930 0.000000 0.001223
# 5 0.000850 -0.002076 0.001092 0.000000 0.029280 0.000000
# 6 0.000000 0.000000 0.000000 0.001223 0.000000 0.021022
#
#
# Mechanical properties :
#
#
# Convention : Reuss Voigt Hill
#
# Bulk Modulus (GPa) = 68.76394 76.93292 72.84843
# Shear Modulus (GPa) = 33.57756 35.81144 34.69450
#
# Velocity S-wave (km/s) = 3.94185 4.07086 4.00687
# Velocity P-wave (km/s) = 7.24833 7.59584 7.42412
#
# Compressibility (1/GPa) = 0.01454251
#
# Stress axis : x y z
#
# Youngs Moduli (GPa) = 99.95207 91.59679 70.11072
#
# Poissons Ratio (x) = 0.43688 0.20709
# Poissons Ratio (y) = 0.47673 0.18215
# Poissons Ratio (z) = 0.29524 0.23797
#
# Static dielectric constant tensor:
#      x y z
#    x 3.891530 0.000000 -0.198400 
#    y 0.000000 4.829670 0.000000 
#    z -0.198400 0.000000 4.498310 
# 
# 
# High freq. dielectric constant tensor:
#      x y z
#    x 1.854280 0.000000 -0.011120 
#    y 0.000000 1.862780 0.000000 
#    z -0.011120 0.000000 1.844720 
# 
# From -- ./inp_files/28960.got.cif
#   From: 2010.06.25/outbox.cif.g09.slc.cpg/sg13_15_cif.got.tgz:28960.got - 2010.06.28 04:50:58.
