data_PCOD8119370
_publ_section_title
;
Structure prediction by ZEFSAII (Michael W. Deem and Ramdas Pophale) SiO2 
 PCOD8119370
Probable space group: P 2/C
;
_chemical_formula_sum "Si O2"
_cell_formula_units_Z 28
_cell_length_a 24.255840
_cell_length_b 11.901175
_cell_length_c 29.753385
_cell_angle_alpha 90.000000
_cell_angle_beta 9.589640
_cell_angle_gamma 90.000000
_cell_volume 1430.845262
_symmetry_space_group_name_H-M "P 2/C"
_symmetry_group_IT_number 13
_symmetry_cell_setting 'monoclinic'
loop_
_space_group_symop_operation_xyz
x,y,z
-x,y,1/2-z
-x,-y,-z
x,-y,1/2+z
loop_
_atom_site_type_symbol
_atom_site_label
_atom_site_fract_x
_atom_site_fract_y
_atom_site_fract_z
Si Si1 0.215621 0.111380 0.619941
Si Si2 0.777316 0.474415 0.559708
Si Si3 0.045180 0.187718 0.474270
Si Si4 0.754376 0.422673 0.169927
Si Si5 0.793645 0.334949 0.826376
Si Si6 0.583649 0.929505 0.976834
Si Si7 0.188507 0.265359 0.260710
O O1 0.058112 0.223504 0.769017
O O2 0.000000 0.081871 0.750000
O O3 0.185417 0.004732 0.676996
O O4 0.606675 0.126278 0.295739
O O5 0.500000 0.422858 0.750000
O O6 0.628332 0.518805 0.726033
O O7 0.924187 0.582603 0.416715
O O8 0.034238 0.377466 0.364434
O O9 0.053035 0.305727 0.494866
O O10 0.008526 0.216881 0.450244
O O11 0.748087 0.109817 0.730250
O O12 0.426401 0.403779 0.461805
O O13 0.000000 0.500000 0.000000
O O14 0.569274 0.294017 0.965289
O O15 0.811529 0.825218 0.779143
O O16 0.500000 0.000000 0.000000
#
# Coordination Sequence:
#
# PCOD8119370 Si02
#       7
#     4   4   4   4   4   4   4
#     4  10  23  43  61  95 127 155 206 267 316 357
#     4  12  25  38  60  98 130 160 204 261 314 366
#     4  10  22  39  68  87 124 160 210 257 301 380
#     4  10  20  38  63  90 116 165 205 243 314 368
#     4  10  22  39  67  86 125 159 206 261 298 384
#     4  12  22  41  68  92 115 171 216 251 304 368
#     4  10  22  42  62  91 123 162 217 249 300 384
#
# _framework density 19.568854000000002
#
# number of rings (size 3 to 8) (size 9 to 14) (size 15 to 20)
#    0.000    1.714    5.714    1.714    6.000    0.000 
#    2.571    0.714    0.000    0.000    0.000    0.000 
#    0.000    0.000    0.000    0.000    0.000    0.000 
#
# Total GULP energy -347113.333071 kJ/mol
# GULP energy per Si atom -12396.904753 kJ/mol
# Density = 1.952431 g / cm^3
# Si number density = 19.568854 Si / 1000 Ang^3
#
#
#
# Elastic Constant Matrix: (Units=GPa)
#
#
# Indices 1 2 3 4 5 6 
#
# 1 126.4790 50.4651 31.6032 0.0000 -18.4490 0.0000
# 2 50.4651 96.4167 16.5003 0.0000 0.3987 0.0000
# 3 31.6032 16.5003 30.7609 0.0000 3.3160 0.0000
# 4 0.0000 0.0000 0.0000 26.2180 0.0000 5.8574
# 5 -18.4490 0.3987 3.3160 0.0000 29.9016 0.0000
# 6 0.0000 0.0000 0.0000 5.8574 0.0000 39.2606
#
#
#
# Elastic Compliance Matrix: (Units=1/GPa)
#
#
# Indices 1 2 3 4 5 6 
#
# 1 0.015203 -0.005645 -0.013775 0.000000 0.010983 0.000000
# 2 -0.005645 0.013525 -0.001073 0.000000 -0.003544 0.000000
# 3 -0.013775 -0.001073 0.048734 0.000000 -0.013889 0.000000
# 4 0.000000 0.000000 0.000000 0.039457 0.000000 -0.005887
# 5 0.010983 -0.003544 -0.013889 0.000000 0.041807 0.000000
# 6 0.000000 0.000000 0.000000 -0.005887 0.000000 0.026349
#
#
# Mechanical properties :
#
#
# Convention : Reuss Voigt Hill
#
# Bulk Modulus (GPa) = 27.41584 50.08819 38.75201
# Shear Modulus (GPa) = 20.98908 29.41522 25.20215
#
# Velocity S-wave (km/s) = 3.27857 3.88127 3.59258
# Velocity P-wave (km/s) = 5.32658 6.76292 6.08726
#
# Compressibility (1/GPa) = 0.03647527
#
# Stress axis : x y z
#
# Youngs Moduli (GPa) = 65.77666 73.93890 20.51963
#
# Poissons Ratio (x) = 0.41741 0.28266
# Poissons Ratio (y) = 0.37133 0.02201
# Poissons Ratio (z) = 0.90608 0.07931
#
# Static dielectric constant tensor:
#      x y z
#    x 3.770860 0.000000 0.065170 
#    y 0.000000 3.802000 0.000000 
#    z 0.065170 0.000000 3.179320 
# 
# 
# High freq. dielectric constant tensor:
#      x y z
#    x 1.766750 0.000000 0.011190 
#    y 0.000000 1.780690 0.000000 
#    z 0.011190 0.000000 1.730250 
# 
# From -- ./inp_files/97703.got.cif
#   From: 2010.06.25/outbox.cif.g09.slc.cpg/sg13_49_cif.got.tgz:97703.got - 2010.06.28 04:50:58.
