data_PCOD8119117
_publ_section_title
;
Structure prediction by ZEFSAII (Michael W. Deem and Ramdas Pophale) SiO2 
 PCOD8119117
Probable space group: P 2/C
;
_chemical_formula_sum "Si O2"
_cell_formula_units_Z 22
_cell_length_a 9.255993
_cell_length_b 11.617365
_cell_length_c 13.485916
_cell_angle_alpha 90.000000
_cell_angle_beta 44.397068
_cell_angle_gamma 90.000000
_cell_volume 1014.559509
_symmetry_space_group_name_H-M "P 2/C"
_symmetry_group_IT_number 13
_symmetry_cell_setting 'monoclinic'
loop_
_space_group_symop_operation_xyz
x,y,z
-x,y,1/2-z
-x,-y,-z
x,-y,1/2+z
loop_
_atom_site_type_symbol
_atom_site_label
_atom_site_fract_x
_atom_site_fract_y
_atom_site_fract_z
Si Si1 0.235722 0.210017 0.801442
Si Si2 0.616232 0.336321 0.379972
Si Si3 0.777663 0.580472 0.319065
Si Si4 0.500000 0.198933 0.250000
Si Si5 0.325698 0.160483 0.977334
Si Si6 0.872090 0.940504 0.476351
O O1 0.257739 0.343778 0.761973
O O2 0.226282 0.210665 0.925171
O O3 0.430578 0.139398 0.661754
O O4 0.030565 0.152617 0.852018
O O5 0.765120 0.446197 0.298943
O O6 0.387531 0.380893 0.517545
O O7 0.615055 0.277018 0.274127
O O8 0.709635 0.248540 0.415396
O O9 0.000000 0.610721 0.250000
O O10 0.331655 0.120120 0.384216
O O11 0.211097 0.039094 0.058833
O O12 0.000000 0.000000 0.500000
#
# Coordination Sequence:
#
# PCOD8119117 Si02
#       6
#     4   4   4   2   4   4
#     4   9  18  36  63  88 116 154 197 243 292 347
#     4  10  24  40  59  86 119 156 196 245 296 347
#     4  10  21  40  62  87 116 153 201 245 291 350
#     4  12  24  40  56  86 124 154 194 244 296 350
#     4   9  19  39  61  86 118 154 195 240 294 352
#     4  10  20  37  60  86 117 153 193 239 292 351
#
# _framework density 21.684287999999999
#
# number of rings (size 3 to 8) (size 9 to 14) (size 15 to 20)
#    0.000    2.182    0.000    3.273    0.000    8.000 
#    0.000   10.000    0.000    0.000    0.000    0.000 
#    0.000    0.000    0.000    0.000    0.000    0.000 
#
# Total GULP energy -272743.774018 kJ/mol
# GULP energy per Si atom -12397.444274 kJ/mol
# Density = 2.163493 g / cm^3
# Si number density = 21.684288 Si / 1000 Ang^3
#
#
#
# Elastic Constant Matrix: (Units=GPa)
#
#
# Indices 1 2 3 4 5 6 
#
# 1 89.5711 58.1887 30.2034 0.0000 -3.0672 0.0000
# 2 58.1887 152.2992 45.5570 0.0000 2.7679 0.0000
# 3 30.2034 45.5570 43.0783 0.0000 -5.9333 0.0000
# 4 0.0000 0.0000 0.0000 32.3158 0.0000 -3.5180
# 5 -3.0672 2.7679 -5.9333 0.0000 40.1839 0.0000
# 6 0.0000 0.0000 0.0000 -3.5180 0.0000 38.4216
#
#
#
# Elastic Compliance Matrix: (Units=1/GPa)
#
#
# Indices 1 2 3 4 5 6 
#
# 1 0.016197 -0.004126 -0.006924 0.000000 0.000498 0.000000
# 2 -0.004126 0.010851 -0.008910 0.000000 -0.002378 0.000000
# 3 -0.006924 -0.008910 0.038281 0.000000 0.005737 0.000000
# 4 0.000000 0.000000 0.000000 0.031256 0.000000 0.002862
# 5 0.000498 -0.002378 0.005737 0.000000 0.025935 0.000000
# 6 0.000000 0.000000 0.000000 0.002862 0.000000 0.026289
#
#
# Mechanical properties :
#
#
# Convention : Reuss Voigt Hill
#
# Bulk Modulus (GPa) = 39.35637 61.42742 50.39190
# Shear Modulus (GPa) = 25.35537 32.25086 28.80312
#
# Velocity S-wave (km/s) = 3.42321 3.86073 3.64853
# Velocity P-wave (km/s) = 5.81495 6.94717 6.40612
#
# Compressibility (1/GPa) = 0.02540885
#
# Stress axis : x y z
#
# Youngs Moduli (GPa) = 61.74153 92.15824 26.12286
#
# Poissons Ratio (x) = 0.38026 0.18087
# Poissons Ratio (y) = 0.25476 0.23275
# Poissons Ratio (z) = 0.42748 0.82111
#
# Static dielectric constant tensor:
#      x y z
#    x 3.832330 0.000000 -0.283010 
#    y 0.000000 4.302380 0.000000 
#    z -0.283010 0.000000 3.859200 
# 
# 
# High freq. dielectric constant tensor:
#      x y z
#    x 1.851790 0.000000 -0.019280 
#    y 0.000000 1.863070 0.000000 
#    z -0.019280 0.000000 1.835360 
# 
# From -- ./inp_files/46484.got.cif
#   From: 2010.06.25/outbox.cif.g09.slc.cpg/sg13_24_cif.got.tgz:46484.got - 2010.06.28 04:50:58.
