data_PCOD8119216
_publ_section_title
;
Structure prediction by ZEFSAII (Michael W. Deem and Ramdas Pophale) SiO2 
 PCOD8119216
Probable space group: P 2/C
;
_chemical_formula_sum "Si O2"
_cell_formula_units_Z 32
_cell_length_a 17.445079
_cell_length_b 12.395451
_cell_length_c 14.065922
_cell_angle_alpha 90.000000
_cell_angle_beta 149.988779
_cell_angle_gamma 90.000000
_cell_volume 1521.320672
_symmetry_space_group_name_H-M "P 2/C"
_symmetry_group_IT_number 13
_symmetry_cell_setting 'monoclinic'
loop_
_space_group_symop_operation_xyz
x,y,z
-x,y,1/2-z
-x,-y,-z
x,-y,1/2+z
loop_
_atom_site_type_symbol
_atom_site_label
_atom_site_fract_x
_atom_site_fract_y
_atom_site_fract_z
Si Si1 0.199383 0.131871 0.846732
Si Si2 0.321921 0.020239 0.807722
Si Si3 0.815993 0.935098 0.541803
Si Si4 0.325031 0.650466 0.557743
Si Si5 0.099467 0.824908 0.578714
Si Si6 0.857625 0.405467 0.456974
Si Si7 0.881926 0.735826 0.704985
Si Si8 0.181764 0.490034 0.285752
O O1 0.303369 0.113944 0.866210
O O2 0.025208 0.117765 0.622615
O O3 0.243333 0.042274 0.971163
O O4 0.221862 0.246558 0.920461
O O5 0.253460 0.066181 0.637143
O O6 0.236209 0.909284 0.742974
O O7 0.500000 0.000000 0.000000
O O8 0.760110 0.824319 0.533622
O O9 0.000000 0.928311 0.750000
O O10 0.500000 0.689474 0.750000
O O11 0.255799 0.586882 0.574785
O O12 0.322471 0.563927 0.469653
O O13 0.156239 0.719354 0.585660
O O14 0.033690 0.788577 0.611353
O O15 0.804923 0.482677 0.313804
O O16 0.030185 0.446877 0.662508
O O17 0.797433 0.627565 0.646053
O O18 0.000000 0.702425 0.750000
#
# Coordination Sequence:
#
# PCOD8119216 Si02
#       8
#     4   4   4   4   4   4   4   4
#     4  12  24  42  68  96 132 174 233 270 335 404
#     4  12  27  42  62  97 142 177 219 279 344 408
#     4  11  22  40  68  96 126 176 220 277 334 404
#     4  12  27  42  66 101 139 179 223 280 351 417
#     4  11  21  42  68  97 130 172 220 286 326 407
#     4  10  22  42  71 100 128 172 234 280 343 397
#     4  10  20  37  67  98 127 160 224 282 336 392
#     4  10  22  44  70  98 127 174 227 297 336 398
#
# _framework density 21.034355000000001
#
# number of rings (size 3 to 8) (size 9 to 14) (size 15 to 20)
#    0.000    1.000    3.750    3.750    3.500    0.500 
#    2.250    2.500    0.000    0.000    0.000    0.000 
#    0.000    0.000    0.000    0.000    0.000    0.000 
#
# Total GULP energy -396619.612899 kJ/mol
# GULP energy per Si atom -12394.362903 kJ/mol
# Density = 2.098648 g / cm^3
# Si number density = 21.034355 Si / 1000 Ang^3
#
#
#
# Elastic Constant Matrix: (Units=GPa)
#
#
# Indices 1 2 3 4 5 6 
#
# 1 96.2404 26.2354 44.0511 0.0000 -14.7513 0.0000
# 2 26.2354 122.0798 27.7212 0.0000 -11.6237 0.0000
# 3 44.0511 27.7212 86.7599 0.0000 3.3623 0.0000
# 4 0.0000 0.0000 0.0000 22.1789 0.0000 -9.6500
# 5 -14.7513 -11.6237 3.3623 0.0000 28.8959 0.0000
# 6 0.0000 0.0000 0.0000 -9.6500 0.0000 33.6043
#
#
#
# Elastic Compliance Matrix: (Units=1/GPa)
#
#
# Indices 1 2 3 4 5 6 
#
# 1 0.015568 -0.000708 -0.008011 0.000000 0.008595 0.000000
# 2 -0.000708 0.009324 -0.002764 0.000000 0.003711 0.000000
# 3 -0.008011 -0.002764 0.016754 0.000000 -0.007151 0.000000
# 4 0.000000 0.000000 0.000000 0.051526 0.000000 0.014796
# 5 0.008595 0.003711 -0.007151 0.000000 0.041319 0.000000
# 6 0.000000 0.000000 0.000000 0.014796 0.000000 0.034007
#
#
# Mechanical properties :
#
#
# Convention : Reuss Voigt Hill
#
# Bulk Modulus (GPa) = 53.53235 55.67727 54.60481
# Shear Modulus (GPa) = 25.29199 30.74065 28.01632
#
# Velocity S-wave (km/s) = 3.47135 3.82704 3.65352
# Velocity P-wave (km/s) = 6.44765 6.78642 6.61920
#
# Compressibility (1/GPa) = 0.01868029
#
# Stress axis : x y z
#
# Youngs Moduli (GPa) = 64.23453 107.24535 59.68801
#
# Poissons Ratio (x) = 0.07594 0.47817
# Poissons Ratio (y) = 0.04549 0.16495
# Poissons Ratio (z) = 0.51460 0.29638
#
# Static dielectric constant tensor:
#      x y z
#    x 3.866320 0.000000 -0.378420 
#    y 0.000000 4.052500 0.000000 
#    z -0.378420 0.000000 3.598600 
# 
# 
# High freq. dielectric constant tensor:
#      x y z
#    x 1.825590 0.000000 -0.035980 
#    y 0.000000 1.841180 0.000000 
#    z -0.035980 0.000000 1.796240 
# 
# From -- ./inp_files/55858.got.cif
#   From: 2010.06.25/outbox.cif.g09.slc.cpg/sg13_28_cif.got.tgz:55858.got - 2010.06.28 04:50:58.
