data_PCOD8119568
_publ_section_title
;
Structure prediction by ZEFSAII (Michael W. Deem and Ramdas Pophale) SiO2 
 PCOD8119568
Probable space group: P 2/C
;
_chemical_formula_sum "Si O2"
_cell_formula_units_Z 14
_cell_length_a 9.953047
_cell_length_b 9.055927
_cell_length_c 9.741181
_cell_angle_alpha 90.000000
_cell_angle_beta 42.940872
_cell_angle_gamma 90.000000
_cell_volume 598.139932
_symmetry_space_group_name_H-M "P 2/C"
_symmetry_group_IT_number 13
_symmetry_cell_setting 'monoclinic'
loop_
_space_group_symop_operation_xyz
x,y,z
-x,y,1/2-z
-x,-y,-z
x,-y,1/2+z
loop_
_atom_site_type_symbol
_atom_site_label
_atom_site_fract_x
_atom_site_fract_y
_atom_site_fract_z
Si Si1 0.170632 0.401020 0.311250
Si Si2 0.000000 0.153667 0.250000
Si Si3 0.634222 0.055325 0.020066
Si Si4 0.767111 0.368490 0.939015
O O1 0.069895 0.253529 0.325887
O O2 0.305213 0.366482 0.345706
O O3 0.000000 0.500000 0.500000
O O4 0.696495 0.487578 0.402865
O O5 0.816079 0.049946 0.425762
O O6 0.500000 0.071337 0.250000
O O7 0.703973 0.216109 0.916651
O O8 0.500000 0.000000 0.000000
O O9 0.000000 0.380985 0.750000
#
# Coordination Sequence:
#
# PCOD8119568 Si02
#       4
#     4   2   4   4
#     4  10  20  39  76 101 129 189 237 277 363 408
#     4  12  24  46  78 100 146 188 228 304 352 414
#     4  12  29  46  71 109 145 187 240 284 359 430
#     4  10  21  43  71 101 137 184 231 292 349 414
#
# _framework density 23.405895000000001
#
# number of rings (size 3 to 8) (size 9 to 14) (size 15 to 20)
#    0.000    1.143    5.714    1.714    8.000    2.286 
#    0.000    7.143    0.000    0.000    0.000    0.000 
#    0.000    0.000    0.000    0.000    0.000    0.000 
#
# Total GULP energy -173479.038501 kJ/mol
# GULP energy per Si atom -12391.359893 kJ/mol
# Density = 2.335262 g / cm^3
# Si number density = 23.405895 Si / 1000 Ang^3
#
#
#
# Elastic Constant Matrix: (Units=GPa)
#
#
# Indices 1 2 3 4 5 6 
#
# 1 145.0839 60.5703 22.4738 0.0000 21.4494 0.0000
# 2 60.5703 168.3372 38.0279 0.0000 0.0347 0.0000
# 3 22.4738 38.0279 46.4973 0.0000 14.9677 0.0000
# 4 0.0000 0.0000 0.0000 21.5395 0.0000 6.1756
# 5 21.4494 0.0347 14.9677 0.0000 32.5626 0.0000
# 6 0.0000 0.0000 0.0000 6.1756 0.0000 42.2335
#
#
#
# Elastic Compliance Matrix: (Units=1/GPa)
#
#
# Indices 1 2 3 4 5 6 
#
# 1 0.009162 -0.003366 0.000312 0.000000 -0.006175 0.000000
# 2 -0.003366 0.008820 -0.007391 0.000000 0.005605 0.000000
# 3 0.000312 -0.007391 0.032234 0.000000 -0.015014 0.000000
# 4 0.000000 0.000000 0.000000 0.048458 0.000000 -0.007086
# 5 -0.006175 0.005605 -0.015014 0.000000 0.041673 0.000000
# 6 0.000000 0.000000 0.000000 -0.007086 0.000000 0.024714
#
#
# Mechanical properties :
#
#
# Convention : Reuss Voigt Hill
#
# Bulk Modulus (GPa) = 34.09863 66.89584 50.49724
# Shear Modulus (GPa) = 25.54588 35.19023 30.36805
#
# Velocity S-wave (km/s) = 3.30726 3.88168 3.60593
# Velocity P-wave (km/s) = 5.40222 6.98088 6.24166
#
# Compressibility (1/GPa) = 0.02932669
#
# Stress axis : x y z
#
# Youngs Moduli (GPa) = 109.14108 113.37736 31.02359
#
# Poissons Ratio (x) = 0.38164 -0.00969
# Poissons Ratio (y) = 0.36738 0.22929
# Poissons Ratio (z) = -0.03409 0.83797
#
# Static dielectric constant tensor:
#      x y z
#    x 6.766020 0.000000 1.213420 
#    y 0.000000 4.334440 0.000000 
#    z 1.213420 0.000000 4.669600 
# 
# 
# High freq. dielectric constant tensor:
#      x y z
#    x 1.941160 0.000000 0.004100 
#    y 0.000000 1.942150 0.000000 
#    z 0.004100 0.000000 1.915080 
# 
# From -- ./inp_files/27932.got.cif
#   From: 2010.06.25/outbox.cif.g09.slc.cpg/sg13_14_cif.got.tgz:27932.got - 2010.06.28 04:50:58.
