data_PCOD8119790
_publ_section_title
;
Structure prediction by ZEFSAII (Michael W. Deem and Ramdas Pophale) SiO2 
 PCOD8119790
Probable space group: P 2/C
;
_chemical_formula_sum "Si O2"
_cell_formula_units_Z 28
_cell_length_a 8.865792
_cell_length_b 11.037620
_cell_length_c 14.960655
_cell_angle_alpha 90.000000
_cell_angle_beta 114.322177
_cell_angle_gamma 90.000000
_cell_volume 1334.068812
_symmetry_space_group_name_H-M "P 2/C"
_symmetry_group_IT_number 13
_symmetry_cell_setting 'monoclinic'
loop_
_space_group_symop_operation_xyz
x,y,z
-x,y,1/2-z
-x,-y,-z
x,-y,1/2+z
loop_
_atom_site_type_symbol
_atom_site_label
_atom_site_fract_x
_atom_site_fract_y
_atom_site_fract_z
Si Si1 0.344280 0.312496 0.603425
Si Si2 0.286788 0.643696 0.284746
Si Si3 0.426806 0.957837 0.137173
Si Si4 0.765794 0.899861 0.163266
Si Si5 0.000000 0.905411 0.750000
Si Si6 0.126339 0.105589 0.007115
Si Si7 0.044723 0.716512 0.909742
Si Si8 0.000000 0.470191 0.250000
O O1 0.530310 0.357811 0.624401
O O2 0.292749 0.384991 0.680372
O O3 0.331520 0.169628 0.621490
O O4 0.216883 0.335900 0.491418
O O5 0.214804 0.778065 0.275806
O O6 0.165678 0.549291 0.304113
O O7 0.500000 0.993154 0.250000
O O8 0.575145 0.939302 0.101510
O O9 0.309807 0.067888 0.081552
O O10 0.849094 0.007251 0.242503
O O11 0.866383 0.877592 0.096925
O O12 0.072333 0.829433 0.850234
O O13 0.075735 0.234414 0.040687
O O14 0.000000 0.000000 0.000000
O O15 0.967404 0.609175 0.831282
#
# Coordination Sequence:
#
# PCOD8119790 Si02
#       8
#     4   4   4   4   2   4   4   2
#     4  10  20  42  68  94 123 165 215 276 331 382
#     4  10  23  42  69  91 122 166 229 279 319 384
#     4  11  20  37  62  98 135 165 207 268 324 393
#     4  11  22  36  66  96 128 171 220 263 323 390
#     4  11  21  38  60  94 135 175 198 264 328 395
#     4  12  23  37  62  96 134 175 212 256 330 404
#     4  11  25  40  63  93 137 170 212 268 333 391
#     4  11  27  46  64  92 127 173 230 280 330 379
#
# _framework density 20.988422
#
# number of rings (size 3 to 8) (size 9 to 14) (size 15 to 20)
#    0.000    1.143    5.714    1.714    4.000    2.286 
#    0.000    0.000   18.857    0.000    0.000    0.000 
#    0.000    0.000    0.000    0.000    0.000    0.000 
#
# Total GULP energy -347064.305074 kJ/mol
# GULP energy per Si atom -12395.153753 kJ/mol
# Density = 2.094065 g / cm^3
# Si number density = 20.988422 Si / 1000 Ang^3
#
#
#
# Elastic Constant Matrix: (Units=GPa)
#
#
# Indices 1 2 3 4 5 6 
#
# 1 115.1149 49.1937 39.0966 0.0000 -1.0728 0.0000
# 2 49.1937 80.9045 20.2170 0.0000 13.3168 0.0000
# 3 39.0966 20.2170 94.9298 0.0000 13.1071 0.0000
# 4 0.0000 0.0000 0.0000 18.2478 0.0000 -4.8013
# 5 -1.0728 13.3168 13.1071 0.0000 33.5490 0.0000
# 6 0.0000 0.0000 0.0000 -4.8013 0.0000 31.3230
#
#
#
# Elastic Compliance Matrix: (Units=1/GPa)
#
#
# Indices 1 2 3 4 5 6 
#
# 1 0.013815 -0.008128 -0.004720 0.000000 0.005512 0.000000
# 2 -0.008128 0.018460 0.000490 0.000000 -0.007779 0.000000
# 3 -0.004720 0.000490 0.013129 0.000000 -0.005475 0.000000
# 4 0.000000 0.000000 0.000000 0.057104 0.000000 0.008753
# 5 0.005512 -0.007779 -0.005475 0.000000 0.035210 0.000000
# 6 0.000000 0.000000 0.000000 0.008753 0.000000 0.033267
#
#
# Mechanical properties :
#
#
# Convention : Reuss Voigt Hill
#
# Bulk Modulus (GPa) = 48.33357 56.44044 52.38700
# Shear Modulus (GPa) = 24.67951 28.78675 26.73313
#
# Velocity S-wave (km/s) = 3.43281 3.70747 3.57278
# Velocity P-wave (km/s) = 6.22823 6.72880 6.48335
#
# Compressibility (1/GPa) = 0.02068956
#
# Stress axis : x y z
#
# Youngs Moduli (GPa) = 72.38688 54.17025 76.16485
#
# Poissons Ratio (x) = 0.44029 0.35947
# Poissons Ratio (y) = 0.58835 -0.03732
# Poissons Ratio (z) = 0.34164 -0.02654
#
# Static dielectric constant tensor:
#      x y z
#    x 4.055120 0.000000 0.013990 
#    y 0.000000 3.584280 0.000000 
#    z 0.013990 0.000000 3.841080 
# 
# 
# High freq. dielectric constant tensor:
#      x y z
#    x 1.826670 0.000000 0.003420 
#    y 0.000000 1.793360 0.000000 
#    z 0.003420 0.000000 1.823650 
# 
# From -- ./inp_files/47015.got.cif
#   From: 2010.06.25/outbox.cif.g09.slc.cpg/sg13_24_cif.got.tgz:47015.got - 2010.06.28 04:50:58.
