data_PCOD8119234
_publ_section_title
;
Structure prediction by ZEFSAII (Michael W. Deem and Ramdas Pophale) SiO2 
 PCOD8119234
Probable space group: P 2/C
;
_chemical_formula_sum "Si O2"
_cell_formula_units_Z 28
_cell_length_a 7.942108
_cell_length_b 31.908412
_cell_length_c 5.365863
_cell_angle_alpha 90.000000
_cell_angle_beta 115.444270
_cell_angle_gamma 90.000000
_cell_volume 1227.919915
_symmetry_space_group_name_H-M "P 2/C"
_symmetry_group_IT_number 13
_symmetry_cell_setting 'monoclinic'
loop_
_space_group_symop_operation_xyz
x,y,z
-x,y,1/2-z
-x,-y,-z
x,-y,1/2+z
loop_
_atom_site_type_symbol
_atom_site_label
_atom_site_fract_x
_atom_site_fract_y
_atom_site_fract_z
Si Si1 0.808098 0.330384 0.247257
Si Si2 0.000000 0.385264 0.750000
Si Si3 0.000000 0.473251 0.250000
Si Si4 0.709406 0.412561 0.935606
Si Si5 0.777262 0.882265 0.107220
Si Si6 0.777949 0.022146 0.607866
Si Si7 0.391118 0.245140 0.423846
Si Si8 0.784504 0.840181 0.612678
O O1 0.853418 0.354387 0.527120
O O2 0.690497 0.289106 0.220736
O O3 0.000000 0.315328 0.250000
O O4 0.696381 0.364128 0.010345
O O5 0.862215 0.415496 0.812100
O O6 0.000000 0.500000 0.500000
O O7 0.187472 0.444802 0.313929
O O8 0.500000 0.428590 0.750000
O O9 0.710526 0.930077 0.080866
O O10 0.695270 0.857378 0.296545
O O11 0.000000 0.878559 0.250000
O O12 0.694385 0.862638 0.798246
O O13 0.000000 0.019193 0.750000
O O14 0.698786 0.002141 0.300673
O O15 0.500000 0.228374 0.250000
O O16 0.238533 0.209861 0.387862
O O17 0.500000 0.252989 0.750000
O O18 0.000000 0.851725 0.750000
#
# Coordination Sequence:
#
# PCOD8119234 Si02
#       8
#     4   2   2   4   4   4   4   4
#     4  10  23  42  69  99 135 177 222 278 341 405
#     4  10  21  44  70 106 142 184 232 294 342 431
#     4  12  27  50  74 108 154 190 248 304 350 427
#     4  11  24  45  74 105 145 191 241 292 361 419
#     4   9  17  30  51  75 107 157 205 240 308 391
#     4   9  15  23  39  70 109 143 181 244 313 375
#     4  12  27  42  61  95 131 163 215 272 324 390
#     4  10  20  38  57  78 114 164 206 249 304 383
#
# _framework density 22.802790999999999
#
# number of rings (size 3 to 8) (size 9 to 14) (size 15 to 20)
#    0.000    1.714    2.143    3.000    6.000    4.000 
#    3.857    0.000    0.000    0.000    0.000    0.000 
#    0.000   40.000    0.000    0.000    0.000    0.000 
#
# Total GULP energy -346983.229782 kJ/mol
# GULP energy per Si atom -12392.258207 kJ/mol
# Density = 2.275089 g / cm^3
# Si number density = 22.802791 Si / 1000 Ang^3
#
#
#
# Elastic Constant Matrix: (Units=GPa)
#
#
# Indices 1 2 3 4 5 6 
#
# 1 70.3934 47.0847 53.7407 0.0000 -5.6781 0.0000
# 2 47.0847 144.4097 39.2351 0.0000 -12.0148 0.0000
# 3 53.7407 39.2351 131.1212 0.0000 -29.4020 0.0000
# 4 0.0000 0.0000 0.0000 25.1287 0.0000 -5.9587
# 5 -5.6781 -12.0148 -29.4020 0.0000 37.6884 0.0000
# 6 0.0000 0.0000 0.0000 -5.9587 0.0000 12.4384
#
#
#
# Elastic Compliance Matrix: (Units=1/GPa)
#
#
# Indices 1 2 3 4 5 6 
#
# 1 0.025326 -0.006059 -0.009871 0.000000 -0.005817 0.000000
# 2 -0.006059 0.009006 0.000276 0.000000 0.002174 0.000000
# 3 -0.009871 0.000276 0.013667 0.000000 0.009263 0.000000
# 4 0.000000 0.000000 0.000000 0.044895 0.000000 0.021507
# 5 -0.005817 0.002174 0.009263 0.000000 0.033576 0.000000
# 6 0.000000 0.000000 0.000000 0.021507 0.000000 0.090699
#
#
# Mechanical properties :
#
#
# Convention : Reuss Voigt Hill
#
# Bulk Modulus (GPa) = 59.91802 69.56058 64.73930
# Shear Modulus (GPa) = 19.68184 28.77534 24.22859
#
# Velocity S-wave (km/s) = 2.94110 3.55621 3.26318
# Velocity P-wave (km/s) = 6.15362 6.88721 6.53073
#
# Compressibility (1/GPa) = 0.01668947
#
# Stress axis : x y z
#
# Youngs Moduli (GPa) = 39.48576 111.03351 73.17083
#
# Poissons Ratio (x) = 0.67280 0.72227
# Poissons Ratio (y) = 0.23926 -0.02019
# Poissons Ratio (z) = 0.38976 -0.03064
#
# Static dielectric constant tensor:
#      x y z
#    x 3.809460 0.000000 -0.291410 
#    y 0.000000 4.059070 0.000000 
#    z -0.291410 0.000000 4.315140 
# 
# 
# High freq. dielectric constant tensor:
#      x y z
#    x 1.883290 0.000000 -0.012130 
#    y 0.000000 1.907610 0.000000 
#    z -0.012130 0.000000 1.908310 
# 
# From -- ./inp_files/2759.got.cif
#   From: 2010.06.25/outbox.cif.g09.slc.cpg/sg13_2_cif.got.tgz:2759.got - 2010.06.28 04:50:58.
