data_PCOD8119661
_publ_section_title
;
Structure prediction by ZEFSAII (Michael W. Deem and Ramdas Pophale) SiO2 
 PCOD8119661
Probable space group: P 2/C
;
_chemical_formula_sum "Si O2"
_cell_formula_units_Z 24
_cell_length_a 18.579175
_cell_length_b 9.079771
_cell_length_c 23.149816
_cell_angle_alpha 90.000000
_cell_angle_beta 16.633973
_cell_angle_gamma 90.000000
_cell_volume 1117.903435
_symmetry_space_group_name_H-M "P 2/C"
_symmetry_group_IT_number 13
_symmetry_cell_setting 'monoclinic'
loop_
_space_group_symop_operation_xyz
x,y,z
-x,y,1/2-z
-x,-y,-z
x,-y,1/2+z
loop_
_atom_site_type_symbol
_atom_site_label
_atom_site_fract_x
_atom_site_fract_y
_atom_site_fract_z
Si Si1 0.500000 0.633701 0.250000
Si Si2 0.956674 0.545383 0.440580
Si Si3 0.500000 0.103418 0.250000
Si Si4 0.842941 0.710485 0.642176
Si Si5 0.558705 0.949702 0.518558
Si Si6 0.983711 0.238546 0.826591
Si Si7 0.639547 0.134155 0.730100
O O1 0.255006 0.534319 0.434554
O O2 0.517463 0.734616 0.179086
O O3 0.832030 0.648587 0.585503
O O4 0.148608 0.428485 0.320668
O O5 0.100407 0.647641 0.283676
O O6 0.305283 0.203443 0.435298
O O7 0.338720 0.004770 0.329515
O O8 0.596917 0.805065 0.843525
O O9 0.082460 0.815079 0.466764
O O10 0.852459 0.910736 0.297920
O O11 0.500000 0.000000 0.500000
O O12 0.506416 0.088213 0.599998
O O13 0.000000 0.308061 0.750000
#
# Coordination Sequence:
#
# PCOD8119661 Si02
#       7
#     2   4   2   4   4   4   4
#     4   9  21  38  70  90 125 181 218 262 322 383
#     4  10  22  42  64  93 129 175 224 256 323 387
#     4  11  21  42  66  90 143 167 220 268 320 391
#     4  10  22  42  68  93 128 180 213 267 324 382
#     4  12  24  40  63 100 135 162 218 271 325 389
#     4  12  25  40  64 102 128 176 215 267 328 381
#     4  10  20  40  66  97 125 176 215 264 328 375
#
# _framework density 21.468758999999999
#
# number of rings (size 3 to 8) (size 9 to 14) (size 15 to 20)
#    0.000    1.333    1.667    4.000    2.333    0.667 
#    3.000    0.000    0.000    0.000    0.000    0.000 
#    0.000    0.000    0.000    0.000    0.000    0.000 
#
# Total GULP energy -297678.402489 kJ/mol
# GULP energy per Si atom -12403.266770 kJ/mol
# Density = 2.141990 g / cm^3
# Si number density = 21.468759 Si / 1000 Ang^3
#
#
#
# Elastic Constant Matrix: (Units=GPa)
#
#
# Indices 1 2 3 4 5 6 
#
# 1 143.6998 47.8448 37.6673 0.0000 17.9421 0.0000
# 2 47.8448 93.5879 34.4985 0.0000 12.4536 0.0000
# 3 37.6673 34.4985 95.0313 0.0000 9.1465 0.0000
# 4 0.0000 0.0000 0.0000 28.1788 0.0000 1.1905
# 5 17.9421 12.4536 9.1465 0.0000 29.9628 0.0000
# 6 0.0000 0.0000 0.0000 1.1905 0.0000 42.8129
#
#
#
# Elastic Compliance Matrix: (Units=1/GPa)
#
#
# Indices 1 2 3 4 5 6 
#
# 1 0.009053 -0.003436 -0.002016 0.000000 -0.003378 0.000000
# 2 -0.003436 0.014092 -0.003491 0.000000 -0.002734 0.000000
# 3 -0.002016 -0.003491 0.012707 0.000000 -0.001221 0.000000
# 4 0.000000 0.000000 0.000000 0.035529 0.000000 -0.000988
# 5 -0.003378 -0.002734 -0.001221 0.000000 0.036906 0.000000
# 6 0.000000 0.000000 0.000000 -0.000988 0.000000 0.023385
#
#
# Mechanical properties :
#
#
# Convention : Reuss Voigt Hill
#
# Bulk Modulus (GPa) = 55.65771 63.59337 59.62554
# Shear Modulus (GPa) = 32.14473 34.34478 33.24476
#
# Velocity S-wave (km/s) = 3.87367 4.00403 3.93939
# Velocity P-wave (km/s) = 6.78147 7.14577 6.96600
#
# Compressibility (1/GPa) = 0.01796696
#
# Stress axis : x y z
#
# Youngs Moduli (GPa) = 110.46061 70.96149 78.69862
#
# Poissons Ratio (x) = 0.24379 0.15866
# Poissons Ratio (y) = 0.37949 0.27473
# Poissons Ratio (z) = 0.22269 0.24772
#
# Static dielectric constant tensor:
#      x y z
#    x 4.220250 0.000000 -0.047780 
#    y 0.000000 4.137280 0.000000 
#    z -0.047780 0.000000 3.628000 
# 
# 
# High freq. dielectric constant tensor:
#      x y z
#    x 1.868500 0.000000 -0.008700 
#    y 0.000000 1.850050 0.000000 
#    z -0.008700 0.000000 1.816760 
# 
# From -- ./inp_files/88019.got.cif
#   From: 2010.06.25/outbox.cif.g09.slc.cpg/sg13_45_cif.got.tgz:88019.got - 2010.06.28 04:50:58.
