data_PCOD8119484
_publ_section_title
;
Structure prediction by ZEFSAII (Michael W. Deem and Ramdas Pophale) SiO2 
 PCOD8119484
Probable space group: P 2/C
;
_chemical_formula_sum "Si O2"
_cell_formula_units_Z 30
_cell_length_a 18.737018
_cell_length_b 8.463451
_cell_length_c 14.416320
_cell_angle_alpha 90.000000
_cell_angle_beta 41.053075
_cell_angle_gamma 90.000000
_cell_volume 1501.438857
_symmetry_space_group_name_H-M "P 2/C"
_symmetry_group_IT_number 13
_symmetry_cell_setting 'monoclinic'
loop_
_space_group_symop_operation_xyz
x,y,z
-x,y,1/2-z
-x,-y,-z
x,-y,1/2+z
loop_
_atom_site_type_symbol
_atom_site_label
_atom_site_fract_x
_atom_site_fract_y
_atom_site_fract_z
Si Si1 0.667979 0.935208 0.694975
Si Si2 0.714993 0.835098 0.312550
Si Si3 0.145035 0.715041 0.021752
Si Si4 0.097267 0.300867 0.775133
Si Si5 0.580217 0.377463 0.520845
Si Si6 0.777358 0.501382 0.720085
Si Si7 0.500000 0.852572 0.250000
Si Si8 0.486861 0.291112 0.425111
O O1 0.781786 0.873505 0.541680
O O2 0.598091 0.777074 0.777533
O O3 0.700570 0.018168 0.759042
O O4 0.595927 0.046913 0.702003
O O5 0.826665 0.844728 0.262841
O O6 0.714683 0.664200 0.259099
O O7 0.612516 0.835039 0.484975
O O8 0.194657 0.584359 0.904171
O O9 0.132705 0.645177 0.136985
O O10 0.025893 0.760773 0.099789
O O11 0.116038 0.455321 0.822609
O O12 0.701114 0.385555 0.357887
O O13 0.571864 0.250424 0.609776
O O14 0.495385 0.326219 0.525888
O O15 0.544479 0.548003 0.597683
#
# Coordination Sequence:
#
# PCOD8119484 Si02
#       8
#     4   4   4   4   4   4   2   4
#     4  12  25  36  63  92 131 172 203 261 319 390
#     4   9  21  40  60  90 126 164 204 263 320 375
#     4  11  22  42  66  91 123 170 219 264 322 374
#     4   9  23  41  66  91 123 162 223 273 309 379
#     4  10  21  40  60  89 126 164 207 256 308 378
#     4   9  20  41  68  91 120 167 212 265 320 369
#     4  12  28  36  58 102 134 164 210 258 322 380
#     4  10  20  39  61  85 121 170 201 247 317 380
#
# _framework density 19.980834999999999
#
# number of rings (size 3 to 8) (size 9 to 14) (size 15 to 20)
#    0.800    1.067    2.667    0.800    1.867    3.200 
#    0.000    0.000    0.000    1.600    0.000    0.000 
#    0.000    0.000    0.000    0.000    0.000    0.000 
#
# Total GULP energy -371660.512321 kJ/mol
# GULP energy per Si atom -12388.683744 kJ/mol
# Density = 1.993536 g / cm^3
# Si number density = 19.980835 Si / 1000 Ang^3
#
#
#
# Elastic Constant Matrix: (Units=GPa)
#
#
# Indices 1 2 3 4 5 6 
#
# 1 103.7388 34.4074 39.4927 0.0000 -16.6845 0.0000
# 2 34.4074 71.9564 43.5464 0.0000 -1.2443 0.0000
# 3 39.4927 43.5464 103.2379 0.0000 -14.1707 0.0000
# 4 0.0000 0.0000 0.0000 16.9281 0.0000 -4.1312
# 5 -16.6845 -1.2443 -14.1707 0.0000 34.3224 0.0000
# 6 0.0000 0.0000 0.0000 -4.1312 0.0000 10.8597
#
#
#
# Elastic Compliance Matrix: (Units=1/GPa)
#
#
# Indices 1 2 3 4 5 6 
#
# 1 0.012886 -0.004725 -0.002226 0.000000 0.005174 0.000000
# 2 -0.004725 0.020637 -0.007537 0.000000 -0.004661 0.000000
# 3 -0.002226 -0.007537 0.014344 0.000000 0.004567 0.000000
# 4 0.000000 0.000000 0.000000 0.065119 0.000000 0.024772
# 5 0.005174 -0.004661 0.004567 0.000000 0.033367 0.000000
# 6 0.000000 0.000000 0.000000 0.024772 0.000000 0.101507
#
#
# Mechanical properties :
#
#
# Convention : Reuss Voigt Hill
#
# Bulk Modulus (GPa) = 52.93605 57.09178 55.01391
# Shear Modulus (GPa) = 17.65940 23.18781 20.42360
#
# Velocity S-wave (km/s) = 2.97613 3.41031 3.20059
# Velocity P-wave (km/s) = 6.19360 6.64396 6.42273
#
# Compressibility (1/GPa) = 0.01889072
#
# Stress axis : x y z
#
# Youngs Moduli (GPa) = 77.60082 48.45557 69.71504
#
# Poissons Ratio (x) = 0.22896 0.15521
# Poissons Ratio (y) = 0.36667 0.52546
# Poissons Ratio (z) = 0.17277 0.36522
#
# Static dielectric constant tensor:
#      x y z
#    x 3.712360 0.000000 -0.149660 
#    y 0.000000 3.504950 0.000000 
#    z -0.149660 0.000000 3.523080 
# 
# 
# High freq. dielectric constant tensor:
#      x y z
#    x 1.782710 0.000000 -0.011190 
#    y 0.000000 1.758320 0.000000 
#    z -0.011190 0.000000 1.775460 
# 
# From -- ./inp_files/57045.got.cif
#   From: 2010.06.25/outbox.cif.g09.slc.cpg/sg13_29_cif.got.tgz:57045.got - 2010.06.28 04:50:58.
