data_PCOD8119243
_publ_section_title
;
Structure prediction by ZEFSAII (Michael W. Deem and Ramdas Pophale) SiO2 
 PCOD8119243
Probable space group: P 2/C
;
_chemical_formula_sum "Si O2"
_cell_formula_units_Z 28
_cell_length_a 13.574219
_cell_length_b 14.147044
_cell_length_c 9.318497
_cell_angle_alpha 90.000000
_cell_angle_beta 119.565234
_cell_angle_gamma 90.000000
_cell_volume 1556.478316
_symmetry_space_group_name_H-M "P 2/C"
_symmetry_group_IT_number 13
_symmetry_cell_setting 'monoclinic'
loop_
_space_group_symop_operation_xyz
x,y,z
-x,y,1/2-z
-x,-y,-z
x,-y,1/2+z
loop_
_atom_site_type_symbol
_atom_site_label
_atom_site_fract_x
_atom_site_fract_y
_atom_site_fract_z
Si Si1 0.435347 0.877520 0.848838
Si Si2 0.989361 0.100233 0.568973
Si Si3 0.594485 0.912352 0.201226
Si Si4 0.813144 0.798115 0.454314
Si Si5 0.866337 0.589950 0.491493
Si Si6 0.200923 0.791603 0.723185
Si Si7 0.126681 0.586904 0.672932
O O1 0.500000 0.859848 0.750000
O O2 0.334312 0.805310 0.801541
O O3 0.376106 0.980774 0.827132
O O4 0.536256 0.855204 0.031910
O O5 0.085944 0.166902 0.573766
O O6 0.000000 0.091895 0.750000
O O7 0.867711 0.143534 0.438679
O O8 0.000000 0.000000 0.500000
O O9 0.500000 0.926665 0.250000
O O10 0.701619 0.856405 0.336346
O O11 0.797063 0.686534 0.409994
O O12 0.841625 0.812035 0.643917
O O13 0.858145 0.563147 0.650714
O O14 0.815814 0.501108 0.368585
O O15 0.996090 0.603392 0.536644
O O16 0.187980 0.682696 0.671862
#
# Coordination Sequence:
#
# PCOD8119243 Si02
#       7
#     4   4   4   4   4   4   4
#     4  10  22  36  58  83 116 149 197 239 280 332
#     4  12  26  38  55  85 120 155 187 232 291 347
#     4  10  20  38  58  83 108 154 197 235 279 339
#     4  11  21  38  62  83 117 150 194 236 291 347
#     4   9  18  34  55  83 110 150 182 239 282 350
#     4  11  21  39  60  84 117 153 186 243 293 341
#     4   9  18  34  56  80 114 144 191 229 292 342
#
# _framework density 17.989328
#
# number of rings (size 3 to 8) (size 9 to 14) (size 15 to 20)
#    0.000    1.714    2.857    2.143    2.000    1.143 
#    0.000    0.000    0.000    1.714    0.000    0.000 
#    0.000    0.000    0.000    0.000    0.000    0.000 
#
# Total GULP energy -347109.727593 kJ/mol
# GULP energy per Si atom -12396.775985 kJ/mol
# Density = 1.794838 g / cm^3
# Si number density = 17.989328 Si / 1000 Ang^3
#
#
#
# Elastic Constant Matrix: (Units=GPa)
#
#
# Indices 1 2 3 4 5 6 
#
# 1 57.9836 27.7995 18.1437 0.0000 -7.6642 0.0000
# 2 27.7995 114.8138 44.0345 0.0000 -5.2999 0.0000
# 3 18.1437 44.0345 91.8362 0.0000 -14.1905 0.0000
# 4 0.0000 0.0000 0.0000 29.7767 0.0000 -1.9993
# 5 -7.6642 -5.2999 -14.1905 0.0000 22.6403 0.0000
# 6 0.0000 0.0000 0.0000 -1.9993 0.0000 27.6472
#
#
#
# Elastic Compliance Matrix: (Units=1/GPa)
#
#
# Indices 1 2 3 4 5 6 
#
# 1 0.020326 -0.004226 -0.001195 0.000000 0.005143 0.000000
# 2 -0.004226 0.011564 -0.004996 0.000000 -0.001855 0.000000
# 3 -0.001195 -0.004996 0.014701 0.000000 0.007640 0.000000
# 4 0.000000 0.000000 0.000000 0.033747 0.000000 0.002440
# 5 0.005143 -0.001855 0.007640 0.000000 0.050264 0.000000
# 6 0.000000 0.000000 0.000000 0.002440 0.000000 0.036347
#
#
# Mechanical properties :
#
#
# Convention : Reuss Voigt Hill
#
# Bulk Modulus (GPa) = 38.82487 49.39879 44.11183
# Shear Modulus (GPa) = 25.46232 27.65657 26.55944
#
# Velocity S-wave (km/s) = 3.76628 3.92521 3.84656
# Velocity P-wave (km/s) = 6.36727 6.93272 6.65601
#
# Compressibility (1/GPa) = 0.02575668
#
# Stress axis : x y z
#
# Youngs Moduli (GPa) = 49.19836 86.47856 68.02104
#
# Poissons Ratio (x) = 0.36544 0.08128
# Poissons Ratio (y) = 0.20790 0.33986
# Poissons Ratio (z) = 0.05878 0.43208
#
# Static dielectric constant tensor:
#      x y z
#    x 3.202560 0.000000 -0.054100 
#    y 0.000000 3.483350 0.000000 
#    z -0.054100 0.000000 3.607760 
# 
# 
# High freq. dielectric constant tensor:
#      x y z
#    x 1.682780 0.000000 -0.013240 
#    y 0.000000 1.696200 0.000000 
#    z -0.013240 0.000000 1.699450 
# 
# From -- ./inp_files/16561.got.cif
#   From: 2010.06.25/outbox.cif.g09.slc.cpg/sg13_9_cif.got.tgz:16561.got - 2010.06.28 04:50:58.
