data_PCOD8119392
_publ_section_title
;
Structure prediction by ZEFSAII (Michael W. Deem and Ramdas Pophale) SiO2 
 PCOD8119392
Probable space group: P 2/C
;
_chemical_formula_sum "Si O2"
_cell_formula_units_Z 32
_cell_length_a 16.808362
_cell_length_b 6.459176
_cell_length_c 27.631030
_cell_angle_alpha 90.000000
_cell_angle_beta 31.460725
_cell_angle_gamma 90.000000
_cell_volume 1565.663807
_symmetry_space_group_name_H-M "P 2/C"
_symmetry_group_IT_number 13
_symmetry_cell_setting 'monoclinic'
loop_
_space_group_symop_operation_xyz
x,y,z
-x,y,1/2-z
-x,-y,-z
x,-y,1/2+z
loop_
_atom_site_type_symbol
_atom_site_label
_atom_site_fract_x
_atom_site_fract_y
_atom_site_fract_z
Si Si1 0.223515 0.882901 0.409496
Si Si2 0.392337 0.201509 0.002270
Si Si3 0.102326 0.761110 0.911715
Si Si4 0.708028 0.627282 0.211582
Si Si5 0.895920 0.934545 0.174987
Si Si6 0.667076 0.898064 0.862273
Si Si7 0.478930 0.413657 0.397438
Si Si8 0.250874 0.063574 0.493803
O O1 0.333940 0.786286 0.310804
O O2 0.079135 0.727416 0.488883
O O3 0.162728 0.109631 0.426187
O O4 0.301181 0.921884 0.421450
O O5 0.312893 0.210213 0.096079
O O6 0.409804 0.433949 0.973667
O O7 0.556493 0.095680 0.922302
O O8 0.284096 0.068553 0.024048
O O9 0.188769 0.546646 0.866073
O O10 0.137263 0.881211 0.844493
O O11 0.803863 0.733994 0.204679
O O12 0.551701 0.541201 0.315145
O O13 0.830239 0.012820 0.260489
O O14 0.073100 0.878823 0.086364
O O15 0.605685 0.731357 0.855803
O O16 0.343418 0.277318 0.445399
#
# Coordination Sequence:
#
# PCOD8119392 Si02
#       8
#     4   4   4   4   4   4   4   4
#     4   9  20  36  57  85 124 163 204 258 315 361
#     4  10  22  40  63  89 121 161 198 257 319 372
#     4   9  18  35  58  89 116 156 213 260 300 364
#     4  11  20  35  67  90 117 164 222 246 298 387
#     4  10  20  38  64  91 119 164 208 259 303 370
#     4  10  20  40  68  87 116 158 212 254 308 375
#     4  11  22  40  63  93 125 162 208 259 309 371
#     4  10  24  40  58  88 136 162 198 262 321 359
#
# _framework density 20.438614000000001
#
# number of rings (size 3 to 8) (size 9 to 14) (size 15 to 20)
#    0.000    2.000    2.500    1.500    0.000    3.500 
#    0.000    3.750    0.000    0.000    0.000    0.000 
#    0.000    0.000    0.000    0.000    0.000    0.000 
#
# Total GULP energy -396809.175626 kJ/mol
# GULP energy per Si atom -12400.286738 kJ/mol
# Density = 2.039210 g / cm^3
# Si number density = 20.438614 Si / 1000 Ang^3
#
#
#
# Elastic Constant Matrix: (Units=GPa)
#
#
# Indices 1 2 3 4 5 6 
#
# 1 98.7848 27.4780 58.0404 0.0000 9.9354 0.0000
# 2 27.4780 77.6008 47.1222 0.0000 -4.9933 0.0000
# 3 58.0404 47.1222 121.3531 0.0000 16.7387 0.0000
# 4 0.0000 0.0000 0.0000 35.1648 0.0000 4.0322
# 5 9.9354 -4.9933 16.7387 0.0000 27.0694 0.0000
# 6 0.0000 0.0000 0.0000 4.0322 0.0000 22.3662
#
#
#
# Elastic Compliance Matrix: (Units=1/GPa)
#
#
# Indices 1 2 3 4 5 6 
#
# 1 0.014236 -0.001540 -0.005959 0.000000 -0.001824 0.000000
# 2 -0.001540 0.018696 -0.007737 0.000000 0.008798 0.000000
# 3 -0.005959 -0.007737 0.015295 0.000000 -0.008698 0.000000
# 4 0.000000 0.000000 0.000000 0.029038 0.000000 -0.005235
# 5 -0.001824 0.008798 -0.008698 0.000000 0.044613 0.000000
# 6 0.000000 0.000000 0.000000 -0.005235 0.000000 0.045654
#
#
# Mechanical properties :
#
#
# Convention : Reuss Voigt Hill
#
# Bulk Modulus (GPa) = 56.32248 62.55776 59.44012
# Shear Modulus (GPa) = 24.51926 27.92662 26.22294
#
# Velocity S-wave (km/s) = 3.46736 3.70045 3.58580
# Velocity P-wave (km/s) = 6.60657 6.99513 6.80363
#
# Compressibility (1/GPa) = 0.01775490
#
# Stress axis : x y z
#
# Youngs Moduli (GPa) = 70.24388 53.48763 65.38231
#
# Poissons Ratio (x) = 0.08235 0.38964
# Poissons Ratio (y) = 0.10814 0.50586
# Poissons Ratio (z) = 0.41861 0.41383
#
# Static dielectric constant tensor:
#      x y z
#    x 3.635280 0.000000 0.244630 
#    y 0.000000 3.678460 0.000000 
#    z 0.244630 0.000000 3.678480 
# 
# 
# High freq. dielectric constant tensor:
#      x y z
#    x 1.785780 0.000000 0.018790 
#    y 0.000000 1.800530 0.000000 
#    z 0.018790 0.000000 1.798360 
# 
# From -- ./inp_files/97241.got.cif
#   From: 2010.06.25/outbox.cif.g09.slc.cpg/sg13_49_cif.got.tgz:97241.got - 2010.06.28 04:50:58.
