data_PCOD8119923
_publ_section_title
;
Structure prediction by ZEFSAII (Michael W. Deem and Ramdas Pophale) SiO2 
 PCOD8119923
Probable space group: P 2/C
;
_chemical_formula_sum "Si O2"
_cell_formula_units_Z 18
_cell_length_a 9.754387
_cell_length_b 7.423344
_cell_length_c 25.753385
_cell_angle_alpha 90.000000
_cell_angle_beta 33.493014
_cell_angle_gamma 90.000000
_cell_volume 1029.066338
_symmetry_space_group_name_H-M "P 2/C"
_symmetry_group_IT_number 13
_symmetry_cell_setting 'monoclinic'
loop_
_space_group_symop_operation_xyz
x,y,z
-x,y,1/2-z
-x,-y,-z
x,-y,1/2+z
loop_
_atom_site_type_symbol
_atom_site_label
_atom_site_fract_x
_atom_site_fract_y
_atom_site_fract_z
Si Si1 0.781642 0.961445 0.223915
Si Si2 0.454075 0.382556 0.822159
Si Si3 0.994972 0.135156 0.548673
Si Si4 0.479697 0.257881 0.138086
Si Si5 0.000000 0.118181 0.250000
O O1 0.652701 0.770345 0.273698
O O2 0.897204 0.970314 0.130194
O O3 0.573474 0.119193 0.297021
O O4 0.995782 0.991221 0.199877
O O5 0.500000 0.458047 0.750000
O O6 0.490963 0.540307 0.851346
O O7 0.176339 0.304018 0.912771
O O8 0.272619 0.205808 0.471416
O O9 0.000000 0.000000 0.500000
O O10 0.246991 0.243976 0.171457
#
# Coordination Sequence:
#
# PCOD8119923 Si02
#       5
#     4   4   4   4   2
#     4   9  21  39  55  84 114 153 188 232 284 334
#     4  10  21  35  59  86 116 148 185 239 289 334
#     4  11  20  35  61  86 116 148 189 236 291 336
#     4  10  21  37  56  84 115 151 189 235 277 337
#     4   8  20  40  58  78 112 166 184 230 280 332
#
# _framework density 17.491585000000001
#
# number of rings (size 3 to 8) (size 9 to 14) (size 15 to 20)
#    1.333    0.889    2.222    0.667    3.111    1.778 
#    0.000    0.000    0.000    8.000    0.000    0.000 
#    0.000    0.000    0.000    0.000    0.000    0.000 
#
# Total GULP energy -223055.355018 kJ/mol
# GULP energy per Si atom -12391.964168 kJ/mol
# Density = 1.745177 g / cm^3
# Si number density = 17.491585 Si / 1000 Ang^3
#
#
#
# Elastic Constant Matrix: (Units=GPa)
#
#
# Indices 1 2 3 4 5 6 
#
# 1 107.0361 34.9167 47.2590 0.0000 -11.9354 0.0000
# 2 34.9167 76.4433 42.4247 0.0000 2.8943 0.0000
# 3 47.2590 42.4247 124.5057 0.0000 -10.2233 0.0000
# 4 0.0000 0.0000 0.0000 19.2589 0.0000 3.3431
# 5 -11.9354 2.8943 -10.2233 0.0000 33.3236 0.0000
# 6 0.0000 0.0000 0.0000 3.3431 0.0000 34.9128
#
#
#
# Elastic Compliance Matrix: (Units=1/GPa)
#
#
# Indices 1 2 3 4 5 6 
#
# 1 0.012461 -0.004184 -0.002983 0.000000 0.003911 0.000000
# 2 -0.004184 0.017870 -0.004874 0.000000 -0.004546 0.000000
# 3 -0.002983 -0.004874 0.011050 0.000000 0.002745 0.000000
# 4 0.000000 0.000000 0.000000 0.052802 0.000000 -0.005056
# 5 0.003911 -0.004546 0.002745 0.000000 0.032647 0.000000
# 6 0.000000 0.000000 0.000000 -0.005056 0.000000 0.029127
#
#
# Mechanical properties :
#
#
# Convention : Reuss Voigt Hill
#
# Bulk Modulus (GPa) = 57.80879 61.90954 59.85917
# Shear Modulus (GPa) = 26.90991 29.72470 28.31730
#
# Velocity S-wave (km/s) = 3.92656 4.12682 4.02793
# Velocity P-wave (km/s) = 7.32656 7.62746 7.47852
#
# Compressibility (1/GPa) = 0.01729841
#
# Stress axis : x y z
#
# Youngs Moduli (GPa) = 80.25189 55.95957 90.49605
#
# Poissons Ratio (x) = 0.23415 0.26993
# Poissons Ratio (y) = 0.33580 0.44109
# Poissons Ratio (z) = 0.23938 0.27276
#
# Static dielectric constant tensor:
#      x y z
#    x 3.137660 0.000000 -0.152090 
#    y 0.000000 3.074470 0.000000 
#    z -0.152090 0.000000 3.439950 
# 
# 
# High freq. dielectric constant tensor:
#      x y z
#    x 1.664940 0.000000 -0.010710 
#    y 0.000000 1.670230 0.000000 
#    z -0.010710 0.000000 1.678580 
# 
# From -- ./inp_files/28102.got.cif
#   From: 2010.06.25/outbox.cif.g09.slc.cpg/sg13_15_cif.got.tgz:28102.got - 2010.06.28 04:50:58.
