data_PCOD8119106
_publ_section_title
;
Structure prediction by ZEFSAII (Michael W. Deem and Ramdas Pophale) SiO2 
 PCOD8119106
Probable space group: P 2/C
;
_chemical_formula_sum "Si O2"
_cell_formula_units_Z 32
_cell_length_a 14.850918
_cell_length_b 16.390072
_cell_length_c 21.327440
_cell_angle_alpha 90.000000
_cell_angle_beta 19.640950
_cell_angle_gamma 90.000000
_cell_volume 1744.911587
_symmetry_space_group_name_H-M "P 2/C"
_symmetry_group_IT_number 13
_symmetry_cell_setting 'monoclinic'
loop_
_space_group_symop_operation_xyz
x,y,z
-x,y,1/2-z
-x,-y,-z
x,-y,1/2+z
loop_
_atom_site_type_symbol
_atom_site_label
_atom_site_fract_x
_atom_site_fract_y
_atom_site_fract_z
Si Si1 0.877068 0.911103 0.015840
Si Si2 0.246195 0.207564 0.797151
Si Si3 0.865434 0.390259 0.643063
Si Si4 0.425813 0.961627 0.703649
Si Si5 0.400080 0.534374 0.747661
Si Si6 0.875570 0.355465 0.898981
Si Si7 0.732199 0.192582 0.053079
Si Si8 0.739431 0.892204 0.962786
O O1 0.817913 0.889783 0.983724
O O2 0.194092 0.922503 0.813808
O O3 0.780646 0.833165 0.117651
O O4 0.711290 0.991109 0.147419
O O5 0.244729 0.303987 0.808104
O O6 0.532263 0.180171 0.580358
O O7 0.002102 0.174463 0.914732
O O8 0.649008 0.458516 0.766711
O O9 0.138652 0.409921 0.427395
O O10 0.914122 0.385015 0.685888
O O11 0.630554 0.891934 0.591197
O O12 0.589589 0.021608 0.550278
O O13 0.500000 0.502368 0.750000
O O14 0.613625 0.589778 0.572992
O O15 0.000000 0.368247 0.750000
O O16 0.795721 0.260599 0.959362
O O17 0.500000 0.229765 0.250000
O O18 0.000000 0.883102 0.750000
#
# Coordination Sequence:
#
# PCOD8119106 Si02
#       8
#     4   4   4   4   4   4   4   4
#     4  10  21  37  59  83 105 143 193 240 281 331
#     4  10  20  37  60  83 109 147 186 238 277 328
#     4   9  19  37  60  86 108 142 190 236 276 324
#     4  10  21  36  62  83 104 143 194 239 284 325
#     4   9  18  35  60  86 111 141 186 235 276 323
#     4  10  21  35  53  85 122 148 176 221 281 346
#     4  11  19  36  62  87 109 140 192 242 282 323
#     4  11  25  40  51  77 121 152 184 232 278 344
#
# _framework density 18.339037999999999
#
# number of rings (size 3 to 8) (size 9 to 14) (size 15 to 20)
#    0.000    2.000    1.250    4.125    3.500    2.500 
#    4.500    0.625    0.000    0.000    0.000    0.000 
#    0.000    0.000    0.000    0.000    0.000    0.000 
#
# Total GULP energy -396762.293662 kJ/mol
# GULP energy per Si atom -12398.821677 kJ/mol
# Density = 1.829730 g / cm^3
# Si number density = 18.339038 Si / 1000 Ang^3
#
#
#
# Elastic Constant Matrix: (Units=GPa)
#
#
# Indices 1 2 3 4 5 6 
#
# 1 84.1583 52.2951 52.8787 0.0000 -3.2401 0.0000
# 2 52.2951 128.4959 47.8264 0.0000 -0.7059 0.0000
# 3 52.8787 47.8264 119.3211 0.0000 -3.5104 0.0000
# 4 0.0000 0.0000 0.0000 15.2203 0.0000 -7.2818
# 5 -3.2401 -0.7059 -3.5104 0.0000 21.0868 0.0000
# 6 0.0000 0.0000 0.0000 -7.2818 0.0000 29.8070
#
#
#
# Elastic Compliance Matrix: (Units=1/GPa)
#
#
# Indices 1 2 3 4 5 6 
#
# 1 0.019339 -0.005513 -0.006310 0.000000 0.001737 0.000000
# 2 -0.005513 0.010720 -0.001877 0.000000 -0.000801 0.000000
# 3 -0.006310 -0.001877 0.011958 0.000000 0.000958 0.000000
# 4 0.000000 0.000000 0.000000 0.074398 0.000000 0.018175
# 5 0.001737 -0.000801 0.000958 0.000000 0.047823 0.000000
# 6 0.000000 0.000000 0.000000 0.018175 0.000000 0.037989
#
#
# Mechanical properties :
#
#
# Convention : Reuss Voigt Hill
#
# Bulk Modulus (GPa) = 68.41105 70.88619 69.64862
# Shear Modulus (GPa) = 21.32203 25.15448 23.23826
#
# Velocity S-wave (km/s) = 3.41348 3.70758 3.56356
# Velocity P-wave (km/s) = 7.27463 7.55416 7.41571
#
# Compressibility (1/GPa) = 0.01461752
#
# Stress axis : x y z
#
# Youngs Moduli (GPa) = 51.70811 93.28120 83.62779
#
# Poissons Ratio (x) = 0.51423 0.52768
# Poissons Ratio (y) = 0.28505 0.15701
# Poissons Ratio (z) = 0.32627 0.17513
#
# Static dielectric constant tensor:
#      x y z
#    x 3.360060 0.000000 -0.305960 
#    y 0.000000 3.449510 0.000000 
#    z -0.305960 0.000000 3.460440 
# 
# 
# High freq. dielectric constant tensor:
#      x y z
#    x 1.706230 0.000000 -0.024990 
#    y 0.000000 1.711840 0.000000 
#    z -0.024990 0.000000 1.704690 
# 
# From -- ./inp_files/80421.got.cif
#   From: 2010.06.25/outbox.cif.g09.slc.cpg/sg13_41_cif.got.tgz:80421.got - 2010.06.28 04:50:58.
