data_PCOD8119059
_publ_section_title
;
Structure prediction by ZEFSAII (Michael W. Deem and Ramdas Pophale) SiO2 
 PCOD8119059
Probable space group: P 2/C
;
_chemical_formula_sum "Si O2"
_cell_formula_units_Z 20
_cell_length_a 16.258394
_cell_length_b 11.988511
_cell_length_c 8.979155
_cell_angle_alpha 90.000000
_cell_angle_beta 33.376555
_cell_angle_gamma 90.000000
_cell_volume 962.832754
_symmetry_space_group_name_H-M "P 2/C"
_symmetry_group_IT_number 13
_symmetry_cell_setting 'monoclinic'
loop_
_space_group_symop_operation_xyz
x,y,z
-x,y,1/2-z
-x,-y,-z
x,-y,1/2+z
loop_
_atom_site_type_symbol
_atom_site_label
_atom_site_fract_x
_atom_site_fract_y
_atom_site_fract_z
Si Si1 0.309237 0.913626 0.916348
Si Si2 0.666358 0.311379 0.557012
Si Si3 0.832457 0.723109 0.519715
Si Si4 0.638800 0.132904 0.828655
Si Si5 0.393465 0.449718 0.284724
O O1 0.461811 0.862154 0.620731
O O2 0.308776 0.043754 0.875268
O O3 0.175285 0.845944 0.041577
O O4 0.285821 0.897662 0.128427
O O5 0.500000 0.284250 0.750000
O O6 0.688065 0.252537 0.685870
O O7 0.697439 0.443804 0.516004
O O8 0.789149 0.264684 0.257599
O O9 0.719666 0.641465 0.603993
O O10 0.000000 0.676863 0.250000
O O11 0.500000 0.394346 0.250000
O O12 0.500000 0.500000 0.000000
#
# Coordination Sequence:
#
# PCOD8119059 Si02
#       5
#     4   4   4   4   4
#     4  10  21  36  62  97 125 164 212 267 310 375
#     4  11  21  40  63  91 127 169 218 264 306 381
#     4  12  26  42  63  97 137 165 205 271 333 373
#     4  10  20  36  67  94 121 164 224 261 303 371
#     4  11  22  41  69  94 122 170 221 263 304 379
#
# _framework density 20.772037000000001
#
# number of rings (size 3 to 8) (size 9 to 14) (size 15 to 20)
#    0.000    1.200    6.000    1.200    8.400    0.800 
#    0.000    5.000    0.000    0.000    0.000    0.000 
#    0.000    0.000    0.000    0.000    0.000    0.000 
#
# Total GULP energy -247985.219776 kJ/mol
# GULP energy per Si atom -12399.260989 kJ/mol
# Density = 2.072476 g / cm^3
# Si number density = 20.772037 Si / 1000 Ang^3
#
#
#
# Elastic Constant Matrix: (Units=GPa)
#
#
# Indices 1 2 3 4 5 6 
#
# 1 85.9119 31.3976 43.7683 0.0000 15.0393 0.0000
# 2 31.3976 74.1123 19.3679 0.0000 1.0493 0.0000
# 3 43.7683 19.3679 95.0073 0.0000 6.6390 0.0000
# 4 0.0000 0.0000 0.0000 22.4556 0.0000 11.5680
# 5 15.0393 1.0493 6.6390 0.0000 36.6988 0.0000
# 6 0.0000 0.0000 0.0000 11.5680 0.0000 33.0626
#
#
#
# Elastic Compliance Matrix: (Units=1/GPa)
#
#
# Indices 1 2 3 4 5 6 
#
# 1 0.018341 -0.005902 -0.006819 0.000000 -0.006114 0.000000
# 2 -0.005902 0.016152 -0.000720 0.000000 0.002087 0.000000
# 3 -0.006819 -0.000720 0.013791 0.000000 0.000320 0.000000
# 4 0.000000 0.000000 0.000000 0.054324 0.000000 -0.019007
# 5 -0.006114 0.002087 0.000320 0.000000 0.029637 0.000000
# 6 0.000000 0.000000 0.000000 -0.019007 0.000000 0.036896
#
#
# Mechanical properties :
#
#
# Convention : Reuss Voigt Hill
#
# Bulk Modulus (GPa) = 46.72176 49.34435 48.03306
# Shear Modulus (GPa) = 24.61170 29.14323 26.87747
#
# Velocity S-wave (km/s) = 3.44590 3.74973 3.60102
# Velocity P-wave (km/s) = 6.19465 6.52335 6.36112
#
# Compressibility (1/GPa) = 0.02140330
#
# Stress axis : x y z
#
# Youngs Moduli (GPa) = 54.52302 61.91276 72.50964
#
# Poissons Ratio (x) = 0.36538 0.49445
# Poissons Ratio (y) = 0.32177 0.05219
# Poissons Ratio (z) = 0.37179 0.04456
#
# Static dielectric constant tensor:
#      x y z
#    x 2.299240 0.000000 0.124720 
#    y 0.000000 4.385790 0.000000 
#    z 0.124720 0.000000 3.546540 
# 
# 
# High freq. dielectric constant tensor:
#      x y z
#    x 1.797650 0.000000 0.038630 
#    y 0.000000 1.822640 0.000000 
#    z 0.038630 0.000000 1.790130 
# 
# From -- ./inp_files/11850.got.cif
#   From: 2010.06.25/outbox.cif.g09.slc.cpg/sg13_6_cif.got.tgz:11850.got - 2010.06.28 04:50:58.
