data_PCOD8119539
_publ_section_title
;
Structure prediction by ZEFSAII (Michael W. Deem and Ramdas Pophale) SiO2 
 PCOD8119539
Probable space group: P 2/C
;
_chemical_formula_sum "Si O2"
_cell_formula_units_Z 32
_cell_length_a 15.242308
_cell_length_b 11.650711
_cell_length_c 17.675371
_cell_angle_alpha 90.000000
_cell_angle_beta 150.309778
_cell_angle_gamma 90.000000
_cell_volume 1554.709195
_symmetry_space_group_name_H-M "P 2/C"
_symmetry_group_IT_number 13
_symmetry_cell_setting 'monoclinic'
loop_
_space_group_symop_operation_xyz
x,y,z
-x,y,1/2-z
-x,-y,-z
x,-y,1/2+z
loop_
_atom_site_type_symbol
_atom_site_label
_atom_site_fract_x
_atom_site_fract_y
_atom_site_fract_z
Si Si1 0.197444 0.673314 0.864732
Si Si2 0.224415 0.541725 0.732508
Si Si3 0.818125 0.062464 0.157805
Si Si4 0.005747 0.327764 0.949568
Si Si5 0.977191 0.930163 0.407548
Si Si6 0.441037 0.487223 0.619277
Si Si7 0.815916 0.683926 0.068952
Si Si8 0.326123 0.915649 0.570411
O O1 0.252054 0.594729 0.835127
O O2 0.220429 0.804365 0.856274
O O3 0.000000 0.649874 0.750000
O O4 0.349949 0.638599 0.040122
O O5 0.091567 0.631356 0.592481
O O6 0.401017 0.520312 0.817775
O O7 0.147542 0.415318 0.687325
O O8 0.000000 0.044979 0.250000
O O9 0.827070 0.991154 0.243136
O O10 0.665185 0.012393 0.988546
O O11 0.922714 0.199675 0.890222
O O12 0.157262 0.332630 0.000212
O O13 0.162100 0.932267 0.503053
O O14 0.000000 0.000000 0.500000
O O15 0.500000 0.499518 0.750000
O O16 0.284902 0.573219 0.477154
O O17 0.000000 0.703650 0.250000
O O18 0.691829 0.794973 0.987331
O O19 0.500000 0.922391 0.750000
#
# Coordination Sequence:
#
# PCOD8119539 Si02
#       8
#     4   4   4   4   4   4   4   4
#     4  11  24  41  65  87 126 174 209 251 320 384
#     4  11  23  40  61  95 130 160 209 263 316 376
#     4   9  20  41  61  89 120 163 213 252 305 384
#     4  10  21  37  64  91 124 163 205 256 317 378
#     4  10  20  39  65  90 120 166 210 252 310 380
#     4  12  24  40  62  95 130 161 215 266 317 372
#     4  11  21  39  66  93 122 167 210 256 320 383
#     4  10  21  38  64  91 123 158 206 267 314 365
#
# _framework density 20.582626000000001
#
# number of rings (size 3 to 8) (size 9 to 14) (size 15 to 20)
#    0.000    1.500    1.250    5.250    3.500    0.500 
#    2.250    0.625    0.000    0.000    0.000    0.000 
#    0.000    0.000    0.000    0.000    0.000    0.000 
#
# Total GULP energy -396711.265609 kJ/mol
# GULP energy per Si atom -12397.227050 kJ/mol
# Density = 2.053578 g / cm^3
# Si number density = 20.582626 Si / 1000 Ang^3
#
#
#
# Elastic Constant Matrix: (Units=GPa)
#
#
# Indices 1 2 3 4 5 6 
#
# 1 66.8589 52.2205 18.9161 0.0000 -10.1877 0.0000
# 2 52.2205 171.6040 69.3763 0.0000 -11.6432 0.0000
# 3 18.9161 69.3763 128.0013 0.0000 -18.1388 0.0000
# 4 0.0000 0.0000 0.0000 30.1314 0.0000 -10.5498
# 5 -10.1877 -11.6432 -18.1388 0.0000 25.3201 0.0000
# 6 0.0000 0.0000 0.0000 -10.5498 0.0000 30.1033
#
#
#
# Elastic Compliance Matrix: (Units=1/GPa)
#
#
# Indices 1 2 3 4 5 6 
#
# 1 0.020492 -0.006333 0.001291 0.000000 0.006258 0.000000
# 2 -0.006333 0.009428 -0.004364 0.000000 -0.001339 0.000000
# 3 0.001291 -0.004364 0.010881 0.000000 0.006307 0.000000
# 4 0.000000 0.000000 0.000000 0.037830 0.000000 0.013258
# 5 0.006258 -0.001339 0.006307 0.000000 0.045915 0.000000
# 6 0.000000 0.000000 0.000000 0.013258 0.000000 0.037865
#
#
# Mechanical properties :
#
#
# Convention : Reuss Voigt Hill
#
# Bulk Modulus (GPa) = 45.47842 71.94334 58.71088
# Shear Modulus (GPa) = 26.51800 32.17437 29.34619
#
# Velocity S-wave (km/s) = 3.59328 3.95800 3.78004
# Velocity P-wave (km/s) = 6.27368 7.47777 6.90203
#
# Compressibility (1/GPa) = 0.02198845
#
# Stress axis : x y z
#
# Youngs Moduli (GPa) = 48.80041 106.06791 91.90691
#
# Poissons Ratio (x) = 0.67174 -0.11865
# Poissons Ratio (y) = 0.30906 0.40106
# Poissons Ratio (z) = -0.06300 0.46285
#
# Static dielectric constant tensor:
#      x y z
#    x 3.624350 0.000000 -0.232910 
#    y 0.000000 4.046590 0.000000 
#    z -0.232910 0.000000 3.675510 
# 
# 
# High freq. dielectric constant tensor:
#      x y z
#    x 1.796600 0.000000 -0.019790 
#    y 0.000000 1.818890 0.000000 
#    z -0.019790 0.000000 1.801370 
# 
# From -- ./inp_files/68715.got.cif
#   From: 2010.06.25/outbox.cif.g09.slc.cpg/sg13_35_cif.got.tgz:68715.got - 2010.06.28 04:50:58.
