data_PCOD8119248
_publ_section_title
;
Structure prediction by ZEFSAII (Michael W. Deem and Ramdas Pophale) SiO2 
 PCOD8119248
Probable space group: P 2/C
;
_chemical_formula_sum "Si O2"
_cell_formula_units_Z 24
_cell_length_a 6.935234
_cell_length_b 10.313704
_cell_length_c 17.689231
_cell_angle_alpha 90.000000
_cell_angle_beta 115.286107
_cell_angle_gamma 90.000000
_cell_volume 1144.043624
_symmetry_space_group_name_H-M "P 2/C"
_symmetry_group_IT_number 13
_symmetry_cell_setting 'monoclinic'
loop_
_space_group_symop_operation_xyz
x,y,z
-x,y,1/2-z
-x,-y,-z
x,-y,1/2+z
loop_
_atom_site_type_symbol
_atom_site_label
_atom_site_fract_x
_atom_site_fract_y
_atom_site_fract_z
Si Si1 0.479902 0.301951 0.969389
Si Si2 0.327425 0.933546 0.082549
Si Si3 0.204110 0.281794 0.149837
Si Si4 0.500000 0.939466 0.750000
Si Si5 0.452311 0.450343 0.371488
Si Si6 0.112947 0.824831 0.479151
Si Si7 0.000000 0.407644 0.250000
O O1 0.588089 0.171643 0.960872
O O2 0.534282 0.413462 0.917898
O O3 0.571166 0.343762 0.066156
O O4 0.225143 0.271425 0.937193
O O5 0.503770 0.968699 0.176109
O O6 0.275429 0.057618 0.022663
O O7 0.113444 0.878217 0.088243
O O8 0.295835 0.152744 0.205370
O O9 0.388276 0.390133 0.164484
O O10 0.077693 0.251614 0.051873
O O11 0.023898 0.327082 0.177193
O O12 0.222091 0.484776 0.296479
#
# Coordination Sequence:
#
# PCOD8119248 Si02
#       7
#     4   4   4   2   4   4   2
#     4  10  21  40  59  85 117 156 189 238 291 345
#     4  10  20  38  58  86 118 157 188 239 286 342
#     4  10  20  39  60  86 115 148 195 248 283 347
#     4  10  20  40  54  84 122 148 190 244 298 334
#     4  10  22  38  60  86 117 149 196 241 289 340
#     4   9  20  38  62  86 115 150 201 230 284 351
#     4  12  20  36  62  90 108 156 196 238 292 342
#
# _framework density 20.978221000000001
#
# number of rings (size 3 to 8) (size 9 to 14) (size 15 to 20)
#    0.000    2.000    1.667    1.500    0.000    1.333 
#   15.000    5.000    0.000    0.000    0.000    0.000 
#    0.000    0.000    0.000    0.000    0.000    0.000 
#
# Total GULP energy -297404.747770 kJ/mol
# GULP energy per Si atom -12391.864490 kJ/mol
# Density = 2.093047 g / cm^3
# Si number density = 20.978221 Si / 1000 Ang^3
#
#
#
# Elastic Constant Matrix: (Units=GPa)
#
#
# Indices 1 2 3 4 5 6 
#
# 1 79.1641 29.6346 28.6290 0.0000 -11.7027 0.0000
# 2 29.6346 66.2676 26.5070 0.0000 -24.4560 0.0000
# 3 28.6290 26.5070 61.4183 0.0000 -4.0532 0.0000
# 4 0.0000 0.0000 0.0000 24.8035 0.0000 -7.3194
# 5 -11.7027 -24.4560 -4.0532 0.0000 31.7762 0.0000
# 6 0.0000 0.0000 0.0000 -7.3194 0.0000 19.5914
#
#
#
# Elastic Compliance Matrix: (Units=1/GPa)
#
#
# Indices 1 2 3 4 5 6 
#
# 1 0.016652 -0.004419 -0.005723 0.000000 0.002002 0.000000
# 2 -0.004419 0.027171 -0.008465 0.000000 0.018204 0.000000
# 3 -0.005723 -0.008465 0.022221 0.000000 -0.005788 0.000000
# 4 0.000000 0.000000 0.000000 0.045313 0.000000 0.016929
# 5 0.002002 0.018204 -0.005788 0.000000 0.045480 0.000000
# 6 0.000000 0.000000 0.000000 0.016929 0.000000 0.057368
#
#
# Mechanical properties :
#
#
# Convention : Reuss Voigt Hill
#
# Bulk Modulus (GPa) = 34.68641 41.82125 38.25383
# Shear Modulus (GPa) = 19.15515 23.37286 21.26400
#
# Velocity S-wave (km/s) = 3.02503 3.34151 3.18720
# Velocity P-wave (km/s) = 5.36390 5.90478 5.64083
#
# Compressibility (1/GPa) = 0.02882973
#
# Stress axis : x y z
#
# Youngs Moduli (GPa) = 60.05435 36.80418 45.00280
#
# Poissons Ratio (x) = 0.16263 0.25754
# Poissons Ratio (y) = 0.26536 0.38097
# Poissons Ratio (z) = 0.34367 0.31156
#
# Static dielectric constant tensor:
#      x y z
#    x 3.683420 0.000000 -0.027420 
#    y 0.000000 3.767850 0.000000 
#    z -0.027420 0.000000 3.730860 
# 
# 
# High freq. dielectric constant tensor:
#      x y z
#    x 1.812990 0.000000 -0.003080 
#    y 0.000000 1.812800 0.000000 
#    z -0.003080 0.000000 1.811500 
# 
# From -- ./inp_files/53782.got.cif
#   From: 2010.06.25/outbox.cif.g09.slc.cpg/sg13_27_cif.got.tgz:53782.got - 2010.06.28 04:50:58.
