data_PCOD8119158
_publ_section_title
;
Structure prediction by ZEFSAII (Michael W. Deem and Ramdas Pophale) SiO2 
 PCOD8119158
Probable space group: P 2/C
;
_chemical_formula_sum "Si O2"
_cell_formula_units_Z 30
_cell_length_a 20.322573
_cell_length_b 8.566738
_cell_length_c 17.645610
_cell_angle_alpha 90.000000
_cell_angle_beta 148.701966
_cell_angle_gamma 90.000000
_cell_volume 1595.908074
_symmetry_space_group_name_H-M "P 2/C"
_symmetry_group_IT_number 13
_symmetry_cell_setting 'monoclinic'
loop_
_space_group_symop_operation_xyz
x,y,z
-x,y,1/2-z
-x,-y,-z
x,-y,1/2+z
loop_
_atom_site_type_symbol
_atom_site_label
_atom_site_fract_x
_atom_site_fract_y
_atom_site_fract_z
Si Si1 0.027334 0.359111 0.926888
Si Si2 0.000000 0.561794 0.750000
Si Si3 0.637947 0.387337 0.752554
Si Si4 0.647451 0.636737 0.504056
Si Si5 0.798955 0.480262 0.779211
Si Si6 0.639977 0.359582 0.377012
Si Si7 0.127351 0.860706 0.418845
Si Si8 0.780965 0.794543 0.515974
O O1 0.089927 0.190392 0.968161
O O2 0.033429 0.461657 0.856644
O O3 0.882362 0.352875 0.814355
O O4 0.112101 0.432881 0.074696
O O5 0.880653 0.671030 0.647184
O O6 0.493170 0.335189 0.604087
O O7 0.688462 0.392487 0.716216
O O8 0.650988 0.555783 0.806215
O O9 0.716784 0.256327 0.874575
O O10 0.739993 0.610059 0.665816
O O11 0.656734 0.487364 0.458519
O O12 0.681192 0.792500 0.487939
O O13 0.500000 0.282156 0.250000
O O14 0.749717 0.230667 0.492036
O O15 0.000000 0.812996 0.250000
O O16 0.153772 0.042113 0.436700
#
# Coordination Sequence:
#
# PCOD8119158 Si02
#       8
#     4   2   4   4   4   4   4   4
#     4  11  22  35  64  86 119 154 196 246 298 352
#     4  12  18  40  60  80 116 150 202 248 278 342
#     4  10  20  38  60  87 115 158 200 244 293 349
#     4  10  20  37  62  87 115 152 207 251 285 352
#     4  11  20  34  61  93 118 151 198 244 302 346
#     4   9  19  37  60  85 113 153 208 249 286 346
#     4  12  22  36  59  89 119 154 196 252 302 345
#     4  11  22  36  58  86 117 153 202 243 294 351
#
# _framework density 18.798075999999998
#
# number of rings (size 3 to 8) (size 9 to 14) (size 15 to 20)
#    0.000    1.333    5.333    3.200    0.000    1.067 
#    0.000    0.667    2.933    0.800    0.000    0.000 
#    0.000    0.000    0.000    0.000    0.000    0.000 
#
# Total GULP energy -371810.325299 kJ/mol
# GULP energy per Si atom -12393.677510 kJ/mol
# Density = 1.875529 g / cm^3
# Si number density = 18.798076 Si / 1000 Ang^3
#
#
#
# Elastic Constant Matrix: (Units=GPa)
#
#
# Indices 1 2 3 4 5 6 
#
# 1 122.1497 40.5080 36.8883 0.0000 16.0438 0.0000
# 2 40.5080 72.7800 34.2862 0.0000 8.1709 0.0000
# 3 36.8883 34.2862 96.4846 0.0000 8.3046 0.0000
# 4 0.0000 0.0000 0.0000 19.3776 0.0000 9.8290
# 5 16.0438 8.1709 8.3046 0.0000 36.1798 0.0000
# 6 0.0000 0.0000 0.0000 9.8290 0.0000 18.5537
#
#
#
# Elastic Compliance Matrix: (Units=1/GPa)
#
#
# Indices 1 2 3 4 5 6 
#
# 1 0.010810 -0.004609 -0.002216 0.000000 -0.003244 0.000000
# 2 -0.004609 0.018679 -0.004783 0.000000 -0.001077 0.000000
# 3 -0.002216 -0.004783 0.012990 0.000000 -0.000919 0.000000
# 4 0.000000 0.000000 0.000000 0.070569 0.000000 -0.037385
# 5 -0.003244 -0.001077 -0.000919 0.000000 0.029533 0.000000
# 6 0.000000 0.000000 0.000000 -0.037385 0.000000 0.073703
#
#
# Mechanical properties :
#
#
# Convention : Reuss Voigt Hill
#
# Bulk Modulus (GPa) = 51.90914 57.19769 54.55342
# Shear Modulus (GPa) = 20.33174 26.80436 23.56805
#
# Velocity S-wave (km/s) = 3.29232 3.78022 3.54467
# Velocity P-wave (km/s) = 6.49049 7.03895 6.77028
#
# Compressibility (1/GPa) = 0.01926443
#
# Stress axis : x y z
#
# Youngs Moduli (GPa) = 92.50363 53.53519 76.97996
#
# Poissons Ratio (x) = 0.24672 0.17060
# Poissons Ratio (y) = 0.42631 0.36820
# Poissons Ratio (z) = 0.20500 0.25606
#
# Static dielectric constant tensor:
#      x y z
#    x 4.024780 0.000000 0.305540 
#    y 0.000000 3.078810 0.000000 
#    z 0.305540 0.000000 3.731000 
# 
# 
# High freq. dielectric constant tensor:
#      x y z
#    x 1.742690 0.000000 0.017530 
#    y 0.000000 1.681030 0.000000 
#    z 0.017530 0.000000 1.748990 
# 
# From -- ./inp_files/70591.got.cif
#   From: 2010.06.25/outbox.cif.g09.slc.cpg/sg13_36_cif.got.tgz:70591.got - 2010.06.28 04:50:58.
