data_PCOD8119757
_publ_section_title
;
Structure prediction by ZEFSAII (Michael W. Deem and Ramdas Pophale) SiO2 
 PCOD8119757
Probable space group: P 2/C
;
_chemical_formula_sum "Si O2"
_cell_formula_units_Z 30
_cell_length_a 10.381153
_cell_length_b 11.012480
_cell_length_c 15.190891
_cell_angle_alpha 90.000000
_cell_angle_beta 53.193505
_cell_angle_gamma 90.000000
_cell_volume 1390.477551
_symmetry_space_group_name_H-M "P 2/C"
_symmetry_group_IT_number 13
_symmetry_cell_setting 'monoclinic'
loop_
_space_group_symop_operation_xyz
x,y,z
-x,y,1/2-z
-x,-y,-z
x,-y,1/2+z
loop_
_atom_site_type_symbol
_atom_site_label
_atom_site_fract_x
_atom_site_fract_y
_atom_site_fract_z
Si Si1 0.500000 0.478285 0.250000
Si Si2 0.695772 0.933766 0.832375
Si Si3 0.626887 0.913786 0.054242
Si Si4 0.866283 0.940056 0.113196
Si Si5 0.682623 0.642116 0.044540
Si Si6 0.776690 0.307917 0.206474
Si Si7 0.991807 0.302676 0.534272
Si Si8 0.055360 0.486266 0.140213
O O1 0.553252 0.562375 0.147638
O O2 0.639994 0.398266 0.231776
O O3 0.693955 0.792753 0.803424
O O4 0.532082 0.004893 0.876882
O O5 0.837298 0.992855 0.717062
O O6 0.728994 0.947265 0.923810
O O7 0.711939 0.935752 0.112368
O O8 0.594498 0.768895 0.057421
O O9 0.925548 0.807249 0.120338
O O10 0.000000 0.000000 0.000000
O O11 0.845741 0.655705 0.033261
O O12 0.761311 0.569884 0.928578
O O13 0.921518 0.379590 0.193188
O O14 0.858406 0.250361 0.085003
O O15 0.050624 0.418936 0.562970
O O16 0.000000 0.559297 0.250000
#
# Coordination Sequence:
#
# PCOD8119757 Si02
#       8
#     2   4   4   4   4   4   4   4
#     4  12  22  36  68  98 124 162 222 268 328 396
#     4  11  24  44  63  97 132 168 219 266 327 391
#     4  10  25  43  65  93 130 173 214 265 324 395
#     4  11  23  41  67  91 125 169 216 265 322 382
#     4  10  21  40  67  90 123 166 217 262 316 387
#     4  11  22  39  66  91 126 169 214 266 323 383
#     4  10  20  42  60  93 122 163 221 258 309 387
#     4  11  21  41  64  92 130 167 213 265 323 386
#
# _framework density 21.575322
#
# number of rings (size 3 to 8) (size 9 to 14) (size 15 to 20)
#    0.000    1.333    4.000    2.000    5.600    0.533 
#    2.400    4.000    0.000    0.000    0.000    0.000 
#    0.000    0.000    0.000    0.000    0.000    0.000 
#
# Total GULP energy -371667.193424 kJ/mol
# GULP energy per Si atom -12388.906447 kJ/mol
# Density = 2.152622 g / cm^3
# Si number density = 21.575322 Si / 1000 Ang^3
#
#
#
# Elastic Constant Matrix: (Units=GPa)
#
#
# Indices 1 2 3 4 5 6 
#
# 1 35.3720 19.6619 12.4033 0.0000 -12.5662 0.0000
# 2 19.6619 95.0612 27.2843 0.0000 -3.4437 0.0000
# 3 12.4033 27.2843 120.6847 0.0000 -0.3716 0.0000
# 4 0.0000 0.0000 0.0000 49.3758 0.0000 -12.1608
# 5 -12.5662 -3.4437 -0.3716 0.0000 26.9363 0.0000
# 6 0.0000 0.0000 0.0000 -12.1608 0.0000 21.0090
#
#
#
# Elastic Compliance Matrix: (Units=1/GPa)
#
#
# Indices 1 2 3 4 5 6 
#
# 1 0.039023 -0.006746 -0.002432 0.000000 0.017309 0.000000
# 2 -0.006746 0.012469 -0.002131 0.000000 -0.001582 0.000000
# 3 -0.002432 -0.002131 0.009014 0.000000 -0.001283 0.000000
# 4 0.000000 0.000000 0.000000 0.023620 0.000000 0.013672
# 5 0.017309 -0.001582 -0.001283 0.000000 0.044979 0.000000
# 6 0.000000 0.000000 0.000000 0.013672 0.000000 0.055513
#
#
# Mechanical properties :
#
#
# Convention : Reuss Voigt Hill
#
# Bulk Modulus (GPa) = 26.39359 41.09077 33.74218
# Shear Modulus (GPa) = 22.74127 32.24878 27.49503
#
# Velocity S-wave (km/s) = 3.25012 3.87034 3.57371
# Velocity P-wave (km/s) = 5.13266 6.24974 5.71854
#
# Compressibility (1/GPa) = 0.03788799
#
# Stress axis : x y z
#
# Youngs Moduli (GPa) = 25.62608 80.19863 110.94184
#
# Poissons Ratio (x) = 0.54103 0.26982
# Poissons Ratio (y) = 0.17288 0.23637
# Poissons Ratio (z) = 0.06232 0.17087
#
# Static dielectric constant tensor:
#      x y z
#    x 3.799920 0.000000 -0.164850 
#    y 0.000000 4.328370 0.000000 
#    z -0.164850 0.000000 4.517180 
# 
# 
# High freq. dielectric constant tensor:
#      x y z
#    x 1.813060 0.000000 -0.007180 
#    y 0.000000 1.858810 0.000000 
#    z -0.007180 0.000000 1.869560 
# 
# From -- ./inp_files/51154.got.cif
#   From: 2010.06.25/outbox.cif.g09.slc.cpg/sg13_26_cif.got.tgz:51154.got - 2010.06.28 04:50:58.
