data_PCOD8119591
_publ_section_title
;
Structure prediction by ZEFSAII (Michael W. Deem and Ramdas Pophale) SiO2 
 PCOD8119591
Probable space group: P 2/C
;
_chemical_formula_sum "Si O2"
_cell_formula_units_Z 28
_cell_length_a 8.954923
_cell_length_b 15.045498
_cell_length_c 11.066196
_cell_angle_alpha 90.000000
_cell_angle_beta 113.428023
_cell_angle_gamma 90.000000
_cell_volume 1368.048150
_symmetry_space_group_name_H-M "P 2/C"
_symmetry_group_IT_number 13
_symmetry_cell_setting 'monoclinic'
loop_
_space_group_symop_operation_xyz
x,y,z
-x,y,1/2-z
-x,-y,-z
x,-y,1/2+z
loop_
_atom_site_type_symbol
_atom_site_label
_atom_site_fract_x
_atom_site_fract_y
_atom_site_fract_z
Si Si1 0.914543 0.669277 0.388636
Si Si2 0.588653 0.136098 0.520768
Si Si3 0.833916 0.615569 0.627865
Si Si4 0.489453 0.682671 0.884598
Si Si5 0.861885 0.137518 0.794311
Si Si6 0.232160 0.409703 0.890043
Si Si7 0.640921 0.031811 0.891462
O O1 0.843381 0.640182 0.491851
O O2 0.932851 0.775586 0.383452
O O3 0.789707 0.633036 0.248588
O O4 0.092438 0.626589 0.433692
O O5 0.552667 0.217353 0.420996
O O6 0.707124 0.167759 0.665687
O O7 0.420729 0.101893 0.527447
O O8 0.679605 0.060265 0.471740
O O9 0.698102 0.679336 0.639260
O O10 0.781074 0.514557 0.627915
O O11 0.000000 0.636415 0.750000
O O12 0.500000 0.653021 0.750000
O O13 0.592880 0.614708 0.999726
O O14 0.804192 0.066463 0.877037
O O15 0.000000 0.096172 0.750000
O O16 0.500000 0.012845 0.750000
#
# Coordination Sequence:
#
# PCOD8119591 Si02
#       7
#     4   4   4   4   4   4   4
#     4  11  21  41  69  87 131 170 214 262 319 387
#     4  10  20  40  60  87 120 164 211 258 318 380
#     4  12  26  41  64  94 127 170 220 272 320 378
#     4  12  25  40  62  92 130 165 220 267 321 381
#     4  11  20  37  62  95 124 160 212 258 320 385
#     4  11  23  43  63  92 124 178 210 264 324 377
#     4   9  20  36  62  86 120 161 208 259 318 381
#
# _framework density 20.467113999999999
#
# number of rings (size 3 to 8) (size 9 to 14) (size 15 to 20)
#    0.000    1.143    4.286    3.000    2.000    1.143 
#    0.000    0.000    0.000   11.143    0.000    0.000 
#    0.000    0.000    0.000    0.000    0.000    0.000 
#
# Total GULP energy -347329.004789 kJ/mol
# GULP energy per Si atom -12404.607314 kJ/mol
# Density = 2.042053 g / cm^3
# Si number density = 20.467114 Si / 1000 Ang^3
#
#
#
# Elastic Constant Matrix: (Units=GPa)
#
#
# Indices 1 2 3 4 5 6 
#
# 1 122.1436 28.8541 44.6420 0.0000 -16.2304 0.0000
# 2 28.8541 69.1892 10.6953 0.0000 -2.5345 0.0000
# 3 44.6420 10.6953 88.5899 0.0000 -8.7921 0.0000
# 4 0.0000 0.0000 0.0000 18.9020 0.0000 2.7214
# 5 -16.2304 -2.5345 -8.7921 0.0000 42.6910 0.0000
# 6 0.0000 0.0000 0.0000 2.7214 0.0000 36.3065
#
#
#
# Elastic Compliance Matrix: (Units=1/GPa)
#
#
# Indices 1 2 3 4 5 6 
#
# 1 0.011301 -0.003839 -0.004928 0.000000 0.003054 0.000000
# 2 -0.003839 0.016043 -0.000054 0.000000 -0.000518 0.000000
# 3 -0.004928 -0.000054 0.013875 0.000000 0.000981 0.000000
# 4 0.000000 0.000000 0.000000 0.053482 0.000000 -0.004009
# 5 0.003054 -0.000518 0.000981 0.000000 0.024756 0.000000
# 6 0.000000 0.000000 0.000000 -0.004009 0.000000 0.027844
#
#
# Mechanical properties :
#
#
# Convention : Reuss Voigt Hill
#
# Bulk Modulus (GPa) = 42.41338 49.81172 46.11255
# Shear Modulus (GPa) = 28.93471 32.62864 30.78168
#
# Velocity S-wave (km/s) = 3.76402 3.99707 3.88230
# Velocity P-wave (km/s) = 6.29747 6.75962 6.53263
#
# Compressibility (1/GPa) = 0.02357747
#
# Stress axis : x y z
#
# Youngs Moduli (GPa) = 88.48791 62.33055 72.07104
#
# Poissons Ratio (x) = 0.23930 0.35518
# Poissons Ratio (y) = 0.33972 0.00387
# Poissons Ratio (z) = 0.43609 0.00335
#
# Static dielectric constant tensor:
#      x y z
#    x 3.726140 0.000000 -0.069460 
#    y 0.000000 3.649750 0.000000 
#    z -0.069460 0.000000 3.707930 
# 
# 
# High freq. dielectric constant tensor:
#      x y z
#    x 1.799710 0.000000 -0.007530 
#    y 0.000000 1.799100 0.000000 
#    z -0.007530 0.000000 1.801870 
# 
# From -- ./inp_files/30515.got.cif
#   From: 2010.06.25/outbox.cif.g09.slc.cpg/sg13_16_cif.got.tgz:30515.got - 2010.06.28 04:50:58.
