data_PCOD8119056
_publ_section_title
;
Structure prediction by ZEFSAII (Michael W. Deem and Ramdas Pophale) SiO2 
 PCOD8119056
Probable space group: P 2/C
;
_chemical_formula_sum "Si O2"
_cell_formula_units_Z 20
_cell_length_a 6.476122
_cell_length_b 7.504955
_cell_length_c 17.598938
_cell_angle_alpha 90.000000
_cell_angle_beta 106.498110
_cell_angle_gamma 90.000000
_cell_volume 820.145267
_symmetry_space_group_name_H-M "P 2/C"
_symmetry_group_IT_number 13
_symmetry_cell_setting 'monoclinic'
loop_
_space_group_symop_operation_xyz
x,y,z
-x,y,1/2-z
-x,-y,-z
x,-y,1/2+z
loop_
_atom_site_type_symbol
_atom_site_label
_atom_site_fract_x
_atom_site_fract_y
_atom_site_fract_z
Si Si1 0.929768 0.298269 0.900846
Si Si2 0.000000 0.396607 0.750000
Si Si3 0.276415 0.677507 0.864062
Si Si4 0.500000 0.851160 0.750000
Si Si5 0.703819 0.590992 0.965441
Si Si6 0.108321 0.906792 0.615478
O O1 0.889080 0.281788 0.805314
O O2 0.739862 0.409277 0.921312
O O3 0.935561 0.094741 0.931993
O O4 0.155443 0.406515 0.941896
O O5 0.162906 0.513432 0.814142
O O6 0.442669 0.736881 0.817352
O O7 0.443656 0.619609 0.950694
O O8 0.114661 0.833636 0.871663
O O9 0.715563 0.954618 0.799750
O O10 0.809521 0.758576 0.933179
#
# Coordination Sequence:
#
# PCOD8119056 Si02
#       6
#     4   2   4   2   4   4
#     4  11  25  43  68  99 135 171 230 274 335 410
#     4  12  22  40  66 100 126 170 216 276 330 402
#     4  11  21  42  70  92 137 178 219 276 339 395
#     4  10  20  36  66  96 128 178 212 272 340 388
#     4  10  24  48  65  94 135 182 217 280 337 397
#     4  11  22  42  68  96 133 176 227 274 335 403
#
# _framework density 24.385921
#
# number of rings (size 3 to 8) (size 9 to 14) (size 15 to 20)
#    0.000    1.200    4.000    1.800    2.800    3.200 
#    3.600    0.000    0.000    0.000    0.000    0.000 
#    0.000    0.000    0.000    0.000    0.000    0.000 
#
# Total GULP energy -247808.795321 kJ/mol
# GULP energy per Si atom -12390.439766 kJ/mol
# Density = 2.433042 g / cm^3
# Si number density = 24.385921 Si / 1000 Ang^3
#
#
#
# Elastic Constant Matrix: (Units=GPa)
#
#
# Indices 1 2 3 4 5 6 
#
# 1 114.6748 39.8486 37.8280 0.0000 25.7793 0.0000
# 2 39.8486 114.6157 24.1658 0.0000 15.0133 0.0000
# 3 37.8280 24.1658 117.7737 0.0000 14.4777 0.0000
# 4 0.0000 0.0000 0.0000 47.5860 0.0000 35.6507
# 5 25.7793 15.0133 14.4777 0.0000 42.2552 0.0000
# 6 0.0000 0.0000 0.0000 35.6507 0.0000 215.0588
#
#
#
# Elastic Compliance Matrix: (Units=1/GPa)
#
#
# Indices 1 2 3 4 5 6 
#
# 1 0.011734 -0.002854 -0.002535 0.000000 -0.005276 0.000000
# 2 -0.002854 0.010122 -0.000973 0.000000 -0.001522 0.000000
# 3 -0.002535 -0.000973 0.009680 0.000000 -0.001424 0.000000
# 4 0.000000 0.000000 0.000000 0.023995 0.000000 -0.003978
# 5 -0.005276 -0.001522 -0.001424 0.000000 0.027913 0.000000
# 6 0.000000 0.000000 0.000000 -0.003978 0.000000 0.005309
#
#
# Mechanical properties :
#
#
# Convention : Reuss Voigt Hill
#
# Bulk Modulus (GPa) = 53.15794 61.19434 57.17614
# Shear Modulus (GPa) = 46.40476 77.32811 61.86643
#
# Velocity S-wave (km/s) = 4.36699 5.63729 5.04230
# Velocity P-wave (km/s) = 6.87557 8.21709 7.57608
#
# Compressibility (1/GPa) = 0.01881187
#
# Stress axis : x y z
#
# Youngs Moduli (GPa) = 85.21946 98.79881 103.30835
#
# Poissons Ratio (x) = 0.28198 0.26186
# Poissons Ratio (y) = 0.24323 0.10053
# Poissons Ratio (z) = 0.21601 0.09614
#
# Static dielectric constant tensor:
#      x y z
#    x 5.760530 0.000000 -0.049690 
#    y 0.000000 4.210090 0.000000 
#    z -0.049690 0.000000 5.200540 
# 
# 
# High freq. dielectric constant tensor:
#      x y z
#    x 1.971750 0.000000 0.003020 
#    y 0.000000 1.960860 0.000000 
#    z 0.003020 0.000000 2.000930 
# 
# From -- ./inp_files/60630.got.cif
#   From: 2010.06.25/outbox.cif.g09.slc.cpg/sg13_31_cif.got.tgz:60630.got - 2010.06.28 04:50:58.
