data_PCOD8119764
_publ_section_title
;
Structure prediction by ZEFSAII (Michael W. Deem and Ramdas Pophale) SiO2 
 PCOD8119764
Probable space group: P 2/C
;
_chemical_formula_sum "Si O2"
_cell_formula_units_Z 20
_cell_length_a 8.210082
_cell_length_b 6.265457
_cell_length_c 17.250079
_cell_angle_alpha 90.000000
_cell_angle_beta 77.969896
_cell_angle_gamma 90.000000
_cell_volume 867.854992
_symmetry_space_group_name_H-M "P 2/C"
_symmetry_group_IT_number 13
_symmetry_cell_setting 'monoclinic'
loop_
_space_group_symop_operation_xyz
x,y,z
-x,y,1/2-z
-x,-y,-z
x,-y,1/2+z
loop_
_atom_site_type_symbol
_atom_site_label
_atom_site_fract_x
_atom_site_fract_y
_atom_site_fract_z
Si Si1 0.729237 0.312873 0.500862
Si Si2 0.158960 0.290524 0.844217
Si Si3 0.000000 0.362537 0.250000
Si Si4 0.619967 0.643356 0.395272
Si Si5 0.500000 0.650159 0.250000
Si Si6 0.140647 0.017892 0.133509
O O1 0.832056 0.371236 0.567578
O O2 0.743087 0.501895 0.435717
O O3 0.534343 0.275792 0.537995
O O4 0.807132 0.098480 0.457040
O O5 0.341706 0.212972 0.796783
O O6 0.097712 0.492157 0.801367
O O7 0.041980 0.085949 0.848727
O O8 0.136216 0.215729 0.193204
O O9 0.559087 0.519987 0.322034
O O10 0.724520 0.844202 0.352867
#
# Coordination Sequence:
#
# PCOD8119764 Si02
#       6
#     4   4   2   4   2   4
#     4  10  23  42  68  96 129 169 207 260 320 373
#     4  11  24  42  64  93 128 166 214 264 313 377
#     4  12  26  42  64  94 126 170 212 262 320 368
#     4  10  22  42  65  95 130 166 211 259 310 379
#     4  10  20  42  64  84 126 168 206 260 310 364
#     4  12  23  41  66  95 128 166 213 262 315 380
#
# _framework density 23.045323
#
# number of rings (size 3 to 8) (size 9 to 14) (size 15 to 20)
#    0.000    1.200    0.000    6.600    0.000    4.800 
#    0.000   19.000    0.000    0.000    0.000    0.000 
#    0.000    0.000    0.000    0.000    0.000    0.000 
#
# Total GULP energy -247849.057756 kJ/mol
# GULP energy per Si atom -12392.452888 kJ/mol
# Density = 2.299287 g / cm^3
# Si number density = 23.045323 Si / 1000 Ang^3
#
#
#
# Elastic Constant Matrix: (Units=GPa)
#
#
# Indices 1 2 3 4 5 6 
#
# 1 102.9963 66.5215 62.8158 0.0000 3.7555 0.0000
# 2 66.5215 97.5743 60.8925 0.0000 5.5159 0.0000
# 3 62.8158 60.8925 162.8085 0.0000 27.6606 0.0000
# 4 0.0000 0.0000 0.0000 46.3965 0.0000 -13.0132
# 5 3.7555 5.5159 27.6606 0.0000 54.6344 0.0000
# 6 0.0000 0.0000 0.0000 -13.0132 0.0000 22.1506
#
#
#
# Elastic Compliance Matrix: (Units=1/GPa)
#
#
# Indices 1 2 3 4 5 6 
#
# 1 0.018634 -0.010619 -0.003482 0.000000 0.001554 0.000000
# 2 -0.010619 0.019504 -0.003268 0.000000 0.000416 0.000000
# 3 -0.003482 -0.003268 0.009422 0.000000 -0.004201 0.000000
# 4 0.000000 0.000000 0.000000 0.025805 0.000000 0.015160
# 5 0.001554 0.000416 -0.004201 0.000000 0.020282 0.000000
# 6 0.000000 0.000000 0.000000 0.015160 0.000000 0.054052
#
#
# Mechanical properties :
#
#
# Convention : Reuss Voigt Hill
#
# Bulk Modulus (GPa) = 77.99256 82.64874 80.32065
# Shear Modulus (GPa) = 26.77920 36.17958 31.47939
#
# Velocity S-wave (km/s) = 3.41254 3.96653 3.69992
# Velocity P-wave (km/s) = 7.03163 7.54449 7.29257
#
# Compressibility (1/GPa) = 0.01282174
#
# Stress axis : x y z
#
# Youngs Moduli (GPa) = 53.66408 51.27095 106.13692
#
# Poissons Ratio (x) = 0.54444 0.36958
# Poissons Ratio (y) = 0.56985 0.34690
# Poissons Ratio (z) = 0.18686 0.16757
#
# Static dielectric constant tensor:
#      x y z
#    x 4.290360 0.000000 -0.135950 
#    y 0.000000 3.733560 0.000000 
#    z -0.135950 0.000000 4.680640 
# 
# 
# High freq. dielectric constant tensor:
#      x y z
#    x 1.921620 0.000000 -0.012420 
#    y 0.000000 1.863850 0.000000 
#    z -0.012420 0.000000 1.948840 
# 
# From -- ./inp_files/62348.got.cif
#   From: 2010.06.25/outbox.cif.g09.slc.cpg/sg13_32_cif.got.tgz:62348.got - 2010.06.28 04:50:58.
