data_PCOD8119592
_publ_section_title
;
Structure prediction by ZEFSAII (Michael W. Deem and Ramdas Pophale) SiO2 
 PCOD8119592
Probable space group: P 2/C
;
_chemical_formula_sum "Si O2"
_cell_formula_units_Z 26
_cell_length_a 22.801311
_cell_length_b 8.770636
_cell_length_c 11.564305
_cell_angle_alpha 90.000000
_cell_angle_beta 146.446133
_cell_angle_gamma 90.000000
_cell_volume 1278.251149
_symmetry_space_group_name_H-M "P 2/C"
_symmetry_group_IT_number 13
_symmetry_cell_setting 'monoclinic'
loop_
_space_group_symop_operation_xyz
x,y,z
-x,y,1/2-z
-x,-y,-z
x,-y,1/2+z
loop_
_atom_site_type_symbol
_atom_site_label
_atom_site_fract_x
_atom_site_fract_y
_atom_site_fract_z
Si Si1 0.627548 0.303043 0.345545
Si Si2 0.000000 0.075641 0.250000
Si Si3 0.154935 0.178485 0.074896
Si Si4 0.500000 0.439228 0.750000
Si Si5 0.603512 0.185663 0.061131
Si Si6 0.065473 0.294341 0.158892
Si Si7 0.500000 0.937393 0.750000
Si Si8 0.132389 0.373328 0.813663
O O1 0.565972 0.458853 0.269081
O O2 0.577950 0.234453 0.148267
O O3 0.602463 0.171152 0.398165
O O4 0.751642 0.336905 0.544406
O O5 0.062550 0.172974 0.257107
O O6 0.086347 0.974109 0.457317
O O7 0.275852 0.131954 0.254366
O O8 0.144661 0.249028 0.185771
O O9 0.115544 0.297520 0.911759
O O10 0.413973 0.335207 0.544883
O O11 0.526080 0.046453 0.901300
O O12 0.110435 0.447626 0.291169
O O13 0.947905 0.307184 0.913024
#
# Coordination Sequence:
#
# PCOD8119592 Si02
#       8
#     4   2   4   2   4   4   2   4
#     4  10  21  39  61  91 118 158 201 250 294 355
#     4  12  26  38  62  92 124 162 198 248 312 358
#     4  11  23  42  62  92 126 162 202 252 301 364
#     4  10  20  40  60  88 120 158 202 252 296 342
#     4  10  22  38  63  88 122 158 200 245 301 356
#     4  11  24  41  62  89 127 159 206 250 297 368
#     4  10  22  38  62  88 124 158 194 248 304 352
#     4  10  23  40  65  87 123 164 206 247 302 356
#
# _framework density 20.340291000000001
#
# number of rings (size 3 to 8) (size 9 to 14) (size 15 to 20)
#    0.000    1.538    1.538    2.308    6.462    1.231 
#    0.000    1.538    0.000    0.000    0.000    0.000 
#    0.000    0.000    0.000    0.000    0.000    0.000 
#
# Total GULP energy -322447.293019 kJ/mol
# GULP energy per Si atom -12401.818962 kJ/mol
# Density = 2.029400 g / cm^3
# Si number density = 20.340291 Si / 1000 Ang^3
#
#
#
# Elastic Constant Matrix: (Units=GPa)
#
#
# Indices 1 2 3 4 5 6 
#
# 1 101.2150 38.6605 12.6926 0.0000 0.3024 0.0000
# 2 38.6605 111.3140 22.2666 0.0000 1.3553 0.0000
# 3 12.6926 22.2666 53.4416 0.0000 6.4095 0.0000
# 4 0.0000 0.0000 0.0000 -47.6532 0.0000 -40.9126
# 5 0.3024 1.3553 6.4095 0.0000 32.4848 0.0000
# 6 0.0000 0.0000 0.0000 -40.9126 0.0000 6.0436
#
#
#
# Elastic Compliance Matrix: (Units=1/GPa)
#
#
# Indices 1 2 3 4 5 6 
#
# 1 0.011459 -0.003744 -0.001196 0.000000 0.000285 0.000000
# 2 -0.003744 0.011029 -0.003744 0.000000 0.000313 0.000000
# 3 -0.001196 -0.003744 0.021033 0.000000 -0.003983 0.000000
# 4 0.000000 0.000000 0.000000 -0.003081 0.000000 -0.020854
# 5 0.000285 0.000313 -0.003983 0.000000 0.031554 0.000000
# 6 0.000000 0.000000 0.000000 -0.020854 0.000000 0.024290
#
#
# Mechanical properties :
#
#
# Convention : Reuss Voigt Hill
#
# Bulk Modulus (GPa) = 38.23433 45.91222 42.07328
# Shear Modulus (GPa) = 40.85960 10.99844 25.92902
#
# Velocity S-wave (km/s) = 4.48683 2.32787 3.57425
# Velocity P-wave (km/s) = 6.75872 5.46318 6.14519
#
# Compressibility (1/GPa) = 0.02615450
#
# Stress axis : x y z
#
# Youngs Moduli (GPa) = 87.26611 90.66987 47.54328
#
# Poissons Ratio (x) = 0.33948 0.05685
# Poissons Ratio (y) = 0.32674 0.17798
# Poissons Ratio (z) = 0.10435 0.33943
#
# Static dielectric constant tensor:
#      x y z
#    x 3.691280 0.000000 -0.047000 
#    y 0.000000 3.796810 0.000000 
#    z -0.047000 0.000000 3.636490 
# 
# 
# High freq. dielectric constant tensor:
#      x y z
#    x 1.801240 0.000000 0.001550 
#    y 0.000000 1.807530 0.000000 
#    z 0.001550 0.000000 1.790370 
# 
# From -- ./inp_files/36035.got.cif
#   From: 2010.06.25/outbox.cif.g09.slc.cpg/sg13_19_cif.got.tgz:36035.got - 2010.06.28 04:50:58.
