data_PCOD8119810
_publ_section_title
;
Structure prediction by ZEFSAII (Michael W. Deem and Ramdas Pophale) SiO2 
 PCOD8119810
Probable space group: P 2/C
;
_chemical_formula_sum "Si O2"
_cell_formula_units_Z 22
_cell_length_a 9.560139
_cell_length_b 7.989765
_cell_length_c 30.679063
_cell_angle_alpha 90.000000
_cell_angle_beta 152.886436
_cell_angle_gamma 90.000000
_cell_volume 1068.002713
_symmetry_space_group_name_H-M "P 2/C"
_symmetry_group_IT_number 13
_symmetry_cell_setting 'monoclinic'
loop_
_space_group_symop_operation_xyz
x,y,z
-x,y,1/2-z
-x,-y,-z
x,-y,1/2+z
loop_
_atom_site_type_symbol
_atom_site_label
_atom_site_fract_x
_atom_site_fract_y
_atom_site_fract_z
Si Si1 0.382381 0.057885 0.015019
Si Si2 0.958132 0.641210 0.523059
Si Si3 0.295156 0.078919 0.151642
Si Si4 0.488384 0.447947 0.447332
Si Si5 0.000000 0.395442 0.750000
Si Si6 0.526150 0.875549 0.137776
O O1 0.423469 0.255167 0.033004
O O2 0.595855 0.970680 0.111257
O O3 0.500000 0.000000 0.000000
O O4 0.028549 0.009709 0.926163
O O5 0.747117 0.571100 0.502009
O O6 0.812797 0.798501 0.457856
O O7 0.000000 0.500000 0.500000
O O8 0.259113 0.724404 0.628149
O O9 0.500000 0.071384 0.250000
O O10 0.509541 0.996358 0.174264
O O11 0.500000 0.500000 0.500000
O O12 0.171910 0.488127 0.333513
O O13 0.766712 0.275286 0.711563
#
# Coordination Sequence:
#
# PCOD8119810 Si02
#       6
#     4   4   4   4   2   4
#     4  11  23  44  70  95 132 179 215 274 335 397
#     4  10  20  43  62  89 128 171 210 268 336 383
#     4  11  24  40  66 100 131 174 226 267 326 405
#     4  11  23  42  66  95 139 170 220 273 338 386
#     4  10  24  42  64 104 126 178 224 278 330 402
#     4  10  22  41  65  89 133 170 221 266 328 390
#
# _framework density 20.599198999999999
#
# number of rings (size 3 to 8) (size 9 to 14) (size 15 to 20)
#    0.000    1.455    0.000    7.636    5.091    0.727 
#   16.364    0.909    0.000    0.000    0.000    0.000 
#    0.000    0.000    0.000    0.000    0.000    0.000 
#
# Total GULP energy -272601.206670 kJ/mol
# GULP energy per Si atom -12390.963940 kJ/mol
# Density = 2.055231 g / cm^3
# Si number density = 20.599199 Si / 1000 Ang^3
#
#
#
# Elastic Constant Matrix: (Units=GPa)
#
#
# Indices 1 2 3 4 5 6 
#
# 1 128.7780 42.5453 63.2787 0.0000 -28.4986 0.0000
# 2 42.5453 140.8765 68.4646 0.0000 -18.3897 0.0000
# 3 63.2787 68.4646 121.1297 0.0003 -26.2806 0.0002
# 4 0.0000 0.0000 0.0003 31.2132 0.0000 -7.0777
# 5 -28.4986 -18.3897 -26.2806 0.0000 35.8335 0.0000
# 6 0.0000 0.0000 0.0002 -7.0777 0.0000 34.8041
#
#
#
# Elastic Compliance Matrix: (Units=1/GPa)
#
#
# Indices 1 2 3 4 5 6 
#
# 1 0.011334 -0.000562 -0.004412 0.000000 0.005490 0.000000
# 2 -0.000562 0.009855 -0.005085 0.000000 0.000881 0.000000
# 3 -0.004412 -0.005085 0.014398 0.000000 0.004441 0.000000
# 4 0.000000 0.000000 0.000000 0.033587 0.000000 0.006830
# 5 0.005490 0.000881 0.004441 0.000000 0.035982 0.000000
# 6 0.000000 0.000000 0.000000 0.006830 0.000000 0.030121
#
#
# Mechanical properties :
#
#
# Convention : Reuss Voigt Hill
#
# Bulk Modulus (GPa) = 64.65008 82.15126 73.40067
# Shear Modulus (GPa) = 31.14273 34.80320 32.97297
#
# Velocity S-wave (km/s) = 3.89246 4.11486 4.00520
# Velocity P-wave (km/s) = 7.18711 7.90845 7.55639
#
# Compressibility (1/GPa) = 0.01546788
#
# Stress axis : x y z
#
# Youngs Moduli (GPa) = 88.23123 101.47647 69.45225
#
# Poissons Ratio (x) = 0.05703 0.30644
# Poissons Ratio (y) = 0.04959 0.35318
# Poissons Ratio (z) = 0.38929 0.51603
#
# Static dielectric constant tensor:
#      x y z
#    x 3.514460 0.000010 0.040340 
#    y 0.000010 4.051760 0.000000 
#    z 0.040340 0.000000 3.827390 
# 
# 
# High freq. dielectric constant tensor:
#      x y z
#    x 1.814450 0.000000 -0.009760 
#    y 0.000000 1.823350 0.000000 
#    z -0.009760 0.000000 1.800620 
# 
# From -- ./inp_files/45968.got.cif
#   From: 2010.06.25/outbox.cif.g09.slc.cpg/sg13_23_cif.got.tgz:45968.got - 2010.06.28 04:50:58.
