data_PCOD8119803
_publ_section_title
;
Structure prediction by ZEFSAII (Michael W. Deem and Ramdas Pophale) SiO2 
 PCOD8119803
Probable space group: P 2/C
;
_chemical_formula_sum "Si O2"
_cell_formula_units_Z 26
_cell_length_a 16.337355
_cell_length_b 8.285183
_cell_length_c 14.713499
_cell_angle_alpha 90.000000
_cell_angle_beta 142.051185
_cell_angle_gamma 90.000000
_cell_volume 1224.742393
_symmetry_space_group_name_H-M "P 2/C"
_symmetry_group_IT_number 13
_symmetry_cell_setting 'monoclinic'
loop_
_space_group_symop_operation_xyz
x,y,z
-x,y,1/2-z
-x,-y,-z
x,-y,1/2+z
loop_
_atom_site_type_symbol
_atom_site_label
_atom_site_fract_x
_atom_site_fract_y
_atom_site_fract_z
Si Si1 0.239590 0.614435 0.271074
Si Si2 0.860756 0.597342 0.654352
Si Si3 0.968538 0.209080 0.540502
Si Si4 0.500000 0.222007 0.250000
Si Si5 0.259308 0.563143 0.606727
Si Si6 0.398055 0.910561 0.476469
Si Si7 0.876794 0.083731 0.271306
O O1 0.214551 0.497705 0.333056
O O2 0.291358 0.505470 0.233813
O O3 0.357119 0.738066 0.398323
O O4 0.102056 0.701486 0.122510
O O5 0.765831 0.588377 0.482770
O O6 0.898014 0.778758 0.715416
O O7 0.000000 0.511818 0.750000
O O8 0.872846 0.325825 0.512856
O O9 0.885660 0.152462 0.380762
O O10 0.012069 0.057562 0.642025
O O11 0.619862 0.333611 0.323834
O O12 0.539515 0.108923 0.368987
O O13 0.500000 0.000000 0.500000
O O14 0.269518 0.019599 0.374282
#
# Coordination Sequence:
#
# PCOD8119803 Si02
#       7
#     4   4   4   2   4   4   4
#     4  11  23  44  72 100 135 182 229 289 357 409
#     4  12  23  40  68 107 133 172 229 290 353 418
#     4  10  20  42  70  99 136 182 213 285 360 416
#     4  12  28  44  68 102 130 192 236 274 354 412
#     4  12  24  41  71  99 139 178 237 287 344 427
#     4  11  26  47  68  96 140 189 234 291 343 417
#     4  10  23  40  67 102 135 173 229 278 356 415
#
# _framework density 21.228954000000002
#
# number of rings (size 3 to 8) (size 9 to 14) (size 15 to 20)
#    0.000    0.923    4.615    2.308    0.000    4.308 
#    0.000    0.000    0.000    0.000    0.000    0.000 
#    0.000    0.000    0.000    0.000    0.000    0.000 
#
# Total GULP energy -322435.642695 kJ/mol
# GULP energy per Si atom -12401.370873 kJ/mol
# Density = 2.118064 g / cm^3
# Si number density = 21.228954 Si / 1000 Ang^3
#
#
#
# Elastic Constant Matrix: (Units=GPa)
#
#
# Indices 1 2 3 4 5 6 
#
# 1 130.9868 59.2882 64.0251 0.0000 -16.2631 0.0000
# 2 59.2882 109.0254 46.7814 0.0000 -5.8771 0.0000
# 3 64.0251 46.7814 128.6585 0.0000 -9.4790 0.0000
# 4 0.0000 0.0000 0.0000 38.9458 0.0000 -4.1914
# 5 -16.2631 -5.8771 -9.4790 0.0000 24.5999 0.0000
# 6 0.0000 0.0000 0.0000 -4.1914 0.0000 12.4768
#
#
#
# Elastic Compliance Matrix: (Units=1/GPa)
#
#
# Indices 1 2 3 4 5 6 
#
# 1 0.012449 -0.004726 -0.004069 0.000000 0.005533 0.000000
# 2 -0.004726 0.012691 -0.002336 0.000000 -0.000992 0.000000
# 3 -0.004069 -0.002336 0.010712 0.000000 0.000879 0.000000
# 4 0.000000 0.000000 0.000000 0.026640 0.000000 0.008949
# 5 0.005533 -0.000992 0.000879 0.000000 0.044410 0.000000
# 6 0.000000 0.000000 0.000000 0.008949 0.000000 0.083155
#
#
# Mechanical properties :
#
#
# Convention : Reuss Voigt Hill
#
# Bulk Modulus (GPa) = 73.58297 78.76224 76.17260
# Shear Modulus (GPa) = 23.05750 28.44291 25.75021
#
# Velocity S-wave (km/s) = 3.29923 3.66432 3.48656
# Velocity P-wave (km/s) = 7.01784 7.42192 7.22271
#
# Compressibility (1/GPa) = 0.01359010
#
# Stress axis : x y z
#
# Youngs Moduli (GPa) = 80.32563 78.79722 93.35595
#
# Poissons Ratio (x) = 0.37236 0.37989
# Poissons Ratio (y) = 0.37959 0.21808
# Poissons Ratio (z) = 0.32687 0.18407
#
# Static dielectric constant tensor:
#      x y z
#    x 3.967310 0.000000 0.141600 
#    y 0.000000 4.047380 0.000000 
#    z 0.141600 0.000000 4.139650 
# 
# 
# High freq. dielectric constant tensor:
#      x y z
#    x 1.831200 0.000000 -0.006090 
#    y 0.000000 1.837970 0.000000 
#    z -0.006090 0.000000 1.840980 
# 
# From -- ./inp_files/53366.got.cif
#   From: 2010.06.25/outbox.cif.g09.slc.cpg/sg13_27_cif.got.tgz:53366.got - 2010.06.28 04:50:58.
