data_PCOD8119762
_publ_section_title
;
Structure prediction by ZEFSAII (Michael W. Deem and Ramdas Pophale) SiO2 
 PCOD8119762
Probable space group: P 2/C
;
_chemical_formula_sum "Si O2"
_cell_formula_units_Z 26
_cell_length_a 8.600824
_cell_length_b 14.330177
_cell_length_c 11.389936
_cell_angle_alpha 90.000000
_cell_angle_beta 65.499839
_cell_angle_gamma 90.000000
_cell_volume 1277.424530
_symmetry_space_group_name_H-M "P 2/C"
_symmetry_group_IT_number 13
_symmetry_cell_setting 'monoclinic'
loop_
_space_group_symop_operation_xyz
x,y,z
-x,y,1/2-z
-x,-y,-z
x,-y,1/2+z
loop_
_atom_site_type_symbol
_atom_site_label
_atom_site_fract_x
_atom_site_fract_y
_atom_site_fract_z
Si Si1 0.189629 0.890629 0.401119
Si Si2 0.798845 0.902715 0.537643
Si Si3 0.151801 0.251180 0.292823
Si Si4 0.685427 0.274654 0.486757
Si Si5 0.325465 0.801497 0.131500
Si Si6 0.000000 0.683793 0.250000
Si Si7 0.043204 0.607585 0.485357
O O1 0.207353 0.815749 0.500716
O O2 0.308159 0.858310 0.257015
O O3 0.991405 0.896216 0.425240
O O4 0.254804 0.991636 0.418867
O O5 0.786746 0.841101 0.658946
O O6 0.661136 0.871280 0.483273
O O7 0.000000 0.228171 0.250000
O O8 0.102029 0.332961 0.400364
O O9 0.306449 0.282490 0.157964
O O10 0.489644 0.265735 0.587715
O O11 0.771798 0.367315 0.516215
O O12 0.159018 0.742511 0.155897
O O13 0.058412 0.625480 0.342877
O O14 0.000000 0.500000 0.500000
#
# Coordination Sequence:
#
# PCOD8119762 Si02
#       7
#     4   4   4   4   4   2   4
#     4  11  22  38  63  94 130 175 231 270 324 392
#     4  11  22  38  65  93 127 184 225 271 325 401
#     4  10  20  42  62  91 130 170 214 267 336 396
#     4  11  24  41  65  94 134 174 213 283 335 399
#     4  12  22  43  65  93 137 176 230 276 338 392
#     4  12  22  44  72  94 122 180 220 278 334 406
#     4  11  24  44  73  99 125 169 218 276 348 415
#
# _framework density 20.353452000000001
#
# number of rings (size 3 to 8) (size 9 to 14) (size 15 to 20)
#    0.000    0.923    7.692    0.462    5.385    1.231 
#    2.769    0.769    3.385    0.000    0.000    0.000 
#    0.000    0.000    0.000    0.000    0.000    0.000 
#
# Total GULP energy -322332.965471 kJ/mol
# GULP energy per Si atom -12397.421749 kJ/mol
# Density = 2.030713 g / cm^3
# Si number density = 20.353452 Si / 1000 Ang^3
#
#
#
# Elastic Constant Matrix: (Units=GPa)
#
#
# Indices 1 2 3 4 5 6 
#
# 1 66.0281 34.5010 31.6180 0.0000 -8.5661 0.0000
# 2 34.5010 130.0914 34.9929 0.0000 6.7571 0.0000
# 3 31.6180 34.9929 130.3151 0.0000 14.6430 0.0000
# 4 0.0000 0.0000 0.0000 16.9921 0.0000 -1.8600
# 5 -8.5661 6.7571 14.6430 0.0000 40.2482 0.0000
# 6 0.0000 0.0000 0.0000 -1.8600 0.0000 21.0136
#
#
#
# Elastic Compliance Matrix: (Units=1/GPa)
#
#
# Indices 1 2 3 4 5 6 
#
# 1 0.020598 -0.004598 -0.004527 0.000000 0.006803 0.000000
# 2 -0.004598 0.009326 -0.001150 0.000000 -0.002126 0.000000
# 3 -0.004527 -0.001150 0.009558 0.000000 -0.004248 0.000000
# 4 0.000000 0.000000 0.000000 0.059427 0.000000 0.005260
# 5 0.006803 -0.002126 -0.004248 0.000000 0.028196 0.000000
# 6 0.000000 0.000000 0.000000 0.005260 0.000000 0.048054
#
#
# Mechanical properties :
#
#
# Convention : Reuss Voigt Hill
#
# Bulk Modulus (GPa) = 52.82123 58.73985 55.78054
# Shear Modulus (GPa) = 24.74989 30.67228 27.71109
#
# Velocity S-wave (km/s) = 3.49091 3.88620 3.69384
# Velocity P-wave (km/s) = 6.50053 7.00423 6.75708
#
# Compressibility (1/GPa) = 0.01893178
#
# Stress axis : x y z
#
# Youngs Moduli (GPa) = 48.54752 107.22586 104.62180
#
# Poissons Ratio (x) = 0.49306 0.47366
# Poissons Ratio (y) = 0.22324 0.12028
# Poissons Ratio (z) = 0.21979 0.12328
#
# Static dielectric constant tensor:
#      x y z
#    x 3.469270 0.000000 -0.012020 
#    y 0.000000 3.645530 0.000000 
#    z -0.012020 0.000000 3.939370 
# 
# 
# High freq. dielectric constant tensor:
#      x y z
#    x 1.782500 0.000000 0.013680 
#    y 0.000000 1.773290 0.000000 
#    z 0.013680 0.000000 1.813070 
# 
# From -- ./inp_files/30021.got.cif
#   From: 2010.06.25/outbox.cif.g09.slc.cpg/sg13_16_cif.got.tgz:30021.got - 2010.06.28 04:50:58.
