data_PCOD8119184
_publ_section_title
;
Structure prediction by ZEFSAII (Michael W. Deem and Ramdas Pophale) SiO2 
 PCOD8119184
Probable space group: P 2/C
;
_chemical_formula_sum "Si O2"
_cell_formula_units_Z 16
_cell_length_a 12.175568
_cell_length_b 4.827170
_cell_length_c 16.228329
_cell_angle_alpha 90.000000
_cell_angle_beta 45.039070
_cell_angle_gamma 90.000000
_cell_volume 674.895564
_symmetry_space_group_name_H-M "P 2/C"
_symmetry_group_IT_number 13
_symmetry_cell_setting 'monoclinic'
loop_
_space_group_symop_operation_xyz
x,y,z
-x,y,1/2-z
-x,-y,-z
x,-y,1/2+z
loop_
_atom_site_type_symbol
_atom_site_label
_atom_site_fract_x
_atom_site_fract_y
_atom_site_fract_z
Si Si1 0.717764 0.853074 0.995013
Si Si2 0.533253 0.645407 0.641169
Si Si3 0.224095 0.642149 0.717633
Si Si4 0.972794 0.881891 0.169464
O O1 0.746653 0.689243 0.894611
O O2 0.866705 0.012156 0.957449
O O3 0.654261 0.609060 0.087359
O O4 0.592898 0.100727 0.052668
O O5 0.500000 0.760078 0.750000
O O6 0.378532 0.530136 0.678951
O O7 0.170108 0.930832 0.787393
O O8 0.077883 0.436006 0.812745
O O9 0.000000 0.954798 0.250000
#
# Coordination Sequence:
#
# PCOD8119184 Si02
#       4
#     4   4   4   4
#     4  11  22  41  65  90 121 162 204 252 304 359
#     4  12  25  41  59  90 129 166 203 247 298 362
#     4  11  21  39  65  92 119 156 203 254 304 359
#     4  10  20  37  63  94 118 148 202 261 303 352
#
# _framework density 23.707371999999999
#
# number of rings (size 3 to 8) (size 9 to 14) (size 15 to 20)
#    0.000    1.000    0.000   10.500    0.000    0.000 
#    0.000    7.500    0.000    0.000    0.000    0.000 
#    0.000    0.000    0.000    0.000    0.000    0.000 
#
# Total GULP energy -198264.480816 kJ/mol
# GULP energy per Si atom -12391.530051 kJ/mol
# Density = 2.365341 g / cm^3
# Si number density = 23.707372 Si / 1000 Ang^3
#
#
#
# Elastic Constant Matrix: (Units=GPa)
#
#
# Indices 1 2 3 4 5 6 
#
# 1 44.5773 27.1931 43.7655 0.0000 -13.5552 0.0000
# 2 27.1931 146.9479 41.1380 0.0000 -8.8224 0.0000
# 3 43.7655 41.1380 72.7118 0.0000 -19.2204 0.0000
# 4 0.0000 0.0000 0.0000 36.8149 0.0000 -14.1115
# 5 -13.5552 -8.8224 -19.2204 0.0000 20.7741 0.0000
# 6 0.0000 0.0000 0.0000 -14.1115 0.0000 28.0954
#
#
#
# Elastic Compliance Matrix: (Units=1/GPa)
#
#
# Indices 1 2 3 4 5 6 
#
# 1 0.055789 -0.001217 -0.030983 0.000000 0.007221 0.000000
# 2 -0.001217 0.008130 -0.004189 0.000000 -0.001217 0.000000
# 3 -0.030983 -0.004189 0.038332 0.000000 0.013470 0.000000
# 4 0.000000 0.000000 0.000000 0.033639 0.000000 0.016896
# 5 0.007221 -0.001217 0.013470 0.000000 0.064794 0.000000
# 6 0.000000 0.000000 0.000000 0.016896 0.000000 0.044079
#
#
# Mechanical properties :
#
#
# Convention : Reuss Voigt Hill
#
# Bulk Modulus (GPa) = 33.92774 54.27002 44.09888
# Shear Modulus (GPa) = 15.27343 27.27958 21.27651
#
# Velocity S-wave (km/s) = 2.54096 3.39585 2.99902
# Velocity P-wave (km/s) = 4.79069 6.19007 5.53479
#
# Compressibility (1/GPa) = 0.02947440
#
# Stress axis : x y z
#
# Youngs Moduli (GPa) = 17.92453 123.00219 26.08781
#
# Poissons Ratio (x) = 0.14968 0.80827
# Poissons Ratio (y) = 0.02181 0.10928
# Poissons Ratio (z) = 0.55535 0.51525
#
# Static dielectric constant tensor:
#      x y z
#    x 3.781650 0.000000 -0.536480 
#    y 0.000000 4.274360 0.000000 
#    z -0.536480 0.000000 4.605810 
# 
# 
# High freq. dielectric constant tensor:
#      x y z
#    x 1.896120 0.000000 -0.037800 
#    y 0.000000 1.958370 0.000000 
#    z -0.037800 0.000000 1.938580 
# 
# From -- ./inp_files/48549.got.cif
#   From: 2010.06.25/outbox.cif.g09.slc.cpg/sg13_25_cif.got.tgz:48549.got - 2010.06.28 04:50:58.
