data_PCOD8119655
_publ_section_title
;
Structure prediction by ZEFSAII (Michael W. Deem and Ramdas Pophale) SiO2 
 PCOD8119655
Probable space group: P 2/C
;
_chemical_formula_sum "Si O2"
_cell_formula_units_Z 26
_cell_length_a 11.590455
_cell_length_b 13.509722
_cell_length_c 15.021139
_cell_angle_alpha 90.000000
_cell_angle_beta 33.087272
_cell_angle_gamma 90.000000
_cell_volume 1284.030878
_symmetry_space_group_name_H-M "P 2/C"
_symmetry_group_IT_number 13
_symmetry_cell_setting 'monoclinic'
loop_
_space_group_symop_operation_xyz
x,y,z
-x,y,1/2-z
-x,-y,-z
x,-y,1/2+z
loop_
_atom_site_type_symbol
_atom_site_label
_atom_site_fract_x
_atom_site_fract_y
_atom_site_fract_z
Si Si1 0.862061 0.218543 0.197989
Si Si2 0.071016 0.747398 0.301133
Si Si3 0.500000 0.322242 0.750000
Si Si4 0.079144 0.610324 0.455785
Si Si5 0.742228 0.114114 0.106443
Si Si6 0.480616 0.195544 0.940839
Si Si7 0.837614 0.062995 0.425604
O O1 0.789793 0.129283 0.179479
O O2 0.678815 0.246488 0.385841
O O3 0.070628 0.171942 0.108617
O O4 0.912212 0.319603 0.114313
O O5 0.110789 0.650365 0.335203
O O6 0.287791 0.812313 0.163655
O O7 0.000000 0.711182 0.250000
O O8 0.878472 0.811501 0.460400
O O9 0.704553 0.391807 0.627462
O O10 0.491509 0.255198 0.842552
O O11 0.000000 0.500000 0.500000
O O12 0.500000 0.140610 0.250000
O O13 0.797312 0.002986 0.038730
O O14 0.387218 0.085977 0.977624
O O15 0.000000 0.011279 0.250000
#
# Coordination Sequence:
#
# PCOD8119655 Si02
#       7
#     4   4   2   4   4   4   4
#     4  10  21  40  61  89 124 160 206 257 307 364
#     4  10  22  43  61  88 127 163 203 254 315 367
#     4  10  20  40  66  90 118 162 202 262 306 362
#     4  10  22  42  63  92 123 159 204 254 310 370
#     4  11  23  36  58  86 126 166 206 247 310 365
#     4  10  21  39  68  88 121 164 209 255 310 358
#     4  10  21  36  59  91 120 162 210 252 299 365
#
# _framework density 20.248733999999999
#
# number of rings (size 3 to 8) (size 9 to 14) (size 15 to 20)
#    0.000    1.846    1.538    1.846    1.077    1.231 
#   11.077    5.385    0.000    0.000    0.000    0.000 
#    0.000    0.000    0.000    0.000    0.000    0.000 
#
# Total GULP energy -322322.094233 kJ/mol
# GULP energy per Si atom -12397.003624 kJ/mol
# Density = 2.020265 g / cm^3
# Si number density = 20.248734 Si / 1000 Ang^3
#
#
#
# Elastic Constant Matrix: (Units=GPa)
#
#
# Indices 1 2 3 4 5 6 
#
# 1 123.5096 34.5937 56.3594 0.0000 -3.1187 0.0000
# 2 34.5937 86.4970 42.6155 0.0000 -6.2102 0.0000
# 3 56.3594 42.6155 123.3721 0.0000 -9.2315 0.0000
# 4 0.0000 0.0000 0.0000 20.7852 0.0000 -1.9833
# 5 -3.1187 -6.2102 -9.2315 0.0000 44.2317 0.0000
# 6 0.0000 0.0000 0.0000 -1.9833 0.0000 19.5957
#
#
#
# Elastic Compliance Matrix: (Units=1/GPa)
#
#
# Indices 1 2 3 4 5 6 
#
# 1 0.010581 -0.002248 -0.004089 0.000000 -0.000423 0.000000
# 2 -0.002248 0.014450 -0.003885 0.000000 0.001059 0.000000
# 3 -0.004089 -0.003885 0.011432 0.000000 0.001552 0.000000
# 4 0.000000 0.000000 0.000000 0.048580 0.000000 0.004917
# 5 -0.000423 0.001059 0.001552 0.000000 0.023051 0.000000
# 6 0.000000 0.000000 0.000000 0.004917 0.000000 0.051529
#
#
# Mechanical properties :
#
#
# Convention : Reuss Voigt Hill
#
# Bulk Modulus (GPa) = 62.42511 66.72397 64.57454
# Shear Modulus (GPa) = 26.96751 30.24318 28.60535
#
# Velocity S-wave (km/s) = 3.65336 3.86888 3.76267
# Velocity P-wave (km/s) = 6.97797 7.27883 7.12999
#
# Compressibility (1/GPa) = 0.01601920
#
# Stress axis : x y z
#
# Youngs Moduli (GPa) = 94.50632 69.20243 87.47545
#
# Poissons Ratio (x) = 0.15554 0.35769
# Poissons Ratio (y) = 0.21242 0.33988
# Poissons Ratio (z) = 0.38644 0.26888
#
# Static dielectric constant tensor:
#      x y z
#    x 4.070570 0.000000 -0.042780 
#    y 0.000000 3.199670 0.000000 
#    z -0.042780 0.000000 4.002550 
# 
# 
# High freq. dielectric constant tensor:
#      x y z
#    x 1.809480 0.000000 -0.001260 
#    y 0.000000 1.746530 0.000000 
#    z -0.001260 0.000000 1.808870 
# 
# From -- ./inp_files/51404.got.cif
#   From: 2010.06.25/outbox.cif.g09.slc.cpg/sg13_26_cif.got.tgz:51404.got - 2010.06.28 04:50:58.
