data_PCOD8119470
_publ_section_title
;
Structure prediction by ZEFSAII (Michael W. Deem and Ramdas Pophale) SiO2 
 PCOD8119470
Probable space group: P 2/C
;
_chemical_formula_sum "Si O2"
_cell_formula_units_Z 28
_cell_length_a 20.528156
_cell_length_b 10.655430
_cell_length_c 17.264057
_cell_angle_alpha 90.000000
_cell_angle_beta 158.250965
_cell_angle_gamma 90.000000
_cell_volume 1399.268253
_symmetry_space_group_name_H-M "P 2/C"
_symmetry_group_IT_number 13
_symmetry_cell_setting 'monoclinic'
loop_
_space_group_symop_operation_xyz
x,y,z
-x,y,1/2-z
-x,-y,-z
x,-y,1/2+z
loop_
_atom_site_type_symbol
_atom_site_label
_atom_site_fract_x
_atom_site_fract_y
_atom_site_fract_z
Si Si1 0.983051 0.839955 0.821757
Si Si2 0.399512 0.861967 0.059188
Si Si3 0.483390 0.294078 0.507011
Si Si4 0.485874 0.075761 0.405080
Si Si5 0.908682 0.896427 0.066606
Si Si6 0.912050 0.345747 0.467228
Si Si7 0.151988 0.614793 0.087274
O O1 0.791300 0.801865 0.639848
O O2 0.000000 0.861936 0.750000
O O3 0.024916 0.977345 0.904317
O O4 0.114261 0.727752 0.986815
O O5 0.500000 0.849973 0.250000
O O6 0.504364 0.787391 0.108636
O O7 0.386664 0.008709 0.017086
O O8 0.531421 0.216922 0.481235
O O9 0.283681 0.343097 0.285489
O O10 0.634938 0.399982 0.673699
O O11 0.500000 0.000000 0.500000
O O12 0.298426 0.080613 0.154896
O O13 0.000000 0.875812 0.250000
O O14 0.951373 0.772594 0.064294
O O15 0.922756 0.479930 0.524141
O O16 0.062976 0.345743 0.569597
#
# Coordination Sequence:
#
# PCOD8119470 Si02
#       7
#     4   4   4   4   4   4   4
#     4  11  22  36  59  92 118 156 200 248 307 364
#     4  11  20  34  56  86 125 155 197 250 304 363
#     4  10  20  39  59  86 117 158 201 254 299 359
#     4   9  19  35  55  86 120 157 200 244 305 363
#     4  10  21  39  60  89 124 158 204 252 315 367
#     4  10  23  40  61  89 119 163 202 250 303 363
#     4  11  22  39  62  89 120 157 210 249 298 365
#
# _framework density 20.010459000000001
#
# number of rings (size 3 to 8) (size 9 to 14) (size 15 to 20)
#    0.000    1.714    1.429    4.714    2.000    1.143 
#    0.000    0.000    0.000    0.000    0.000    0.000 
#    0.000    0.000    0.000    0.000    0.000    0.000 
#
# Total GULP energy -346871.635323 kJ/mol
# GULP energy per Si atom -12388.272690 kJ/mol
# Density = 1.996491 g / cm^3
# Si number density = 20.010459 Si / 1000 Ang^3
#
#
#
# Elastic Constant Matrix: (Units=GPa)
#
#
# Indices 1 2 3 4 5 6 
#
# 1 67.5692 34.9280 35.7574 0.0000 3.2683 0.0000
# 2 34.9280 125.7214 19.5865 0.0000 -9.6337 0.0000
# 3 35.7574 19.5865 82.7089 0.0000 -1.1679 0.0000
# 4 0.0000 0.0000 0.0000 12.0247 0.0000 -1.4342
# 5 3.2683 -9.6337 -1.1679 0.0000 34.6300 0.0000
# 6 0.0000 0.0000 0.0000 -1.4342 0.0000 18.0715
#
#
#
# Elastic Compliance Matrix: (Units=1/GPa)
#
#
# Indices 1 2 3 4 5 6 
#
# 1 0.022061 -0.005114 -0.008380 0.000000 -0.003787 0.000000
# 2 -0.005114 0.009620 -0.000023 0.000000 0.003158 0.000000
# 3 -0.008380 -0.000023 0.015738 0.000000 0.001315 0.000000
# 4 0.000000 0.000000 0.000000 0.083957 0.000000 0.006663
# 5 -0.003787 0.003158 0.001315 0.000000 0.030157 0.000000
# 6 0.000000 0.000000 0.000000 0.006663 0.000000 0.055864
#
#
# Mechanical properties :
#
#
# Convention : Reuss Voigt Hill
#
# Bulk Modulus (GPa) = 49.05409 50.72704 49.89056
# Shear Modulus (GPa) = 19.90245 25.32708 22.61477
#
# Velocity S-wave (km/s) = 3.15715 3.56152 3.36541
# Velocity P-wave (km/s) = 6.15285 6.50522 6.33149
#
# Compressibility (1/GPa) = 0.02038566
#
# Stress axis : x y z
#
# Youngs Moduli (GPa) = 45.32919 103.94672 63.54244
#
# Poissons Ratio (x) = 0.53154 0.53249
# Poissons Ratio (y) = 0.23180 0.00145
# Poissons Ratio (z) = 0.37986 0.00238
#
# Static dielectric constant tensor:
#      x y z
#    x 3.640890 0.000000 -0.286950 
#    y 0.000000 3.952370 0.000000 
#    z -0.286950 0.000000 4.359940 
# 
# 
# High freq. dielectric constant tensor:
#      x y z
#    x 1.762750 0.000000 0.009420 
#    y 0.000000 1.784060 0.000000 
#    z 0.009420 0.000000 1.785410 
# 
# From -- ./inp_files/70734.got.cif
#   From: 2010.06.25/outbox.cif.g09.slc.cpg/sg13_36_cif.got.tgz:70734.got - 2010.06.28 04:50:58.
