data_PCOD8119799
_publ_section_title
;
Structure prediction by ZEFSAII (Michael W. Deem and Ramdas Pophale) SiO2 
 PCOD8119799
Probable space group: P 2/C
;
_chemical_formula_sum "Si O2"
_cell_formula_units_Z 26
_cell_length_a 11.848078
_cell_length_b 14.309232
_cell_length_c 8.914567
_cell_angle_alpha 90.000000
_cell_angle_beta 53.981180
_cell_angle_gamma 90.000000
_cell_volume 1222.414375
_symmetry_space_group_name_H-M "P 2/C"
_symmetry_group_IT_number 13
_symmetry_cell_setting 'monoclinic'
loop_
_space_group_symop_operation_xyz
x,y,z
-x,y,1/2-z
-x,-y,-z
x,-y,1/2+z
loop_
_atom_site_type_symbol
_atom_site_label
_atom_site_fract_x
_atom_site_fract_y
_atom_site_fract_z
Si Si1 0.136625 0.618271 0.242337
Si Si2 0.687400 0.437681 0.348288
Si Si3 0.839884 0.936448 0.924778
Si Si4 0.954627 0.765789 0.953446
Si Si5 0.660119 0.707333 0.646391
Si Si6 0.500000 0.468048 0.750000
Si Si7 0.785656 0.881327 0.653106
O O1 0.189454 0.513430 0.235978
O O2 0.101489 0.673025 0.422384
O O3 0.000000 0.608354 0.250000
O O4 0.258567 0.675992 0.066012
O O5 0.737484 0.341610 0.231172
O O6 0.618506 0.411218 0.564351
O O7 0.572255 0.469953 0.318888
O O8 0.831613 0.844512 0.037712
O O9 0.746556 0.917962 0.849736
O O10 0.000000 0.947310 0.750000
O O11 0.794252 0.029375 0.041101
O O12 0.000000 0.735575 0.750000
O O13 0.076166 0.816180 0.955031
O O14 0.500000 0.678510 0.750000
O O15 0.665367 0.817884 0.673849
#
# Coordination Sequence:
#
# PCOD8119799 Si02
#       7
#     4   4   4   4   4   2   4
#     4  12  25  42  69 100 134 179 213 288 346 390
#     4  11  22  44  66  96 127 177 231 269 331 397
#     4   9  19  35  64 100 128 177 209 270 328 401
#     4   9  20  40  64 101 135 170 222 270 324 404
#     4  12  25  45  67  95 129 177 230 273 328 405
#     4  10  20  42  70  86 122 178 230 266 304 410
#     4  10  21  37  65  95 131 171 217 267 329 392
#
# _framework density 21.269382
#
# number of rings (size 3 to 8) (size 9 to 14) (size 15 to 20)
#    0.000    1.846    3.846    2.769    4.308    3.077 
#    0.000    1.538    0.000    0.000    0.000    0.000 
#    0.000    0.000    0.000    0.000    0.000    0.000 
#
# Total GULP energy -322169.445458 kJ/mol
# GULP energy per Si atom -12391.132518 kJ/mol
# Density = 2.122097 g / cm^3
# Si number density = 21.269382 Si / 1000 Ang^3
#
#
#
# Elastic Constant Matrix: (Units=GPa)
#
#
# Indices 1 2 3 4 5 6 
#
# 1 82.1282 42.1848 32.0685 0.0000 1.1294 0.0000
# 2 42.1848 135.5538 62.5328 0.0000 7.2446 0.0000
# 3 32.0685 62.5328 117.5721 0.0000 9.7932 0.0000
# 4 0.0000 0.0000 0.0000 74.0963 0.0000 -8.0140
# 5 1.1294 7.2446 9.7932 0.0000 22.4419 0.0000
# 6 0.0000 0.0000 0.0000 -8.0140 0.0000 38.1920
#
#
#
# Elastic Compliance Matrix: (Units=1/GPa)
#
#
# Indices 1 2 3 4 5 6 
#
# 1 0.014922 -0.003694 -0.002223 0.000000 0.001412 0.000000
# 2 -0.003694 0.010708 -0.004582 0.000000 -0.001271 0.000000
# 3 -0.002223 -0.004582 0.011847 0.000000 -0.003579 0.000000
# 4 0.000000 0.000000 0.000000 0.013809 0.000000 0.002898
# 5 0.001412 -0.001271 -0.003579 0.000000 0.046461 0.000000
# 6 0.000000 0.000000 0.000000 0.002898 0.000000 0.026792
#
#
# Mechanical properties :
#
#
# Convention : Reuss Voigt Hill
#
# Bulk Modulus (GPa) = 60.68105 67.64736 64.16420
# Shear Modulus (GPa) = 33.10611 40.17724 36.64168
#
# Velocity S-wave (km/s) = 3.94955 4.35094 4.15510
# Velocity P-wave (km/s) = 7.02782 7.55745 7.29744
#
# Compressibility (1/GPa) = 0.01647961
#
# Stress axis : x y z
#
# Youngs Moduli (GPa) = 67.01538 93.38517 84.41014
#
# Poissons Ratio (x) = 0.34493 0.18765
# Poissons Ratio (y) = 0.24753 0.38677
# Poissons Ratio (z) = 0.14898 0.42790
#
# Static dielectric constant tensor:
#      x y z
#    x 3.819750 0.000000 0.333910 
#    y 0.000000 4.064530 0.000000 
#    z 0.333910 0.000000 4.162450 
# 
# 
# High freq. dielectric constant tensor:
#      x y z
#    x 1.822130 0.000000 0.026490 
#    y 0.000000 1.836960 0.000000 
#    z 0.026490 0.000000 1.822020 
# 
# From -- ./inp_files/16406.got.cif
#   From: 2010.06.25/outbox.cif.g09.slc.cpg/sg13_9_cif.got.tgz:16406.got - 2010.06.28 04:50:58.
