data_PCOD8119997
_publ_section_title
;
Structure prediction by ZEFSAII (Michael W. Deem and Ramdas Pophale) SiO2 
 PCOD8119997
Probable space group: P 2/C
;
_chemical_formula_sum "Si O2"
_cell_formula_units_Z 28
_cell_length_a 14.404213
_cell_length_b 13.492002
_cell_length_c 8.602885
_cell_angle_alpha 90.000000
_cell_angle_beta 121.725720
_cell_angle_gamma 90.000000
_cell_volume 1422.075763
_symmetry_space_group_name_H-M "P 2/C"
_symmetry_group_IT_number 13
_symmetry_cell_setting 'monoclinic'
loop_
_space_group_symop_operation_xyz
x,y,z
-x,y,1/2-z
-x,-y,-z
x,-y,1/2+z
loop_
_atom_site_type_symbol
_atom_site_label
_atom_site_fract_x
_atom_site_fract_y
_atom_site_fract_z
Si Si1 0.517575 0.200714 0.089350
Si Si2 0.290931 0.111338 0.861662
Si Si3 0.771883 0.309622 0.856793
Si Si4 0.256636 0.099903 0.194059
Si Si5 0.106811 0.245266 0.243227
Si Si6 0.987259 0.607350 0.421308
Si Si7 0.460447 0.599596 0.383351
O O1 0.500000 0.233658 0.250000
O O2 0.630438 0.147596 0.149618
O O3 0.421766 0.123367 0.962781
O O4 0.519492 0.302439 0.997391
O O5 0.237826 0.201464 0.724482
O O6 0.254206 0.014336 0.738164
O O7 0.246878 0.109562 0.999507
O O8 0.865177 0.362158 0.844926
O O9 0.668943 0.380587 0.734738
O O10 0.802634 0.296575 0.065813
O O11 0.156599 0.151321 0.196328
O O12 0.000000 0.213238 0.250000
O O13 0.075208 0.322804 0.082241
O O14 0.000000 0.609291 0.250000
O O15 0.000000 0.500000 0.500000
O O16 0.500000 0.579280 0.250000
O O17 0.500000 0.500000 0.500000
#
# Coordination Sequence:
#
# PCOD8119997 Si02
#       7
#     4   4   4   4   4   4   4
#     4   9  20  37  57  83 115 149 193 237 283 347
#     4  10  21  36  58  87 116 152 190 233 293 350
#     4  10  22  41  59  84 120 151 191 244 289 342
#     4  11  20  36  59  84 116 154 192 240 288 340
#     4  10  22  40  60  86 116 151 196 242 288 341
#     4  11  23  41  64  89 114 150 195 239 289 345
#     4  11  23  37  57  85 117 155 192 233 289 347
#
# _framework density 19.689526999999998
#
# number of rings (size 3 to 8) (size 9 to 14) (size 15 to 20)
#    0.000    1.714    0.000    4.714    0.000    4.571 
#    0.000    7.857    0.000    0.000    0.000    0.000 
#    0.000    0.000    0.000    0.000    0.000    0.000 
#
# Total GULP energy -347151.531831 kJ/mol
# GULP energy per Si atom -12398.268994 kJ/mol
# Density = 1.964471 g / cm^3
# Si number density = 19.689527 Si / 1000 Ang^3
#
#
#
# Elastic Constant Matrix: (Units=GPa)
#
#
# Indices 1 2 3 4 5 6 
#
# 1 111.5852 82.1823 65.7582 0.0000 -6.1708 0.0000
# 2 82.1823 142.8209 87.1132 0.0000 -2.5055 0.0000
# 3 65.7582 87.1132 138.3363 0.0000 -6.7949 0.0000
# 4 0.0000 0.0000 0.0000 -279.5863 0.0000 -125.0524
# 5 -6.1708 -2.5055 -6.7949 0.0000 36.9307 0.0000
# 6 0.0000 0.0000 0.0000 -125.0524 0.0000 -12.9732
#
#
#
# Elastic Compliance Matrix: (Units=1/GPa)
#
#
# Indices 1 2 3 4 5 6 
#
# 1 0.016383 -0.007628 -0.002901 0.000000 0.001686 0.000000
# 2 -0.007628 0.014931 -0.005842 0.000000 -0.001336 0.000000
# 3 -0.002901 -0.005842 0.012355 0.000000 0.001392 0.000000
# 4 0.000000 0.000000 0.000000 0.001080 0.000000 -0.010412
# 5 0.001686 -0.001336 0.001392 0.000000 0.027525 0.000000
# 6 0.000000 0.000000 0.000000 -0.010412 0.000000 0.023278
#
#
# Mechanical properties :
#
#
# Convention : Reuss Voigt Hill
#
# Bulk Modulus (GPa) = 91.52151 95.87220 93.69685
# Shear Modulus (GPa) = 37.89733 -40.61320 -1.35794
#
# Velocity S-wave (km/s) = 4.39195 -4.54660 -0.83137
# Velocity P-wave (km/s) = 8.50307 4.60821 6.83878
#
# Compressibility (1/GPa) = 0.01092639
#
# Stress axis : x y z
#
# Youngs Moduli (GPa) = 61.04064 66.97565 80.93772
#
# Poissons Ratio (x) = 0.51087 0.23483
# Poissons Ratio (y) = 0.46560 0.47285
# Poissons Ratio (z) = 0.17710 0.39128
#
# Static dielectric constant tensor:
#      x y z
#    x 3.641320 0.000000 0.000690 
#    y 0.000000 3.564220 0.000000 
#    z 0.000690 0.000000 3.805740 
# 
# 
# High freq. dielectric constant tensor:
#      x y z
#    x 1.773010 0.000000 -0.004610 
#    y 0.000000 1.773880 0.000000 
#    z -0.004610 0.000000 1.783180 
# 
# From -- ./inp_files/19105.got.cif
#   From: 2010.06.25/outbox.cif.g09.slc.cpg/sg13_10_cif.got.tgz:19105.got - 2010.06.28 04:50:58.
