data_PCOD8119230
_publ_section_title
;
Structure prediction by ZEFSAII (Michael W. Deem and Ramdas Pophale) SiO2 
 PCOD8119230
Probable space group: P 2/C
;
_chemical_formula_sum "Si O2"
_cell_formula_units_Z 30
_cell_length_a 11.672051
_cell_length_b 8.509813
_cell_length_c 14.897507
_cell_angle_alpha 90.000000
_cell_angle_beta 85.381975
_cell_angle_gamma 90.000000
_cell_volume 1474.920472
_symmetry_space_group_name_H-M "P 2/C"
_symmetry_group_IT_number 13
_symmetry_cell_setting 'monoclinic'
loop_
_space_group_symop_operation_xyz
x,y,z
-x,y,1/2-z
-x,-y,-z
x,-y,1/2+z
loop_
_atom_site_type_symbol
_atom_site_label
_atom_site_fract_x
_atom_site_fract_y
_atom_site_fract_z
Si Si1 0.816995 0.545459 0.063364
Si Si2 0.500000 0.851752 0.250000
Si Si3 0.081582 0.184924 0.168753
Si Si4 0.698539 0.638613 0.896401
Si Si5 0.581333 0.970136 0.912228
Si Si6 0.707127 0.621286 0.256217
Si Si7 0.971024 0.255874 0.000090
Si Si8 0.185364 0.875114 0.136381
O O1 0.760759 0.538361 0.165637
O O2 0.879230 0.383711 0.038132
O O3 0.714764 0.573945 0.996909
O O4 0.914187 0.679072 0.054658
O O5 0.610185 0.741855 0.229778
O O6 0.489303 0.970627 0.168414
O O7 0.175028 0.318840 0.146497
O O8 0.000000 0.253673 0.250000
O O9 0.008520 0.154365 0.083404
O O10 0.141124 0.023105 0.197986
O O11 0.611469 0.785345 0.901560
O O12 0.653494 0.505541 0.829732
O O13 0.694467 0.076688 0.917336
O O14 0.500000 0.000000 0.000000
O O15 0.804853 0.721340 0.302297
O O16 0.907627 0.144929 0.934828
#
# Coordination Sequence:
#
# PCOD8119230 Si02
#       8
#     4   2   4   4   4   4   4   4
#     4  10  21  36  62  89 124 162 196 246 312 356
#     4  10  24  44  60  94 120 148 216 258 304 378
#     4  10  21  36  56  89 126 162 201 244 302 363
#     4  10  21  41  61  91 124 154 210 254 298 378
#     4  10  22  45  65  85 122 163 199 264 318 355
#     4  11  22  41  63  87 122 158 202 259 311 360
#     4  10  20  38  56  91 125 159 203 247 291 377
#     4  10  22  39  58  90 122 154 211 251 294 378
#
# _framework density 20.340081000000001
#
# number of rings (size 3 to 8) (size 9 to 14) (size 15 to 20)
#    0.000    1.867    1.333    2.000    1.867    0.533 
#   12.000    2.000    0.000    0.000    0.000    0.000 
#    0.000    0.000    0.000    0.000    0.000    0.000 
#
# Total GULP energy -371996.019986 kJ/mol
# GULP energy per Si atom -12399.867333 kJ/mol
# Density = 2.029379 g / cm^3
# Si number density = 20.340081 Si / 1000 Ang^3
#
#
#
# Elastic Constant Matrix: (Units=GPa)
#
#
# Indices 1 2 3 4 5 6 
#
# 1 71.9366 23.5990 40.0994 0.0000 8.3255 0.0000
# 2 23.5990 91.1158 39.1934 0.0000 6.6084 0.0000
# 3 40.0994 39.1934 107.5996 0.0000 -2.8966 0.0000
# 4 0.0000 0.0000 0.0000 27.2617 0.0000 12.9089
# 5 8.3255 6.6084 -2.8966 0.0000 32.9065 0.0000
# 6 0.0000 0.0000 0.0000 12.9089 0.0000 25.3051
#
#
#
# Elastic Compliance Matrix: (Units=1/GPa)
#
#
# Indices 1 2 3 4 5 6 
#
# 1 0.018628 -0.001687 -0.006461 0.000000 -0.004943 0.000000
# 2 -0.001687 0.013477 -0.004352 0.000000 -0.002663 0.000000
# 3 -0.006461 -0.004352 0.013386 0.000000 0.003687 0.000000
# 4 0.000000 0.000000 0.000000 0.048364 0.000000 -0.024672
# 5 -0.004943 -0.002663 0.003687 0.000000 0.032499 0.000000
# 6 0.000000 0.000000 0.000000 -0.024672 0.000000 0.052104
#
#
# Mechanical properties :
#
#
# Convention : Reuss Voigt Hill
#
# Bulk Modulus (GPa) = 48.80083 52.93728 50.86905
# Shear Modulus (GPa) = 23.77694 28.27867 26.02781
#
# Velocity S-wave (km/s) = 3.42273 3.73271 3.58107
# Velocity P-wave (km/s) = 6.29799 6.68282 6.49325
#
# Compressibility (1/GPa) = 0.02049146
#
# Stress axis : x y z
#
# Youngs Moduli (GPa) = 53.68263 74.19966 74.70543
#
# Poissons Ratio (x) = 0.12518 0.48265
# Poissons Ratio (y) = 0.09057 0.32512
# Poissons Ratio (z) = 0.34683 0.32292
#
# Static dielectric constant tensor:
#      x y z
#    x 3.651120 0.000000 0.144610 
#    y 0.000000 3.634400 0.000000 
#    z 0.144610 0.000000 3.542850 
# 
# 
# High freq. dielectric constant tensor:
#      x y z
#    x 1.788830 0.000000 0.009130 
#    y 0.000000 1.801120 0.000000 
#    z 0.009130 0.000000 1.793610 
# 
# From -- ./inp_files/50035.got.cif
#   From: 2010.06.25/outbox.cif.g09.slc.cpg/sg13_26_cif.got.tgz:50035.got - 2010.06.28 04:50:58.
