data_PCOD8119848
_publ_section_title
;
Structure prediction by ZEFSAII (Michael W. Deem and Ramdas Pophale) SiO2 
 PCOD8119848
Probable space group: P 2/C
;
_chemical_formula_sum "Si O2"
_cell_formula_units_Z 32
_cell_length_a 14.485966
_cell_length_b 17.950711
_cell_length_c 12.969800
_cell_angle_alpha 90.000000
_cell_angle_beta 28.859591
_cell_angle_gamma 90.000000
_cell_volume 1627.826240
_symmetry_space_group_name_H-M "P 2/C"
_symmetry_group_IT_number 13
_symmetry_cell_setting 'monoclinic'
loop_
_space_group_symop_operation_xyz
x,y,z
-x,y,1/2-z
-x,-y,-z
x,-y,1/2+z
loop_
_atom_site_type_symbol
_atom_site_label
_atom_site_fract_x
_atom_site_fract_y
_atom_site_fract_z
Si Si1 0.280455 0.989350 0.744807
Si Si2 0.291533 0.154447 0.349908
Si Si3 0.307036 0.212762 0.548897
Si Si4 0.000482 0.089170 0.370974
Si Si5 0.023600 0.232569 0.466775
Si Si6 0.821838 0.393399 0.183081
Si Si7 0.094064 0.477049 0.769279
Si Si8 0.551162 0.623170 0.588725
O O1 0.235489 0.930001 0.879588
O O2 0.174128 0.960414 0.745975
O O3 0.500000 0.000000 0.500000
O O4 0.192754 0.064939 0.878696
O O5 0.208813 0.179696 0.541858
O O6 0.206614 0.213295 0.354294
O O7 0.517952 0.156371 0.107016
O O8 0.390697 0.293070 0.443171
O O9 0.168192 0.215659 0.781567
O O10 0.000000 0.074959 0.250000
O O11 0.022535 0.178433 0.368130
O O12 0.054037 0.319507 0.411708
O O13 0.821344 0.440130 0.290478
O O14 0.611967 0.378159 0.340342
O O15 0.920500 0.450236 0.009004
O O16 0.263923 0.420403 0.629798
O O17 0.000000 0.474182 0.750000
O O18 0.500000 0.587093 0.750000
#
# Coordination Sequence:
#
# PCOD8119848 Si02
#       8
#     4   4   4   4   4   4   4   4
#     4  10  22  42  64  88 126 164 204 253 306 371
#     4  10  21  33  56  92 120 150 195 247 305 361
#     4  11  20  32  57  93 119 150 197 247 308 360
#     4  10  24  41  62  90 121 165 207 249 308 357
#     4  11  21  38  59  82 119 158 201 248 293 367
#     4  11  23  39  61  86 119 163 202 251 304 363
#     4  11  24  39  60  88 118 161 204 244 312 370
#     4  12  20  36  61  88 125 155 193 257 316 366
#
# _framework density 19.658118000000002
#
# number of rings (size 3 to 8) (size 9 to 14) (size 15 to 20)
#    0.000    1.250    5.000    1.500    0.000    6.000 
#    0.000    0.000    0.000    0.000    0.000    0.000 
#    0.000    0.000    0.000    0.000    0.000    0.000 
#
# Total GULP energy -396520.783122 kJ/mol
# GULP energy per Si atom -12391.274473 kJ/mol
# Density = 1.961338 g / cm^3
# Si number density = 19.658118 Si / 1000 Ang^3
#
#
#
# Elastic Constant Matrix: (Units=GPa)
#
#
# Indices 1 2 3 4 5 6 
#
# 1 108.7720 65.7227 46.8310 0.0000 6.7740 0.0000
# 2 65.7227 111.8246 7.7210 0.0000 10.6981 0.0000
# 3 46.8310 7.7210 68.8296 0.0000 -9.2562 0.0000
# 4 0.0000 0.0000 0.0000 15.5825 0.0000 1.1328
# 5 6.7740 10.6981 -9.2562 0.0000 25.2022 0.0000
# 6 0.0000 0.0000 0.0000 1.1328 0.0000 21.6358
#
#
#
# Elastic Compliance Matrix: (Units=1/GPa)
#
#
# Indices 1 2 3 4 5 6 
#
# 1 0.023814 -0.012238 -0.015771 0.000000 -0.006998 0.000000
# 2 -0.012238 0.015794 0.006412 0.000000 -0.001060 0.000000
# 3 -0.015771 0.006412 0.026029 0.000000 0.011077 0.000000
# 4 0.000000 0.000000 0.000000 0.064420 0.000000 -0.003373
# 5 -0.006998 -0.001060 0.011077 0.000000 0.046079 0.000000
# 6 0.000000 0.000000 0.000000 -0.003373 0.000000 0.046396
#
#
# Mechanical properties :
#
#
# Convention : Reuss Voigt Hill
#
# Bulk Modulus (GPa) = 44.55554 58.88617 51.72086
# Shear Modulus (GPa) = 18.30121 23.76086 21.03103
#
# Velocity S-wave (km/s) = 3.05450 3.48041 3.27439
# Velocity P-wave (km/s) = 5.92911 6.79494 6.37674
#
# Compressibility (1/GPa) = 0.02244390
#
# Stress axis : x y z
#
# Youngs Moduli (GPa) = 41.99248 63.31646 38.41799
#
# Poissons Ratio (x) = 0.77484 0.60589
# Poissons Ratio (y) = 0.51389 -0.24634
# Poissons Ratio (z) = 0.66227 -0.40600
#
# Static dielectric constant tensor:
#      x y z
#    x 3.721000 0.000000 -0.128800 
#    y 0.000000 3.629620 0.000000 
#    z -0.128800 0.000000 3.465910 
# 
# 
# High freq. dielectric constant tensor:
#      x y z
#    x 1.762460 0.000000 -0.015200 
#    y 0.000000 1.773870 0.000000 
#    z -0.015200 0.000000 1.758070 
# 
# From -- ./inp_files/37687.got.cif
#   From: 2010.06.25/outbox.cif.g09.slc.cpg/sg13_19_cif.got.tgz:37687.got - 2010.06.28 04:50:58.
