data_PCOD8119611
_publ_section_title
;
Structure prediction by ZEFSAII (Michael W. Deem and Ramdas Pophale) SiO2 
 PCOD8119611
Probable space group: P 2/C
;
_chemical_formula_sum "Si O2"
_cell_formula_units_Z 24
_cell_length_a 10.896869
_cell_length_b 10.555033
_cell_length_c 17.060529
_cell_angle_alpha 90.000000
_cell_angle_beta 143.088973
_cell_angle_gamma 90.000000
_cell_volume 1178.475157
_symmetry_space_group_name_H-M "P 2/C"
_symmetry_group_IT_number 13
_symmetry_cell_setting 'monoclinic'
loop_
_space_group_symop_operation_xyz
x,y,z
-x,y,1/2-z
-x,-y,-z
x,-y,1/2+z
loop_
_atom_site_type_symbol
_atom_site_label
_atom_site_fract_x
_atom_site_fract_y
_atom_site_fract_z
Si Si1 0.597111 0.631642 0.383857
Si Si2 0.547071 0.199909 0.988569
Si Si3 0.434990 0.616809 0.864857
Si Si4 0.046654 0.629785 0.568351
Si Si5 0.315744 0.182926 0.105565
Si Si6 0.791731 0.960290 0.100621
O O1 0.500000 0.603215 0.250000
O O2 0.491463 0.751699 0.372580
O O3 0.562478 0.512831 0.424253
O O4 0.834259 0.670606 0.498892
O O5 0.364110 0.120824 0.928938
O O6 0.589852 0.325974 0.061279
O O7 0.745169 0.109226 0.084740
O O8 0.207410 0.594767 0.717283
O O9 0.562205 0.711173 0.877375
O O10 0.135019 0.747237 0.561866
O O11 0.000000 0.500000 0.500000
O O12 0.500000 0.115330 0.250000
O O13 0.212502 0.082318 0.993121
O O14 0.000000 0.929677 0.250000
#
# Coordination Sequence:
#
# PCOD8119611 Si02
#       6
#     4   4   4   4   4   4
#     4  12  23  37  61  94 127 152 194 255 310 366
#     4  10  25  43  60  87 123 159 205 255 299 361
#     4  10  20  40  62  86 123 159 200 247 308 364
#     4  11  20  35  62  92 125 158 195 244 311 375
#     4   9  19  39  64  90 122 165 201 249 307 363
#     4  10  23  43  66  85 119 165 214 252 298 355
#
# _framework density 20.365299
#
# number of rings (size 3 to 8) (size 9 to 14) (size 15 to 20)
#    0.000    1.667    3.333    1.000    4.667    0.667 
#    0.000    0.833    0.000    0.000    0.000    0.000 
#    0.000    0.000    0.000    0.000    0.000    0.000 
#
# Total GULP energy -297389.509746 kJ/mol
# GULP energy per Si atom -12391.229573 kJ/mol
# Density = 2.031895 g / cm^3
# Si number density = 20.365299 Si / 1000 Ang^3
#
#
#
# Elastic Constant Matrix: (Units=GPa)
#
#
# Indices 1 2 3 4 5 6 
#
# 1 86.1257 62.6407 45.2753 0.0000 -2.4700 0.0000
# 2 62.6407 77.6489 48.8894 0.0000 -17.5694 0.0000
# 3 45.2753 48.8894 124.4405 0.0000 0.1285 0.0000
# 4 0.0000 0.0000 0.0000 -17.0028 0.0000 -6.3335
# 5 -2.4700 -17.5694 0.1285 0.0000 27.4254 0.0000
# 6 0.0000 0.0000 0.0000 -6.3335 0.0000 21.8603
#
#
#
# Elastic Compliance Matrix: (Units=1/GPa)
#
#
# Indices 1 2 3 4 5 6 
#
# 1 0.033613 -0.030841 -0.000095 0.000000 -0.016730 0.000000
# 2 -0.030841 0.049520 -0.008264 0.000000 0.028985 0.000000
# 3 -0.000095 -0.008264 0.011323 0.000000 -0.005356 0.000000
# 4 0.000000 0.000000 0.000000 -0.053085 0.000000 -0.015380
# 5 -0.016730 0.028985 -0.005356 0.000000 0.053550 0.000000
# 6 0.000000 0.000000 0.000000 -0.015380 0.000000 0.041289
#
#
# Mechanical properties :
#
#
# Convention : Reuss Voigt Hill
#
# Bulk Modulus (GPa) = 62.28833 66.86956 64.57895
# Shear Modulus (GPa) = 22.73107 15.21722 18.97414
#
# Velocity S-wave (km/s) = 3.34453 2.73649 3.05567
# Velocity P-wave (km/s) = 6.75029 6.54911 6.65046
#
# Compressibility (1/GPa) = 0.01605437
#
# Stress axis : x y z
#
# Youngs Moduli (GPa) = 29.75063 20.19367 88.31632
#
# Poissons Ratio (x) = 0.62280 0.00841
# Poissons Ratio (y) = 0.91755 0.72986
# Poissons Ratio (z) = 0.00283 0.16688
#
# Static dielectric constant tensor:
#      x y z
#    x 3.704630 0.000000 -0.868570 
#    y 0.000000 3.719340 0.000000 
#    z -0.868570 0.000000 2.119400 
# 
# 
# High freq. dielectric constant tensor:
#      x y z
#    x 1.804030 0.000000 -0.001280 
#    y 0.000000 1.792590 0.000000 
#    z -0.001280 0.000000 1.789740 
# 
# From -- ./inp_files/66707.got.cif
#   From: 2010.06.25/outbox.cif.g09.slc.cpg/sg13_34_cif.got.tgz:66707.got - 2010.06.28 04:50:58.
