data_PCOD8119161
_publ_section_title
;
Structure prediction by ZEFSAII (Michael W. Deem and Ramdas Pophale) SiO2 
 PCOD8119161
Probable space group: P 2/C
;
_chemical_formula_sum "Si O2"
_cell_formula_units_Z 26
_cell_length_a 14.516781
_cell_length_b 7.847636
_cell_length_c 20.105191
_cell_angle_alpha 90.000000
_cell_angle_beta 145.449565
_cell_angle_gamma 90.000000
_cell_volume 1298.975974
_symmetry_space_group_name_H-M "P 2/C"
_symmetry_group_IT_number 13
_symmetry_cell_setting 'monoclinic'
loop_
_space_group_symop_operation_xyz
x,y,z
-x,y,1/2-z
-x,-y,-z
x,-y,1/2+z
loop_
_atom_site_type_symbol
_atom_site_label
_atom_site_fract_x
_atom_site_fract_y
_atom_site_fract_z
Si Si1 0.019337 0.239210 0.503808
Si Si2 0.449401 0.138369 0.392847
Si Si3 0.753567 0.534923 0.886927
Si Si4 0.100644 0.980186 0.166280
Si Si5 0.646147 0.825585 0.517602
Si Si6 0.000000 0.940102 0.750000
Si Si7 0.536911 0.487704 0.377232
O O1 0.107794 0.395436 0.521550
O O2 0.831934 0.290387 0.406277
O O3 0.027641 0.091835 0.453068
O O4 0.106143 0.194069 0.626537
O O5 0.272816 0.073014 0.266489
O O6 0.454884 0.166123 0.474718
O O7 0.490689 0.326154 0.393107
O O8 0.584024 0.001708 0.445601
O O9 0.619310 0.458213 0.757976
O O10 0.681361 0.575095 0.915923
O O11 0.038020 0.949572 0.205330
O O12 0.593811 0.653038 0.450940
O O13 0.841809 0.823443 0.642236
#
# Coordination Sequence:
#
# PCOD8119161 Si02
#       7
#     4   4   4   4   4   2   4
#     4  10  20  38  60  85 121 164 192 254 302 358
#     4  10  21  39  61  88 116 161 199 246 304 370
#     4  10  22  36  57  86 120 151 206 246 296 360
#     4  10  20  37  62  87 120 161 203 242 312 353
#     4  10  22  39  61  84 122 156 199 249 307 359
#     4  10  22  38  60  92 122 154 206 260 288 378
#     4  11  21  39  59  89 117 158 198 255 293 362
#
# _framework density 20.015765999999999
#
# number of rings (size 3 to 8) (size 9 to 14) (size 15 to 20)
#    0.000    1.846    1.538    2.308    2.154    0.000 
#    0.000    2.308    0.000    0.000    0.000    0.000 
#    0.000    0.000    0.000    0.000    0.000    0.000 
#
# Total GULP energy -322178.208124 kJ/mol
# GULP energy per Si atom -12391.469543 kJ/mol
# Density = 1.997021 g / cm^3
# Si number density = 20.015766 Si / 1000 Ang^3
#
#
#
# Elastic Constant Matrix: (Units=GPa)
#
#
# Indices 1 2 3 4 5 6 
#
# 1 87.0141 20.7041 29.1444 0.0000 -1.4294 0.0000
# 2 20.7041 68.8687 20.3982 0.0000 2.0253 0.0000
# 3 29.1444 20.3982 71.7170 0.0000 -2.1616 0.0000
# 4 0.0000 0.0000 0.0000 37.1569 0.0000 -5.2975
# 5 -1.4294 2.0253 -2.1616 0.0000 31.9722 0.0000
# 6 0.0000 0.0000 0.0000 -5.2975 0.0000 22.9842
#
#
#
# Elastic Compliance Matrix: (Units=1/GPa)
#
#
# Indices 1 2 3 4 5 6 
#
# 1 0.013757 -0.002727 -0.004801 0.000000 0.000463 0.000000
# 2 -0.002727 0.016452 -0.003613 0.000000 -0.001408 0.000000
# 3 -0.004801 -0.003613 0.016957 0.000000 0.001161 0.000000
# 4 0.000000 0.000000 0.000000 0.027827 0.000000 0.006414
# 5 0.000463 -0.001408 0.001161 0.000000 0.031466 0.000000
# 6 0.000000 0.000000 0.000000 0.006414 0.000000 0.044987
#
#
# Mechanical properties :
#
#
# Convention : Reuss Voigt Hill
#
# Bulk Modulus (GPa) = 40.18822 40.89924 40.54373
# Shear Modulus (GPa) = 27.46897 28.91287 28.19092
#
# Velocity S-wave (km/s) = 3.70857 3.80479 3.75698
# Velocity P-wave (km/s) = 6.20160 6.30712 6.25458
#
# Compressibility (1/GPa) = 0.02488291
#
# Stress axis : x y z
#
# Youngs Moduli (GPa) = 72.69060 60.78277 58.97126
#
# Poissons Ratio (x) = 0.16578 0.28311
# Poissons Ratio (y) = 0.19826 0.21309
# Poissons Ratio (z) = 0.34898 0.21964
#
# Static dielectric constant tensor:
#      x y z
#    x 3.770520 0.000000 0.041160 
#    y 0.000000 3.521710 0.000000 
#    z 0.041160 0.000000 3.745380 
# 
# 
# High freq. dielectric constant tensor:
#      x y z
#    x 1.783850 0.000000 0.002500 
#    y 0.000000 1.770750 0.000000 
#    z 0.002500 0.000000 1.786970 
# 
# From -- ./inp_files/79867.got.cif
#   From: 2010.06.25/outbox.cif.g09.slc.cpg/sg13_40_cif.got.tgz:79867.got - 2010.06.28 04:50:58.
