data_PCOD8119580
_publ_section_title
;
Structure prediction by ZEFSAII (Michael W. Deem and Ramdas Pophale) SiO2 
 PCOD8119580
Probable space group: P 2/C
;
_chemical_formula_sum "Si O2"
_cell_formula_units_Z 22
_cell_length_a 12.013507
_cell_length_b 9.960603
_cell_length_c 8.992023
_cell_angle_alpha 90.000000
_cell_angle_beta 111.456863
_cell_angle_gamma 90.000000
_cell_volume 1001.427247
_symmetry_space_group_name_H-M "P 2/C"
_symmetry_group_IT_number 13
_symmetry_cell_setting 'monoclinic'
loop_
_space_group_symop_operation_xyz
x,y,z
-x,y,1/2-z
-x,-y,-z
x,-y,1/2+z
loop_
_atom_site_type_symbol
_atom_site_label
_atom_site_fract_x
_atom_site_fract_y
_atom_site_fract_z
Si Si1 0.500000 0.323372 0.250000
Si Si2 0.516926 0.154842 0.983722
Si Si3 0.753685 0.593971 0.959443
Si Si4 0.137863 0.360118 0.308067
Si Si5 0.760586 0.882782 0.485494
Si Si6 0.748509 0.160061 0.651932
O O1 0.559734 0.227970 0.155238
O O2 0.390800 0.410579 0.131164
O O3 0.623781 0.174253 0.917886
O O4 0.386769 0.206790 0.873807
O O5 0.500000 0.000000 0.000000
O O6 0.818582 0.616426 0.836346
O O7 0.787218 0.450477 0.041097
O O8 0.802374 0.710394 0.094815
O O9 0.155750 0.205967 0.367048
O O10 0.000000 0.399836 0.250000
O O11 0.810536 0.875009 0.340342
O O12 0.761270 0.034915 0.546058
#
# Coordination Sequence:
#
# PCOD8119580 Si02
#       6
#     2   4   4   4   4   4
#     4  10  20  40  60 100 134 172 204 280 318 400
#     4   9  19  30  61  92 135 167 205 248 329 385
#     4  11  24  45  66  96 133 170 223 266 334 389
#     4  12  26  46  68  91 128 178 226 271 319 388
#     4  11  21  40  62  97 131 171 219 263 325 384
#     4  10  22  37  66  97 132 167 211 268 330 393
#
# _framework density 21.968647000000001
#
# number of rings (size 3 to 8) (size 9 to 14) (size 15 to 20)
#    0.000    1.455    1.818    3.273   12.727    0.727 
#    3.273    4.545    0.000    0.000    0.000    0.000 
#    0.000    0.000    0.000    0.000    0.000    0.000 
#
# Total GULP energy -272696.141462 kJ/mol
# GULP energy per Si atom -12395.279157 kJ/mol
# Density = 2.191865 g / cm^3
# Si number density = 21.968647 Si / 1000 Ang^3
#
#
#
# Elastic Constant Matrix: (Units=GPa)
#
#
# Indices 1 2 3 4 5 6 
#
# 1 84.2282 21.6051 34.0181 0.0000 -2.4179 0.0000
# 2 21.6051 67.5871 20.5139 0.0000 11.2087 0.0000
# 3 34.0181 20.5139 104.1584 0.0000 -23.5871 0.0000
# 4 0.0000 0.0000 0.0000 103.0159 0.0000 18.9834
# 5 -2.4179 11.2087 -23.5871 0.0000 32.5046 0.0000
# 6 0.0000 0.0000 0.0000 18.9834 0.0000 24.6293
#
#
#
# Elastic Compliance Matrix: (Units=1/GPa)
#
#
# Indices 1 2 3 4 5 6 
#
# 1 0.014385 -0.003132 -0.004301 0.000000 -0.000971 0.000000
# 2 -0.003132 0.019100 -0.005125 0.000000 -0.010539 0.000000
# 3 -0.004301 -0.005125 0.014770 0.000000 0.012165 0.000000
# 4 0.000000 0.000000 0.000000 0.011314 0.000000 -0.008721
# 5 -0.000971 -0.010539 0.012165 0.000000 0.043154 0.000000
# 6 0.000000 0.000000 0.000000 -0.008721 0.000000 0.047324
#
#
# Mechanical properties :
#
#
# Convention : Reuss Voigt Hill
#
# Bulk Modulus (GPa) = 43.21869 45.36091 44.28980
# Shear Modulus (GPa) = 27.34068 44.01906 35.67987
#
# Velocity S-wave (km/s) = 3.53162 4.48115 4.03442
# Velocity P-wave (km/s) = 6.02871 6.88964 6.47350
#
# Compressibility (1/GPa) = 0.02313814
#
# Stress axis : x y z
#
# Youngs Moduli (GPa) = 69.51596 52.35532 67.70521
#
# Poissons Ratio (x) = 0.16397 0.29122
# Poissons Ratio (y) = 0.21771 0.34702
# Poissons Ratio (z) = 0.29901 0.26835
#
# Static dielectric constant tensor:
#      x y z
#    x 4.240570 0.000000 -0.105580 
#    y 0.000000 3.842960 0.000000 
#    z -0.105580 0.000000 3.959930 
# 
# 
# High freq. dielectric constant tensor:
#      x y z
#    x 1.844890 0.000000 -0.017700 
#    y 0.000000 1.859520 0.000000 
#    z -0.017700 0.000000 1.870080 
# 
# From -- ./inp_files/15958.got.cif
#   From: 2010.06.25/outbox.cif.g09.slc.cpg/sg13_8_cif.got.tgz:15958.got - 2010.06.28 04:50:58.
