data_PCOD8119083
_publ_section_title
;
Structure prediction by ZEFSAII (Michael W. Deem and Ramdas Pophale) SiO2 
 PCOD8119083
Probable space group: P 2/C
;
_chemical_formula_sum "Si O2"
_cell_formula_units_Z 22
_cell_length_a 19.046018
_cell_length_b 6.410087
_cell_length_c 8.544408
_cell_angle_alpha 90.000000
_cell_angle_beta 111.006984
_cell_angle_gamma 90.000000
_cell_volume 973.826314
_symmetry_space_group_name_H-M "P 2/C"
_symmetry_group_IT_number 13
_symmetry_cell_setting 'monoclinic'
loop_
_space_group_symop_operation_xyz
x,y,z
-x,y,1/2-z
-x,-y,-z
x,-y,1/2+z
loop_
_atom_site_type_symbol
_atom_site_label
_atom_site_fract_x
_atom_site_fract_y
_atom_site_fract_z
Si Si1 0.500000 0.621469 0.250000
Si Si2 0.603138 0.401680 0.580777
Si Si3 0.700537 0.648367 0.884103
Si Si4 0.827266 0.085019 0.337723
Si Si5 0.052714 0.623569 0.426707
Si Si6 0.820046 0.697962 0.513128
O O1 0.543571 0.477240 0.406319
O O2 0.439298 0.741375 0.316410
O O3 0.638846 0.601278 0.700350
O O4 0.665471 0.281157 0.525302
O O5 0.755968 0.829844 0.876619
O O6 0.742838 0.427706 0.941417
O O7 0.905199 0.186071 0.457169
O O8 0.816536 0.132274 0.147665
O O9 0.831746 0.834527 0.364250
O O10 0.112452 0.461409 0.402211
O O11 0.000000 0.719898 0.250000
O O12 0.000000 0.500000 0.500000
#
# Coordination Sequence:
#
# PCOD8119083 Si02
#       6
#     2   4   4   4   4   4
#     4   8  16  28  52  94 118 144 206 234 282 344
#     4   9  16  31  56  86 120 153 192 246 281 347
#     4  10  20  37  58  84 121 155 199 238 297 339
#     4  11  25  39  59  88 119 152 197 247 290 349
#     4  11  24  44  62  83 117 155 194 241 299 353
#     4  11  25  39  59  89 118 152 199 244 292 347
#
# _framework density 22.591297000000001
#
# number of rings (size 3 to 8) (size 9 to 14) (size 15 to 20)
#    0.000    1.818    3.636    0.000    5.091    1.455 
#    0.000    0.000    0.000    0.000    0.000   89.091 
#    0.000    0.000    0.000    0.000    0.000    0.000 
#
# Total GULP energy -272556.450334 kJ/mol
# GULP energy per Si atom -12388.929561 kJ/mol
# Density = 2.253988 g / cm^3
# Si number density = 22.591297 Si / 1000 Ang^3
#
#
#
# Elastic Constant Matrix: (Units=GPa)
#
#
# Indices 1 2 3 4 5 6 
#
# 1 115.4054 1.8422 28.4770 0.0000 -9.1881 0.0000
# 2 1.8422 50.7066 4.9931 0.0000 10.7340 0.0000
# 3 28.4770 4.9931 103.0501 0.0000 9.9650 0.0000
# 4 0.0000 0.0000 0.0000 25.0426 0.0000 -8.6751
# 5 -9.1881 10.7340 9.9650 0.0000 45.3769 0.0000
# 6 0.0000 0.0000 0.0000 -8.6751 0.0000 6.8866
#
#
#
# Elastic Compliance Matrix: (Units=1/GPa)
#
#
# Indices 1 2 3 4 5 6 
#
# 1 0.009605 -0.000643 -0.002887 0.000000 0.002731 0.000000
# 2 -0.000643 0.020834 -0.000350 0.000000 -0.004982 0.000000
# 3 -0.002887 -0.000350 0.010797 0.000000 -0.002873 0.000000
# 4 0.000000 0.000000 0.000000 0.070849 0.000000 0.089249
# 5 0.002731 -0.004982 -0.002873 0.000000 0.024400 0.000000
# 6 0.000000 0.000000 0.000000 0.089249 0.000000 0.257637
#
#
# Mechanical properties :
#
#
# Convention : Reuss Voigt Hill
#
# Bulk Modulus (GPa) = 29.87283 37.75406 33.81344
# Shear Modulus (GPa) = 12.10536 31.05122 21.57829
#
# Velocity S-wave (km/s) = 2.31734 3.71142 3.09392
# Velocity P-wave (km/s) = 4.51796 5.92572 5.26907
#
# Compressibility (1/GPa) = 0.03347523
#
# Stress axis : x y z
#
# Youngs Moduli (GPa) = 104.10968 47.99929 92.62125
#
# Poissons Ratio (x) = 0.03085 0.26742
# Poissons Ratio (y) = 0.06692 0.03243
# Poissons Ratio (z) = 0.30059 0.01680
#
# Static dielectric constant tensor:
#      x y z
#    x 4.983170 0.000000 0.003810 
#    y 0.000000 3.432430 0.000000 
#    z 0.003810 0.000000 4.770630 
# 
# 
# High freq. dielectric constant tensor:
#      x y z
#    x 1.921130 0.000000 -0.003020 
#    y 0.000000 1.823030 0.000000 
#    z -0.003020 0.000000 1.916020 
# 
# From -- ./inp_files/22218.got.cif
#   From: 2010.06.25/outbox.cif.g09.slc.cpg/sg13_12_cif.got.tgz:22218.got - 2010.06.28 04:50:58.
