data_PCOD8119825
_publ_section_title
;
Structure prediction by ZEFSAII (Michael W. Deem and Ramdas Pophale) SiO2 
 PCOD8119825
Probable space group: P 2/C
;
_chemical_formula_sum "Si O2"
_cell_formula_units_Z 26
_cell_length_a 8.821512
_cell_length_b 12.392399
_cell_length_c 11.436480
_cell_angle_alpha 90.000000
_cell_angle_beta 110.750223
_cell_angle_gamma 90.000000
_cell_volume 1169.134728
_symmetry_space_group_name_H-M "P 2/C"
_symmetry_group_IT_number 13
_symmetry_cell_setting 'monoclinic'
loop_
_space_group_symop_operation_xyz
x,y,z
-x,y,1/2-z
-x,-y,-z
x,-y,1/2+z
loop_
_atom_site_type_symbol
_atom_site_label
_atom_site_fract_x
_atom_site_fract_y
_atom_site_fract_z
Si Si1 0.630495 0.281202 0.875530
Si Si2 0.000000 0.184262 0.250000
Si Si3 0.000000 0.467049 0.750000
Si Si4 0.423812 0.956491 0.099863
Si Si5 0.500000 0.738932 0.750000
Si Si6 0.028750 0.740068 0.132935
Si Si7 0.261144 0.358489 0.365595
Si Si8 0.197595 0.126213 0.094213
O O1 0.500000 0.330833 0.750000
O O2 0.566648 0.171286 0.917566
O O3 0.786555 0.242120 0.848444
O O4 0.663444 0.371492 0.983793
O O5 0.864063 0.259396 0.153238
O O6 0.904943 0.108602 0.315308
O O7 0.002363 0.390021 0.865788
O O8 0.835863 0.536613 0.703303
O O9 0.500000 0.985655 0.250000
O O10 0.240341 0.007933 0.053634
O O11 0.500000 0.000000 0.000000
O O12 0.593579 0.662546 0.684332
O O13 0.629893 0.814982 0.847622
O O14 0.000000 0.796825 0.250000
O O15 0.907164 0.793588 0.011075
#
# Coordination Sequence:
#
# PCOD8119825 Si02
#       8
#     4   2   2   4   2   4   4   4
#     4  11  25  45  68  99 143 180 223 289 344 411
#     4   9  20  38  65 102 126 177 226 288 341 392
#     4   9  24  46  71  96 136 183 224 294 359 406
#     4  11  26  42  70 106 144 193 231 285 355 417
#     4  10  22  36  72 102 128 176 230 290 328 408
#     4  10  25  45  66 100 133 182 222 287 354 403
#     4  10  20  44  67  96 132 178 229 284 346 410
#     4  11  21  44  71  98 144 177 237 283 341 427
#
# _framework density 22.238669000000002
#
# number of rings (size 3 to 8) (size 9 to 14) (size 15 to 20)
#    0.462    1.231    2.308    0.923    8.615    1.231 
#    2.769    1.538    1.692    0.000    0.000    0.000 
#    0.000    0.000    0.000    0.000    0.000    0.000 
#
# Total GULP energy -322159.197957 kJ/mol
# GULP energy per Si atom -12390.738383 kJ/mol
# Density = 2.218805 g / cm^3
# Si number density = 22.238669 Si / 1000 Ang^3
#
#
#
# Elastic Constant Matrix: (Units=GPa)
#
#
# Indices 1 2 3 4 5 6 
#
# 1 125.1998 11.5783 50.6424 0.0000 0.9070 0.0000
# 2 11.5783 52.0372 18.7496 0.0000 0.8951 0.0000
# 3 50.6424 18.7496 126.2387 0.0000 4.5539 0.0000
# 4 0.0000 0.0000 0.0000 38.0857 0.0000 19.9172
# 5 0.9070 0.8951 4.5539 0.0000 41.6078 0.0000
# 6 0.0000 0.0000 0.0000 19.9172 0.0000 30.2350
#
#
#
# Elastic Compliance Matrix: (Units=1/GPa)
#
#
# Indices 1 2 3 4 5 6 
#
# 1 0.009567 -0.000789 -0.003728 0.000000 0.000217 0.000000
# 2 -0.000789 0.020369 -0.002704 0.000000 -0.000125 0.000000
# 3 -0.003728 -0.002704 0.009853 0.000000 -0.000939 0.000000
# 4 0.000000 0.000000 0.000000 0.040056 0.000000 -0.026386
# 5 0.000217 -0.000125 -0.000939 0.000000 0.024135 0.000000
# 6 0.000000 0.000000 0.000000 -0.026386 0.000000 0.050456
#
#
# Mechanical properties :
#
#
# Convention : Reuss Voigt Hill
#
# Bulk Modulus (GPa) = 39.45520 51.71293 45.58406
# Shear Modulus (GPa) = 28.19649 36.81938 32.50794
#
# Velocity S-wave (km/s) = 3.56463 4.07338 3.82746
# Velocity P-wave (km/s) = 5.89256 6.73998 6.33047
#
# Compressibility (1/GPa) = 0.02534520
#
# Stress axis : x y z
#
# Youngs Moduli (GPa) = 104.52859 49.09392 101.49437
#
# Poissons Ratio (x) = 0.03873 0.37842
# Poissons Ratio (y) = 0.08246 0.27447
# Poissons Ratio (z) = 0.38973 0.13277
#
# Static dielectric constant tensor:
#      x y z
#    x 5.573010 0.000000 -0.195070 
#    y 0.000000 3.817760 0.000000 
#    z -0.195070 0.000000 4.361560 
# 
# 
# High freq. dielectric constant tensor:
#      x y z
#    x 1.890310 0.000000 -0.003450 
#    y 0.000000 1.853970 0.000000 
#    z -0.003450 0.000000 1.878290 
# 
# From -- ./inp_files/29975.got.cif
#   From: 2010.06.25/outbox.cif.g09.slc.cpg/sg13_15_cif.got.tgz:29975.got - 2010.06.28 04:50:58.
