data_PCOD8119617
_publ_section_title
;
Structure prediction by ZEFSAII (Michael W. Deem and Ramdas Pophale) SiO2 
 PCOD8119617
Probable space group: P 2/C
;
_chemical_formula_sum "Si O2"
_cell_formula_units_Z 30
_cell_length_a 14.689526
_cell_length_b 8.513896
_cell_length_c 11.535493
_cell_angle_alpha 90.000000
_cell_angle_beta 114.743465
_cell_angle_gamma 90.000000
_cell_volume 1310.235729
_symmetry_space_group_name_H-M "P 2/C"
_symmetry_group_IT_number 13
_symmetry_cell_setting 'monoclinic'
loop_
_space_group_symop_operation_xyz
x,y,z
-x,y,1/2-z
-x,-y,-z
x,-y,1/2+z
loop_
_atom_site_type_symbol
_atom_site_label
_atom_site_fract_x
_atom_site_fract_y
_atom_site_fract_z
Si Si1 0.500000 0.462561 0.250000
Si Si2 0.898454 0.814447 0.936755
Si Si3 0.565426 0.888470 0.172155
Si Si4 0.885451 0.662006 0.173554
Si Si5 0.693725 0.365502 0.831262
Si Si6 0.871128 0.174347 0.908155
Si Si7 0.773855 0.384520 0.204241
Si Si8 0.421639 0.223018 0.395996
O O1 0.406947 0.573713 0.154985
O O2 0.470624 0.357100 0.343246
O O3 0.856943 0.729958 0.800884
O O4 0.855003 0.989508 0.910491
O O5 0.862091 0.746975 0.040479
O O6 0.017401 0.792545 0.986701
O O7 0.500000 0.868850 0.250000
O O8 0.659103 0.770438 0.223152
O O9 0.606821 0.066865 0.191532
O O10 0.500842 0.835332 0.029548
O O11 0.857157 0.773198 0.266629
O O12 0.819292 0.502961 0.133834
O O13 0.000000 0.611089 0.250000
O O14 0.789723 0.274955 0.943365
O O15 0.734683 0.519686 0.793122
O O16 0.680239 0.289394 0.098780
#
# Coordination Sequence:
#
# PCOD8119617 Si02
#       8
#     2   4   4   4   4   4   4   4
#     4  10  20  40  62  92 132 168 206 272 324 382
#     4  10  20  41  68  91 133 171 210 270 321 385
#     4  11  22  42  65  90 125 172 215 266 317 381
#     4   9  20  39  62  93 129 169 211 264 323 378
#     4  10  21  39  61  91 130 164 210 263 322 381
#     4   9  20  40  66  95 128 168 217 265 320 389
#     4  10  22  40  62  97 128 165 214 263 322 387
#     4  10  23  42  65  92 128 167 218 265 317 386
#
# _framework density 22.896643000000001
#
# number of rings (size 3 to 8) (size 9 to 14) (size 15 to 20)
#    0.000    2.133    1.333    0.800    0.000    8.000 
#    9.600   11.333    0.000    0.000    0.000    0.000 
#    0.000    0.000    0.000    0.000    0.000    0.000 
#
# Total GULP energy -371702.681379 kJ/mol
# GULP energy per Si atom -12390.089379 kJ/mol
# Density = 2.284453 g / cm^3
# Si number density = 22.896643 Si / 1000 Ang^3
#
#
#
# Elastic Constant Matrix: (Units=GPa)
#
#
# Indices 1 2 3 4 5 6 
#
# 1 121.5102 69.7067 22.6723 0.0000 12.6749 0.0000
# 2 69.7067 155.0967 28.9560 0.0000 14.3810 0.0000
# 3 22.6723 28.9560 40.3810 0.0000 7.6452 0.0000
# 4 0.0000 0.0000 0.0000 31.4641 0.0000 8.1539
# 5 12.6749 14.3810 7.6452 0.0000 29.3376 0.0000
# 6 0.0000 0.0000 0.0000 8.1539 0.0000 42.2482
#
#
#
# Elastic Compliance Matrix: (Units=1/GPa)
#
#
# Indices 1 2 3 4 5 6 
#
# 1 0.011540 -0.004456 -0.002896 0.000000 -0.002047 0.000000
# 2 -0.004456 0.009326 -0.003875 0.000000 -0.001636 0.000000
# 3 -0.002896 -0.003875 0.030056 0.000000 -0.004681 0.000000
# 4 0.000000 0.000000 0.000000 0.033456 0.000000 -0.006457
# 5 -0.002047 -0.001636 -0.004681 0.000000 0.036992 0.000000
# 6 0.000000 0.000000 0.000000 -0.006457 0.000000 0.024916
#
#
# Mechanical properties :
#
#
# Convention : Reuss Voigt Hill
#
# Bulk Modulus (GPa) = 35.13050 62.18421 48.65735
# Shear Modulus (GPa) = 28.05384 33.65352 30.85368
#
# Velocity S-wave (km/s) = 3.50414 3.83796 3.67484
# Velocity P-wave (km/s) = 5.63457 6.84525 6.26921
#
# Compressibility (1/GPa) = 0.02846530
#
# Stress axis : x y z
#
# Youngs Moduli (GPa) = 86.65550 107.23241 33.27168
#
# Poissons Ratio (x) = 0.47783 0.09637
# Poissons Ratio (y) = 0.38614 0.12894
# Poissons Ratio (z) = 0.25099 0.41557
#
# Static dielectric constant tensor:
#      x y z
#    x 4.438920 0.000000 0.239730 
#    y 0.000000 4.617030 0.000000 
#    z 0.239730 0.000000 3.376960 
# 
# 
# High freq. dielectric constant tensor:
#      x y z
#    x 1.915580 0.000000 0.018240 
#    y 0.000000 1.926900 0.000000 
#    z 0.018240 0.000000 1.878830 
# 
# From -- ./inp_files/36481.got.cif
#   From: 2010.06.25/outbox.cif.g09.slc.cpg/sg13_19_cif.got.tgz:36481.got - 2010.06.28 04:50:58.
