data_PCOD8119634
_publ_section_title
;
Structure prediction by ZEFSAII (Michael W. Deem and Ramdas Pophale) SiO2 
 PCOD8119634
Probable space group: P 2/C
;
_chemical_formula_sum "Si O2"
_cell_formula_units_Z 16
_cell_length_a 5.082100
_cell_length_b 9.105785
_cell_length_c 18.088505
_cell_angle_alpha 90.000000
_cell_angle_beta 119.871698
_cell_angle_gamma 90.000000
_cell_volume 725.861787
_symmetry_space_group_name_H-M "P 2/C"
_symmetry_group_IT_number 13
_symmetry_cell_setting 'monoclinic'
loop_
_space_group_symop_operation_xyz
x,y,z
-x,y,1/2-z
-x,-y,-z
x,-y,1/2+z
loop_
_atom_site_type_symbol
_atom_site_label
_atom_site_fract_x
_atom_site_fract_y
_atom_site_fract_z
Si Si1 0.432479 0.271062 0.101463
Si Si2 0.095511 0.099383 0.406273
Si Si3 0.649767 0.432001 0.694683
Si Si4 0.358855 0.196432 0.933542
O O1 0.763748 0.196392 0.140915
O O2 0.451304 0.429907 0.140569
O O3 0.237017 0.161125 0.124845
O O4 0.284877 0.288362 0.998437
O O5 0.312668 0.116162 0.509829
O O6 0.097389 0.927103 0.384415
O O7 0.500000 0.377397 0.750000
O O8 0.623028 0.300351 0.633721
O O9 0.000000 0.478004 0.750000
#
# Coordination Sequence:
#
# PCOD8119634 Si02
#       4
#     4   4   4   4
#     4  10  20  40  64  91 120 165 213 265 310 385
#     4   9  20  36  72  92 114 152 227 270 314 362
#     4  12  27  40  58  92 138 175 209 259 329 390
#     4   9  22  39  68  93 121 161 222 268 314 377
#
# _framework density 22.042762
#
# number of rings (size 3 to 8) (size 9 to 14) (size 15 to 20)
#    1.500    0.500    0.000    3.000    3.500    1.000 
#    0.000    5.000    0.000    0.000    0.000    0.000 
#    0.000    0.000    0.000    0.000    0.000    0.000 
#
# Total GULP energy -198292.893806 kJ/mol
# GULP energy per Si atom -12393.305863 kJ/mol
# Density = 2.199259 g / cm^3
# Si number density = 22.042762 Si / 1000 Ang^3
#
#
#
# Elastic Constant Matrix: (Units=GPa)
#
#
# Indices 1 2 3 4 5 6 
#
# 1 133.7368 23.5994 22.3704 0.0000 -12.9840 0.0000
# 2 23.5994 107.2235 31.9832 0.0000 2.6924 0.0000
# 3 22.3704 31.9832 34.0627 0.0000 -0.1334 0.0000
# 4 0.0000 0.0000 0.0000 32.6866 0.0000 -10.7892
# 5 -12.9840 2.6924 -0.1334 0.0000 10.6526 0.0000
# 6 0.0000 0.0000 0.0000 -10.7892 0.0000 44.0594
#
#
#
# Elastic Compliance Matrix: (Units=1/GPa)
#
#
# Indices 1 2 3 4 5 6 
#
# 1 0.009713 -0.000763 -0.005615 0.000000 0.011961 0.000000
# 2 -0.000763 0.013141 -0.011855 0.000000 -0.004400 0.000000
# 3 -0.005615 -0.011855 0.044163 0.000000 -0.003295 0.000000
# 4 0.000000 0.000000 0.000000 0.033284 0.000000 0.008151
# 5 0.011961 -0.004400 -0.003295 0.000000 0.109523 0.000000
# 6 0.000000 0.000000 0.000000 0.008151 0.000000 0.024693
#
#
# Mechanical properties :
#
#
# Convention : Reuss Voigt Hill
#
# Bulk Modulus (GPa) = 32.73240 47.88100 40.30670
# Shear Modulus (GPa) = 17.78309 30.61772 24.20041
#
# Velocity S-wave (km/s) = 2.84342 3.73099 3.31703
# Velocity P-wave (km/s) = 5.06575 6.35055 5.74418
#
# Compressibility (1/GPa) = 0.03055077
#
# Stress axis : x y z
#
# Youngs Moduli (GPa) = 102.95993 76.09879 22.64315
#
# Poissons Ratio (x) = 0.05807 0.12715
# Poissons Ratio (y) = 0.07857 0.26843
# Poissons Ratio (z) = 0.57815 0.90213
#
# Static dielectric constant tensor:
#      x y z
#    x 3.871680 0.000000 -0.114750 
#    y 0.000000 3.785340 0.000000 
#    z -0.114750 0.000000 3.642730 
# 
# 
# High freq. dielectric constant tensor:
#      x y z
#    x 1.870530 0.000000 -0.014670 
#    y 0.000000 1.868610 0.000000 
#    z -0.014670 0.000000 1.830250 
# 
# From -- ./inp_files/72880.got.cif
#   From: 2010.06.25/outbox.cif.g09.slc.cpg/sg13_37_cif.got.tgz:72880.got - 2010.06.28 04:50:58.
