data_PCOD8119589
_publ_section_title
;
Structure prediction by ZEFSAII (Michael W. Deem and Ramdas Pophale) SiO2 
 PCOD8119589
Probable space group: P 2/C
;
_chemical_formula_sum "Si O2"
_cell_formula_units_Z 28
_cell_length_a 19.315310
_cell_length_b 9.939187
_cell_length_c 14.746337
_cell_angle_alpha 90.000000
_cell_angle_beta 151.577638
_cell_angle_gamma 90.000000
_cell_volume 1347.454132
_symmetry_space_group_name_H-M "P 2/C"
_symmetry_group_IT_number 13
_symmetry_cell_setting 'monoclinic'
loop_
_space_group_symop_operation_xyz
x,y,z
-x,y,1/2-z
-x,-y,-z
x,-y,1/2+z
loop_
_atom_site_type_symbol
_atom_site_label
_atom_site_fract_x
_atom_site_fract_y
_atom_site_fract_z
Si Si1 0.935407 0.255296 0.575502
Si Si2 0.666268 0.130879 0.955808
Si Si3 0.187690 0.402216 0.379875
Si Si4 0.149204 0.544896 0.033377
Si Si5 0.710685 0.017745 0.326187
Si Si6 0.782841 0.343224 0.697109
Si Si7 0.612544 0.903029 0.032795
O O1 0.831956 0.383567 0.439088
O O2 0.844759 0.117881 0.460402
O O3 0.000000 0.267256 0.750000
O O4 0.066692 0.267165 0.654718
O O5 0.500000 0.173485 0.750000
O O6 0.740774 0.067869 0.951716
O O7 0.752913 0.261658 0.090136
O O8 0.675809 0.024518 0.047035
O O9 0.227389 0.404082 0.532259
O O10 0.260124 0.530129 0.414487
O O11 0.018409 0.412891 0.163813
O O12 0.219902 0.611926 0.201776
O O13 0.689532 0.913649 0.219479
O O14 0.561565 0.100951 0.164147
O O15 0.654721 0.236729 0.534866
#
# Coordination Sequence:
#
# PCOD8119589 Si02
#       7
#     4   4   4   4   4   4   4
#     4  11  20  39  62  93 122 162 203 252 303 365
#     4  10  22  41  61  86 123 164 203 251 305 367
#     4  10  20  40  60  86 122 159 198 250 310 359
#     4  10  21  38  61  85 128 157 190 258 314 351
#     4  10  23  42  64  85 132 165 197 257 313 359
#     4  11  22  39  63  94 118 157 211 253 298 369
#     4  10  23  43  62  90 124 162 208 252 308 361
#
# _framework density 20.779928999999999
#
# number of rings (size 3 to 8) (size 9 to 14) (size 15 to 20)
#    0.000    1.714    2.857    3.429    4.000    0.571 
#   12.857    0.714    0.000    0.000    0.000    0.000 
#    0.000    0.000    0.000    0.000    0.000    0.000 
#
# Total GULP energy -347211.997796 kJ/mol
# GULP energy per Si atom -12400.428493 kJ/mol
# Density = 2.073263 g / cm^3
# Si number density = 20.779929 Si / 1000 Ang^3
#
#
#
# Elastic Constant Matrix: (Units=GPa)
#
#
# Indices 1 2 3 4 5 6 
#
# 1 92.2635 48.1164 28.0702 0.0000 -20.1916 0.0000
# 2 48.1164 137.0616 39.8754 0.0000 12.9654 0.0000
# 3 28.0702 39.8754 38.4011 0.0000 -1.1192 0.0000
# 4 0.0000 0.0000 0.0000 20.3552 0.0000 1.4742
# 5 -20.1916 12.9654 -1.1192 0.0000 15.1239 0.0000
# 6 0.0000 0.0000 0.0000 1.4742 0.0000 32.8242
#
#
#
# Elastic Compliance Matrix: (Units=1/GPa)
#
#
# Indices 1 2 3 4 5 6 
#
# 1 0.033144 -0.014919 -0.007088 0.000000 0.056515 0.000000
# 2 -0.014919 0.018847 -0.009738 0.000000 -0.036797 0.000000
# 3 -0.007088 -0.009738 0.041390 0.000000 0.001948 0.000000
# 4 0.000000 0.000000 0.000000 0.049288 0.000000 -0.002214
# 5 0.056515 -0.036797 0.001948 0.000000 0.173263 0.000000
# 6 0.000000 0.000000 0.000000 -0.002214 0.000000 0.030565
#
#
# Mechanical properties :
#
#
# Convention : Reuss Voigt Hill
#
# Bulk Modulus (GPa) = 33.45435 55.53893 44.49664
# Shear Modulus (GPa) = 11.90616 23.77160 17.83888
#
# Velocity S-wave (km/s) = 2.39626 3.38593 2.93314
# Velocity P-wave (km/s) = 4.87754 6.48624 5.73854
#
# Compressibility (1/GPa) = 0.02989148
#
# Stress axis : x y z
#
# Youngs Moduli (GPa) = 30.17153 53.05793 24.16015
#
# Poissons Ratio (x) = 0.79159 0.17125
# Poissons Ratio (y) = 0.45014 0.23527
# Poissons Ratio (z) = 0.21386 0.51666
#
# Static dielectric constant tensor:
#      x y z
#    x 3.994610 0.000000 -0.164180 
#    y 0.000000 3.773200 0.000000 
#    z -0.164180 0.000000 3.431650 
# 
# 
# High freq. dielectric constant tensor:
#      x y z
#    x 1.823850 0.000000 -0.016730 
#    y 0.000000 1.819360 0.000000 
#    z -0.016730 0.000000 1.787320 
# 
# From -- ./inp_files/57503.got.cif
#   From: 2010.06.25/outbox.cif.g09.slc.cpg/sg13_29_cif.got.tgz:57503.got - 2010.06.28 04:50:58.
