data_PCOD8119843
_publ_section_title
;
Structure prediction by ZEFSAII (Michael W. Deem and Ramdas Pophale) SiO2 
 PCOD8119843
Probable space group: P 2/C
;
_chemical_formula_sum "Si O2"
_cell_formula_units_Z 32
_cell_length_a 12.229684
_cell_length_b 15.341160
_cell_length_c 8.987240
_cell_angle_alpha 90.000000
_cell_angle_beta 89.699979
_cell_angle_gamma 90.000000
_cell_volume 1686.140734
_symmetry_space_group_name_H-M "P 2/C"
_symmetry_group_IT_number 13
_symmetry_cell_setting 'monoclinic'
loop_
_space_group_symop_operation_xyz
x,y,z
-x,y,1/2-z
-x,-y,-z
x,-y,1/2+z
loop_
_atom_site_type_symbol
_atom_site_label
_atom_site_fract_x
_atom_site_fract_y
_atom_site_fract_z
Si Si1 0.689542 0.620425 0.502097
Si Si2 0.715228 0.805652 0.581540
Si Si3 0.499004 0.906994 0.575201
Si Si4 0.436527 0.381969 0.008506
Si Si5 0.349375 0.494839 0.753356
Si Si6 0.126025 0.075655 0.589719
Si Si7 0.124299 0.101861 0.923995
Si Si8 0.300989 0.788810 0.568257
O O1 0.747458 0.713733 0.504310
O O2 0.561476 0.648302 0.514230
O O3 0.723309 0.559126 0.642610
O O4 0.723300 0.568645 0.351741
O O5 0.600180 0.845740 0.527549
O O6 0.808214 0.870783 0.531800
O O7 0.718100 0.789717 0.756528
O O8 0.500000 0.921683 0.750000
O O9 0.388915 0.861106 0.520456
O O10 0.500000 0.000000 0.500000
O O11 0.422663 0.432882 0.855197
O O12 0.425158 0.448290 0.144993
O O13 0.347532 0.305011 0.019611
O O14 0.170805 0.080765 0.758471
O O15 0.005078 0.116261 0.584512
O O16 0.140456 0.975901 0.541194
O O17 0.187806 0.187503 0.984520
#
# Coordination Sequence:
#
# PCOD8119843 Si02
#       8
#     4   4   4   4   4   4   4   4
#     4  11  19  34  51  81 115 154 192 232 276 336
#     4  11  22  35  56  83 117 153 188 230 277 332
#     4  10  22  38  50  73 115 156 184 217 271 336
#     4  11  19  34  51  81 115 154 192 232 276 336
#     4  10  21  32  54  76 113 156 193 232 284 329
#     4  10  22  41  63  86 111 142 188 242 288 332
#     4  10  22  41  63  86 111 142 188 242 288 332
#     4  11  22  35  56  83 117 153 188 230 277 332
#
# _framework density 18.978249000000002
#
# number of rings (size 3 to 8) (size 9 to 14) (size 15 to 20)
#    0.000    1.500    2.500    4.500    1.750    4.500 
#    0.000    0.000    0.000    0.000    0.000    5.250 
#    0.000    0.000    0.000    0.000    0.000    0.000 
#
# Total GULP energy -396671.360772 kJ/mol
# GULP energy per Si atom -12395.980024 kJ/mol
# Density = 1.893505 g / cm^3
# Si number density = 18.978249 Si / 1000 Ang^3
#
#
#
# Elastic Constant Matrix: (Units=GPa)
#
#
# Indices 1 2 3 4 5 6 
#
# 1 48.1235 30.9022 17.2843 0.0000 2.5750 0.0000
# 2 30.9022 98.1844 42.3961 0.0000 2.6429 0.0000
# 3 17.2843 42.3961 84.9356 0.0000 10.3433 0.0000
# 4 0.0000 0.0000 0.0000 71.8388 0.0000 3.2716
# 5 2.5750 2.6429 10.3433 0.0000 19.8162 0.0000
# 6 0.0000 0.0000 0.0000 3.2716 0.0000 11.2978
#
#
#
# Elastic Compliance Matrix: (Units=1/GPa)
#
#
# Indices 1 2 3 4 5 6 
#
# 1 0.026256 -0.007649 -0.001318 0.000000 -0.001704 0.000000
# 2 -0.007649 0.015270 -0.006341 0.000000 0.002267 0.000000
# 3 -0.001318 -0.006341 0.016107 0.000000 -0.007390 0.000000
# 4 0.000000 0.000000 0.000000 0.014106 0.000000 -0.004085
# 5 -0.001704 0.002267 -0.007390 0.000000 0.054240 0.000000
# 6 0.000000 0.000000 0.000000 -0.004085 0.000000 0.089696
#
#
# Mechanical properties :
#
#
# Convention : Reuss Voigt Hill
#
# Bulk Modulus (GPa) = 37.01405 45.82318 41.41861
# Shear Modulus (GPa) = 19.58511 29.96795 24.77653
#
# Velocity S-wave (km/s) = 3.21592 3.97806 3.61712
# Velocity P-wave (km/s) = 5.77367 6.73034 6.27028
#
# Compressibility (1/GPa) = 0.02701677
#
# Stress axis : x y z
#
# Youngs Moduli (GPa) = 38.08654 65.48999 62.08456
#
# Poissons Ratio (x) = 0.50093 0.08180
# Poissons Ratio (y) = 0.29132 0.39370
# Poissons Ratio (z) = 0.05018 0.41530
#
# Static dielectric constant tensor:
#      x y z
#    x 3.141120 0.000000 0.002320 
#    y 0.000000 3.267260 0.000000 
#    z 0.002320 0.000000 3.775920 
# 
# 
# High freq. dielectric constant tensor:
#      x y z
#    x 1.689280 0.000000 -0.000530 
#    y 0.000000 1.747160 0.000000 
#    z -0.000530 0.000000 1.755720 
# 
# From -- ./inp_files/16785.got.cif
#   From: 2010.06.25/outbox.cif.g09.slc.cpg/sg13_9_cif.got.tgz:16785.got - 2010.06.28 04:50:58.
