data_PCOD8119703
_publ_section_title
;
Structure prediction by ZEFSAII (Michael W. Deem and Ramdas Pophale) SiO2 
 PCOD8119703
Probable space group: P 2/C
;
_chemical_formula_sum "Si O2"
_cell_formula_units_Z 22
_cell_length_a 14.317178
_cell_length_b 11.054420
_cell_length_c 16.200024
_cell_angle_alpha 90.000000
_cell_angle_beta 152.100667
_cell_angle_gamma 90.000000
_cell_volume 1199.720865
_symmetry_space_group_name_H-M "P 2/C"
_symmetry_group_IT_number 13
_symmetry_cell_setting 'monoclinic'
loop_
_space_group_symop_operation_xyz
x,y,z
-x,y,1/2-z
-x,-y,-z
x,-y,1/2+z
loop_
_atom_site_type_symbol
_atom_site_label
_atom_site_fract_x
_atom_site_fract_y
_atom_site_fract_z
Si Si1 0.965170 0.802645 0.056050
Si Si2 0.333423 0.236994 0.749997
Si Si3 0.606754 0.033105 0.249996
Si Si4 0.206105 0.619338 0.456106
Si Si5 0.500000 0.422657 0.750000
Si Si6 0.353054 0.197352 0.943938
O O1 0.833127 0.694864 0.990935
O O2 0.092428 0.754503 0.076327
O O3 0.124286 0.848709 0.249993
O O4 0.829941 0.914304 0.922511
O O5 0.406832 0.343675 0.749997
O O6 0.439760 0.245499 0.923663
O O7 0.387338 0.110381 0.749999
O O8 0.500000 0.074961 0.250000
O O9 0.484901 0.085690 0.077473
O O10 0.321569 0.499188 0.571567
O O11 0.351249 0.694873 0.509064
O O12 0.000000 0.583155 0.250000
#
# Coordination Sequence:
#
# PCOD8119703 Si02
#       6
#     4   4   4   4   2   4
#     4   9  21  39  61  90 115 151 199 241 277 361
#     4  10  24  40  56  89 132 141 194 246 295 342
#     4  12  19  36  67  88 119 158 182 235 309 350
#     4  10  20  41  61  83 111 156 211 236 280 340
#     4  12  24  42  56  86 122 160 188 256 286 330
#     4   9  21  39  61  90 115 151 199 241 277 361
#
# _framework density 18.337598
#
# number of rings (size 3 to 8) (size 9 to 14) (size 15 to 20)
#    1.091    0.727    2.727    2.182    0.000    1.455 
#    3.273    0.000    0.000    0.000    0.000    0.000 
#    0.000    0.000    0.000    0.000    0.000    0.000 
#
# Total GULP energy -272676.168984 kJ/mol
# GULP energy per Si atom -12394.371317 kJ/mol
# Density = 1.829586 g / cm^3
# Si number density = 18.337598 Si / 1000 Ang^3
#
#
#
# Elastic Constant Matrix: (Units=GPa)
#
#
# Indices 1 2 3 4 5 6 
#
# 1 106.6117 39.2086 25.6643 0.0000 2.1681 0.0000
# 2 39.2086 113.6354 56.3149 0.0000 -0.5895 0.0000
# 3 25.6643 56.3149 90.9109 0.0000 -1.6137 0.0000
# 4 0.0000 0.0000 0.0000 24.6230 0.0000 0.0017
# 5 2.1681 -0.5895 -1.6137 0.0000 9.4924 0.0000
# 6 0.0000 0.0000 0.0000 0.0017 0.0000 24.6007
#
#
#
# Elastic Compliance Matrix: (Units=1/GPa)
#
#
# Indices 1 2 3 4 5 6 
#
# 1 0.010893 -0.003209 -0.001138 0.000000 -0.002881 0.000000
# 2 -0.003209 0.013647 -0.007542 0.000000 0.000298 0.000000
# 3 -0.001138 -0.007542 0.016038 0.000000 0.002518 0.000000
# 4 0.000000 0.000000 0.000000 0.040612 0.000000 -0.000003
# 5 -0.002881 0.000298 0.002518 0.000000 0.106452 0.000000
# 6 0.000000 0.000000 0.000000 -0.000003 0.000000 0.040649
#
#
# Mechanical properties :
#
#
# Convention : Reuss Voigt Hill
#
# Bulk Modulus (GPa) = 59.53124 61.50374 60.51749
# Shear Modulus (GPa) = 19.40468 24.40790 21.90629
#
# Velocity S-wave (km/s) = 3.25651 3.65229 3.46006
# Velocity P-wave (km/s) = 6.83186 7.16925 7.00259
#
# Compressibility (1/GPa) = 0.01679790
#
# Stress axis : x y z
#
# Youngs Moduli (GPa) = 91.80471 73.27800 62.35285
#
# Poissons Ratio (x) = 0.23517 0.07097
# Poissons Ratio (y) = 0.29463 0.47027
# Poissons Ratio (z) = 0.10449 0.55267
#
# Static dielectric constant tensor:
#      x y z
#    x 3.458870 0.000000 0.006770 
#    y 0.000000 3.073980 0.000000 
#    z 0.006770 0.000000 3.264840 
# 
# 
# High freq. dielectric constant tensor:
#      x y z
#    x 1.719350 0.000000 0.000520 
#    y 0.000000 1.693530 0.000000 
#    z 0.000520 0.000000 1.704470 
# 
# From -- ./inp_files/68306.got.cif
#   From: 2010.06.25/outbox.cif.g09.slc.cpg/sg13_35_cif.got.tgz:68306.got - 2010.06.28 04:50:58.
