data_PCOD8119107
_publ_section_title
;
Structure prediction by ZEFSAII (Michael W. Deem and Ramdas Pophale) SiO2 
 PCOD8119107
Probable space group: P 2/C
;
_chemical_formula_sum "Si O2"
_cell_formula_units_Z 24
_cell_length_a 13.190541
_cell_length_b 7.690140
_cell_length_c 11.359687
_cell_angle_alpha 90.000000
_cell_angle_beta 100.292467
_cell_angle_gamma 90.000000
_cell_volume 1133.751693
_symmetry_space_group_name_H-M "P 2/C"
_symmetry_group_IT_number 13
_symmetry_cell_setting 'monoclinic'
loop_
_space_group_symop_operation_xyz
x,y,z
-x,y,1/2-z
-x,-y,-z
x,-y,1/2+z
loop_
_atom_site_type_symbol
_atom_site_label
_atom_site_fract_x
_atom_site_fract_y
_atom_site_fract_z
Si Si1 0.803256 0.401699 0.914591
Si Si2 0.106715 0.099229 0.705737
Si Si3 0.393285 0.400770 0.794263
Si Si4 0.694170 0.720228 0.617186
Si Si5 0.696744 0.098300 0.585409
Si Si6 0.805830 0.779771 0.882814
O O1 0.884217 0.271694 0.871732
O O2 0.697158 0.407377 0.819974
O O3 0.854661 0.594495 0.932272
O O4 0.779421 0.340830 0.041344
O O5 0.197158 0.092622 0.819974
O O6 0.000000 0.104980 0.750000
O O7 0.109295 0.930841 0.619492
O O8 0.500000 0.395020 0.750000
O O9 0.390705 0.569157 0.880508
O O10 0.384217 0.228304 0.871731
O O11 0.750000 0.750000 0.750000
O O12 0.645340 0.905504 0.567727
O O13 0.720580 0.159172 0.458656
#
# Coordination Sequence:
#
# PCOD8119107 Si02
#       6
#     4   4   4   4   4   4
#     4  10  20  39  61  81 119 155 189 236 291 338
#     4  10  22  38  60  87 115 151 196 239 282 339
#     4  10  22  38  60  87 115 151 196 239 282 339
#     4  10  20  37  60  83 115 157 188 230 291 342
#     4  10  20  39  61  81 119 155 189 236 291 338
#     4  10  20  37  60  83 115 157 188 230 291 342
#
# _framework density 21.168658000000001
#
# number of rings (size 3 to 8) (size 9 to 14) (size 15 to 20)
#    0.000    2.000    3.333    0.000    0.000    2.667 
#    0.000    1.667    0.000    0.000    0.000    0.000 
#    0.000    0.000    0.000    0.000    0.000    0.000 
#
# Total GULP energy -297527.642349 kJ/mol
# GULP energy per Si atom -12396.985098 kJ/mol
# Density = 2.112048 g / cm^3
# Si number density = 21.168658 Si / 1000 Ang^3
#
#
#
# Elastic Constant Matrix: (Units=GPa)
#
#
# Indices 1 2 3 4 5 6 
#
# 1 102.3102 66.1218 23.8751 0.0000 -48.6834 0.0000
# 2 66.1218 240.3269 56.1346 0.0000 -45.1058 0.0000
# 3 23.8751 56.1346 105.4049 0.0000 -41.3891 0.0000
# 4 0.0000 0.0000 0.0000 23.3527 0.0000 -21.0100
# 5 -48.6834 -45.1058 -41.3891 0.0000 41.6851 0.0000
# 6 0.0000 0.0000 0.0000 -21.0100 0.0000 23.5547
#
#
#
# Elastic Compliance Matrix: (Units=1/GPa)
#
#
# Indices 1 2 3 4 5 6 
#
# 1 0.028999 -0.002718 0.011510 0.000000 0.042356 0.000000
# 2 -0.002718 0.005531 -0.002010 0.000000 0.000816 0.000000
# 3 0.011510 -0.002010 0.020283 0.000000 0.031407 0.000000
# 4 0.000000 0.000000 0.000000 0.216806 0.000000 0.193384
# 5 0.042356 0.000816 0.031407 0.000000 0.105523 0.000000
# 6 0.000000 0.000000 0.000000 0.193384 0.000000 0.214947
#
#
# Mechanical properties :
#
#
# Convention : Reuss Voigt Hill
#
# Bulk Modulus (GPa) = 14.62432 82.25610 48.44021
# Shear Modulus (GPa) = 8.31510 37.84587 23.08048
#
# Velocity S-wave (km/s) = 1.98407 4.23286 3.30557
# Velocity P-wave (km/s) = 3.48887 7.92662 6.12387
#
# Compressibility (1/GPa) = 0.06837923
#
# Stress axis : x y z
#
# Youngs Moduli (GPa) = 34.48384 180.79077 49.30260
#
# Poissons Ratio (x) = 0.49132 -0.56750
# Poissons Ratio (y) = 0.09371 0.09909
# Poissons Ratio (z) = -0.39693 0.36337
#
# Static dielectric constant tensor:
#      x y z
#    x 3.245380 0.000000 -0.283770 
#    y 0.000000 5.053580 0.000000 
#    z -0.283770 0.000000 3.981300 
# 
# 
# High freq. dielectric constant tensor:
#      x y z
#    x 1.776020 0.000000 -0.030070 
#    y 0.000000 1.863910 0.000000 
#    z -0.030070 0.000000 1.843630 
# 
# From -- ./inp_files/32589.got.cif
#   From: 2010.06.25/outbox.cif.g09.slc.cpg/sg13_17_cif.got.tgz:32589.got - 2010.06.28 04:50:58.
