data_PCOD8119072
_publ_section_title
;
Structure prediction by ZEFSAII (Michael W. Deem and Ramdas Pophale) SiO2 
 PCOD8119072
Probable space group: P 2/C
;
_chemical_formula_sum "Si O2"
_cell_formula_units_Z 24
_cell_length_a 9.717230
_cell_length_b 17.971073
_cell_length_c 9.884145
_cell_angle_alpha 90.000000
_cell_angle_beta 41.386355
_cell_angle_gamma 90.000000
_cell_volume 1141.154823
_symmetry_space_group_name_H-M "P 2/C"
_symmetry_group_IT_number 13
_symmetry_cell_setting 'monoclinic'
loop_
_space_group_symop_operation_xyz
x,y,z
-x,y,1/2-z
-x,-y,-z
x,-y,1/2+z
loop_
_atom_site_type_symbol
_atom_site_label
_atom_site_fract_x
_atom_site_fract_y
_atom_site_fract_z
Si Si1 0.353511 0.481570 0.735747
Si Si2 0.100264 0.100061 0.536023
Si Si3 0.173936 0.057024 0.007937
Si Si4 0.873788 0.758656 0.631879
Si Si5 0.966420 0.604650 0.433397
Si Si6 0.699353 0.210380 0.534790
O O1 0.500000 0.456183 0.750000
O O2 0.500000 0.500000 0.500000
O O3 0.190822 0.414306 0.832509
O O4 0.217679 0.552811 0.876542
O O5 0.214884 0.173032 0.392428
O O6 0.000000 0.125361 0.750000
O O7 0.912141 0.077156 0.576023
O O8 0.257675 0.028810 0.437495
O O9 0.335272 0.119900 0.942997
O O10 0.000000 0.056553 0.250000
O O11 0.718815 0.751253 0.873644
O O12 0.886362 0.686030 0.531111
O O13 0.100880 0.776016 0.521170
O O14 0.000000 0.595900 0.250000
O O15 0.500000 0.248556 0.750000
#
# Coordination Sequence:
#
# PCOD8119072 Si02
#       6
#     4   4   4   4   4   4
#     4  11  24  45  70  99 134 172 213 262 316 385
#     4   9  16  28  57  81 108 158 196 246 312 364
#     4   9  15  31  55  77 109 154 205 249 304 360
#     4  10  21  38  59  87 125 160 208 258 322 378
#     4  11  24  42  69  99 132 173 216 262 323 392
#     4  10  20  37  56  85 118 164 211 267 309 378
#
# _framework density 21.031327000000001
#
# number of rings (size 3 to 8) (size 9 to 14) (size 15 to 20)
#    0.000    2.000    5.000    0.500    0.000    4.667 
#    0.000    0.833    0.000    0.000    0.000    0.000 
#    0.000    0.000    0.000    0.000    0.000    0.000 
#
# Total GULP energy -297327.669099 kJ/mol
# GULP energy per Si atom -12388.652879 kJ/mol
# Density = 2.098346 g / cm^3
# Si number density = 21.031327 Si / 1000 Ang^3
#
#
#
# Elastic Constant Matrix: (Units=GPa)
#
#
# Indices 1 2 3 4 5 6 
#
# 1 75.8387 16.4459 45.3228 0.0000 13.8682 0.0000
# 2 16.4459 100.6572 38.6094 0.0000 1.9046 0.0000
# 3 45.3228 38.6094 163.5153 0.0000 11.3477 0.0000
# 4 0.0000 0.0000 0.0000 9.1824 0.0000 23.0970
# 5 13.8682 1.9046 11.3477 0.0000 32.6488 0.0000
# 6 0.0000 0.0000 0.0000 23.0970 0.0000 9.0812
#
#
#
# Elastic Compliance Matrix: (Units=1/GPa)
#
#
# Indices 1 2 3 4 5 6 
#
# 1 0.016871 -0.001107 -0.004019 0.000000 -0.005705 0.000000
# 2 -0.001107 0.010999 -0.002335 0.000000 0.000640 0.000000
# 3 -0.004019 -0.002335 0.007842 0.000000 -0.000882 0.000000
# 4 0.000000 0.000000 0.000000 -0.020177 0.000000 0.051317
# 5 -0.005705 0.000640 -0.000882 0.000000 0.033322 0.000000
# 6 0.000000 0.000000 0.000000 0.051317 0.000000 -0.020401
#
#
# Mechanical properties :
#
#
# Convention : Reuss Voigt Hill
#
# Bulk Modulus (GPa) = 48.09815 60.08528 54.09171
# Shear Modulus (GPa) = 99.39002 26.15801 62.77401
#
# Velocity S-wave (km/s) = 6.88191 3.53053 5.46925
# Velocity P-wave (km/s) = 9.27723 6.72688 8.10302
#
# Compressibility (1/GPa) = 0.02079082
#
# Stress axis : x y z
#
# Youngs Moduli (GPa) = 59.27344 90.91751 127.51672
#
# Poissons Ratio (x) = 0.10064 0.51249
# Poissons Ratio (y) = 0.06561 0.29771
# Poissons Ratio (z) = 0.23822 0.21226
#
# Static dielectric constant tensor:
#      x y z
#    x 4.070660 0.000000 0.317770 
#    y 0.000000 4.169200 0.000000 
#    z 0.317770 0.000000 3.890760 
# 
# 
# High freq. dielectric constant tensor:
#      x y z
#    x 1.794460 0.000000 0.026450 
#    y 0.000000 1.828780 0.000000 
#    z 0.026450 0.000000 1.831530 
# 
# From -- ./inp_files/13456.got.cif
#   From: 2010.06.25/outbox.cif.g09.slc.cpg/sg13_7_cif.got.tgz:13456.got - 2010.06.28 04:50:58.
