data_PCOD8119002
_publ_section_title
;
Structure prediction by ZEFSAII (Michael W. Deem and Ramdas Pophale) SiO2 
 PCOD8119002
Probable space group: P 2/C
;
_chemical_formula_sum "Si O2"
_cell_formula_units_Z 28
_cell_length_a 19.526052
_cell_length_b 8.749760
_cell_length_c 22.133513
_cell_angle_alpha 90.000000
_cell_angle_beta 21.656251
_cell_angle_gamma 90.000000
_cell_volume 1395.503968
_symmetry_space_group_name_H-M "P 2/C"
_symmetry_group_IT_number 13
_symmetry_cell_setting 'monoclinic'
loop_
_space_group_symop_operation_xyz
x,y,z
-x,y,1/2-z
-x,-y,-z
x,-y,1/2+z
loop_
_atom_site_type_symbol
_atom_site_label
_atom_site_fract_x
_atom_site_fract_y
_atom_site_fract_z
Si Si1 0.500000 0.574510 0.250000
Si Si2 0.000000 0.358736 0.250000
Si Si3 0.849586 0.749314 0.991410
Si Si4 0.611729 0.690769 0.361764
Si Si5 0.642692 0.521273 0.511040
Si Si6 0.875566 0.433049 0.153738
Si Si7 0.565034 0.784176 0.875689
Si Si8 0.804058 0.051402 0.634572
O O1 0.352654 0.678531 0.335784
O O2 0.408594 0.470827 0.376139
O O3 0.900787 0.241839 0.378381
O O4 0.857409 0.471756 0.332402
O O5 0.003985 0.637104 0.892121
O O6 0.839566 0.913910 0.033871
O O7 0.467413 0.606585 0.436536
O O8 0.733339 0.561113 0.297515
O O9 0.505009 0.799986 0.497280
O O10 0.756156 0.786819 0.203945
O O11 0.598857 0.693862 0.524807
O O12 0.756589 0.306073 0.217138
O O13 0.000000 0.500000 0.000000
O O14 0.625169 0.942803 0.794113
O O15 0.000000 0.000000 0.500000
#
# Coordination Sequence:
#
# PCOD8119002 Si02
#       8
#     2   2   4   4   4   4   4   4
#     4  10  20  36  62  80 116 160 204 246 282 364
#     4  10  22  36  66  90 114 160 216 268 286 372
#     4  11  20  38  57  91 119 157 211 247 311 359
#     4  11  21  37  60  91 124 157 198 255 313 362
#     4  10  20  38  62  90 114 156 204 253 302 350
#     4  11  18  35  62  91 123 151 200 261 306 356
#     4  11  22  36  58  92 125 156 190 255 318 358
#     4  12  23  38  59  89 128 160 199 251 317 379
#
# _framework density 20.064436000000001
#
# number of rings (size 3 to 8) (size 9 to 14) (size 15 to 20)
#    0.000    1.143    4.286    4.714    0.000    0.000 
#    0.000    0.714    0.000    0.857    0.000    0.000 
#    0.000    0.000    0.000    0.000    0.000    0.000 
#
# Total GULP energy -347012.506721 kJ/mol
# GULP energy per Si atom -12393.303811 kJ/mol
# Density = 2.001877 g / cm^3
# Si number density = 20.064436 Si / 1000 Ang^3
#
#
#
# Elastic Constant Matrix: (Units=GPa)
#
#
# Indices 1 2 3 4 5 6 
#
# 1 80.4940 35.8032 29.1370 0.0000 -4.5851 0.0000
# 2 35.8032 81.1292 27.2071 0.0000 -4.9506 0.0000
# 3 29.1370 27.2071 87.8503 0.0000 -4.6557 0.0000
# 4 0.0000 0.0000 0.0000 49.4325 0.0000 3.4610
# 5 -4.5851 -4.9506 -4.6557 0.0000 43.7410 0.0000
# 6 0.0000 0.0000 0.0000 3.4610 0.0000 29.3618
#
#
#
# Elastic Compliance Matrix: (Units=1/GPa)
#
#
# Indices 1 2 3 4 5 6 
#
# 1 0.016422 -0.006017 -0.003548 0.000000 0.000663 0.000000
# 2 -0.006017 0.016013 -0.002917 0.000000 0.000871 0.000000
# 3 -0.003548 -0.002917 0.013502 0.000000 0.000735 0.000000
# 4 0.000000 0.000000 0.000000 0.020398 0.000000 -0.002404
# 5 0.000663 0.000871 0.000735 0.000000 0.023108 0.000000
# 6 0.000000 0.000000 0.000000 -0.002404 0.000000 0.034341
#
#
# Mechanical properties :
#
#
# Convention : Reuss Voigt Hill
#
# Bulk Modulus (GPa) = 47.68196 48.19645 47.93920
# Shear Modulus (GPa) = 32.10500 34.99548 33.55024
#
# Velocity S-wave (km/s) = 4.00446 4.18084 4.09360
# Velocity P-wave (km/s) = 6.72287 6.88323 6.80352
#
# Compressibility (1/GPa) = 0.02097229
#
# Stress axis : x y z
#
# Youngs Moduli (GPa) = 60.89566 62.45004 74.06192
#
# Poissons Ratio (x) = 0.37575 0.26277
# Poissons Ratio (y) = 0.36639 0.21607
# Poissons Ratio (z) = 0.21606 0.18219
#
# Static dielectric constant tensor:
#      x y z
#    x 3.674820 0.000000 0.005630 
#    y 0.000000 3.537040 0.000000 
#    z 0.005630 0.000000 3.893360 
# 
# 
# High freq. dielectric constant tensor:
#      x y z
#    x 1.781570 0.000000 0.007850 
#    y 0.000000 1.748080 0.000000 
#    z 0.007850 0.000000 1.808400 
# 
# From -- ./inp_files/75276.got.cif
#   From: 2010.06.25/outbox.cif.g09.slc.cpg/sg13_38_cif.got.tgz:75276.got - 2010.06.28 04:50:58.
