data_PCOD8119982
_publ_section_title
;
Structure prediction by ZEFSAII (Michael W. Deem and Ramdas Pophale) SiO2 
 PCOD8119982
Probable space group: P 2/C
;
_chemical_formula_sum "Si O2"
_cell_formula_units_Z 24
_cell_length_a 11.547474
_cell_length_b 11.528136
_cell_length_c 17.494637
_cell_angle_alpha 90.000000
_cell_angle_beta 147.768775
_cell_angle_gamma 90.000000
_cell_volume 1242.089877
_symmetry_space_group_name_H-M "P 2/C"
_symmetry_group_IT_number 13
_symmetry_cell_setting 'monoclinic'
loop_
_space_group_symop_operation_xyz
x,y,z
-x,y,1/2-z
-x,-y,-z
x,-y,1/2+z
loop_
_atom_site_type_symbol
_atom_site_label
_atom_site_fract_x
_atom_site_fract_y
_atom_site_fract_z
Si Si1 0.766731 0.190187 0.587266
Si Si2 0.045782 0.581672 0.359736
Si Si3 0.695582 0.615476 0.417357
Si Si4 0.276356 0.931883 0.585805
Si Si5 0.630382 0.273081 0.663324
Si Si6 0.139238 0.830155 0.074481
O O1 0.783937 0.313070 0.553597
O O2 0.690190 0.091545 0.485920
O O3 0.601469 0.206388 0.566299
O O4 0.000000 0.152934 0.750000
O O5 0.149878 0.492004 0.477070
O O6 0.000000 0.526674 0.250000
O O7 0.821312 0.630663 0.268587
O O8 0.500000 0.581786 0.250000
O O9 0.592394 0.662911 0.438865
O O10 0.853490 0.712204 0.469789
O O11 0.500000 0.901785 0.750000
O O12 0.098802 0.845852 0.523092
O O13 0.204396 0.064285 0.555949
O O14 0.685990 0.177056 0.759078
#
# Coordination Sequence:
#
# PCOD8119982 Si02
#       6
#     4   4   4   4   4   4
#     4   9  18  37  60  80 111 153 189 226 279 343
#     4   9  19  36  54  82 113 147 188 233 276 330
#     4  10  21  36  56  84 113 154 185 228 290 338
#     4  11  21  38  61  86 109 146 192 240 277 324
#     4   9  18  39  61  79 111 163 187 217 295 346
#     4  10  21  39  58  81 122 144 182 238 288 335
#
# _framework density 19.322274
#
# number of rings (size 3 to 8) (size 9 to 14) (size 15 to 20)
#    0.000    2.667    3.333    1.500    0.000    6.000 
#    6.000    4.167    0.000    0.000    0.000    0.000 
#    0.000    0.000    0.000    0.000    0.000    0.000 
#
# Total GULP energy -297525.100288 kJ/mol
# GULP energy per Si atom -12396.879179 kJ/mol
# Density = 1.927830 g / cm^3
# Si number density = 19.322274 Si / 1000 Ang^3
#
#
#
# Elastic Constant Matrix: (Units=GPa)
#
#
# Indices 1 2 3 4 5 6 
#
# 1 98.6110 31.2388 17.5729 0.0000 -22.8699 0.0000
# 2 31.2388 79.3611 37.2281 0.0000 -26.6563 0.0000
# 3 17.5729 37.2281 67.4725 0.0000 -18.5719 0.0000
# 4 0.0000 0.0000 0.0000 20.9082 0.0000 -9.0737
# 5 -22.8699 -26.6563 -18.5719 0.0000 28.2228 0.0000
# 6 0.0000 0.0000 0.0000 -9.0737 0.0000 23.0632
#
#
#
# Elastic Compliance Matrix: (Units=1/GPa)
#
#
# Indices 1 2 3 4 5 6 
#
# 1 0.012764 -0.002365 0.000260 0.000000 0.008281 0.000000
# 2 -0.002365 0.021638 -0.007602 0.000000 0.013518 0.000000
# 3 0.000260 -0.007602 0.020796 0.000000 0.006715 0.000000
# 4 0.000000 0.000000 0.000000 0.057676 0.000000 0.022691
# 5 0.008281 0.013518 0.006715 0.000000 0.059329 0.000000
# 6 0.000000 0.000000 0.000000 0.022691 0.000000 0.052286
#
#
# Mechanical properties :
#
#
# Convention : Reuss Voigt Hill
#
# Bulk Modulus (GPa) = 27.94549 46.39159 37.16854
# Shear Modulus (GPa) = 19.54405 25.06580 22.30493
#
# Velocity S-wave (km/s) = 3.18382 3.60564 3.40128
# Velocity P-wave (km/s) = 5.29244 6.43395 5.89091
#
# Compressibility (1/GPa) = 0.03578395
#
# Stress axis : x y z
#
# Youngs Moduli (GPa) = 78.34432 46.21445 48.08607
#
# Poissons Ratio (x) = 0.10929 -0.01249
# Poissons Ratio (y) = 0.18527 0.36556
# Poissons Ratio (z) = -0.02034 0.35133
#
# Static dielectric constant tensor:
#      x y z
#    x 3.873670 0.000000 -0.073650 
#    y 0.000000 3.330350 0.000000 
#    z -0.073650 0.000000 3.233440 
# 
# 
# High freq. dielectric constant tensor:
#      x y z
#    x 1.771790 0.000000 -0.004970 
#    y 0.000000 1.736050 0.000000 
#    z -0.004970 0.000000 1.720210 
# 
# From -- ./inp_files/39240.got.cif
#   From: 2010.06.25/outbox.cif.g09.slc.cpg/sg13_20_cif.got.tgz:39240.got - 2010.06.28 04:50:58.
