data_PCOD8119693
_publ_section_title
;
Structure prediction by ZEFSAII (Michael W. Deem and Ramdas Pophale) SiO2 
 PCOD8119693
Probable space group: P 2/C
;
_chemical_formula_sum "Si O2"
_cell_formula_units_Z 28
_cell_length_a 9.303747
_cell_length_b 13.645035
_cell_length_c 19.862412
_cell_angle_alpha 90.000000
_cell_angle_beta 30.816619
_cell_angle_gamma 90.000000
_cell_volume 1291.760789
_symmetry_space_group_name_H-M "P 2/C"
_symmetry_group_IT_number 13
_symmetry_cell_setting 'monoclinic'
loop_
_space_group_symop_operation_xyz
x,y,z
-x,y,1/2-z
-x,-y,-z
x,-y,1/2+z
loop_
_atom_site_type_symbol
_atom_site_label
_atom_site_fract_x
_atom_site_fract_y
_atom_site_fract_z
Si Si1 0.500000 0.488810 0.750000
Si Si2 0.000000 0.712957 0.250000
Si Si3 0.862254 0.787513 0.965332
Si Si4 0.821502 0.024953 0.137878
Si Si5 0.933129 0.326052 0.564379
Si Si6 0.392758 0.627854 0.515596
Si Si7 0.744605 0.172556 0.738872
Si Si8 0.433296 0.562487 0.918644
O O1 0.577243 0.549661 0.786831
O O2 0.763842 0.425685 0.620511
O O3 0.275620 0.645666 0.132162
O O4 0.028688 0.785530 0.301020
O O5 0.799505 0.721816 0.924580
O O6 0.569305 0.832707 0.107770
O O7 0.015254 0.718673 0.959098
O O8 0.063800 0.879148 0.869166
O O9 0.500000 0.045118 0.250000
O O10 0.849603 0.934689 0.177130
O O11 0.000000 0.000000 0.000000
O O12 0.198113 0.354095 0.503515
O O13 0.739785 0.245506 0.677626
O O14 0.348125 0.603494 0.612924
O O15 0.306907 0.538022 0.501003
#
# Coordination Sequence:
#
# PCOD8119693 Si02
#       8
#     2   2   4   4   4   4   4   4
#     4  12  22  38  62  96 130 178 228 288 342 406
#     4  10  20  40  72  90 126 182 236 278 342 412
#     4  11  22  41  70  97 134 173 230 281 341 411
#     4  12  23  41  71 106 138 174 226 287 351 408
#     4  12  20  39  64  95 127 173 231 284 337 410
#     4  10  22  42  62  98 131 178 227 289 340 410
#     4  11  20  39  69 101 125 174 232 285 333 418
#     4  11  24  38  65  93 133 173 234 284 340 408
#
# _framework density 21.675840000000001
#
# number of rings (size 3 to 8) (size 9 to 14) (size 15 to 20)
#    0.000    0.857    7.143    1.286    0.000    0.000 
#    1.286    2.857    3.143    0.000    0.000    0.000 
#    0.000    0.000    0.000    0.000    0.000    0.000 
#
# Total GULP energy -347099.668728 kJ/mol
# GULP energy per Si atom -12396.416740 kJ/mol
# Density = 2.162650 g / cm^3
# Si number density = 21.675840 Si / 1000 Ang^3
#
#
#
# Elastic Constant Matrix: (Units=GPa)
#
#
# Indices 1 2 3 4 5 6 
#
# 1 141.8116 69.0946 26.0292 0.0000 17.7517 0.0000
# 2 69.0946 142.8061 45.0414 0.0000 3.8222 0.0000
# 3 26.0292 45.0414 47.3458 0.0000 -1.5272 0.0000
# 4 0.0000 0.0000 0.0000 23.8639 0.0000 -0.1179
# 5 17.7517 3.8222 -1.5272 0.0000 33.5614 0.0000
# 6 0.0000 0.0000 0.0000 -0.1179 0.0000 42.2300
#
#
#
# Elastic Compliance Matrix: (Units=1/GPa)
#
#
# Indices 1 2 3 4 5 6 
#
# 1 0.010011 -0.004182 -0.001683 0.000000 -0.004895 0.000000
# 2 -0.004182 0.011835 -0.008945 0.000000 0.000457 0.000000
# 3 -0.001683 -0.008945 0.030663 0.000000 0.003304 0.000000
# 4 0.000000 0.000000 0.000000 0.041905 0.000000 0.000117
# 5 -0.004895 0.000457 0.003304 0.000000 0.032484 0.000000
# 6 0.000000 0.000000 0.000000 0.000117 0.000000 0.023680
#
#
# Mechanical properties :
#
#
# Convention : Reuss Voigt Hill
#
# Bulk Modulus (GPa) = 43.69049 68.03266 55.86157
# Shear Modulus (GPa) = 26.62019 32.71759 29.66889
#
# Velocity S-wave (km/s) = 3.50823 3.88932 3.70368
# Velocity P-wave (km/s) = 6.05065 7.18496 6.64206
#
# Compressibility (1/GPa) = 0.02288828
#
# Stress axis : x y z
#
# Youngs Moduli (GPa) = 99.89225 84.49664 32.61254
#
# Poissons Ratio (x) = 0.35333 0.05490
# Poissons Ratio (y) = 0.41771 0.29172
# Poissons Ratio (z) = 0.16816 0.75583
#
# Static dielectric constant tensor:
#      x y z
#    x 4.110570 0.000000 -0.022640 
#    y 0.000000 4.045510 0.000000 
#    z -0.022640 0.000000 3.582470 
# 
# 
# High freq. dielectric constant tensor:
#      x y z
#    x 1.862720 0.000000 -0.005690 
#    y 0.000000 1.851560 0.000000 
#    z -0.005690 0.000000 1.822380 
# 
# From -- ./inp_files/76723.got.cif
#   From: 2010.06.25/outbox.cif.g09.slc.cpg/sg13_39_cif.got.tgz:76723.got - 2010.06.28 04:50:58.
