data_PCOD8119403
_publ_section_title
;
Structure prediction by ZEFSAII (Michael W. Deem and Ramdas Pophale) SiO2 
 PCOD8119403
Probable space group: P 2/C
;
_chemical_formula_sum "Si O2"
_cell_formula_units_Z 26
_cell_length_a 4.984172
_cell_length_b 13.316883
_cell_length_c 19.263731
_cell_angle_alpha 90.000000
_cell_angle_beta 64.643365
_cell_angle_gamma 90.000000
_cell_volume 1155.422751
_symmetry_space_group_name_H-M "P 2/C"
_symmetry_group_IT_number 13
_symmetry_cell_setting 'monoclinic'
loop_
_space_group_symop_operation_xyz
x,y,z
-x,y,1/2-z
-x,-y,-z
x,-y,1/2+z
loop_
_atom_site_type_symbol
_atom_site_label
_atom_site_fract_x
_atom_site_fract_y
_atom_site_fract_z
Si Si1 0.837126 0.073539 0.196689
Si Si2 0.878817 0.725261 0.889227
Si Si3 0.577394 0.765209 0.439556
Si Si4 0.533512 0.387332 0.164465
Si Si5 0.500000 0.251978 0.750000
Si Si6 0.288802 0.402458 0.670201
Si Si7 0.848388 0.129647 0.621074
O O1 0.500000 0.101910 0.250000
O O2 0.000000 0.041684 0.250000
O O3 0.983709 0.168865 0.144769
O O4 0.851779 0.988758 0.135384
O O5 0.710492 0.688215 0.838819
O O6 0.130856 0.647602 0.887810
O O7 0.648632 0.733665 0.976596
O O8 0.748738 0.661411 0.396597
O O9 0.417845 0.836622 0.400240
O O10 0.835009 0.834957 0.443828
O O11 0.500000 0.395647 0.250000
O O12 0.470574 0.495679 0.136666
O O13 0.497799 0.323935 0.684876
O O14 0.786483 0.181257 0.703881
O O15 0.000000 0.423891 0.750000
#
# Coordination Sequence:
#
# PCOD8119403 Si02
#       7
#     4   4   4   4   2   4   4
#     4  12  25  42  70 100 128 178 227 282 325 388
#     4  12  27  46  65  96 144 181 221 265 335 405
#     4  11  26  43  67 101 141 178 210 278 341 407
#     4  12  25  44  70  96 127 178 233 282 319 392
#     4  10  20  38  64  98 128 160 210 288 324 390
#     4  11  22  39  68  98 130 168 230 280 340 376
#     4  11  23  41  69  99 132 167 223 273 338 390
#
# _framework density 22.502585
#
# number of rings (size 3 to 8) (size 9 to 14) (size 15 to 20)
#    0.000    0.615    3.077    5.538    2.154    2.462 
#    0.000    0.000    0.000    0.000    0.000    0.000 
#    0.000    0.000    0.000    0.000    0.000    0.000 
#
# Total GULP energy -322245.647821 kJ/mol
# GULP energy per Si atom -12394.063378 kJ/mol
# Density = 2.245137 g / cm^3
# Si number density = 22.502585 Si / 1000 Ang^3
#
#
#
# Elastic Constant Matrix: (Units=GPa)
#
#
# Indices 1 2 3 4 5 6 
#
# 1 108.8370 38.1948 15.0296 0.0000 -18.9481 0.0000
# 2 38.1948 113.7601 46.4059 0.0000 -6.7384 0.0000
# 3 15.0296 46.4059 74.5528 0.0000 -24.9387 0.0000
# 4 0.0000 0.0000 0.0000 10.1579 0.0000 -3.4154
# 5 -18.9481 -6.7384 -24.9387 0.0000 40.1101 0.0000
# 6 0.0000 0.0000 0.0000 -3.4154 0.0000 42.3743
#
#
#
# Elastic Compliance Matrix: (Units=1/GPa)
#
#
# Indices 1 2 3 4 5 6 
#
# 1 0.011528 -0.004571 0.002634 0.000000 0.006315 0.000000
# 2 -0.004571 0.013942 -0.009716 0.000000 -0.005858 0.000000
# 3 0.002634 -0.009716 0.023738 0.000000 0.014371 0.000000
# 4 0.000000 0.000000 0.000000 0.101188 0.000000 0.008156
# 5 0.006315 -0.005858 0.014371 0.000000 0.035866 0.000000
# 6 0.000000 0.000000 0.000000 0.008156 0.000000 0.024257
#
#
# Mechanical properties :
#
#
# Convention : Reuss Voigt Hill
#
# Bulk Modulus (GPa) = 38.60939 55.15672 46.88305
# Shear Modulus (GPa) = 20.62221 31.69643 26.15932
#
# Velocity S-wave (km/s) = 3.03056 3.75716 3.41325
# Velocity P-wave (km/s) = 5.42593 6.58682 6.03435
#
# Compressibility (1/GPa) = 0.02590044
#
# Stress axis : x y z
#
# Youngs Moduli (GPa) = 86.74616 71.72796 42.12741
#
# Poissons Ratio (x) = 0.32785 -0.11095
# Poissons Ratio (y) = 0.39649 0.40932
# Poissons Ratio (z) = -0.22846 0.69692
#
# Static dielectric constant tensor:
#      x y z
#    x 4.283360 0.000000 0.041260 
#    y 0.000000 4.188270 0.000000 
#    z 0.041260 0.000000 4.678250 
# 
# 
# High freq. dielectric constant tensor:
#      x y z
#    x 1.893190 0.000000 -0.011970 
#    y 0.000000 1.901470 0.000000 
#    z -0.011970 0.000000 1.873340 
# 
# From -- ./inp_files/73356.got.cif
#   From: 2010.06.25/outbox.cif.g09.slc.cpg/sg13_37_cif.got.tgz:73356.got - 2010.06.28 04:50:58.
