data_PCOD8119870
_publ_section_title
;
Structure prediction by ZEFSAII (Michael W. Deem and Ramdas Pophale) SiO2 
 PCOD8119870
Probable space group: P 2/C
;
_chemical_formula_sum "Si O2"
_cell_formula_units_Z 32
_cell_length_a 15.289034
_cell_length_b 12.700727
_cell_length_c 9.529811
_cell_angle_alpha 90.000000
_cell_angle_beta 91.034896
_cell_angle_gamma 90.000000
_cell_volume 1850.214445
_symmetry_space_group_name_H-M "P 2/C"
_symmetry_group_IT_number 13
_symmetry_cell_setting 'monoclinic'
loop_
_space_group_symop_operation_xyz
x,y,z
-x,y,1/2-z
-x,-y,-z
x,-y,1/2+z
loop_
_atom_site_type_symbol
_atom_site_label
_atom_site_fract_x
_atom_site_fract_y
_atom_site_fract_z
Si Si1 0.845009 0.747784 0.983660
Si Si2 0.898647 0.625537 0.729382
Si Si3 0.998172 0.893194 0.417126
Si Si4 0.690401 0.887999 0.587531
Si Si5 0.159598 0.748057 0.027023
Si Si6 0.499851 0.099747 0.093569
Si Si7 0.690649 0.107870 0.418621
Si Si8 0.895839 0.384191 0.729994
O O1 0.919225 0.828046 0.030777
O O2 0.859958 0.641815 0.074387
O O3 0.848462 0.708634 0.824547
O O4 0.753072 0.807710 0.996011
O O5 0.871133 0.652179 0.571662
O O6 0.875928 0.505005 0.763831
O O7 0.000000 0.645850 0.750000
O O8 0.000000 0.910540 0.250000
O O9 0.910007 0.840662 0.468379
O O10 0.000000 0.000000 0.500000
O O11 0.749515 0.797838 0.520090
O O12 0.591425 0.839039 0.569927
O O13 0.713628 0.908073 0.753163
O O14 0.700137 0.996501 0.500136
O O15 0.164242 0.692002 0.177569
O O16 0.500000 0.055072 0.250000
O O17 0.407152 0.159005 0.065513
O O18 0.500000 0.000000 0.000000
O O19 0.000000 0.357580 0.750000
#
# Coordination Sequence:
#
# PCOD8119870 Si02
#       8
#     4   4   4   4   4   4   4   4
#     4  12  21  37  54  80 108 139 180 219 268 322
#     4  11  22  36  60  79 102 137 183 234 273 311
#     4  12  26  38  51  75 112 152 181 209 259 318
#     4  10  21  34  55  81 110 144 177 215 264 318
#     4  12  21  37  54  80 108 139 180 219 268 322
#     4   8  16  34  52  76 107 137 176 218 257 311
#     4  10  21  34  55  81 110 144 177 215 264 318
#     4  11  22  40  56  77 104 143 183 232 273 305
#
# _framework density 17.295292
#
# number of rings (size 3 to 8) (size 9 to 14) (size 15 to 20)
#    0.000    1.250    5.000    1.500    3.500    4.000 
#    0.000    0.000    0.000    0.000    0.000    5.250 
#    0.000    0.000    0.000    0.000    0.000    0.000 
#
# Total GULP energy -396517.930874 kJ/mol
# GULP energy per Si atom -12391.185340 kJ/mol
# Density = 1.725593 g / cm^3
# Si number density = 17.295292 Si / 1000 Ang^3
#
#
#
# Elastic Constant Matrix: (Units=GPa)
#
#
# Indices 1 2 3 4 5 6 
#
# 1 112.5220 45.8881 31.0077 0.0000 -11.7500 0.0000
# 2 45.8881 82.4298 30.2162 0.0000 -6.0982 0.0000
# 3 31.0077 30.2162 72.3561 0.0000 -5.3106 0.0000
# 4 0.0000 0.0000 0.0000 46.1636 0.0000 -4.9022
# 5 -11.7500 -6.0982 -5.3106 0.0000 20.5417 0.0000
# 6 0.0000 0.0000 0.0000 -4.9022 0.0000 5.1405
#
#
#
# Elastic Compliance Matrix: (Units=1/GPa)
#
#
# Indices 1 2 3 4 5 6 
#
# 1 0.012382 -0.005578 -0.002628 0.000000 0.004747 0.000000
# 2 -0.005578 0.016992 -0.004658 0.000000 0.000649 0.000000
# 3 -0.002628 -0.004658 0.017003 0.000000 0.001510 0.000000
# 4 0.000000 0.000000 0.000000 0.024103 0.000000 0.022986
# 5 0.004747 0.000649 0.001510 0.000000 0.051980 0.000000
# 6 0.000000 0.000000 0.000000 0.022986 0.000000 0.216452
#
#
# Mechanical properties :
#
#
# Convention : Reuss Voigt Hill
#
# Bulk Modulus (GPa) = 48.43023 53.50356 50.96690
# Shear Modulus (GPa) = 13.45807 25.04889 19.25348
#
# Velocity S-wave (km/s) = 2.79253 3.80979 3.34012
# Velocity P-wave (km/s) = 6.20165 7.09614 6.66392
#
# Compressibility (1/GPa) = 0.02064826
#
# Stress axis : x y z
#
# Youngs Moduli (GPa) = 80.76185 58.84966 58.81380
#
# Poissons Ratio (x) = 0.32829 0.15458
# Poissons Ratio (y) = 0.45052 0.27395
# Poissons Ratio (z) = 0.21227 0.27411
#
# Static dielectric constant tensor:
#      x y z
#    x 3.887150 0.000000 0.135060 
#    y 0.000000 2.887330 0.000000 
#    z 0.135060 0.000000 3.618730 
# 
# 
# High freq. dielectric constant tensor:
#      x y z
#    x 1.660970 0.000000 -0.001570 
#    y 0.000000 1.647260 0.000000 
#    z -0.001570 0.000000 1.689180 
# 
# From -- ./inp_files/19031.got.cif
#   From: 2010.06.25/outbox.cif.g09.slc.cpg/sg13_10_cif.got.tgz:19031.got - 2010.06.28 04:50:58.
