data_PCOD8119491
_publ_section_title
;
Structure prediction by ZEFSAII (Michael W. Deem and Ramdas Pophale) SiO2 
 PCOD8119491
Probable space group: P 2/C
;
_chemical_formula_sum "Si O2"
_cell_formula_units_Z 20
_cell_length_a 13.029815
_cell_length_b 10.415277
_cell_length_c 17.091045
_cell_angle_alpha 90.000000
_cell_angle_beta 157.604319
_cell_angle_gamma 90.000000
_cell_volume 883.697132
_symmetry_space_group_name_H-M "P 2/C"
_symmetry_group_IT_number 13
_symmetry_cell_setting 'monoclinic'
loop_
_space_group_symop_operation_xyz
x,y,z
-x,y,1/2-z
-x,-y,-z
x,-y,1/2+z
loop_
_atom_site_type_symbol
_atom_site_label
_atom_site_fract_x
_atom_site_fract_y
_atom_site_fract_z
Si Si1 0.500000 0.030397 0.750000
Si Si2 0.292245 0.241191 0.491279
Si Si3 0.325586 0.593201 0.770542
Si Si4 0.500000 0.564502 0.250000
Si Si5 0.274826 0.649812 0.324163
Si Si6 0.783323 0.785965 0.919503
O O1 0.406439 0.110166 0.608865
O O2 0.749310 0.940512 0.894956
O O3 0.276948 0.346714 0.549289
O O4 0.488868 0.291059 0.562212
O O5 0.000000 0.215476 0.250000
O O6 0.339177 0.517255 0.699081
O O7 0.187111 0.494272 0.733997
O O8 0.161710 0.723269 0.629057
O O9 0.614723 0.637178 0.009517
O O10 0.021826 0.745283 0.146205
O O11 0.500000 0.724640 0.750000
#
# Coordination Sequence:
#
# PCOD8119491 Si02
#       6
#     2   4   4   2   4   4
#     4   9  23  42  62  86 121 169 212 254 308 353
#     4  10  22  41  62  89 123 165 212 259 305 359
#     4  10  20  39  61  93 125 156 197 253 311 373
#     4   9  19  38  62  90 123 165 198 246 316 373
#     4  10  23  38  63  96 123 156 207 251 310 372
#     4  10  22  41  62  87 122 165 202 254 304 365
#
# _framework density 22.632189
#
# number of rings (size 3 to 8) (size 9 to 14) (size 15 to 20)
#    0.600    1.600    1.000    0.600    0.000   12.800 
#    0.000    2.000    0.000    0.000    0.000    0.000 
#    0.000    0.000    0.000    0.000    0.000    0.000 
#
# Total GULP energy -247780.062710 kJ/mol
# GULP energy per Si atom -12389.003136 kJ/mol
# Density = 2.258068 g / cm^3
# Si number density = 22.632189 Si / 1000 Ang^3
#
#
#
# Elastic Constant Matrix: (Units=GPa)
#
#
# Indices 1 2 3 4 5 6 
#
# 1 41.7515 21.9474 27.3692 0.0000 -12.2355 0.0000
# 2 21.9474 119.1331 45.4370 0.0000 -12.3107 0.0000
# 3 27.3692 45.4370 151.6379 0.0000 -10.6557 0.0000
# 4 0.0000 0.0000 0.0000 37.5071 0.0000 -0.7811
# 5 -12.2355 -12.3107 -10.6557 0.0000 37.3693 0.0000
# 6 0.0000 0.0000 0.0000 -0.7811 0.0000 18.3445
#
#
#
# Elastic Compliance Matrix: (Units=1/GPa)
#
#
# Indices 1 2 3 4 5 6 
#
# 1 0.030584 -0.003311 -0.003981 0.000000 0.007788 0.000000
# 2 -0.003311 0.010044 -0.002302 0.000000 0.001568 0.000000
# 3 -0.003981 -0.002302 0.008019 0.000000 0.000225 0.000000
# 4 0.000000 0.000000 0.000000 0.026685 0.000000 0.001136
# 5 0.007788 0.001568 0.000225 0.000000 0.029891 0.000000
# 6 0.000000 0.000000 0.000000 0.001136 0.000000 0.054561
#
#
# Mechanical properties :
#
#
# Convention : Reuss Voigt Hill
#
# Bulk Modulus (GPa) = 33.94566 55.78107 44.86337
# Shear Modulus (GPa) = 26.48452 33.16209 29.82331
#
# Velocity S-wave (km/s) = 3.42455 3.83203 3.63400
# Velocity P-wave (km/s) = 5.53788 6.65429 6.12159
#
# Compressibility (1/GPa) = 0.02945885
#
# Stress axis : x y z
#
# Youngs Moduli (GPa) = 32.69731 99.56267 124.70995
#
# Poissons Ratio (x) = 0.32968 0.49642
# Poissons Ratio (y) = 0.10827 0.28705
# Poissons Ratio (z) = 0.13015 0.22916
#
# Static dielectric constant tensor:
#      x y z
#    x 3.848210 0.000000 -0.383740 
#    y 0.000000 4.205340 0.000000 
#    z -0.383740 0.000000 4.109040 
# 
# 
# High freq. dielectric constant tensor:
#      x y z
#    x 1.863800 0.000000 -0.021230 
#    y 0.000000 1.892840 0.000000 
#    z -0.021230 0.000000 1.901790 
# 
# From -- ./inp_files/68482.got.cif
#   From: 2010.06.25/outbox.cif.g09.slc.cpg/sg13_35_cif.got.tgz:68482.got - 2010.06.28 04:50:58.
