data_PCOD8119437
_publ_section_title
;
Structure prediction by ZEFSAII (Michael W. Deem and Ramdas Pophale) SiO2 
 PCOD8119437
Probable space group: P 2/C
;
_chemical_formula_sum "Si O2"
_cell_formula_units_Z 30
_cell_length_a 13.139730
_cell_length_b 13.476494
_cell_length_c 8.191028
_cell_angle_alpha 90.000000
_cell_angle_beta 70.603804
_cell_angle_gamma 90.000000
_cell_volume 1368.126175
_symmetry_space_group_name_H-M "P 2/C"
_symmetry_group_IT_number 13
_symmetry_cell_setting 'monoclinic'
loop_
_space_group_symop_operation_xyz
x,y,z
-x,y,1/2-z
-x,-y,-z
x,-y,1/2+z
loop_
_atom_site_type_symbol
_atom_site_label
_atom_site_fract_x
_atom_site_fract_y
_atom_site_fract_z
Si Si1 0.500000 0.816470 0.750000
Si Si2 0.731082 0.878555 0.126640
Si Si3 0.144702 0.730737 0.896069
Si Si4 0.710138 0.908595 0.764936
Si Si5 0.885854 0.425516 0.350418
Si Si6 0.094912 0.723930 0.396835
Si Si7 0.758470 0.616712 0.400332
Si Si8 0.429828 0.269702 0.627818
O O1 0.603628 0.886564 0.715099
O O2 0.507757 0.752093 0.576643
O O3 0.842212 0.816713 0.054831
O O4 0.641186 0.824371 0.283727
O O5 0.753089 0.981750 0.205406
O O6 0.684560 0.895124 0.969928
O O7 0.194183 0.837952 0.844066
O O8 0.115991 0.678882 0.741956
O O9 0.236584 0.652980 0.914576
O O10 0.031151 0.746661 0.051456
O O11 0.880987 0.385514 0.536679
O O12 0.788946 0.501400 0.367410
O O13 0.000000 0.480390 0.250000
O O14 0.150753 0.699901 0.195674
O O15 0.645918 0.634555 0.367973
O O16 0.500000 0.299305 0.750000
#
# Coordination Sequence:
#
# PCOD8119437 Si02
#       8
#     2   4   4   4   4   4   4   4
#     4  12  24  46  72  98 130 178 230 294 332 408
#     4  11  25  42  65 101 132 174 222 281 341 409
#     4  11  22  40  64  98 134 177 219 272 333 412
#     4  12  25  41  68  96 132 175 231 280 345 394
#     4  10  20  38  67  98 133 180 223 270 333 402
#     4  10  22  40  63  95 140 172 215 272 335 406
#     4  11  22  38  65 101 130 172 223 279 334 400
#     4  11  24  44  71 101 135 176 229 283 344 398
#
# _framework density 21.927803000000001
#
# number of rings (size 3 to 8) (size 9 to 14) (size 15 to 20)
#    0.000    1.067    4.000    2.800    2.800    3.733 
#    0.000    0.000    1.467    4.800    0.000    0.000 
#    0.000    0.000    0.000    0.000    0.000    0.000 
#
# Total GULP energy -371745.221948 kJ/mol
# GULP energy per Si atom -12391.507398 kJ/mol
# Density = 2.187789 g / cm^3
# Si number density = 21.927803 Si / 1000 Ang^3
#
#
#
# Elastic Constant Matrix: (Units=GPa)
#
#
# Indices 1 2 3 4 5 6 
#
# 1 125.7121 56.5615 34.8294 0.0000 9.5330 0.0000
# 2 56.5615 119.1797 16.9865 0.0000 -7.4589 0.0000
# 3 34.8294 16.9865 68.5085 0.0000 1.1970 0.0000
# 4 0.0000 0.0000 0.0000 -6.3663 0.0000 -5.5434
# 5 9.5330 -7.4589 1.1970 0.0000 32.6028 0.0000
# 6 0.0000 0.0000 0.0000 -5.5434 0.0000 31.0758
#
#
#
# Elastic Compliance Matrix: (Units=1/GPa)
#
#
# Indices 1 2 3 4 5 6 
#
# 1 0.011988 -0.005304 -0.004700 0.000000 -0.004546 0.000000
# 2 -0.005304 0.011187 -0.000149 0.000000 0.004116 0.000000
# 3 -0.004700 -0.000149 0.017011 0.000000 0.000716 0.000000
# 4 0.000000 0.000000 0.000000 -0.135959 0.000000 -0.024253
# 5 -0.004546 0.004116 0.000716 0.000000 0.032917 0.000000
# 6 0.000000 0.000000 0.000000 -0.024253 0.000000 0.027853
#
#
# Mechanical properties :
#
#
# Convention : Reuss Voigt Hill
#
# Bulk Modulus (GPa) = 50.30424 58.90611 54.60517
# Shear Modulus (GPa) = -619.50476 25.13065 -297.18705
#
# Velocity S-wave (km/s) = -16.82657 3.38903 -11.65436
# Velocity P-wave (km/s) = 18.82872 6.49892 12.49569
#
# Compressibility (1/GPa) = 0.01987904
#
# Stress axis : x y z
#
# Youngs Moduli (GPa) = 83.41618 89.39131 58.78650
#
# Poissons Ratio (x) = 0.47414 0.27630
# Poissons Ratio (y) = 0.44244 0.00876
# Poissons Ratio (z) = 0.39207 0.01333
#
# Static dielectric constant tensor:
#      x y z
#    x 4.008520 0.000000 0.143220 
#    y 0.000000 3.617060 0.000000 
#    z 0.143220 0.000000 4.146210 
# 
# 
# High freq. dielectric constant tensor:
#      x y z
#    x 1.859130 0.000000 0.018060 
#    y 0.000000 1.845570 0.000000 
#    z 0.018060 0.000000 1.879390 
# 
# From -- ./inp_files/19016.got.cif
#   From: 2010.06.25/outbox.cif.g09.slc.cpg/sg13_10_cif.got.tgz:19016.got - 2010.06.28 04:50:58.
