data_PCOD8119879
_publ_section_title
;
Structure prediction by ZEFSAII (Michael W. Deem and Ramdas Pophale) SiO2 
 PCOD8119879
Probable space group: P 2/C
;
_chemical_formula_sum "Si O2"
_cell_formula_units_Z 20
_cell_length_a 11.381373
_cell_length_b 12.735584
_cell_length_c 10.776814
_cell_angle_alpha 90.000000
_cell_angle_beta 142.883337
_cell_angle_gamma 90.000000
_cell_volume 942.622810
_symmetry_space_group_name_H-M "P 2/C"
_symmetry_group_IT_number 13
_symmetry_cell_setting 'monoclinic'
loop_
_space_group_symop_operation_xyz
x,y,z
-x,y,1/2-z
-x,-y,-z
x,-y,1/2+z
loop_
_atom_site_type_symbol
_atom_site_label
_atom_site_fract_x
_atom_site_fract_y
_atom_site_fract_z
Si Si1 0.210405 0.608270 0.574931
Si Si2 0.854846 0.372567 0.942049
Si Si3 0.800389 0.165187 0.027697
Si Si4 0.385766 0.683141 0.484372
Si Si5 0.549263 0.886929 0.093350
O O1 0.149587 0.487272 0.501037
O O2 0.217911 0.664350 0.446643
O O3 0.419313 0.623026 0.813755
O O4 0.050380 0.657949 0.531210
O O5 0.673556 0.366567 0.696088
O O6 0.832088 0.288990 0.032273
O O7 0.000000 0.114515 0.250000
O O8 0.636587 0.157582 0.992725
O O9 0.734032 0.108216 0.843492
O O10 0.410167 0.809079 0.488167
O O11 0.500000 0.000000 0.000000
#
# Coordination Sequence:
#
# PCOD8119879 Si02
#       5
#     4   4   4   4   4
#     4  10  21  34  58  87 119 156 191 237 287 348
#     4  10  21  37  56  85 121 155 191 232 287 353
#     4  10  22  40  63  88 116 154 195 240 296 358
#     4  10  21  37  57  83 115 153 197 241 290 346
#     4  10  23  42  62  86 117 153 199 253 299 343
#
# _framework density 21.217393999999999
#
# number of rings (size 3 to 8) (size 9 to 14) (size 15 to 20)
#    0.000    2.000    0.000    2.400    0.000   15.200 
#    0.000    4.000    0.000    0.000    0.000    0.000 
#    0.000    0.000    0.000    0.000    0.000    0.000 
#
# Total GULP energy -248002.786848 kJ/mol
# GULP energy per Si atom -12400.139342 kJ/mol
# Density = 2.116910 g / cm^3
# Si number density = 21.217394 Si / 1000 Ang^3
#
#
#
# Elastic Constant Matrix: (Units=GPa)
#
#
# Indices 1 2 3 4 5 6 
#
# 1 128.7163 78.8342 30.2893 0.0000 -1.1995 0.0000
# 2 78.8342 136.0418 26.5651 0.0000 -3.2323 0.0000
# 3 30.2893 26.5651 109.3665 0.0000 3.7326 0.0000
# 4 0.0000 0.0000 0.0000 19.5590 0.0000 -6.8123
# 5 -1.1995 -3.2323 3.7326 0.0000 27.1045 0.0000
# 6 0.0000 0.0000 0.0000 -6.8123 0.0000 25.6218
#
#
#
# Elastic Compliance Matrix: (Units=1/GPa)
#
#
# Indices 1 2 3 4 5 6 
#
# 1 0.012360 -0.006818 -0.001766 0.000000 -0.000023 0.000000
# 2 -0.006818 0.011516 -0.000950 0.000000 0.001202 0.000000
# 3 -0.001766 -0.000950 0.009917 0.000000 -0.001557 0.000000
# 4 0.000000 0.000000 0.000000 0.056345 0.000000 0.014981
# 5 -0.000023 0.001202 -0.001557 0.000000 0.037251 0.000000
# 6 0.000000 0.000000 0.000000 0.014981 0.000000 0.043012
#
#
# Mechanical properties :
#
#
# Convention : Reuss Voigt Hill
#
# Bulk Modulus (GPa) = 67.91684 71.72242 69.81963
# Shear Modulus (GPa) = 25.72300 30.35279 28.03789
#
# Velocity S-wave (km/s) = 3.48567 3.78638 3.63913
# Velocity P-wave (km/s) = 6.94833 7.27960 7.11589
#
# Compressibility (1/GPa) = 0.01472389
#
# Stress axis : x y z
#
# Youngs Moduli (GPa) = 80.90329 86.83682 100.84082
#
# Poissons Ratio (x) = 0.59208 0.17812
# Poissons Ratio (y) = 0.55162 0.09579
# Poissons Ratio (z) = 0.14290 0.08248
#
# Static dielectric constant tensor:
#      x y z
#    x 3.783660 0.000000 0.142510 
#    y 0.000000 3.608370 0.000000 
#    z 0.142510 0.000000 3.937660 
# 
# 
# High freq. dielectric constant tensor:
#      x y z
#    x 1.834730 0.000000 0.000960 
#    y 0.000000 1.808590 0.000000 
#    z 0.000960 0.000000 1.848410 
# 
# From -- ./inp_files/34018.got.cif
#   From: 2010.06.25/outbox.cif.g09.slc.cpg/sg13_18_cif.got.tgz:34018.got - 2010.06.28 04:50:58.
