data_PCOD8119339
_publ_section_title
;
Structure prediction by ZEFSAII (Michael W. Deem and Ramdas Pophale) SiO2 
 PCOD8119339
Probable space group: P 2/C
;
_chemical_formula_sum "Si O2"
_cell_formula_units_Z 32
_cell_length_a 15.507967
_cell_length_b 8.318702
_cell_length_c 25.184849
_cell_angle_alpha 90.000000
_cell_angle_beta 152.307062
_cell_angle_gamma 90.000000
_cell_volume 1509.917495
_symmetry_space_group_name_H-M "P 2/C"
_symmetry_group_IT_number 13
_symmetry_cell_setting 'monoclinic'
loop_
_space_group_symop_operation_xyz
x,y,z
-x,y,1/2-z
-x,-y,-z
x,-y,1/2+z
loop_
_atom_site_type_symbol
_atom_site_label
_atom_site_fract_x
_atom_site_fract_y
_atom_site_fract_z
Si Si1 0.570555 0.699609 0.922363
Si Si2 0.203667 0.548183 0.751785
Si Si3 0.042311 0.265596 0.594586
Si Si4 0.311804 0.555251 0.616295
Si Si5 0.202499 0.021622 0.989332
Si Si6 0.218940 0.444984 0.872044
Si Si7 0.102465 0.251154 0.357951
Si Si8 0.283563 0.195083 0.630134
O O1 0.352339 0.670057 0.807836
O O2 0.653753 0.565256 0.928096
O O3 0.671367 0.688985 0.034842
O O4 0.609963 0.875257 0.918670
O O5 0.145470 0.417269 0.676691
O O6 0.292853 0.457312 0.851812
O O7 0.032886 0.659221 0.674857
O O8 0.184130 0.173960 0.632825
O O9 0.858724 0.325441 0.461880
O O10 0.974537 0.142771 0.604032
O O11 0.500000 0.604562 0.750000
O O12 0.245644 0.376072 0.591271
O O13 0.196094 0.898854 0.937267
O O14 0.199275 0.931098 0.043428
O O15 0.251697 0.617200 0.919083
O O16 0.000000 0.404462 0.750000
O O17 0.000000 0.182561 0.250000
O O18 0.500000 0.159142 0.750000
#
# Coordination Sequence:
#
# PCOD8119339 Si02
#       8
#     4   4   4   4   4   4   4   4
#     4  11  22  36  58  90 115 146 197 246 290 343
#     4  10  20  38  62  87 115 150 195 246 291 340
#     4  11  23  39  62  89 115 153 200 246 294 344
#     4  10  21  38  61  85 112 154 203 248 289 340
#     4  11  23  37  57  84 119 156 190 234 293 357
#     4   9  18  37  61  84 114 153 194 241 289 339
#     4   9  20  38  58  81 116 157 190 229 290 352
#     4  11  23  39  57  84 119 157 194 238 294 353
#
# _framework density 21.193211999999999
#
# number of rings (size 3 to 8) (size 9 to 14) (size 15 to 20)
#    0.000    2.000    0.000    7.125    0.000    5.500 
#    0.000    2.500    0.000    0.000    0.000    0.000 
#    0.000    0.000    0.000    0.000    0.000    0.000 
#
# Total GULP energy -396707.844808 kJ/mol
# GULP energy per Si atom -12397.120150 kJ/mol
# Density = 2.114498 g / cm^3
# Si number density = 21.193212 Si / 1000 Ang^3
#
#
#
# Elastic Constant Matrix: (Units=GPa)
#
#
# Indices 1 2 3 4 5 6 
#
# 1 105.1079 28.2279 38.0439 0.0000 2.2095 0.0000
# 2 28.2279 73.3692 38.7374 0.0000 -6.2555 0.0000
# 3 38.0439 38.7374 81.3475 0.0000 -1.8265 0.0000
# 4 0.0000 0.0000 0.0000 21.5454 0.0000 -7.0674
# 5 2.2095 -6.2555 -1.8265 0.0000 31.1544 0.0000
# 6 0.0000 0.0000 0.0000 -7.0674 0.0000 15.6243
#
#
#
# Elastic Compliance Matrix: (Units=1/GPa)
#
#
# Indices 1 2 3 4 5 6 
#
# 1 0.011776 -0.002321 -0.004437 0.000000 -0.001561 0.000000
# 2 -0.002321 0.018979 -0.007873 0.000000 0.003514 0.000000
# 3 -0.004437 -0.007873 0.018113 0.000000 -0.000204 0.000000
# 4 0.000000 0.000000 0.000000 0.054500 0.000000 0.024652
# 5 -0.001561 0.003514 -0.000204 0.000000 0.032902 0.000000
# 6 0.000000 0.000000 0.000000 0.024652 0.000000 0.075154
#
#
# Mechanical properties :
#
#
# Convention : Reuss Voigt Hill
#
# Bulk Modulus (GPa) = 51.00777 52.20478 51.60627
# Shear Modulus (GPa) = 20.22461 23.98585 22.10523
#
# Velocity S-wave (km/s) = 3.09252 3.36783 3.23311
# Velocity P-wave (km/s) = 6.07222 6.30946 6.19197
#
# Compressibility (1/GPa) = 0.01960486
#
# Stress axis : x y z
#
# Youngs Moduli (GPa) = 84.91662 52.68878 55.20963
#
# Poissons Ratio (x) = 0.12230 0.24497
# Poissons Ratio (y) = 0.19711 0.43469
# Poissons Ratio (z) = 0.37679 0.41484
#
# Static dielectric constant tensor:
#      x y z
#    x 3.985740 0.000000 -0.075280 
#    y 0.000000 3.734850 0.000000 
#    z -0.075280 0.000000 3.735160 
# 
# 
# High freq. dielectric constant tensor:
#      x y z
#    x 1.839840 0.000000 -0.004750 
#    y 0.000000 1.815500 0.000000 
#    z -0.004750 0.000000 1.819150 
# 
# From -- ./inp_files/87437.got.cif
#   From: 2010.06.25/outbox.cif.g09.slc.cpg/sg13_44_cif.got.tgz:87437.got - 2010.06.28 04:50:58.
