data_PCOD8119318
_publ_section_title
;
Structure prediction by ZEFSAII (Michael W. Deem and Ramdas Pophale) SiO2 
 PCOD8119318
Probable space group: P 2/C
;
_chemical_formula_sum "Si O2"
_cell_formula_units_Z 32
_cell_length_a 13.098514
_cell_length_b 8.679309
_cell_length_c 13.712331
_cell_angle_alpha 90.000000
_cell_angle_beta 74.881897
_cell_angle_gamma 90.000000
_cell_volume 1504.947627
_symmetry_space_group_name_H-M "P 2/C"
_symmetry_group_IT_number 13
_symmetry_cell_setting 'monoclinic'
loop_
_space_group_symop_operation_xyz
x,y,z
-x,y,1/2-z
-x,-y,-z
x,-y,1/2+z
loop_
_atom_site_type_symbol
_atom_site_label
_atom_site_fract_x
_atom_site_fract_y
_atom_site_fract_z
Si Si1 0.031332 0.983287 0.137003
Si Si2 0.214364 0.205630 0.034578
Si Si3 0.178508 0.248543 0.666404
Si Si4 0.712071 0.727349 0.693046
Si Si5 0.404373 0.312105 0.085441
Si Si6 0.877499 0.413200 0.288656
Si Si7 0.640887 0.363043 0.006159
Si Si8 0.803556 0.945978 0.149801
O O1 0.071999 0.805570 0.136214
O O2 0.000000 0.053753 0.250000
O O3 0.926924 0.991898 0.094966
O O4 0.135691 0.066759 0.074651
O O5 0.330157 0.181538 0.054495
O O6 0.163168 0.361601 0.092942
O O7 0.230627 0.194247 0.913957
O O8 0.152362 0.410886 0.721288
O O9 0.280435 0.253889 0.572321
O O10 0.204935 0.120435 0.740155
O O11 0.617629 0.691902 0.793132
O O12 0.822713 0.682247 0.715812
O O13 0.686040 0.623087 0.605034
O O14 0.725084 0.907362 0.659614
O O15 0.527070 0.278788 0.036783
O O16 0.369087 0.472333 0.043358
O O17 0.000000 0.380398 0.250000
#
# Coordination Sequence:
#
# PCOD8119318 Si02
#       8
#     4   4   4   4   4   4   4   4
#     4  10  20  38  61  88 133 178 206 252 324 389
#     4  11  21  39  63  94 122 172 217 256 316 383
#     4  11  22  40  60  95 129 168 213 263 320 372
#     4  11  23  43  67  95 123 172 215 258 316 391
#     4  10  23  43  66  93 126 162 215 271 328 370
#     4  11  22  38  63  96 132 165 215 270 311 374
#     4  11  23  43  67  93 123 169 210 272 328 369
#     4  11  24  40  63  93 137 174 207 256 322 394
#
# _framework density 21.263197999999999
#
# number of rings (size 3 to 8) (size 9 to 14) (size 15 to 20)
#    0.000    1.250    2.500    6.750    1.750    1.000 
#    0.000    9.375    0.000    0.000    0.000    0.000 
#    0.000    0.000    0.000    0.000    0.000    0.000 
#
# Total GULP energy -396594.248168 kJ/mol
# GULP energy per Si atom -12393.570255 kJ/mol
# Density = 2.121480 g / cm^3
# Si number density = 21.263198 Si / 1000 Ang^3
#
#
#
# Elastic Constant Matrix: (Units=GPa)
#
#
# Indices 1 2 3 4 5 6 
#
# 1 121.7431 17.1185 52.3609 0.0000 -11.9668 0.0000
# 2 17.1185 75.1155 31.5089 0.0000 1.9064 0.0000
# 3 52.3609 31.5089 96.2314 0.0000 -2.6320 0.0000
# 4 0.0000 0.0000 0.0000 28.5179 0.0000 -7.6164
# 5 -11.9668 1.9064 -2.6320 0.0000 27.1926 0.0000
# 6 0.0000 0.0000 0.0000 -7.6164 0.0000 28.7476
#
#
#
# Elastic Compliance Matrix: (Units=1/GPa)
#
#
# Indices 1 2 3 4 5 6 
#
# 1 0.011218 -0.000182 -0.005924 0.000000 0.004376 0.000000
# 2 -0.000182 0.015503 -0.005022 0.000000 -0.001653 0.000000
# 3 -0.005924 -0.005022 0.015238 0.000000 -0.000780 0.000000
# 4 0.000000 0.000000 0.000000 0.037736 0.000000 0.009998
# 5 0.004376 -0.001653 -0.000780 0.000000 0.038741 0.000000
# 6 0.000000 0.000000 0.000000 0.009998 0.000000 0.037434
#
#
# Mechanical properties :
#
#
# Convention : Reuss Voigt Hill
#
# Bulk Modulus (GPa) = 50.75818 55.00740 52.88279
# Shear Modulus (GPa) = 27.07169 29.69841 28.38505
#
# Velocity S-wave (km/s) = 3.57202 3.74131 3.65764
# Velocity P-wave (km/s) = 6.39810 6.67751 6.53929
#
# Compressibility (1/GPa) = 0.01970126
#
# Stress axis : x y z
#
# Youngs Moduli (GPa) = 89.14370 64.50367 65.62465
#
# Poissons Ratio (x) = 0.01177 0.38878
# Poissons Ratio (y) = 0.01626 0.32957
# Poissons Ratio (z) = 0.52812 0.32394
#
# Static dielectric constant tensor:
#      x y z
#    x 4.150100 0.000000 0.040980 
#    y 0.000000 3.638380 0.000000 
#    z 0.040980 0.000000 4.060280 
# 
# 
# High freq. dielectric constant tensor:
#      x y z
#    x 1.837880 0.000000 -0.006560 
#    y 0.000000 1.818430 0.000000 
#    z -0.006560 0.000000 1.838750 
# 
# From -- ./inp_files/50338.got.cif
#   From: 2010.06.25/outbox.cif.g09.slc.cpg/sg13_26_cif.got.tgz:50338.got - 2010.06.28 04:50:58.
