data_PCOD8119619
_publ_section_title
;
Structure prediction by ZEFSAII (Michael W. Deem and Ramdas Pophale) SiO2 
 PCOD8119619
Probable space group: P 2/C
;
_chemical_formula_sum "Si O2"
_cell_formula_units_Z 28
_cell_length_a 17.475722
_cell_length_b 6.888856
_cell_length_c 12.754829
_cell_angle_alpha 90.000000
_cell_angle_beta 118.372120
_cell_angle_gamma 90.000000
_cell_volume 1351.077540
_symmetry_space_group_name_H-M "P 2/C"
_symmetry_group_IT_number 13
_symmetry_cell_setting 'monoclinic'
loop_
_space_group_symop_operation_xyz
x,y,z
-x,y,1/2-z
-x,-y,-z
x,-y,1/2+z
loop_
_atom_site_type_symbol
_atom_site_label
_atom_site_fract_x
_atom_site_fract_y
_atom_site_fract_z
Si Si1 0.723760 0.040858 0.393198
Si Si2 0.996987 0.814747 0.594721
Si Si3 0.133291 0.884479 0.145097
Si Si4 0.000000 0.508305 0.250000
Si Si5 0.422551 0.140424 0.576061
Si Si6 0.567632 0.814090 0.661406
Si Si7 0.500000 0.473751 0.750000
Si Si8 0.882513 0.156240 0.622335
O O1 0.772837 0.886893 0.350041
O O2 0.659899 0.160065 0.277228
O O3 0.796135 0.173400 0.496145
O O4 0.670300 0.945672 0.453157
O O5 0.081390 0.910661 0.595490
O O6 0.036870 0.635840 0.685241
O O7 0.930608 0.736891 0.460325
O O8 0.943197 0.970993 0.633550
O O9 0.145877 0.844864 0.274556
O O10 0.931576 0.640211 0.143025
O O11 0.419506 0.198963 0.453536
O O12 0.429642 0.333193 0.650907
O O13 0.500979 0.987289 0.648667
O O14 0.534977 0.605789 0.678662
#
# Coordination Sequence:
#
# PCOD8119619 Si02
#       8
#     4   4   4   2   4   4   2   4
#     4  11  22  43  63  95 135 168 215 268 327 390
#     4  10  21  40  63  86 122 167 220 264 321 382
#     4  10  20  40  63  87 124 170 208 271 320 377
#     4  12  20  40  66  88 124 168 220 270 322 386
#     4  11  23  44  72  96 130 186 206 261 341 393
#     4  11  23  44  70  96 136 170 219 266 326 401
#     4  12  20  44  72 104 124 172 224 270 308 408
#     4  11  22  41  64  90 128 169 218 270 319 382
#
# _framework density 20.724198000000001
#
# number of rings (size 3 to 8) (size 9 to 14) (size 15 to 20)
#    0.000    1.143    5.714    1.286    0.000    0.571 
#    5.143    0.000    0.000    0.000    0.000    0.000 
#    0.000    0.000    0.000    0.000    0.000    0.000 
#
# Total GULP energy -346918.906655 kJ/mol
# GULP energy per Si atom -12389.960952 kJ/mol
# Density = 2.067703 g / cm^3
# Si number density = 20.724198 Si / 1000 Ang^3
#
#
#
# Elastic Constant Matrix: (Units=GPa)
#
#
# Indices 1 2 3 4 5 6 
#
# 1 103.7019 25.4269 35.0294 0.0000 -2.6375 0.0000
# 2 25.4269 98.6032 42.3530 0.0000 4.3547 0.0000
# 3 35.0294 42.3530 127.6094 0.0000 1.1991 0.0000
# 4 0.0000 0.0000 0.0000 28.5799 0.0000 -3.9768
# 5 -2.6375 4.3547 1.1991 0.0000 44.5420 0.0000
# 6 0.0000 0.0000 0.0000 -3.9768 0.0000 11.9572
#
#
#
# Elastic Compliance Matrix: (Units=1/GPa)
#
#
# Indices 1 2 3 4 5 6 
#
# 1 0.010924 -0.001825 -0.002401 0.000000 0.000890 0.000000
# 2 -0.001825 0.012182 -0.003531 0.000000 -0.001204 0.000000
# 3 -0.002401 -0.003531 0.009668 0.000000 -0.000057 0.000000
# 4 0.000000 0.000000 0.000000 0.036687 0.000000 0.012202
# 5 0.000890 -0.001204 -0.000057 0.000000 0.022623 0.000000
# 6 0.000000 0.000000 0.000000 0.012202 0.000000 0.087690
#
#
# Mechanical properties :
#
#
# Convention : Reuss Voigt Hill
#
# Bulk Modulus (GPa) = 57.93775 59.50367 58.72071
# Shear Modulus (GPa) = 24.87040 32.15617 28.51328
#
# Velocity S-wave (km/s) = 3.46795 3.94334 3.71326
# Velocity P-wave (km/s) = 6.63723 7.03617 6.83961
#
# Compressibility (1/GPa) = 0.01725990
#
# Stress axis : x y z
#
# Youngs Moduli (GPa) = 91.53908 82.08804 103.43330
#
# Poissons Ratio (x) = 0.14980 0.24839
# Poissons Ratio (y) = 0.16705 0.36521
# Poissons Ratio (z) = 0.21983 0.28985
#
# Static dielectric constant tensor:
#      x y z
#    x 3.812510 0.000000 -0.193570 
#    y 0.000000 3.558450 0.000000 
#    z -0.193570 0.000000 4.094420 
# 
# 
# High freq. dielectric constant tensor:
#      x y z
#    x 1.808390 0.000000 -0.020800 
#    y 0.000000 1.781400 0.000000 
#    z -0.020800 0.000000 1.838900 
# 
# From -- ./inp_files/54742.got.cif
#   From: 2010.06.25/outbox.cif.g09.slc.cpg/sg13_28_cif.got.tgz:54742.got - 2010.06.28 04:50:58.
