data_PCOD8119269
_publ_section_title
;
Structure prediction by ZEFSAII (Michael W. Deem and Ramdas Pophale) SiO2 
 PCOD8119269
Probable space group: P 2/C
;
_chemical_formula_sum "Si O2"
_cell_formula_units_Z 18
_cell_length_a 11.782281
_cell_length_b 7.887265
_cell_length_c 15.431684
_cell_angle_alpha 90.000000
_cell_angle_beta 38.557457
_cell_angle_gamma 90.000000
_cell_volume 893.852077
_symmetry_space_group_name_H-M "P 2/C"
_symmetry_group_IT_number 13
_symmetry_cell_setting 'monoclinic'
loop_
_space_group_symop_operation_xyz
x,y,z
-x,y,1/2-z
-x,-y,-z
x,-y,1/2+z
loop_
_atom_site_type_symbol
_atom_site_label
_atom_site_fract_x
_atom_site_fract_y
_atom_site_fract_z
Si Si1 0.835646 0.125382 0.582617
Si Si2 0.500000 0.897844 0.750000
Si Si3 0.593066 0.623783 0.563656
Si Si4 0.285462 0.623729 0.197253
Si Si5 0.939266 0.546612 0.940219
O O1 0.781682 0.219472 0.704365
O O2 0.886942 0.255399 0.474169
O O3 0.673249 0.016215 0.642843
O O4 0.000000 0.000000 0.500000
O O5 0.497422 0.782272 0.666160
O O6 0.643879 0.688002 0.437449
O O7 0.448909 0.470437 0.649359
O O8 0.769410 0.566342 0.512055
O O9 0.117616 0.494297 0.275828
O O10 0.000000 0.500000 0.000000
#
# Coordination Sequence:
#
# PCOD8119269 Si02
#       5
#     4   2   4   4   4
#     4  11  22  37  58  86 119 151 185 238 296 343
#     4  12  22  36  60  88 120 150 186 240 298 344
#     4  11  22  39  62  85 114 156 199 238 279 341
#     4  10  22  40  61  84 115 155 199 237 279 342
#     4  10  20  38  60  82 112 152 197 233 275 341
#
# _framework density 20.137560000000001
#
# number of rings (size 3 to 8) (size 9 to 14) (size 15 to 20)
#    0.000    1.333    0.000    8.667    0.000    0.889 
#    0.000    4.444    0.000    0.000    0.000    0.000 
#    0.000    0.000    0.000    0.000    0.000    0.000 
#
# Total GULP energy -223205.544052 kJ/mol
# GULP energy per Si atom -12400.308003 kJ/mol
# Density = 2.009173 g / cm^3
# Si number density = 20.137560 Si / 1000 Ang^3
#
#
#
# Elastic Constant Matrix: (Units=GPa)
#
#
# Indices 1 2 3 4 5 6 
#
# 1 80.2355 35.7114 32.0770 0.0000 -12.5030 0.0000
# 2 35.7114 97.4271 40.9135 0.0000 13.3935 0.0000
# 3 32.0770 40.9135 106.3243 0.0000 0.5112 0.0000
# 4 0.0000 0.0000 0.0000 50.0932 0.0000 -6.0555
# 5 -12.5030 13.3935 0.5112 0.0000 45.7746 0.0000
# 6 0.0000 0.0000 0.0000 -6.0555 0.0000 19.3194
#
#
#
# Elastic Compliance Matrix: (Units=1/GPa)
#
#
# Indices 1 2 3 4 5 6 
#
# 1 0.017335 -0.006014 -0.002947 0.000000 0.006528 0.000000
# 2 -0.006014 0.014927 -0.003901 0.000000 -0.005967 0.000000
# 3 -0.002947 -0.003901 0.011794 0.000000 0.000205 0.000000
# 4 0.000000 0.000000 0.000000 0.020749 0.000000 0.006504
# 5 0.006528 -0.005967 0.000205 0.000000 0.025373 0.000000
# 6 0.000000 0.000000 0.000000 0.006504 0.000000 0.053800
#
#
# Mechanical properties :
#
#
# Convention : Reuss Voigt Hill
#
# Bulk Modulus (GPa) = 54.54702 55.71009 55.12856
# Shear Modulus (GPa) = 28.43932 34.72311 31.58122
#
# Velocity S-wave (km/s) = 3.76207 4.15697 3.96444
# Velocity P-wave (km/s) = 6.78358 7.12498 6.95637
#
# Compressibility (1/GPa) = 0.01833281
#
# Stress axis : x y z
#
# Youngs Moduli (GPa) = 57.68525 66.99358 84.78639
#
# Poissons Ratio (x) = 0.40290 0.24988
# Poissons Ratio (y) = 0.34692 0.33073
# Poissons Ratio (z) = 0.17001 0.26133
#
# Static dielectric constant tensor:
#      x y z
#    x 3.513170 0.000000 -0.115940 
#    y 0.000000 3.909090 0.000000 
#    z -0.115940 0.000000 4.321730 
# 
# 
# High freq. dielectric constant tensor:
#      x y z
#    x 1.784310 0.000000 -0.014860 
#    y 0.000000 1.780610 0.000000 
#    z -0.014860 0.000000 1.808830 
# 
# From -- ./inp_files/65827.got.cif
#   From: 2010.06.25/outbox.cif.g09.slc.cpg/sg13_33_cif.got.tgz:65827.got - 2010.06.28 04:50:58.
