data_PCOD8119325
_publ_section_title
;
Structure prediction by ZEFSAII (Michael W. Deem and Ramdas Pophale) SiO2 
 PCOD8119325
Probable space group: P 2/C
;
_chemical_formula_sum "Si O2"
_cell_formula_units_Z 18
_cell_length_a 9.673561
_cell_length_b 9.562378
_cell_length_c 8.297261
_cell_angle_alpha 90.000000
_cell_angle_beta 72.692994
_cell_angle_gamma 90.000000
_cell_volume 732.765594
_symmetry_space_group_name_H-M "P 2/C"
_symmetry_group_IT_number 13
_symmetry_cell_setting 'monoclinic'
loop_
_space_group_symop_operation_xyz
x,y,z
-x,y,1/2-z
-x,-y,-z
x,-y,1/2+z
loop_
_atom_site_type_symbol
_atom_site_label
_atom_site_fract_x
_atom_site_fract_y
_atom_site_fract_z
Si Si1 0.000000 0.825281 0.750000
Si Si2 0.749432 0.350136 0.493390
Si Si3 0.833714 0.631986 0.326275
Si Si4 0.194823 0.905977 0.950658
Si Si5 0.370902 0.899031 0.590581
O O1 0.943880 0.922102 0.620053
O O2 0.123819 0.718600 0.654026
O O3 0.739259 0.511668 0.445936
O O4 0.766358 0.334957 0.677436
O O5 0.607248 0.257765 0.490354
O O6 0.824046 0.768283 0.437763
O O7 0.000000 0.583848 0.250000
O O8 0.342811 0.893455 0.791846
O O9 0.220787 0.038649 0.059090
O O10 0.500000 0.000000 0.500000
#
# Coordination Sequence:
#
# PCOD8119325 Si02
#       5
#     2   4   4   4   4
#     4  10  20  38  62 102 134 174 222 282 362 422
#     4  11  22  39  68 102 141 183 226 284 357 419
#     4  12  22  41  68 109 149 178 221 289 363 433
#     4  11  24  41  68  99 138 182 231 288 360 419
#     4  11  25  47  67  94 137 191 245 293 335 404
#
# _framework density 24.564473
#
# number of rings (size 3 to 8) (size 9 to 14) (size 15 to 20)
#    0.000    0.889    3.333    5.333    0.000    3.556 
#   10.000    1.111    0.000    5.333    0.000    0.000 
#    0.000    0.000    0.000    0.000    0.000    0.000 
#
# Total GULP energy -223177.289580 kJ/mol
# GULP energy per Si atom -12398.738310 kJ/mol
# Density = 2.450856 g / cm^3
# Si number density = 24.564473 Si / 1000 Ang^3
#
#
#
# Elastic Constant Matrix: (Units=GPa)
#
#
# Indices 1 2 3 4 5 6 
#
# 1 27.1188 6.5144 5.5432 0.0000 -3.7369 0.0000
# 2 6.5144 141.7759 42.6531 0.0000 15.4567 0.0000
# 3 5.5432 42.6531 142.0364 0.0000 24.2618 0.0000
# 4 0.0000 0.0000 0.0000 45.9126 0.0000 -7.2449
# 5 -3.7369 15.4567 24.2618 0.0000 26.5521 0.0000
# 6 0.0000 0.0000 0.0000 -7.2449 0.0000 34.6871
#
#
#
# Elastic Compliance Matrix: (Units=1/GPa)
#
#
# Indices 1 2 3 4 5 6 
#
# 1 0.039090 -0.002035 -0.002437 0.000000 0.008913 0.000000
# 2 -0.002035 0.008043 -0.001762 0.000000 -0.003358 0.000000
# 3 -0.002437 -0.001762 0.008944 0.000000 -0.007490 0.000000
# 4 0.000000 0.000000 0.000000 0.022523 0.000000 0.004704
# 5 0.008913 -0.003358 -0.007490 0.000000 0.047715 0.000000
# 6 0.000000 0.000000 0.000000 0.004704 0.000000 0.029812
#
#
# Mechanical properties :
#
#
# Convention : Reuss Voigt Hill
#
# Bulk Modulus (GPa) = 22.93091 46.70584 34.81837
# Shear Modulus (GPa) = 27.30294 38.51172 32.90733
#
# Velocity S-wave (km/s) = 3.33750 3.96382 3.66407
# Velocity P-wave (km/s) = 4.92008 6.32487 5.66618
#
# Compressibility (1/GPa) = 0.04360926
#
# Stress axis : x y z
#
# Youngs Moduli (GPa) = 25.58217 124.32902 111.80530
#
# Poissons Ratio (x) = 0.25296 0.27246
# Poissons Ratio (y) = 0.05205 0.19704
# Poissons Ratio (z) = 0.06234 0.21911
#
# Static dielectric constant tensor:
#      x y z
#    x 4.683280 0.000000 0.258010 
#    y 0.000000 4.682700 0.000000 
#    z 0.258010 0.000000 4.658410 
# 
# 
# High freq. dielectric constant tensor:
#      x y z
#    x 1.955600 0.000000 0.008030 
#    y 0.000000 1.987210 0.000000 
#    z 0.008030 0.000000 2.004270 
# 
# From -- ./inp_files/14498.got.cif
#   From: 2010.06.25/outbox.cif.g09.slc.cpg/sg13_8_cif.got.tgz:14498.got - 2010.06.28 04:50:58.
