data_PCOD8119490
_publ_section_title
;
Structure prediction by ZEFSAII (Michael W. Deem and Ramdas Pophale) SiO2 
 PCOD8119490
Probable space group: P 2/C
;
_chemical_formula_sum "Si O2"
_cell_formula_units_Z 28
_cell_length_a 13.160211
_cell_length_b 8.246978
_cell_length_c 15.290198
_cell_angle_alpha 90.000000
_cell_angle_beta 55.054753
_cell_angle_gamma 90.000000
_cell_volume 1360.271573
_symmetry_space_group_name_H-M "P 2/C"
_symmetry_group_IT_number 13
_symmetry_cell_setting 'monoclinic'
loop_
_space_group_symop_operation_xyz
x,y,z
-x,y,1/2-z
-x,-y,-z
x,-y,1/2+z
loop_
_atom_site_type_symbol
_atom_site_label
_atom_site_fract_x
_atom_site_fract_y
_atom_site_fract_z
Si Si1 0.668884 0.069741 0.267515
Si Si2 0.222321 0.120604 0.113359
Si Si3 0.342853 0.367946 0.945019
Si Si4 0.500000 0.160450 0.750000
Si Si5 0.000000 0.357334 0.250000
Si Si6 0.083767 0.466084 0.542283
Si Si7 0.475062 0.322686 0.361594
Si Si8 0.776201 0.141236 0.032348
O O1 0.738181 0.012498 0.321816
O O2 0.603083 0.239843 0.328889
O O3 0.766027 0.086082 0.139187
O O4 0.557530 0.949072 0.298461
O O5 0.114953 0.237758 0.199278
O O6 0.331989 0.241939 0.029743
O O7 0.183771 0.006338 0.050959
O O8 0.390253 0.270852 0.838291
O O9 0.438080 0.509872 0.928724
O O10 0.211853 0.435934 0.976040
O O11 0.995466 0.477080 0.335234
O O12 0.116824 0.275601 0.530357
O O13 0.000000 0.500000 0.500000
O O14 0.500000 0.372147 0.250000
O O15 0.359827 0.199975 0.429303
#
# Coordination Sequence:
#
# PCOD8119490 Si02
#       8
#     4   4   4   2   2   4   4   4
#     4  11  21  38  63  88 128 170 202 250 319 381
#     4  11  23  41  62  89 126 166 207 264 326 366
#     4  10  21  37  61  92 129 160 207 262 314 375
#     4  12  20  38  58  96 134 152 208 262 304 394
#     4  10  24  46  58  92 128 150 216 284 298 380
#     4  10  22  44  68  87 123 169 218 267 317 371
#     4   9  17  34  59  84 123 161 198 247 298 373
#     4  10  20  39  61  91 120 161 211 256 311 382
#
# _framework density 20.584123999999999
#
# number of rings (size 3 to 8) (size 9 to 14) (size 15 to 20)
#    0.000    1.714    4.286    0.857    0.000    3.429 
#    5.143    3.571    0.000    0.000    0.000    0.000 
#    0.000    0.000    0.000    0.000    0.000    0.000 
#
# Total GULP energy -347006.265996 kJ/mol
# GULP energy per Si atom -12393.080928 kJ/mol
# Density = 2.053727 g / cm^3
# Si number density = 20.584124 Si / 1000 Ang^3
#
#
#
# Elastic Constant Matrix: (Units=GPa)
#
#
# Indices 1 2 3 4 5 6 
#
# 1 64.2829 21.9237 51.2898 0.0000 19.1441 0.0000
# 2 21.9237 98.2756 60.3538 0.0000 1.0861 0.0000
# 3 51.2898 60.3538 133.2520 0.0000 4.4015 0.0000
# 4 0.0000 0.0000 0.0000 157.6248 0.0000 -131.9684
# 5 19.1441 1.0861 4.4015 0.0000 30.6999 0.0000
# 6 0.0000 0.0000 0.0000 -131.9684 0.0000 141.1683
#
#
#
# Elastic Compliance Matrix: (Units=1/GPa)
#
#
# Indices 1 2 3 4 5 6 
#
# 1 0.028930 0.000322 -0.010736 0.000000 -0.016512 0.000000
# 2 0.000322 0.014105 -0.006520 0.000000 0.000235 0.000000
# 3 -0.010736 -0.006520 0.014430 0.000000 0.004856 0.000000
# 4 0.000000 0.000000 0.000000 0.029191 0.000000 0.027289
# 5 -0.016512 0.000235 0.004856 0.000000 0.042166 0.000000
# 6 0.000000 0.000000 0.000000 0.027289 0.000000 0.032594
#
#
# Mechanical properties :
#
#
# Convention : Reuss Voigt Hill
#
# Bulk Modulus (GPa) = 42.37941 62.54947 52.46444
# Shear Modulus (GPa) = 24.61237 76.71482 50.66359
#
# Velocity S-wave (km/s) = 3.46164 6.11145 4.96653
# Velocity P-wave (km/s) = 6.05065 8.95840 7.64406
#
# Compressibility (1/GPa) = 0.02359636
#
# Stress axis : x y z
#
# Youngs Moduli (GPa) = 34.56653 70.89470 69.30178
#
# Poissons Ratio (x) = -0.02281 0.74399
# Poissons Ratio (y) = -0.01112 0.45187
# Poissons Ratio (z) = 0.37109 0.46226
#
# Static dielectric constant tensor:
#      x y z
#    x 3.213760 0.000000 0.264340 
#    y 0.000000 3.905530 0.000000 
#    z 0.264340 0.000000 2.526850 
# 
# 
# High freq. dielectric constant tensor:
#      x y z
#    x 1.773830 0.000000 -0.007380 
#    y 0.000000 1.810500 0.000000 
#    z -0.007380 0.000000 1.815830 
# 
# From -- ./inp_files/53019.got.cif
#   From: 2010.06.25/outbox.cif.g09.slc.cpg/sg13_27_cif.got.tgz:53019.got - 2010.06.28 04:50:58.
