data_PCOD8119423
_publ_section_title
;
Structure prediction by ZEFSAII (Michael W. Deem and Ramdas Pophale) SiO2 
 PCOD8119423
Probable space group: P 2/C
;
_chemical_formula_sum "Si O2"
_cell_formula_units_Z 24
_cell_length_a 23.050840
_cell_length_b 8.805628
_cell_length_c 9.997183
_cell_angle_alpha 90.000000
_cell_angle_beta 140.012309
_cell_angle_gamma 90.000000
_cell_volume 1304.010276
_symmetry_space_group_name_H-M "P 2/C"
_symmetry_group_IT_number 13
_symmetry_cell_setting 'monoclinic'
loop_
_space_group_symop_operation_xyz
x,y,z
-x,y,1/2-z
-x,-y,-z
x,-y,1/2+z
loop_
_atom_site_type_symbol
_atom_site_label
_atom_site_fract_x
_atom_site_fract_y
_atom_site_fract_z
Si Si1 0.186226 0.320831 0.335272
Si Si2 0.805147 0.319701 0.627995
Si Si3 0.000864 0.645724 0.094698
Si Si4 0.280032 0.171072 0.268452
Si Si5 0.254711 0.161646 0.709800
Si Si6 0.438559 0.028046 0.018221
O O1 0.195275 0.501381 0.346345
O O2 0.263886 0.248430 0.382365
O O3 0.197138 0.260598 0.504646
O O4 0.089993 0.263357 0.104873
O O5 0.907631 0.262235 0.778647
O O6 0.743726 0.287270 0.391030
O O7 0.762284 0.230195 0.674774
O O8 0.000000 0.600715 0.250000
O O9 0.000000 0.500000 0.000000
O O10 0.386451 0.130754 0.454363
O O11 0.221891 0.014389 0.150554
O O12 0.362616 0.161205 0.865392
O O13 0.500000 0.076858 0.250000
O O14 0.500000 0.000000 0.000000
#
# Coordination Sequence:
#
# PCOD8119423 Si02
#       6
#     4   4   4   4   4   4
#     4  11  21  38  60  86 122 159 202 242 291 341
#     4  11  21  38  60  86 122 157 202 242 288 348
#     4  10  22  36  59  85 122 168 208 232 281 359
#     4  10  21  38  61  87 118 146 206 242 300 353
#     4  10  23  36  61  91 114 154 202 242 304 350
#     4  10  20  38  66  85 110 155 202 236 292 382
#
# _framework density 18.404762000000002
#
# number of rings (size 3 to 8) (size 9 to 14) (size 15 to 20)
#    1.000    0.667    1.667    4.000    7.000    0.000 
#    0.000    5.000    0.000   20.000    0.000    0.000 
#    0.000    0.000    0.000    0.000    0.000    0.000 
#
# Total GULP energy -297431.849855 kJ/mol
# GULP energy per Si atom -12392.993744 kJ/mol
# Density = 1.836287 g / cm^3
# Si number density = 18.404762 Si / 1000 Ang^3
#
#
#
# Elastic Constant Matrix: (Units=GPa)
#
#
# Indices 1 2 3 4 5 6 
#
# 1 109.9766 28.4114 22.0774 0.0000 -3.7064 0.0000
# 2 28.4114 65.1731 12.1599 0.0000 6.2079 0.0000
# 3 22.0774 12.1599 94.3752 0.0000 -0.2497 0.0000
# 4 0.0000 0.0000 0.0000 27.9610 0.0000 -5.3062
# 5 -3.7064 6.2079 -0.2497 0.0000 35.2630 0.0000
# 6 0.0000 0.0000 0.0000 -5.3062 0.0000 33.1132
#
#
#
# Elastic Compliance Matrix: (Units=1/GPa)
#
#
# Indices 1 2 3 4 5 6 
#
# 1 0.010702 -0.004488 -0.001920 0.000000 0.001901 0.000000
# 2 -0.004488 0.017882 -0.001264 0.000000 -0.003629 0.000000
# 3 -0.001920 -0.001264 0.011208 0.000000 0.000100 0.000000
# 4 0.000000 0.000000 0.000000 0.036886 0.000000 0.005911
# 5 0.001901 -0.003629 0.000100 0.000000 0.029198 0.000000
# 6 0.000000 0.000000 0.000000 0.005911 0.000000 0.031147
#
#
# Mechanical properties :
#
#
# Convention : Reuss Voigt Hill
#
# Bulk Modulus (GPa) = 40.90349 43.86915 42.38632
# Shear Modulus (GPa) = 31.14964 33.05916 32.10440
#
# Velocity S-wave (km/s) = 4.11844 4.24279 4.18108
# Velocity P-wave (km/s) = 6.69985 6.92020 6.81092
#
# Compressibility (1/GPa) = 0.02444779
#
# Stress axis : x y z
#
# Youngs Moduli (GPa) = 93.44155 55.92298 89.21970
#
# Poissons Ratio (x) = 0.25099 0.17132
# Poissons Ratio (y) = 0.41938 0.11274
# Poissons Ratio (z) = 0.17943 0.07067
#
# Static dielectric constant tensor:
#      x y z
#    x 3.580730 0.000000 0.206970 
#    y 0.000000 3.157290 0.000000 
#    z 0.206970 0.000000 3.473610 
# 
# 
# High freq. dielectric constant tensor:
#      x y z
#    x 1.726280 0.000000 -0.009640 
#    y 0.000000 1.686710 0.000000 
#    z -0.009640 0.000000 1.721790 
# 
# From -- ./inp_files/22812.got.cif
#   From: 2010.06.25/outbox.cif.g09.slc.cpg/sg13_12_cif.got.tgz:22812.got - 2010.06.28 04:50:58.
