data_PCOD8119896
_publ_section_title
;
Structure prediction by ZEFSAII (Michael W. Deem and Ramdas Pophale) SiO2 
 PCOD8119896
Probable space group: P 2/C
;
_chemical_formula_sum "Si O2"
_cell_formula_units_Z 32
_cell_length_a 13.940321
_cell_length_b 6.016628
_cell_length_c 31.454127
_cell_angle_alpha 90.000000
_cell_angle_beta 36.290492
_cell_angle_gamma 90.000000
_cell_volume 1561.481408
_symmetry_space_group_name_H-M "P 2/C"
_symmetry_group_IT_number 13
_symmetry_cell_setting 'monoclinic'
loop_
_space_group_symop_operation_xyz
x,y,z
-x,y,1/2-z
-x,-y,-z
x,-y,1/2+z
loop_
_atom_site_type_symbol
_atom_site_label
_atom_site_fract_x
_atom_site_fract_y
_atom_site_fract_z
Si Si1 0.978528 0.198278 0.881758
Si Si2 0.594706 0.184739 0.835972
Si Si3 0.785567 0.735960 0.575201
Si Si4 0.257270 0.944360 0.484232
Si Si5 0.464902 0.482067 0.215035
Si Si6 0.087756 0.561392 0.263138
Si Si7 0.201755 0.180322 0.276090
Si Si8 0.026711 0.423052 0.052748
O O1 0.983854 0.276283 0.830994
O O2 0.046467 0.393405 0.888526
O O3 0.097954 0.985295 0.842883
O O4 0.795403 0.132242 0.962113
O O5 0.531355 0.299396 0.815487
O O6 0.729124 0.345300 0.809412
O O7 0.670025 0.948228 0.798441
O O8 0.444833 0.128800 0.920992
O O9 0.598734 0.691469 0.651472
O O10 0.887244 0.737484 0.582796
O O11 0.862647 0.531702 0.522579
O O12 0.789601 0.964393 0.546487
O O13 0.148844 0.733175 0.535043
O O14 0.500000 0.565245 0.250000
O O15 0.292701 0.355832 0.274198
O O16 0.089466 0.317313 0.283391
O O17 0.000000 0.546948 0.250000
#
# Coordination Sequence:
#
# PCOD8119896 Si02
#       8
#     4   4   4   4   4   4   4   4
#     4  10  23  38  65  90 123 160 208 255 313 361
#     4  10  22  41  63  91 122 163 202 257 314 361
#     4  10  21  35  53  86 124 171 215 248 290 344
#     4  11  20  39  62  88 126 170 208 251 304 362
#     4  11  23  36  55  86 131 167 214 252 298 354
#     4  10  23  44  68  91 119 152 199 257 323 386
#     4  10  22  42  59  89 119 165 205 253 314 365
#     4  10  21  37  56  84 128 167 213 255 291 351
#
# _framework density 20.493361
#
# number of rings (size 3 to 8) (size 9 to 14) (size 15 to 20)
#    0.000    1.750    2.500    1.125    7.000    2.500 
#    0.000    0.625    0.000    3.750    0.000    0.000 
#    0.000    0.000    0.000    0.000    0.000    0.000 
#
# Total GULP energy -396650.656107 kJ/mol
# GULP energy per Si atom -12395.333003 kJ/mol
# Density = 2.044672 g / cm^3
# Si number density = 20.493361 Si / 1000 Ang^3
#
#
#
# Elastic Constant Matrix: (Units=GPa)
#
#
# Indices 1 2 3 4 5 6 
#
# 1 104.5182 32.0486 54.3768 0.0000 0.0397 0.0000
# 2 32.0486 88.5230 49.7731 0.0000 -9.0940 0.0000
# 3 54.3768 49.7731 120.5565 0.0000 -5.3090 0.0000
# 4 0.0000 0.0000 0.0000 42.0927 0.0000 -4.0633
# 5 0.0397 -9.0940 -5.3090 0.0000 19.5307 0.0000
# 6 0.0000 0.0000 0.0000 -4.0633 0.0000 21.3164
#
#
#
# Elastic Compliance Matrix: (Units=1/GPa)
#
#
# Indices 1 2 3 4 5 6 
#
# 1 0.012819 -0.002049 -0.005039 0.000000 -0.002350 0.000000
# 2 -0.002049 0.015593 -0.005257 0.000000 0.005836 0.000000
# 3 -0.005039 -0.005257 0.012784 0.000000 0.001038 0.000000
# 4 0.000000 0.000000 0.000000 0.024202 0.000000 0.004613
# 5 -0.002350 0.005836 0.001038 0.000000 0.054206 0.000000
# 6 0.000000 0.000000 0.000000 0.004613 0.000000 0.047792
#
#
# Mechanical properties :
#
#
# Convention : Reuss Voigt Hill
#
# Bulk Modulus (GPa) = 60.58419 65.11051 62.84735
# Shear Modulus (GPa) = 25.30519 28.41458 26.85989
#
# Velocity S-wave (km/s) = 3.51778 3.72765 3.62424
# Velocity P-wave (km/s) = 6.79167 7.09702 6.94602
#
# Compressibility (1/GPa) = 0.01650596
#
# Stress axis : x y z
#
# Youngs Moduli (GPa) = 78.01133 64.12937 78.22308
#
# Poissons Ratio (x) = 0.13138 0.39420
# Poissons Ratio (y) = 0.15982 0.41121
# Poissons Ratio (z) = 0.39314 0.33712
#
# Static dielectric constant tensor:
#      x y z
#    x 3.291710 0.000000 -0.174850 
#    y 0.000000 3.795240 0.000000 
#    z -0.174850 0.000000 3.866070 
# 
# 
# High freq. dielectric constant tensor:
#      x y z
#    x 1.748890 0.000000 -0.013920 
#    y 0.000000 1.814120 0.000000 
#    z -0.013920 0.000000 1.815060 
# 
# From -- ./inp_files/96855.got.cif
#   From: 2010.06.25/outbox.cif.g09.slc.cpg/sg13_49_cif.got.tgz:96855.got - 2010.06.28 04:50:58.
