data_PCOD8119734
_publ_section_title
;
Structure prediction by ZEFSAII (Michael W. Deem and Ramdas Pophale) SiO2 
 PCOD8119734
Probable space group: P 2/C
;
_chemical_formula_sum "Si O2"
_cell_formula_units_Z 24
_cell_length_a 21.137265
_cell_length_b 10.565895
_cell_length_c 15.634292
_cell_angle_alpha 90.000000
_cell_angle_beta 159.961616
_cell_angle_gamma 90.000000
_cell_volume 1196.419605
_symmetry_space_group_name_H-M "P 2/C"
_symmetry_group_IT_number 13
_symmetry_cell_setting 'monoclinic'
loop_
_space_group_symop_operation_xyz
x,y,z
-x,y,1/2-z
-x,-y,-z
x,-y,1/2+z
loop_
_atom_site_type_symbol
_atom_site_label
_atom_site_fract_x
_atom_site_fract_y
_atom_site_fract_z
Si Si1 0.501017 0.814797 0.847303
Si Si2 0.869125 0.909034 0.386159
Si Si3 0.799559 0.015792 0.982462
Si Si4 0.600994 0.554354 0.712142
Si Si5 0.151297 0.255128 0.334492
Si Si6 0.500000 0.607388 0.250000
Si Si7 0.000000 0.473323 0.250000
O O1 0.500000 0.762547 0.750000
O O2 0.358892 0.929950 0.678888
O O3 0.456718 0.700929 0.855230
O O4 0.707436 0.863977 0.120138
O O5 0.999926 0.793385 0.576662
O O6 0.770540 0.969667 0.344134
O O7 0.000000 0.000000 0.500000
O O8 0.000000 0.950399 0.250000
O O9 0.803584 0.153703 0.033235
O O10 0.500000 0.500000 0.500000
O O11 0.533488 0.476717 0.708815
O O12 0.825561 0.554279 0.992574
O O13 0.335474 0.295197 0.519049
O O14 0.070753 0.386283 0.264464
#
# Coordination Sequence:
#
# PCOD8119734 Si02
#       7
#     4   4   4   4   4   2   2
#     4  12  25  42  62  93 143 167 215 277 328 394
#     4  11  23  40  61  99 129 168 216 262 330 396
#     4  10  22  40  66  96 125 173 211 266 334 386
#     4  11  25  45  66  96 129 178 224 270 334 384
#     4  10  20  41  67  89 125 160 223 263 318 382
#     4  10  24  42  68  96 124 172 224 266 318 402
#     4  10  20  44  68  88 126 172 220 274 314 396
#
# _framework density 20.059854000000001
#
# number of rings (size 3 to 8) (size 9 to 14) (size 15 to 20)
#    0.000    1.333    3.333    3.500    7.000    1.333 
#    3.000    2.500    0.000    0.000    0.000    0.000 
#    0.000    0.000    0.000    0.000    0.000    0.000 
#
# Total GULP energy -297519.272320 kJ/mol
# GULP energy per Si atom -12396.636347 kJ/mol
# Density = 2.001420 g / cm^3
# Si number density = 20.059854 Si / 1000 Ang^3
#
#
#
# Elastic Constant Matrix: (Units=GPa)
#
#
# Indices 1 2 3 4 5 6 
#
# 1 87.3683 31.0301 50.0279 0.0000 -0.0942 0.0000
# 2 31.0301 88.0944 51.1248 0.0000 10.4459 0.0000
# 3 50.0279 51.1248 163.1584 0.0000 10.5257 0.0000
# 4 0.0000 0.0000 0.0000 32.6206 0.0000 11.5354
# 5 -0.0942 10.4459 10.5257 0.0000 41.9352 0.0000
# 6 0.0000 0.0000 0.0000 11.5354 0.0000 22.5432
#
#
#
# Elastic Compliance Matrix: (Units=1/GPa)
#
#
# Indices 1 2 3 4 5 6 
#
# 1 0.014667 -0.003298 -0.003577 0.000000 0.001752 0.000000
# 2 -0.003298 0.014859 -0.003461 0.000000 -0.002840 0.000000
# 3 -0.003577 -0.003461 0.008391 0.000000 -0.001252 0.000000
# 4 0.000000 0.000000 0.000000 0.037428 0.000000 -0.019152
# 5 0.001752 -0.002840 -0.001252 0.000000 0.024872 0.000000
# 6 0.000000 0.000000 0.000000 -0.019152 0.000000 0.054159
#
#
# Mechanical properties :
#
#
# Convention : Reuss Voigt Hill
#
# Bulk Modulus (GPa) = 57.99098 66.99853 62.49476
# Shear Modulus (GPa) = 27.65522 33.18236 30.41879
#
# Velocity S-wave (km/s) = 3.71703 4.07156 3.89832
# Velocity P-wave (km/s) = 6.88429 7.45488 7.17526
#
# Compressibility (1/GPa) = 0.01724406
#
# Stress axis : x y z
#
# Youngs Moduli (GPa) = 68.17902 67.30033 119.17379
#
# Poissons Ratio (x) = 0.22198 0.42626
# Poissons Ratio (y) = 0.22488 0.41250
# Poissons Ratio (z) = 0.24386 0.23295
#
# Static dielectric constant tensor:
#      x y z
#    x 3.664970 0.000000 0.220800 
#    y 0.000000 4.884430 0.000000 
#    z 0.220800 0.000000 3.798030 
# 
# 
# High freq. dielectric constant tensor:
#      x y z
#    x 1.785990 0.000000 0.011170 
#    y 0.000000 1.777550 0.000000 
#    z 0.011170 0.000000 1.798860 
# 
# From -- ./inp_files/57680.got.cif
#   From: 2010.06.25/outbox.cif.g09.slc.cpg/sg13_29_cif.got.tgz:57680.got - 2010.06.28 04:50:58.
