data_PCOD8119713
_publ_section_title
;
Structure prediction by ZEFSAII (Michael W. Deem and Ramdas Pophale) SiO2 
 PCOD8119713
Probable space group: P 2/C
;
_chemical_formula_sum "Si O2"
_cell_formula_units_Z 28
_cell_length_a 20.466402
_cell_length_b 8.673004
_cell_length_c 14.516446
_cell_angle_alpha 90.000000
_cell_angle_beta 31.934140
_cell_angle_gamma 90.000000
_cell_volume 1362.953789
_symmetry_space_group_name_H-M "P 2/C"
_symmetry_group_IT_number 13
_symmetry_cell_setting 'monoclinic'
loop_
_space_group_symop_operation_xyz
x,y,z
-x,y,1/2-z
-x,-y,-z
x,-y,1/2+z
loop_
_atom_site_type_symbol
_atom_site_label
_atom_site_fract_x
_atom_site_fract_y
_atom_site_fract_z
Si Si1 0.036692 0.016692 0.312394
Si Si2 0.644171 0.412247 0.590260
Si Si3 0.025915 0.251890 0.484724
Si Si4 0.690029 0.927824 0.018386
Si Si5 0.610598 0.589814 0.322661
Si Si6 0.800325 0.471796 0.745416
Si Si7 0.512869 0.922320 0.386763
O O1 0.000000 0.043392 0.250000
O O2 0.007785 0.169346 0.407336
O O3 0.963686 0.872738 0.445056
O O4 0.182613 0.979576 0.143538
O O5 0.500000 0.372714 0.750000
O O6 0.719749 0.252015 0.500496
O O7 0.658547 0.495427 0.672427
O O8 0.699924 0.524521 0.447196
O O9 0.910587 0.361607 0.643447
O O10 0.149758 0.356219 0.337481
O O11 0.614100 0.997902 0.196413
O O12 0.618280 0.937969 0.007231
O O13 0.500000 0.500000 0.500000
O O14 0.729271 0.604675 0.245241
O O15 0.553470 0.749588 0.357799
O O16 0.500000 0.000000 0.500000
#
# Coordination Sequence:
#
# PCOD8119713 Si02
#       7
#     4   4   4   4   4   4   4
#     4  11  25  44  66  92 126 176 225 265 327 383
#     4  11  19  40  62  89 129 165 199 255 321 391
#     4  10  26  44  65  93 128 171 220 275 320 379
#     4  10  20  41  63  89 128 167 210 263 319 391
#     4  11  22  38  65  95 122 167 209 251 328 392
#     4  11  23  43  66  95 130 166 217 272 322 390
#     4  10  22  38  64  95 127 163 209 260 333 390
#
# _framework density 20.543617999999999
#
# number of rings (size 3 to 8) (size 9 to 14) (size 15 to 20)
#    0.000    1.429    5.714    0.000    6.000    2.286 
#    2.571    2.857    0.000    0.000    0.000    0.000 
#    0.000    0.000    0.000    0.000    0.000    0.000 
#
# Total GULP energy -347079.446308 kJ/mol
# GULP energy per Si atom -12395.694511 kJ/mol
# Density = 2.049686 g / cm^3
# Si number density = 20.543618 Si / 1000 Ang^3
#
#
#
# Elastic Constant Matrix: (Units=GPa)
#
#
# Indices 1 2 3 4 5 6 
#
# 1 141.3168 27.2291 53.8437 0.0000 26.6850 0.0000
# 2 27.2291 53.7000 30.7042 0.0000 10.4272 0.0000
# 3 53.8437 30.7042 113.9931 0.0000 13.4586 0.0000
# 4 0.0000 0.0000 0.0000 28.3442 0.0000 6.0833
# 5 26.6850 10.4272 13.4586 0.0000 43.3838 0.0000
# 6 0.0000 0.0000 0.0000 6.0833 0.0000 23.7717
#
#
#
# Elastic Compliance Matrix: (Units=1/GPa)
#
#
# Indices 1 2 3 4 5 6 
#
# 1 0.009616 -0.002043 -0.003479 0.000000 -0.004344 0.000000
# 2 -0.002043 0.022996 -0.004904 0.000000 -0.002749 0.000000
# 3 -0.003479 -0.004904 0.011776 0.000000 -0.000335 0.000000
# 4 0.000000 0.000000 0.000000 0.037331 0.000000 -0.009553
# 5 -0.004344 -0.002749 -0.000335 0.000000 0.026487 0.000000
# 6 0.000000 0.000000 0.000000 -0.009553 0.000000 0.044511
#
#
# Mechanical properties :
#
#
# Convention : Reuss Voigt Hill
#
# Bulk Modulus (GPa) = 42.48932 59.17379 50.83155
# Shear Modulus (GPa) = 27.56119 32.24880 29.90500
#
# Velocity S-wave (km/s) = 3.66675 3.96633 3.81948
# Velocity P-wave (km/s) = 6.21725 7.05990 6.65193
#
# Compressibility (1/GPa) = 0.02353533
#
# Stress axis : x y z
#
# Youngs Moduli (GPa) = 103.99607 43.48596 84.91776
#
# Poissons Ratio (x) = 0.08885 0.29540
# Poissons Ratio (y) = 0.21248 0.41647
# Poissons Ratio (z) = 0.36177 0.21327
#
# Static dielectric constant tensor:
#      x y z
#    x 4.724420 0.000000 0.785960 
#    y 0.000000 3.652200 0.000000 
#    z 0.785960 0.000000 4.327150 
# 
# 
# High freq. dielectric constant tensor:
#      x y z
#    x 1.805860 0.000000 0.013820 
#    y 0.000000 1.777150 0.000000 
#    z 0.013820 0.000000 1.822090 
# 
# From -- ./inp_files/57464.got.cif
#   From: 2010.06.25/outbox.cif.g09.slc.cpg/sg13_29_cif.got.tgz:57464.got - 2010.06.28 04:50:58.
