data_PCOD8119238
_publ_section_title
;
Structure prediction by ZEFSAII (Michael W. Deem and Ramdas Pophale) SiO2 
 PCOD8119238
Probable space group: P 2/C
;
_chemical_formula_sum "Si O2"
_cell_formula_units_Z 14
_cell_length_a 7.678253
_cell_length_b 11.962283
_cell_length_c 8.464053
_cell_angle_alpha 90.000000
_cell_angle_beta 128.100780
_cell_angle_gamma 90.000000
_cell_volume 611.771305
_symmetry_space_group_name_H-M "P 2/C"
_symmetry_group_IT_number 13
_symmetry_cell_setting 'monoclinic'
loop_
_space_group_symop_operation_xyz
x,y,z
-x,y,1/2-z
-x,-y,-z
x,-y,1/2+z
loop_
_atom_site_type_symbol
_atom_site_label
_atom_site_fract_x
_atom_site_fract_y
_atom_site_fract_z
Si Si1 0.328764 0.140871 0.840347
Si Si2 0.000000 0.550224 0.750000
Si Si3 0.263853 0.616294 0.188946
Si Si4 0.201987 0.953468 0.965755
O O1 0.263678 0.269227 0.788497
O O2 0.171284 0.063986 0.636234
O O3 0.264085 0.084726 0.971356
O O4 0.589014 0.127674 0.955175
O O5 0.190236 0.475352 0.775197
O O6 0.899175 0.626137 0.553565
O O7 0.500000 0.583312 0.250000
O O8 0.000000 0.906754 0.750000
#
# Coordination Sequence:
#
# PCOD8119238 Si02
#       4
#     4   2   4   4
#     4  10  22  37  61  90 128 162 212 247 319 365
#     4  10  26  42  72  92 122 164 224 256 336 356
#     4  11  22  46  66  95 126 166 208 276 308 381
#     4  10  20  38  57  90 126 167 202 257 297 390
#
# _framework density 22.884367999999998
#
# number of rings (size 3 to 8) (size 9 to 14) (size 15 to 20)
#    0.000    1.714    2.857    1.714    4.000    0.000 
#    0.000    0.000   12.571    0.000    0.000    0.000 
#    0.000    0.000    0.000    0.000    0.000    0.000 
#
# Total GULP energy -173546.970620 kJ/mol
# GULP energy per Si atom -12396.212187 kJ/mol
# Density = 2.283228 g / cm^3
# Si number density = 22.884368 Si / 1000 Ang^3
#
#
#
# Elastic Constant Matrix: (Units=GPa)
#
#
# Indices 1 2 3 4 5 6 
#
# 1 76.9357 25.9678 17.1757 0.0000 0.6647 0.0000
# 2 25.9678 104.3232 27.9908 0.0000 9.0121 0.0000
# 3 17.1757 27.9908 100.4485 0.0000 26.1467 0.0000
# 4 0.0000 0.0000 0.0000 42.9044 0.0000 -2.4494
# 5 0.6647 9.0121 26.1467 0.0000 34.0557 0.0000
# 6 0.0000 0.0000 0.0000 -2.4494 0.0000 16.1359
#
#
#
# Elastic Compliance Matrix: (Units=1/GPa)
#
#
# Indices 1 2 3 4 5 6 
#
# 1 0.014555 -0.003234 -0.002170 0.000000 0.002238 0.000000
# 2 -0.003234 0.011091 -0.002237 0.000000 -0.001154 0.000000
# 3 -0.002170 -0.002237 0.013478 0.000000 -0.009714 0.000000
# 4 0.000000 0.000000 0.000000 0.023511 0.000000 0.003569
# 5 0.002238 -0.001154 -0.009714 0.000000 0.037083 0.000000
# 6 0.000000 0.000000 0.000000 0.003569 0.000000 0.062515
#
#
# Mechanical properties :
#
#
# Convention : Reuss Voigt Hill
#
# Bulk Modulus (GPa) = 41.94399 47.10842 44.52620
# Shear Modulus (GPa) = 26.95965 32.65742 29.80853
#
# Velocity S-wave (km/s) = 3.43604 3.78175 3.61303
# Velocity P-wave (km/s) = 5.84040 6.30071 6.07492
#
# Compressibility (1/GPa) = 0.02384132
#
# Stress axis : x y z
#
# Youngs Moduli (GPa) = 68.70715 90.16720 74.19355
#
# Poissons Ratio (x) = 0.29160 0.16100
# Poissons Ratio (y) = 0.22220 0.16597
# Poissons Ratio (z) = 0.14909 0.20171
#
# Static dielectric constant tensor:
#      x y z
#    x 4.385790 0.000000 -0.109160 
#    y 0.000000 3.693030 0.000000 
#    z -0.109160 0.000000 4.531270 
# 
# 
# High freq. dielectric constant tensor:
#      x y z
#    x 1.921140 0.000000 0.008040 
#    y 0.000000 1.878190 0.000000 
#    z 0.008040 0.000000 1.912580 
# 
# From -- ./inp_files/11517.got.cif
#   From: 2010.06.25/outbox.cif.g09.slc.cpg/sg13_6_cif.got.tgz:11517.got - 2010.06.28 04:50:58.
