data_PCOD8119342
_publ_section_title
;
Structure prediction by ZEFSAII (Michael W. Deem and Ramdas Pophale) SiO2 
 PCOD8119342
Probable space group: P 2/C
;
_chemical_formula_sum "Si O2"
_cell_formula_units_Z 28
_cell_length_a 6.589420
_cell_length_b 8.654328
_cell_length_c 29.407128
_cell_angle_alpha 90.000000
_cell_angle_beta 56.468540
_cell_angle_gamma 90.000000
_cell_volume 1397.918374
_symmetry_space_group_name_H-M "P 2/C"
_symmetry_group_IT_number 13
_symmetry_cell_setting 'monoclinic'
loop_
_space_group_symop_operation_xyz
x,y,z
-x,y,1/2-z
-x,-y,-z
x,-y,1/2+z
loop_
_atom_site_type_symbol
_atom_site_label
_atom_site_fract_x
_atom_site_fract_y
_atom_site_fract_z
Si Si1 0.944978 0.347877 0.809707
Si Si2 0.517079 0.134516 0.623162
Si Si3 0.272904 0.919771 0.306609
Si Si4 0.819485 0.070450 0.391675
Si Si5 0.747718 0.432185 0.407751
Si Si6 0.967421 0.885132 0.463480
Si Si7 0.782280 0.568307 0.500232
O O1 0.689775 0.260246 0.844359
O O2 0.900572 0.500333 0.845948
O O3 0.000000 0.390155 0.750000
O O4 0.167444 0.248102 0.803560
O O5 0.606736 0.068997 0.659429
O O6 0.769779 0.201920 0.572107
O O7 0.421531 0.995462 0.602897
O O8 0.500000 0.976853 0.250000
O O9 0.052134 0.042234 0.329827
O O10 0.788735 0.249774 0.404697
O O11 0.872651 0.974394 0.430811
O O12 0.836773 0.504694 0.443431
O O13 0.462942 0.479307 0.442857
O O14 0.771666 0.754262 0.499093
O O15 0.000000 0.000000 0.500000
O O16 0.000000 0.500000 0.500000
#
# Coordination Sequence:
#
# PCOD8119342 Si02
#       7
#     4   4   4   4   4   4   4
#     4  11  22  40  64  88 119 164 206 252 306 372
#     4  10  20  38  62  88 116 154 207 253 295 361
#     4  10  20  40  65  87 112 156 211 249 299 360
#     4  10  23  38  60  91 126 158 200 258 307 363
#     4  11  24  41  58  93 130 159 205 251 311 371
#     4  11  22  38  64  93 121 163 208 249 306 366
#     4  11  23  40  65  89 126 168 202 253 307 367
#
# _framework density 20.029779999999999
#
# number of rings (size 3 to 8) (size 9 to 14) (size 15 to 20)
#    0.000    1.429    1.429    5.143    0.000    5.714 
#    2.571    0.714    0.000    0.000    0.000    0.000 
#    0.000    0.000    0.000    0.000    0.000    0.000 
#
# Total GULP energy -346902.360900 kJ/mol
# GULP energy per Si atom -12389.370032 kJ/mol
# Density = 1.998419 g / cm^3
# Si number density = 20.029780 Si / 1000 Ang^3
#
#
#
# Elastic Constant Matrix: (Units=GPa)
#
#
# Indices 1 2 3 4 5 6 
#
# 1 133.8426 38.7449 41.4370 0.0000 15.6515 0.0000
# 2 38.7449 104.4089 31.8752 0.0000 19.3315 0.0000
# 3 41.4370 31.8752 113.7836 0.0000 10.3974 0.0000
# 4 0.0000 0.0000 0.0000 8.5543 0.0000 -4.3030
# 5 15.6515 19.3315 10.3974 0.0000 19.2683 0.0000
# 6 0.0000 0.0000 0.0000 -4.3030 0.0000 24.9612
#
#
#
# Elastic Compliance Matrix: (Units=1/GPa)
#
#
# Indices 1 2 3 4 5 6 
#
# 1 0.009285 -0.001897 -0.002456 0.000000 -0.004314 0.000000
# 2 -0.001897 0.012770 -0.001953 0.000000 -0.010217 0.000000
# 3 -0.002456 -0.001953 0.010381 0.000000 -0.001647 0.000000
# 4 0.000000 0.000000 0.000000 0.128000 0.000000 0.022066
# 5 -0.004314 -0.010217 -0.001647 0.000000 0.066542 0.000000
# 6 0.000000 0.000000 0.000000 0.022066 0.000000 0.043866
#
#
# Mechanical properties :
#
#
# Convention : Reuss Voigt Hill
#
# Bulk Modulus (GPa) = 50.44419 64.01658 57.23038
# Shear Modulus (GPa) = 17.23763 26.55530 21.89646
#
# Velocity S-wave (km/s) = 2.93678 3.64509 3.30994
# Velocity P-wave (km/s) = 6.06126 7.05306 6.57588
#
# Compressibility (1/GPa) = 0.01982389
#
# Stress axis : x y z
#
# Youngs Moduli (GPa) = 107.69528 78.31120 96.33411
#
# Poissons Ratio (x) = 0.14858 0.23658
# Poissons Ratio (y) = 0.20433 0.18812
# Poissons Ratio (z) = 0.26448 0.15292
#
# Static dielectric constant tensor:
#      x y z
#    x 3.995860 0.000000 -0.272400 
#    y 0.000000 3.515540 0.000000 
#    z -0.272400 0.000000 4.459360 
# 
# 
# High freq. dielectric constant tensor:
#      x y z
#    x 1.803700 0.000000 -0.004810 
#    y 0.000000 1.761530 0.000000 
#    z -0.004810 0.000000 1.792140 
# 
# From -- ./inp_files/94973.got.cif
#   From: 2010.06.25/outbox.cif.g09.slc.cpg/sg13_48_cif.got.tgz:94973.got - 2010.06.28 04:50:58.
