data_PCOD8119329
_publ_section_title
;
Structure prediction by ZEFSAII (Michael W. Deem and Ramdas Pophale) SiO2 
 PCOD8119329
Probable space group: P 2/C
;
_chemical_formula_sum "Si O2"
_cell_formula_units_Z 32
_cell_length_a 12.592927
_cell_length_b 11.689134
_cell_length_c 12.934291
_cell_angle_alpha 90.000000
_cell_angle_beta 121.337146
_cell_angle_gamma 90.000000
_cell_volume 1626.190710
_symmetry_space_group_name_H-M "P 2/C"
_symmetry_group_IT_number 13
_symmetry_cell_setting 'monoclinic'
loop_
_space_group_symop_operation_xyz
x,y,z
-x,y,1/2-z
-x,-y,-z
x,-y,1/2+z
loop_
_atom_site_type_symbol
_atom_site_label
_atom_site_fract_x
_atom_site_fract_y
_atom_site_fract_z
Si Si1 0.748073 0.275752 0.090839
Si Si2 0.534654 0.179348 0.875750
Si Si3 0.104360 0.441623 0.217528
Si Si4 0.098223 0.697174 0.207390
Si Si5 0.814909 0.917770 0.776151
Si Si6 0.291400 0.864760 0.374853
Si Si7 0.630776 0.058635 0.367980
Si Si8 0.974147 0.239501 0.050442
O O1 0.772026 0.395408 0.161727
O O2 0.747048 0.175018 0.172607
O O3 0.848973 0.252916 0.052439
O O4 0.608616 0.277263 0.975088
O O5 0.500000 0.238121 0.750000
O O6 0.416314 0.125033 0.871806
O O7 0.626205 0.072904 0.901209
O O8 0.125816 0.567574 0.181947
O O9 0.063237 0.350578 0.109513
O O10 0.000000 0.449803 0.250000
O O11 0.227067 0.744229 0.317870
O O12 0.000000 0.703645 0.250000
O O13 0.054628 0.770869 0.086020
O O14 0.743463 0.928727 0.846945
O O15 0.955793 0.875435 0.873256
O O16 0.807318 0.036530 0.708259
O O17 0.332545 0.865145 0.514866
O O18 0.500000 0.097963 0.250000
#
# Coordination Sequence:
#
# PCOD8119329 Si02
#       8
#     4   4   4   4   4   4   4   4
#     4  10  20  38  62  85 113 153 199 240 286 339
#     4  11  20  36  58  83 112 155 200 232 277 347
#     4   8  18  38  61  82 109 152 198 239 285 348
#     4  11  23  38  56  85 120 151 190 240 299 341
#     4  11  21  36  56  86 118 147 193 234 287 342
#     4  12  23  36  55  85 120 153 187 238 291 349
#     4  11  21  36  57  80 113 155 195 229 278 344
#     4  10  21  37  61  86 113 156 196 239 285 346
#
# _framework density 19.677886999999998
#
# number of rings (size 3 to 8) (size 9 to 14) (size 15 to 20)
#    0.000    1.500    3.750    4.125    0.000    1.500 
#    0.000    0.625    0.000    0.750    0.000    0.000 
#    0.000    0.000    0.000    0.000    0.000    0.000 
#
# Total GULP energy -396710.314576 kJ/mol
# GULP energy per Si atom -12397.197331 kJ/mol
# Density = 1.963310 g / cm^3
# Si number density = 19.677887 Si / 1000 Ang^3
#
#
#
# Elastic Constant Matrix: (Units=GPa)
#
#
# Indices 1 2 3 4 5 6 
#
# 1 48.3087 19.9139 22.3263 0.0000 -1.5023 0.0000
# 2 19.9139 70.1798 30.4962 0.0000 14.8863 0.0000
# 3 22.3263 30.4962 130.0776 0.0000 12.3293 0.0000
# 4 0.0000 0.0000 0.0000 26.0783 0.0000 0.6395
# 5 -1.5023 14.8863 12.3293 0.0000 37.0573 0.0000
# 6 0.0000 0.0000 0.0000 0.6395 0.0000 16.5682
#
#
#
# Elastic Compliance Matrix: (Units=1/GPa)
#
#
# Indices 1 2 3 4 5 6 
#
# 1 0.025104 -0.006758 -0.003178 0.000000 0.004790 0.000000
# 2 -0.006758 0.018763 -0.002580 0.000000 -0.006953 0.000000
# 3 -0.003178 -0.002580 0.009037 0.000000 -0.002099 0.000000
# 4 0.000000 0.000000 0.000000 0.038382 0.000000 -0.001481
# 5 0.004790 -0.006953 -0.002099 0.000000 0.030671 0.000000
# 6 0.000000 0.000000 0.000000 -0.001481 0.000000 0.060414
#
#
# Mechanical properties :
#
#
# Convention : Reuss Voigt Hill
#
# Bulk Modulus (GPa) = 35.88000 43.78211 39.83106
# Shear Modulus (GPa) = 23.07403 27.66274 25.36838
#
# Velocity S-wave (km/s) = 3.42802 3.75344 3.59441
# Velocity P-wave (km/s) = 5.82595 6.40953 6.12469
#
# Compressibility (1/GPa) = 0.02787068
#
# Stress axis : x y z
#
# Youngs Moduli (GPa) = 39.83431 53.29735 110.65550
#
# Poissons Ratio (x) = 0.36020 0.35171
# Poissons Ratio (y) = 0.26921 0.28547
# Poissons Ratio (z) = 0.12661 0.13750
#
# Static dielectric constant tensor:
#      x y z
#    x 3.389230 0.000000 0.040550 
#    y 0.000000 3.673900 0.000000 
#    z 0.040550 0.000000 3.978600 
# 
# 
# High freq. dielectric constant tensor:
#      x y z
#    x 1.751360 0.000000 -0.002340 
#    y 0.000000 1.741520 0.000000 
#    z -0.002340 0.000000 1.788330 
# 
# From -- ./inp_files/34185.got.cif
#   From: 2010.06.25/outbox.cif.g09.slc.cpg/sg13_18_cif.got.tgz:34185.got - 2010.06.28 04:50:58.
