data_PCOD8119349
_publ_section_title
;
Structure prediction by ZEFSAII (Michael W. Deem and Ramdas Pophale) SiO2 
 PCOD8119349
Probable space group: P 2/C
;
_chemical_formula_sum "Si O2"
_cell_formula_units_Z 24
_cell_length_a 14.423558
_cell_length_b 8.532496
_cell_length_c 10.209823
_cell_angle_alpha 90.000000
_cell_angle_beta 89.204065
_cell_angle_gamma 90.000000
_cell_volume 1256.390968
_symmetry_space_group_name_H-M "P 2/C"
_symmetry_group_IT_number 13
_symmetry_cell_setting 'monoclinic'
loop_
_space_group_symop_operation_xyz
x,y,z
-x,y,1/2-z
-x,-y,-z
x,-y,1/2+z
loop_
_atom_site_type_symbol
_atom_site_label
_atom_site_fract_x
_atom_site_fract_y
_atom_site_fract_z
Si Si1 0.704893 0.878325 0.983650
Si Si2 0.626653 0.606565 0.421680
Si Si3 0.893027 0.620878 0.247665
Si Si4 0.471987 0.711952 0.610607
Si Si5 0.265844 0.855059 0.224798
Si Si6 0.807800 0.560834 0.979596
O O1 0.600005 0.827446 0.956780
O O2 0.776871 0.738965 0.954821
O O3 0.733312 0.020862 0.891268
O O4 0.710757 0.932291 0.135333
O O5 0.563583 0.706623 0.520631
O O6 0.570322 0.460732 0.363701
O O7 0.658596 0.717148 0.301202
O O8 0.716952 0.547623 0.498663
O O9 0.836421 0.780481 0.272320
O O10 0.871012 0.491611 0.357741
O O11 0.000000 0.667104 0.250000
O O12 0.867277 0.543745 0.109584
O O13 0.500000 0.783462 0.750000
#
# Coordination Sequence:
#
# PCOD8119349 Si02
#       6
#     4   4   4   4   4   4
#     4  10  23  39  55  81 117 154 195 225 286 334
#     4   9  21  36  57  81 114 152 188 239 287 324
#     4  10  20  38  62  90 113 143 188 239 287 343
#     4  10  22  34  58  85 111 147 201 238 275 336
#     4  10  23  40  58  79 118 158 186 236 286 340
#     4   9  20  36  61  85 114 147 184 235 287 342
#
# _framework density 19.102333999999999
#
# number of rings (size 3 to 8) (size 9 to 14) (size 15 to 20)
#    0.000    2.333    0.000    0.500   16.333    2.000 
#    0.000    4.167    0.000    0.000    0.000    0.000 
#    0.000    0.000    0.000    0.000    0.000    0.000 
#
# Total GULP energy -297679.917081 kJ/mol
# GULP energy per Si atom -12403.329878 kJ/mol
# Density = 1.905886 g / cm^3
# Si number density = 19.102334 Si / 1000 Ang^3
#
#
#
# Elastic Constant Matrix: (Units=GPa)
#
#
# Indices 1 2 3 4 5 6 
#
# 1 126.3649 30.3166 57.3314 0.0000 0.7259 0.0000
# 2 30.3166 69.8504 54.7125 0.0000 -1.4477 0.0000
# 3 57.3314 54.7125 151.7211 0.0000 12.9105 0.0000
# 4 0.0000 0.0000 0.0000 37.9498 0.0000 -6.9685
# 5 0.7259 -1.4477 12.9105 0.0000 24.8745 0.0000
# 6 0.0000 0.0000 0.0000 -6.9685 0.0000 12.4574
#
#
#
# Elastic Compliance Matrix: (Units=1/GPa)
#
#
# Indices 1 2 3 4 5 6 
#
# 1 0.009760 -0.001724 -0.003174 0.000000 0.001262 0.000000
# 2 -0.001724 0.020900 -0.007316 0.000000 0.005064 0.000000
# 3 -0.003174 -0.007316 0.010940 0.000000 -0.006011 0.000000
# 4 0.000000 0.000000 0.000000 0.029367 0.000000 0.016428
# 5 0.001262 0.005064 -0.006011 0.000000 0.043580 0.000000
# 6 0.000000 0.000000 0.000000 0.016428 0.000000 0.089463
#
#
# Mechanical properties :
#
#
# Convention : Reuss Voigt Hill
#
# Bulk Modulus (GPa) = 58.23336 70.29526 64.26431
# Shear Modulus (GPa) = 21.35268 28.76140 25.05704
#
# Velocity S-wave (km/s) = 3.34699 3.88448 3.62571
# Velocity P-wave (km/s) = 6.74445 7.54971 7.15841
#
# Compressibility (1/GPa) = 0.01717229
#
# Stress axis : x y z
#
# Youngs Moduli (GPa) = 102.46076 47.84626 91.40583
#
# Poissons Ratio (x) = 0.08248 0.29010
# Poissons Ratio (y) = 0.17663 0.66876
# Poissons Ratio (z) = 0.32518 0.35006
#
# Static dielectric constant tensor:
#      x y z
#    x 3.478310 0.000000 -0.042940 
#    y 0.000000 3.329770 0.000000 
#    z -0.042940 0.000000 3.553240 
# 
# 
# High freq. dielectric constant tensor:
#      x y z
#    x 1.740150 0.000000 -0.001220 
#    y 0.000000 1.727410 0.000000 
#    z -0.001220 0.000000 1.752970 
# 
# From -- ./inp_files/18059.got.cif
#   From: 2010.06.25/outbox.cif.g09.slc.cpg/sg13_10_cif.got.tgz:18059.got - 2010.06.28 04:50:58.
