data_PCOD8119918
_publ_section_title
;
Structure prediction by ZEFSAII (Michael W. Deem and Ramdas Pophale) SiO2 
 PCOD8119918
Probable space group: P 2/C
;
_chemical_formula_sum "Si O2"
_cell_formula_units_Z 28
_cell_length_a 16.486566
_cell_length_b 10.336584
_cell_length_c 13.715628
_cell_angle_alpha 90.000000
_cell_angle_beta 144.719704
_cell_angle_gamma 90.000000
_cell_volume 1349.996904
_symmetry_space_group_name_H-M "P 2/C"
_symmetry_group_IT_number 13
_symmetry_cell_setting 'monoclinic'
loop_
_space_group_symop_operation_xyz
x,y,z
-x,y,1/2-z
-x,-y,-z
x,-y,1/2+z
loop_
_atom_site_type_symbol
_atom_site_label
_atom_site_fract_x
_atom_site_fract_y
_atom_site_fract_z
Si Si1 0.857927 0.255382 0.149717
Si Si2 0.504077 0.167503 0.968296
Si Si3 0.408164 0.303078 0.064070
Si Si4 0.841852 0.157673 0.624700
Si Si5 0.244503 0.044274 0.604243
Si Si6 0.806659 0.049836 0.249868
Si Si7 0.406348 0.405815 0.564593
O O1 0.872819 0.181187 0.269177
O O2 0.000000 0.320334 0.250000
O O3 0.820058 0.152621 0.028628
O O4 0.751398 0.373093 0.056428
O O5 0.391092 0.099236 0.787698
O O6 0.544240 0.308404 0.969418
O O7 0.450008 0.195480 0.024675
O O8 0.637325 0.071278 0.096877
O O9 0.500000 0.282839 0.250000
O O10 0.419531 0.449446 0.035288
O O11 0.244199 0.285758 0.931587
O O12 0.000000 0.195130 0.750000
O O13 0.745576 0.086686 0.448736
O O14 0.850947 0.066471 0.725942
O O15 0.141683 0.998969 0.592728
O O16 0.500000 0.385799 0.750000
#
# Coordination Sequence:
#
# PCOD8119918 Si02
#       7
#     4   4   4   4   4   4   4
#     4  10  22  37  59  89 117 159 200 237 294 354
#     4  11  21  38  63  92 113 153 203 246 298 342
#     4  11  24  41  63  86 120 154 201 248 296 344
#     4  11  25  38  55  92 126 158 193 235 298 359
#     4  11  20  36  61  85 124 153 192 239 295 359
#     4  10  21  35  58  88 121 150 195 238 296 345
#     4  10  21  41  63  87 114 156 201 254 288 339
#
# _framework density 20.740787000000001
#
# number of rings (size 3 to 8) (size 9 to 14) (size 15 to 20)
#    0.000    1.429    2.857    3.429    2.000    2.857 
#    0.000    0.000    0.000    0.857    0.000    0.000 
#    0.000    0.000    0.000    0.000    0.000    0.000 
#
# Total GULP energy -346944.063932 kJ/mol
# GULP energy per Si atom -12390.859426 kJ/mol
# Density = 2.069358 g / cm^3
# Si number density = 20.740787 Si / 1000 Ang^3
#
#
#
# Elastic Constant Matrix: (Units=GPa)
#
#
# Indices 1 2 3 4 5 6 
#
# 1 103.1961 14.8189 27.9780 0.0000 8.6659 0.0000
# 2 14.8189 54.5829 22.0390 0.0000 3.4355 0.0000
# 3 27.9780 22.0390 45.6312 0.0000 9.1546 0.0000
# 4 0.0000 0.0000 0.0000 15.7343 0.0000 -7.9003
# 5 8.6659 3.4355 9.1546 0.0000 42.0495 0.0000
# 6 0.0000 0.0000 0.0000 -7.9003 0.0000 39.4332
#
#
#
# Elastic Compliance Matrix: (Units=1/GPa)
#
#
# Indices 1 2 3 4 5 6 
#
# 1 0.011660 -0.000367 -0.006792 0.000000 -0.000894 0.000000
# 2 -0.000367 0.022783 -0.010897 0.000000 0.000586 0.000000
# 3 -0.006792 -0.010897 0.032293 0.000000 -0.004741 0.000000
# 4 0.000000 0.000000 0.000000 0.070664 0.000000 0.014157
# 5 -0.000894 0.000586 -0.004741 0.000000 0.024950 0.000000
# 6 0.000000 0.000000 0.000000 0.014157 0.000000 0.028196
#
#
# Mechanical properties :
#
#
# Convention : Reuss Voigt Hill
#
# Bulk Modulus (GPa) = 32.65338 37.00909 34.83123
# Shear Modulus (GPa) = 21.10905 28.68169 24.89537
#
# Velocity S-wave (km/s) = 3.19369 3.72272 3.46831
# Velocity P-wave (km/s) = 5.42008 6.02997 5.73314
#
# Compressibility (1/GPa) = 0.03062470
#
# Stress axis : x y z
#
# Youngs Moduli (GPa) = 85.76668 43.89213 30.96611
#
# Poissons Ratio (x) = 0.01609 0.21033
# Poissons Ratio (y) = 0.03145 0.33743
# Poissons Ratio (z) = 0.58256 0.47828
#
# Static dielectric constant tensor:
#      x y z
#    x 4.158870 0.000000 -0.030370 
#    y 0.000000 3.685290 0.000000 
#    z -0.030370 0.000000 3.700710 
# 
# 
# High freq. dielectric constant tensor:
#      x y z
#    x 1.832140 0.000000 -0.000590 
#    y 0.000000 1.797970 0.000000 
#    z -0.000590 0.000000 1.802220 
# 
# From -- ./inp_files/53539.got.cif
#   From: 2010.06.25/outbox.cif.g09.slc.cpg/sg13_27_cif.got.tgz:53539.got - 2010.06.28 04:50:58.
