data_PCOD8119574
_publ_section_title
;
Structure prediction by ZEFSAII (Michael W. Deem and Ramdas Pophale) SiO2 
 PCOD8119574
Probable space group: P 2/C
;
_chemical_formula_sum "Si O2"
_cell_formula_units_Z 26
_cell_length_a 12.996166
_cell_length_b 8.584774
_cell_length_c 19.334275
_cell_angle_alpha 90.000000
_cell_angle_beta 38.215982
_cell_angle_gamma 90.000000
_cell_volume 1334.446860
_symmetry_space_group_name_H-M "P 2/C"
_symmetry_group_IT_number 13
_symmetry_cell_setting 'monoclinic'
loop_
_space_group_symop_operation_xyz
x,y,z
-x,y,1/2-z
-x,-y,-z
x,-y,1/2+z
loop_
_atom_site_type_symbol
_atom_site_label
_atom_site_fract_x
_atom_site_fract_y
_atom_site_fract_z
Si Si1 0.500000 0.295193 0.750000
Si Si2 0.872781 0.080400 0.728457
Si Si3 0.500000 0.204095 0.250000
Si Si4 0.954999 0.571813 0.141599
Si Si5 0.811017 0.068816 0.399704
Si Si6 0.000000 0.355120 0.250000
Si Si7 0.762624 0.455612 0.109688
Si Si8 0.471412 0.957414 0.155042
O O1 0.347030 0.398736 0.856394
O O2 0.558736 0.194627 0.783421
O O3 0.886673 0.259756 0.699201
O O4 0.709618 0.002576 0.779984
O O5 0.833338 0.066362 0.830709
O O6 0.043638 0.981160 0.620764
O O7 0.658571 0.305396 0.184721
O O8 0.540204 0.100496 0.162543
O O9 0.854854 0.494842 0.131784
O O10 0.949633 0.461987 0.211610
O O11 0.136763 0.588371 0.012552
O O12 0.620220 0.073579 0.523082
O O13 0.846666 0.242051 0.351377
#
# Coordination Sequence:
#
# PCOD8119574 Si02
#       8
#     2   4   2   4   4   2   4   4
#     4  10  20  40  58  88 120 154 200 244 298 360
#     4  10  21  39  61  86 119 158 198 243 299 357
#     4  10  24  36  60  84 118 152 204 246 292 360
#     4  11  21  39  63  87 118 159 198 244 308 350
#     4  10  23  39  61  88 123 155 199 249 297 357
#     4  10  22  38  62  90 118 154 204 252 290 364
#     4  10  22  39  60  87 121 156 194 252 297 357
#     4  11  21  40  61  88 119 160 196 250 297 352
#
# _framework density 19.483727999999999
#
# number of rings (size 3 to 8) (size 9 to 14) (size 15 to 20)
#    0.000    1.846    1.538    3.231    4.308    0.000 
#    0.000    3.077    0.000    0.000    0.000    0.000 
#    0.000    0.000    0.000    0.000    0.000    0.000 
#
# Total GULP energy -322172.696599 kJ/mol
# GULP energy per Si atom -12391.257561 kJ/mol
# Density = 1.943938 g / cm^3
# Si number density = 19.483728 Si / 1000 Ang^3
#
#
#
# Elastic Constant Matrix: (Units=GPa)
#
#
# Indices 1 2 3 4 5 6 
#
# 1 85.2100 21.3547 30.2245 0.0000 -2.1810 0.0000
# 2 21.3547 94.3628 37.0700 0.0000 9.8943 0.0000
# 3 30.2245 37.0700 99.2542 0.0000 -7.0884 0.0000
# 4 0.0000 0.0000 0.0000 5.5839 0.0000 14.7912
# 5 -2.1810 9.8943 -7.0884 0.0000 28.7956 0.0000
# 6 0.0000 0.0000 0.0000 14.7912 0.0000 71.5477
#
#
#
# Elastic Compliance Matrix: (Units=1/GPa)
#
#
# Indices 1 2 3 4 5 6 
#
# 1 0.013396 -0.001801 -0.003349 0.000000 0.000809 0.000000
# 2 -0.001801 0.013583 -0.004955 0.000000 -0.006023 0.000000
# 3 -0.003349 -0.004955 0.013282 0.000000 0.004719 0.000000
# 4 0.000000 0.000000 0.000000 0.395863 0.000000 -0.081837
# 5 0.000809 -0.006023 0.004719 0.000000 0.038020 0.000000
# 6 0.000000 0.000000 0.000000 -0.081837 0.000000 0.030895
#
#
# Mechanical properties :
#
#
# Convention : Reuss Voigt Hill
#
# Bulk Modulus (GPa) = 49.86998 50.68061 50.27530
# Shear Modulus (GPa) = 9.39970 33.86396 21.63183
#
# Velocity S-wave (km/s) = 2.19883 4.17353 3.33566
# Velocity P-wave (km/s) = 5.66549 7.02088 6.37928
#
# Compressibility (1/GPa) = 0.02005214
#
# Stress axis : x y z
#
# Youngs Moduli (GPa) = 74.65164 73.62167 75.28720
#
# Poissons Ratio (x) = 0.13257 0.25213
# Poissons Ratio (y) = 0.13443 0.37304
# Poissons Ratio (z) = 0.25000 0.36478
#
# Static dielectric constant tensor:
#      x y z
#    x 3.754430 0.000000 -0.177470 
#    y 0.000000 3.548150 0.000000 
#    z -0.177470 0.000000 3.720800 
# 
# 
# High freq. dielectric constant tensor:
#      x y z
#    x 1.759890 0.000000 -0.008480 
#    y 0.000000 1.766040 0.000000 
#    z -0.008480 0.000000 1.759840 
# 
# From -- ./inp_files/65978.got.cif
#   From: 2010.06.25/outbox.cif.g09.slc.cpg/sg13_33_cif.got.tgz:65978.got - 2010.06.28 04:50:58.
