data_PCOD8119588
_publ_section_title
;
Structure prediction by ZEFSAII (Michael W. Deem and Ramdas Pophale) SiO2 
 PCOD8119588
Probable space group: P 2/C
;
_chemical_formula_sum "Si O2"
_cell_formula_units_Z 32
_cell_length_a 17.646731
_cell_length_b 12.119449
_cell_length_c 13.453045
_cell_angle_alpha 90.000000
_cell_angle_beta 32.743053
_cell_angle_gamma 90.000000
_cell_volume 1556.190039
_symmetry_space_group_name_H-M "P 2/C"
_symmetry_group_IT_number 13
_symmetry_cell_setting 'monoclinic'
loop_
_space_group_symop_operation_xyz
x,y,z
-x,y,1/2-z
-x,-y,-z
x,-y,1/2+z
loop_
_atom_site_type_symbol
_atom_site_label
_atom_site_fract_x
_atom_site_fract_y
_atom_site_fract_z
Si Si1 0.130311 0.898046 0.769047
Si Si2 0.470706 0.463362 0.176936
Si Si3 0.352491 0.008882 0.871379
Si Si4 0.860361 0.712036 0.606128
Si Si5 0.266279 0.483545 0.747696
Si Si6 0.672532 0.753116 0.626467
Si Si7 0.177971 0.270201 0.742448
Si Si8 0.818194 0.071749 0.626563
O O1 0.226581 0.955821 0.581796
O O2 0.176690 0.773901 0.748648
O O3 0.149334 0.958932 0.853212
O O4 0.967760 0.894995 0.911257
O O5 0.500000 0.519549 0.250000
O O6 0.324008 0.512366 0.297277
O O7 0.457496 0.328760 0.203362
O O8 0.598291 0.500894 0.969144
O O9 0.500000 0.058690 0.750000
O O10 0.308204 0.057246 0.812964
O O11 0.374831 0.877624 0.841446
O O12 0.842991 0.582547 0.647418
O O13 0.770227 0.754366 0.613912
O O14 0.015206 0.744034 0.400227
O O15 0.192233 0.369773 0.804850
O O16 0.746699 0.705599 0.445179
O O17 0.236533 0.161689 0.733118
#
# Coordination Sequence:
#
# PCOD8119588 Si02
#       8
#     4   4   4   4   4   4   4   4
#     4  10  21  42  64  89 127 167 207 254 316 379
#     4  10  20  40  60  86 118 163 198 245 313 375
#     4  12  25  40  60  97 129 169 212 261 314 372
#     4  10  22  40  64  93 122 160 206 260 311 375
#     4  10  22  39  62  89 122 161 202 255 311 368
#     4  11  21  37  66  94 121 154 209 263 313 368
#     4  11  21  39  65  94 121 156 211 263 308 366
#     4  10  22  40  64  91 126 167 205 257 318 370
#
# _framework density 20.563040999999998
#
# number of rings (size 3 to 8) (size 9 to 14) (size 15 to 20)
#    0.000    1.500    3.750    1.500    0.000    1.500 
#    9.000    0.000    0.000    0.000    0.000    0.000 
#    0.000    0.000    0.000    0.000    0.000    0.000 
#
# Total GULP energy -396629.345480 kJ/mol
# GULP energy per Si atom -12394.667046 kJ/mol
# Density = 2.051624 g / cm^3
# Si number density = 20.563041 Si / 1000 Ang^3
#
#
#
# Elastic Constant Matrix: (Units=GPa)
#
#
# Indices 1 2 3 4 5 6 
#
# 1 103.6537 21.5946 11.3066 0.0000 -14.6034 0.0000
# 2 21.5946 69.1091 1.2451 0.0000 -1.1747 0.0000
# 3 11.3066 1.2451 42.7410 0.0000 0.1885 0.0000
# 4 0.0000 0.0000 0.0000 26.2431 0.0000 5.3534
# 5 -14.6034 -1.1747 0.1885 0.0000 29.0946 0.0000
# 6 0.0000 0.0000 0.0000 5.3534 0.0000 27.1852
#
#
#
# Elastic Compliance Matrix: (Units=1/GPa)
#
#
# Indices 1 2 3 4 5 6 
#
# 1 0.011482 -0.003439 -0.002962 0.000000 0.005644 0.000000
# 2 -0.003439 0.015517 0.000462 0.000000 -0.001102 0.000000
# 3 -0.002962 0.000462 0.024174 0.000000 -0.001625 0.000000
# 4 0.000000 0.000000 0.000000 0.039700 0.000000 -0.007818
# 5 0.005644 -0.001102 -0.001625 0.000000 0.037169 0.000000
# 6 0.000000 0.000000 0.000000 -0.007818 0.000000 0.038324
#
#
# Mechanical properties :
#
#
# Convention : Reuss Voigt Hill
#
# Bulk Modulus (GPa) = 25.44732 31.53294 28.49013
# Shear Modulus (GPa) = 26.13117 28.59507 27.36312
#
# Velocity S-wave (km/s) = 3.56867 3.73313 3.65183
# Velocity P-wave (km/s) = 5.42058 5.82664 5.62727
#
# Compressibility (1/GPa) = 0.03929686
#
# Stress axis : x y z
#
# Youngs Moduli (GPa) = 87.09220 64.44438 41.36674
#
# Poissons Ratio (x) = 0.22159 0.12253
# Poissons Ratio (y) = 0.29947 -0.01913
# Poissons Ratio (z) = 0.25798 -0.02980
#
# Static dielectric constant tensor:
#      x y z
#    x 4.008530 0.000000 -0.130570 
#    y 0.000000 3.707080 0.000000 
#    z -0.130570 0.000000 3.524340 
# 
# 
# High freq. dielectric constant tensor:
#      x y z
#    x 1.820370 0.000000 -0.011900 
#    y 0.000000 1.796850 0.000000 
#    z -0.011900 0.000000 1.787830 
# 
# From -- ./inp_files/55788.got.cif
#   From: 2010.06.25/outbox.cif.g09.slc.cpg/sg13_28_cif.got.tgz:55788.got - 2010.06.28 04:50:58.
