data_PCOD8119980
_publ_section_title
;
Structure prediction by ZEFSAII (Michael W. Deem and Ramdas Pophale) SiO2 
 PCOD8119980
Probable space group: P 2/C
;
_chemical_formula_sum "Si O2"
_cell_formula_units_Z 24
_cell_length_a 14.831284
_cell_length_b 9.472069
_cell_length_c 18.031879
_cell_angle_alpha 90.000000
_cell_angle_beta 28.597862
_cell_angle_gamma 90.000000
_cell_volume 1212.525566
_symmetry_space_group_name_H-M "P 2/C"
_symmetry_group_IT_number 13
_symmetry_cell_setting 'monoclinic'
loop_
_space_group_symop_operation_xyz
x,y,z
-x,y,1/2-z
-x,-y,-z
x,-y,1/2+z
loop_
_atom_site_type_symbol
_atom_site_label
_atom_site_fract_x
_atom_site_fract_y
_atom_site_fract_z
Si Si1 0.038920 0.932487 0.639265
Si Si2 0.642892 0.913133 0.847513
Si Si3 0.303772 0.131572 0.355089
Si Si4 0.036813 0.611021 0.641729
Si Si5 0.825009 0.436694 0.080936
Si Si6 0.364149 0.596195 0.643742
O O1 0.112302 0.771083 0.591503
O O2 0.000000 0.991066 0.750000
O O3 0.850946 0.938259 0.727321
O O4 0.199730 0.025260 0.485494
O O5 0.650717 0.951678 0.754532
O O6 0.562706 0.755212 0.912553
O O7 0.500000 0.000000 0.000000
O O8 0.500000 0.181339 0.250000
O O9 0.167178 0.266896 0.438930
O O10 0.192309 0.517387 0.485301
O O11 0.000000 0.548624 0.750000
O O12 0.843835 0.595059 0.738021
O O13 0.643201 0.459985 0.265671
O O14 0.000000 0.500000 0.000000
O O15 0.500000 0.500000 0.500000
#
# Coordination Sequence:
#
# PCOD8119980 Si02
#       6
#     4   4   4   4   4   4
#     4  10  21  39  59  84 118 154 197 245 291 348
#     4  10  21  36  56  83 114 151 192 237 288 346
#     4  11  23  38  58  88 120 152 196 248 296 352
#     4   9  19  35  55  78 106 144 187 229 280 339
#     4   9  20  38  56  79 112 151 192 235 289 353
#     4   9  19  34  52  76 107 138 179 230 275 330
#
# _framework density 19.793396000000001
#
# number of rings (size 3 to 8) (size 9 to 14) (size 15 to 20)
#    0.000    2.333    0.000    2.500    0.000    7.333 
#    0.000    0.833    0.000    0.000    0.000    0.000 
#    0.000    0.000    0.000    0.000    0.000    0.000 
#
# Total GULP energy -297418.418254 kJ/mol
# GULP energy per Si atom -12392.434094 kJ/mol
# Density = 1.974834 g / cm^3
# Si number density = 19.793396 Si / 1000 Ang^3
#
#
#
# Elastic Constant Matrix: (Units=GPa)
#
#
# Indices 1 2 3 4 5 6 
#
# 1 99.4064 37.3537 48.3939 0.0000 33.6749 0.0000
# 2 37.3537 104.5057 89.6830 0.0000 28.3267 0.0000
# 3 48.3939 89.6830 139.3503 0.0000 47.9137 0.0000
# 4 0.0000 0.0000 0.0000 36.1697 0.0000 15.3300
# 5 33.6749 28.3267 47.9137 0.0000 50.8847 0.0000
# 6 0.0000 0.0000 0.0000 15.3300 0.0000 24.6497
#
#
#
# Elastic Compliance Matrix: (Units=1/GPa)
#
#
# Indices 1 2 3 4 5 6 
#
# 1 0.013703 -0.002191 -0.000961 0.000000 -0.006944 0.000000
# 2 -0.002191 0.021807 -0.014194 0.000000 0.002675 0.000000
# 3 -0.000961 -0.014194 0.020273 0.000000 -0.010551 0.000000
# 4 0.000000 0.000000 0.000000 0.037544 0.000000 -0.023349
# 5 -0.006944 0.002675 -0.010551 0.000000 0.032694 0.000000
# 6 0.000000 0.000000 0.000000 -0.023349 0.000000 0.055090
#
#
# Mechanical properties :
#
#
# Convention : Reuss Voigt Hill
#
# Bulk Modulus (GPa) = 47.41228 77.12483 62.26855
# Shear Modulus (GPa) = 22.43835 33.52960 27.98398
#
# Velocity S-wave (km/s) = 3.37059 4.12026 3.76414
# Velocity P-wave (km/s) = 6.25727 7.85398 7.10065
#
# Compressibility (1/GPa) = 0.02109158
#
# Stress axis : x y z
#
# Youngs Moduli (GPa) = 72.97529 45.85607 49.32720
#
# Poissons Ratio (x) = 0.10046 0.04743
# Poissons Ratio (y) = 0.15987 0.70014
# Poissons Ratio (z) = 0.07016 0.65087
#
# Static dielectric constant tensor:
#      x y z
#    x 3.888020 0.000000 0.334310 
#    y 0.000000 3.662400 0.000000 
#    z 0.334310 0.000000 3.503580 
# 
# 
# High freq. dielectric constant tensor:
#      x y z
#    x 1.779290 0.000000 0.028150 
#    y 0.000000 1.762570 0.000000 
#    z 0.028150 0.000000 1.770130 
# 
# From -- ./inp_files/68075.got.cif
#   From: 2010.06.25/outbox.cif.g09.slc.cpg/sg13_35_cif.got.tgz:68075.got - 2010.06.28 04:50:58.
