data_PCOD8119344
_publ_section_title
;
Structure prediction by ZEFSAII (Michael W. Deem and Ramdas Pophale) SiO2 
 PCOD8119344
Probable space group: P 2/C
;
_chemical_formula_sum "Si O2"
_cell_formula_units_Z 20
_cell_length_a 8.115899
_cell_length_b 6.321417
_cell_length_c 21.799508
_cell_angle_alpha 90.000000
_cell_angle_beta 124.478904
_cell_angle_gamma 90.000000
_cell_volume 921.937196
_symmetry_space_group_name_H-M "P 2/C"
_symmetry_group_IT_number 13
_symmetry_cell_setting 'monoclinic'
loop_
_space_group_symop_operation_xyz
x,y,z
-x,y,1/2-z
-x,-y,-z
x,-y,1/2+z
loop_
_atom_site_type_symbol
_atom_site_label
_atom_site_fract_x
_atom_site_fract_y
_atom_site_fract_z
Si Si1 0.694046 0.776709 0.829309
Si Si2 0.997055 0.514567 0.321171
Si Si3 0.317729 0.268014 0.454945
Si Si4 0.020425 0.892249 0.407118
Si Si5 0.310911 0.632983 0.538678
O O1 0.500000 0.848502 0.750000
O O2 0.823176 0.630596 0.812127
O O3 0.636819 0.647265 0.878521
O O4 0.817517 0.980994 0.879352
O O5 0.000000 0.499641 0.250000
O O6 0.211802 0.437054 0.388508
O O7 0.970423 0.757397 0.335902
O O8 0.324027 0.384074 0.523025
O O9 0.535009 0.231282 0.470930
O O10 0.202196 0.049729 0.432333
O O11 0.089705 0.733318 0.476938
#
# Coordination Sequence:
#
# PCOD8119344 Si02
#       5
#     4   4   4   4   4
#     4  11  24  39  58  86 120 155 193 242 293 342
#     4  10  22  39  57  82 117 156 197 240 289 344
#     4   9  20  38  62  87 115 154 193 236 288 345
#     4  10  22  38  61  89 116 153 195 240 289 343
#     4  10  20  38  62  89 118 150 193 239 288 347
#
# _framework density 21.693451
#
# number of rings (size 3 to 8) (size 9 to 14) (size 15 to 20)
#    0.000    2.000    0.000    2.400    0.000   14.400 
#    0.000    0.000    0.000    0.000    0.000    0.000 
#    0.000    0.000    0.000    0.000    0.000    0.000 
#
# Total GULP energy -247958.697288 kJ/mol
# GULP energy per Si atom -12397.934864 kJ/mol
# Density = 2.164408 g / cm^3
# Si number density = 21.693451 Si / 1000 Ang^3
#
#
#
# Elastic Constant Matrix: (Units=GPa)
#
#
# Indices 1 2 3 4 5 6 
#
# 1 83.1266 25.2788 45.9553 0.0000 2.1781 0.0000
# 2 25.2788 71.0335 13.6078 0.0000 0.0352 0.0000
# 3 45.9553 13.6078 114.6655 0.0000 -13.3551 0.0000
# 4 0.0000 0.0000 0.0000 24.3654 0.0000 6.0960
# 5 2.1781 0.0352 -13.3551 0.0000 43.8249 0.0000
# 6 0.0000 0.0000 0.0000 6.0960 0.0000 22.9183
#
#
#
# Elastic Compliance Matrix: (Units=1/GPa)
#
#
# Indices 1 2 3 4 5 6 
#
# 1 0.017282 -0.004868 -0.006685 0.000000 -0.002892 0.000000
# 2 -0.004868 0.015789 0.000108 0.000000 0.000262 0.000000
# 3 -0.006685 0.000108 0.011847 0.000000 0.003942 0.000000
# 4 0.000000 0.000000 0.000000 0.043968 0.000000 -0.011695
# 5 -0.002892 0.000262 0.003942 0.000000 0.024163 0.000000
# 6 0.000000 0.000000 0.000000 -0.011695 0.000000 0.046744
#
#
# Mechanical properties :
#
#
# Convention : Reuss Voigt Hill
#
# Bulk Modulus (GPa) = 45.39916 48.72325 47.06120
# Shear Modulus (GPa) = 26.31214 30.48731 28.39973
#
# Velocity S-wave (km/s) = 3.48646 3.75289 3.62213
# Velocity P-wave (km/s) = 6.09756 6.42554 6.26370
#
# Compressibility (1/GPa) = 0.02202684
#
# Stress axis : x y z
#
# Youngs Moduli (GPa) = 57.86414 63.33330 84.41149
#
# Poissons Ratio (x) = 0.30831 0.56432
# Poissons Ratio (y) = 0.28168 -0.00909
# Poissons Ratio (z) = 0.38684 -0.00682
#
# Static dielectric constant tensor:
#      x y z
#    x 3.842610 0.000000 0.225090 
#    y 0.000000 3.966830 0.000000 
#    z 0.225090 0.000000 3.915800 
# 
# 
# High freq. dielectric constant tensor:
#      x y z
#    x 1.848790 0.000000 0.009820 
#    y 0.000000 1.853570 0.000000 
#    z 0.009820 0.000000 1.849780 
# 
# From -- ./inp_files/62323.got.cif
#   From: 2010.06.25/outbox.cif.g09.slc.cpg/sg13_32_cif.got.tgz:62323.got - 2010.06.28 04:50:58.
