data_PCOD8119232
_publ_section_title
;
Structure prediction by ZEFSAII (Michael W. Deem and Ramdas Pophale) SiO2 
 PCOD8119232
Probable space group: P 2/C
;
_chemical_formula_sum "Si O2"
_cell_formula_units_Z 18
_cell_length_a 24.424203
_cell_length_b 8.409485
_cell_length_c 9.826657
_cell_angle_alpha 90.000000
_cell_angle_beta 25.257390
_cell_angle_gamma 90.000000
_cell_volume 861.198716
_symmetry_space_group_name_H-M "P 2/C"
_symmetry_group_IT_number 13
_symmetry_cell_setting 'monoclinic'
loop_
_space_group_symop_operation_xyz
x,y,z
-x,y,1/2-z
-x,-y,-z
x,-y,1/2+z
loop_
_atom_site_type_symbol
_atom_site_label
_atom_site_fract_x
_atom_site_fract_y
_atom_site_fract_z
Si Si1 0.854505 0.460613 0.862532
Si Si2 0.800397 0.111555 0.073451
Si Si3 0.224191 0.328762 0.719202
Si Si4 0.353227 0.038811 0.350724
Si Si5 0.000000 0.102525 0.250000
O O1 0.771435 0.461201 0.909592
O O2 0.000000 0.500000 0.500000
O O3 0.841091 0.294739 0.971753
O O4 0.794053 0.598464 0.091429
O O5 0.717483 0.046970 0.134780
O O6 0.714837 0.093626 0.402529
O O7 0.929339 0.005633 0.795962
O O8 0.347169 0.212734 0.439187
O O9 0.104231 0.215337 0.942366
O O10 0.500000 0.000000 0.000000
#
# Coordination Sequence:
#
# PCOD8119232 Si02
#       5
#     4   4   4   4   2
#     4  11  21  37  57  93 134 165 193 250 325 383
#     4  10  24  37  66  94 126 163 212 258 321 372
#     4  10  22  38  60  94 126 162 209 250 313 387
#     4  10  22  45  65  88 122 167 222 267 298 361
#     4  10  20  38  56  98 126 156 208 256 316 380
#
# _framework density 20.9011
#
# number of rings (size 3 to 8) (size 9 to 14) (size 15 to 20)
#    0.000    1.778    2.222    0.667    3.111   11.556 
#    0.000    1.111    0.000    8.000    0.000    0.000 
#    0.000    0.000    0.000    0.000    0.000    0.000 
#
# Total GULP energy -223138.719411 kJ/mol
# GULP energy per Si atom -12396.595523 kJ/mol
# Density = 2.085353 g / cm^3
# Si number density = 20.901100 Si / 1000 Ang^3
#
#
#
# Elastic Constant Matrix: (Units=GPa)
#
#
# Indices 1 2 3 4 5 6 
#
# 1 94.3292 49.3040 57.6786 0.0000 -3.6346 0.0000
# 2 49.3040 102.1113 71.8811 0.0000 1.0686 0.0000
# 3 57.6786 71.8811 145.3359 0.0000 2.5946 0.0000
# 4 0.0000 0.0000 0.0000 41.9553 0.0000 12.3232
# 5 -3.6346 1.0686 2.5946 0.0000 25.8415 0.0000
# 6 0.0000 0.0000 0.0000 12.3232 0.0000 33.1929
#
#
#
# Elastic Compliance Matrix: (Units=1/GPa)
#
#
# Indices 1 2 3 4 5 6 
#
# 1 0.015592 -0.004858 -0.003835 0.000000 0.002779 0.000000
# 2 -0.004858 0.016538 -0.006238 0.000000 -0.000741 0.000000
# 3 -0.003835 -0.006238 0.011514 0.000000 -0.001437 0.000000
# 4 0.000000 0.000000 0.000000 0.026752 0.000000 -0.009932
# 5 0.002779 -0.000741 -0.001437 0.000000 0.039263 0.000000
# 6 0.000000 0.000000 0.000000 -0.009932 0.000000 0.033814
#
#
# Mechanical properties :
#
#
# Convention : Reuss Voigt Hill
#
# Bulk Modulus (GPa) = 72.56159 77.72263 75.14211
# Shear Modulus (GPa) = 28.10087 31.05879 29.57983
#
# Velocity S-wave (km/s) = 3.67068 3.85903 3.76603
# Velocity P-wave (km/s) = 7.26341 7.55796 7.41215
#
# Compressibility (1/GPa) = 0.01378140
#
# Stress axis : x y z
#
# Youngs Moduli (GPa) = 64.13365 60.46605 86.85430
#
# Poissons Ratio (x) = 0.29376 0.33307
# Poissons Ratio (y) = 0.31158 0.54182
# Poissons Ratio (z) = 0.24594 0.37720
#
# Static dielectric constant tensor:
#      x y z
#    x 3.703850 0.000000 0.212380 
#    y 0.000000 3.988330 0.000000 
#    z 0.212380 0.000000 3.944070 
# 
# 
# High freq. dielectric constant tensor:
#      x y z
#    x 1.811650 0.000000 0.025820 
#    y 0.000000 1.821090 0.000000 
#    z 0.025820 0.000000 1.815080 
# 
# From -- ./inp_files/14930.got.cif
#   From: 2010.06.25/outbox.cif.g09.slc.cpg/sg13_8_cif.got.tgz:14930.got - 2010.06.28 04:50:58.
