data_PCOD8119715
_publ_section_title
;
Structure prediction by ZEFSAII (Michael W. Deem and Ramdas Pophale) SiO2 
 PCOD8119715
Probable space group: P 2/C
;
_chemical_formula_sum "Si O2"
_cell_formula_units_Z 26
_cell_length_a 9.125507
_cell_length_b 8.292460
_cell_length_c 27.149076
_cell_angle_alpha 90.000000
_cell_angle_beta 37.138371
_cell_angle_gamma 90.000000
_cell_volume 1240.357355
_symmetry_space_group_name_H-M "P 2/C"
_symmetry_group_IT_number 13
_symmetry_cell_setting 'monoclinic'
loop_
_space_group_symop_operation_xyz
x,y,z
-x,y,1/2-z
-x,-y,-z
x,-y,1/2+z
loop_
_atom_site_type_symbol
_atom_site_label
_atom_site_fract_x
_atom_site_fract_y
_atom_site_fract_z
Si Si1 0.886599 0.335724 0.855860
Si Si2 0.796336 0.883053 0.073394
Si Si3 0.642135 0.454284 0.262983
Si Si4 0.197196 0.300013 0.513580
Si Si5 0.000000 0.071837 0.750000
Si Si6 0.572015 0.397789 0.585433
Si Si7 0.439206 0.865095 0.659729
O O1 0.757936 0.276382 0.940440
O O2 0.677978 0.411914 0.877680
O O3 0.087748 0.471937 0.813832
O O4 0.008479 0.183546 0.796273
O O5 0.680203 0.782865 0.058616
O O6 0.920361 0.758919 0.078248
O O7 0.588833 0.000517 0.151472
O O8 0.000000 0.000000 0.000000
O O9 0.500000 0.459633 0.250000
O O10 0.482707 0.555381 0.343756
O O11 0.663556 0.269772 0.275983
O O12 0.221817 0.488906 0.493523
O O13 0.394537 0.205851 0.428459
O O14 0.228256 0.955436 0.687555
#
# Coordination Sequence:
#
# PCOD8119715 Si02
#       7
#     4   4   4   4   2   4   4
#     4  12  23  42  67  99 130 182 220 280 333 402
#     4  10  20  41  63  91 133 173 214 272 336 388
#     4  11  24  41  69  96 128 174 229 271 332 402
#     4  10  24  39  69  97 130 175 232 274 330 398
#     4  12  24  42  68  92 142 176 210 280 338 402
#     4  11  21  43  63  94 134 168 226 274 333 392
#     4  10  24  43  65  97 137 175 220 283 337 393
#
# _framework density 20.9617
#
# number of rings (size 3 to 8) (size 9 to 14) (size 15 to 20)
#    0.000    1.231    3.077    1.846    4.308    4.308 
#    0.000    0.769    0.000    0.000    0.000    0.000 
#    0.000    0.000    0.000    0.000    0.000    0.000 
#
# Total GULP energy -322318.139386 kJ/mol
# GULP energy per Si atom -12396.851515 kJ/mol
# Density = 2.091399 g / cm^3
# Si number density = 20.961700 Si / 1000 Ang^3
#
#
#
# Elastic Constant Matrix: (Units=GPa)
#
#
# Indices 1 2 3 4 5 6 
#
# 1 137.7855 74.8619 59.7444 0.0000 1.6351 0.0000
# 2 74.8619 135.7694 43.7467 0.0000 -18.7827 0.0000
# 3 59.7444 43.7467 79.8959 0.0000 6.0628 0.0000
# 4 0.0000 0.0000 0.0000 26.6605 0.0000 -16.7839
# 5 1.6351 -18.7827 6.0628 0.0000 41.8878 0.0000
# 6 0.0000 0.0000 0.0000 -16.7839 0.0000 34.1756
#
#
#
# Elastic Compliance Matrix: (Units=1/GPa)
#
#
# Indices 1 2 3 4 5 6 
#
# 1 0.013085 -0.005311 -0.006731 0.000000 -0.001918 0.000000
# 2 -0.005311 0.012154 -0.003147 0.000000 0.006113 0.000000
# 3 -0.006731 -0.003147 0.019574 0.000000 -0.003981 0.000000
# 4 0.000000 0.000000 0.000000 0.054295 0.000000 0.026665
# 5 -0.001918 0.006113 -0.003981 0.000000 0.027265 0.000000
# 6 0.000000 0.000000 0.000000 0.026665 0.000000 0.042356
#
#
# Mechanical properties :
#
#
# Convention : Reuss Voigt Hill
#
# Bulk Modulus (GPa) = 69.27542 78.90631 74.09087
# Shear Modulus (GPa) = 24.51957 32.21798 28.36877
#
# Velocity S-wave (km/s) = 3.42384 3.92470 3.68280
# Velocity P-wave (km/s) = 6.98216 7.63299 7.31482
#
# Compressibility (1/GPa) = 0.01443513
#
# Stress axis : x y z
#
# Youngs Moduli (GPa) = 76.42532 82.27971 51.08720
#
# Poissons Ratio (x) = 0.43703 0.34385
# Poissons Ratio (y) = 0.40593 0.16076
# Poissons Ratio (z) = 0.51439 0.25891
#
# Static dielectric constant tensor:
#      x y z
#    x 3.957410 0.000000 -0.271980 
#    y 0.000000 4.255700 0.000000 
#    z -0.271980 0.000000 3.771240 
# 
# 
# High freq. dielectric constant tensor:
#      x y z
#    x 1.821560 0.000000 -0.019850 
#    y 0.000000 1.837030 0.000000 
#    z -0.019850 0.000000 1.811940 
# 
# From -- ./inp_files/91226.got.cif
#   From: 2010.06.25/outbox.cif.g09.slc.cpg/sg13_46_cif.got.tgz:91226.got - 2010.06.28 04:50:58.
