data_PCOD8119565
_publ_section_title
;
Structure prediction by ZEFSAII (Michael W. Deem and Ramdas Pophale) SiO2 
 PCOD8119565
Probable space group: P 2/C
;
_chemical_formula_sum "Si O2"
_cell_formula_units_Z 20
_cell_length_a 18.974146
_cell_length_b 5.297484
_cell_length_c 13.218416
_cell_angle_alpha 90.000000
_cell_angle_beta 144.474852
_cell_angle_gamma 90.000000
_cell_volume 772.026943
_symmetry_space_group_name_H-M "P 2/C"
_symmetry_group_IT_number 13
_symmetry_cell_setting 'monoclinic'
loop_
_space_group_symop_operation_xyz
x,y,z
-x,y,1/2-z
-x,-y,-z
x,-y,1/2+z
loop_
_atom_site_type_symbol
_atom_site_label
_atom_site_fract_x
_atom_site_fract_y
_atom_site_fract_z
Si Si1 0.079318 0.116295 0.444644
Si Si2 0.701490 0.350617 0.521897
Si Si3 0.340207 0.069562 0.217603
Si Si4 0.978632 0.615166 0.345115
Si Si5 0.411448 0.847019 0.022873
O O1 0.000000 0.137516 0.250000
O O2 0.049680 0.371128 0.474263
O O3 0.222165 0.108081 0.588070
O O4 0.038413 0.870059 0.460473
O O5 0.688530 0.309924 0.386547
O O6 0.838992 0.409981 0.710976
O O7 0.619691 0.585431 0.459043
O O8 0.666668 0.087610 0.534356
O O9 0.386568 0.190908 0.375261
O O10 0.446032 0.899499 0.290112
O O11 0.000000 0.629864 0.250000
#
# Coordination Sequence:
#
# PCOD8119565 Si02
#       5
#     4   4   4   4   4
#     4  10  20  39  72 101 135 206 233 282 387 420
#     4  12  25  50  76 109 153 193 254 305 369 454
#     4  11  26  52  78 104 166 189 240 328 365 433
#     4  10  20  39  70 103 139 192 244 287 370 434
#     4  11  30  47  76 122 137 201 259 292 383 452
#
# _framework density 25.905829000000001
#
# number of rings (size 3 to 8) (size 9 to 14) (size 15 to 20)
#    0.000    1.200    4.000    1.800    2.800   11.200 
#    0.000    6.000    0.000    0.000    0.000    0.000 
#    0.000    0.000    0.000    0.000    0.000    0.000 
#
# Total GULP energy -248062.914929 kJ/mol
# GULP energy per Si atom -12403.145746 kJ/mol
# Density = 2.584687 g / cm^3
# Si number density = 25.905829 Si / 1000 Ang^3
#
#
#
# Elastic Constant Matrix: (Units=GPa)
#
#
# Indices 1 2 3 4 5 6 
#
# 1 69.1105 64.8555 51.4747 0.0000 33.9672 0.0000
# 2 64.8555 240.0619 42.6643 0.0000 16.2033 0.0000
# 3 51.4747 42.6643 114.7507 0.0000 43.2272 0.0000
# 4 0.0000 0.0000 0.0000 34.8465 0.0000 41.2435
# 5 33.9672 16.2033 43.2272 0.0000 49.4965 0.0000
# 6 0.0000 0.0000 0.0000 41.2435 0.0000 206.0254
#
#
#
# Elastic Compliance Matrix: (Units=1/GPa)
#
#
# Indices 1 2 3 4 5 6 
#
# 1 0.032977 -0.006716 -0.006854 0.000000 -0.014447 0.000000
# 2 -0.006716 0.005828 -0.000256 0.000000 0.002924 0.000000
# 3 -0.006854 -0.000256 0.015023 0.000000 -0.008333 0.000000
# 4 0.000000 0.000000 0.000000 0.037608 0.000000 -0.007529
# 5 -0.014447 0.002924 -0.008333 0.000000 0.036438 0.000000
# 6 0.000000 0.000000 0.000000 -0.007529 0.000000 0.006361
#
#
# Mechanical properties :
#
#
# Convention : Reuss Voigt Hill
#
# Bulk Modulus (GPa) = 38.20106 82.43468 60.31787
# Shear Modulus (GPa) = 29.30614 75.73557 52.52086
#
# Velocity S-wave (km/s) = 3.36706 5.41280 4.50752
# Velocity P-wave (km/s) = 5.46757 8.42345 7.10102
#
# Compressibility (1/GPa) = 0.02617728
#
# Stress axis : x y z
#
# Youngs Moduli (GPa) = 30.32389 171.58277 66.56317
#
# Poissons Ratio (x) = 1.15236 0.45621
# Poissons Ratio (y) = 0.20366 0.01703
# Poissons Ratio (z) = 0.20783 0.04390
#
# Static dielectric constant tensor:
#      x y z
#    x 4.817520 0.000000 0.069700 
#    y 0.000000 6.806860 0.000000 
#    z 0.069700 0.000000 4.693490 
# 
# 
# High freq. dielectric constant tensor:
#      x y z
#    x 2.046110 0.000000 0.003730 
#    y 0.000000 2.049720 0.000000 
#    z 0.003730 0.000000 2.041270 
# 
# From -- ./inp_files/56690.got.cif
#   From: 2010.06.25/outbox.cif.g09.slc.cpg/sg13_29_cif.got.tgz:56690.got - 2010.06.28 04:50:58.
