data_PCOD8119313
_publ_section_title
;
Structure prediction by ZEFSAII (Michael W. Deem and Ramdas Pophale) SiO2 
 PCOD8119313
Probable space group: P 2/C
;
_chemical_formula_sum "Si O2"
_cell_formula_units_Z 32
_cell_length_a 11.765837
_cell_length_b 6.099335
_cell_length_c 22.016170
_cell_angle_alpha 90.000000
_cell_angle_beta 102.997048
_cell_angle_gamma 90.000000
_cell_volume 1539.487556
_symmetry_space_group_name_H-M "P 2/C"
_symmetry_group_IT_number 13
_symmetry_cell_setting 'monoclinic'
loop_
_space_group_symop_operation_xyz
x,y,z
-x,y,1/2-z
-x,-y,-z
x,-y,1/2+z
loop_
_atom_site_type_symbol
_atom_site_label
_atom_site_fract_x
_atom_site_fract_y
_atom_site_fract_z
Si Si1 0.745103 0.022786 0.535354
Si Si2 0.832732 0.691218 0.950669
Si Si3 0.571418 0.621760 0.060679
Si Si4 0.181333 0.928425 0.146554
Si Si5 0.663807 0.697009 0.419983
Si Si6 0.786186 0.647629 0.627748
Si Si7 0.978664 0.456435 0.879232
Si Si8 0.120685 0.235657 0.236223
O O1 0.843586 0.187585 0.517819
O O2 0.634524 0.158596 0.546007
O O3 0.701125 0.860763 0.477888
O O4 0.802043 0.884266 0.597081
O O5 0.718042 0.539635 0.942309
O O6 0.945526 0.552545 0.942372
O O7 0.813188 0.873000 0.898455
O O8 0.476309 0.685898 0.100592
O O9 0.660185 0.449408 0.100027
O O10 0.500000 0.500000 0.000000
O O11 0.288710 0.769743 0.140943
O O12 0.058875 0.797273 0.126705
O O13 0.189019 0.028565 0.215124
O O14 0.797466 0.668504 0.701432
O O15 0.883422 0.480698 0.613503
O O16 0.907252 0.579723 0.817250
O O17 0.000000 0.148034 0.250000
#
# Coordination Sequence:
#
# PCOD8119313 Si02
#       8
#     4   4   4   4   4   4   4   4
#     4  11  21  36  60  89 118 160 204 244 312 370
#     4   9  18  36  60  87 116 158 195 248 305 368
#     4  12  23  38  60  88 124 164 207 255 306 367
#     4   9  19  36  67  86 112 162 201 243 310 373
#     4  10  20  38  61  88 118 164 205 251 302 368
#     4  11  24  36  58  93 124 156 202 257 306 374
#     4   9  20  39  59  86 120 155 197 250 310 369
#     4   9  20  39  60  87 117 150 197 252 308 368
#
# _framework density 20.786135999999999
#
# number of rings (size 3 to 8) (size 9 to 14) (size 15 to 20)
#    0.000    2.000    2.500    0.375    0.000    6.000 
#    0.000    8.750    0.000   18.000    0.000    0.000 
#    0.000    0.000    0.000    0.000    0.000    0.000 
#
# Total GULP energy -396626.766944 kJ/mol
# GULP energy per Si atom -12394.586467 kJ/mol
# Density = 2.073883 g / cm^3
# Si number density = 20.786136 Si / 1000 Ang^3
#
#
#
# Elastic Constant Matrix: (Units=GPa)
#
#
# Indices 1 2 3 4 5 6 
#
# 1 68.1979 12.4252 37.2891 0.0000 -10.4113 0.0000
# 2 12.4252 86.2446 30.8668 0.0000 -11.0437 0.0000
# 3 37.2891 30.8668 95.4451 0.0000 -0.1273 0.0000
# 4 0.0000 0.0000 0.0000 27.4189 0.0000 -10.8250
# 5 -10.4113 -11.0437 -0.1273 0.0000 28.5398 0.0000
# 6 0.0000 0.0000 0.0000 -10.8250 0.0000 37.2399
#
#
#
# Elastic Compliance Matrix: (Units=1/GPa)
#
#
# Indices 1 2 3 4 5 6 
#
# 1 0.020127 0.001014 -0.008181 0.000000 0.007698 0.000000
# 2 0.001014 0.013936 -0.004895 0.000000 0.005741 0.000000
# 3 -0.008181 -0.004895 0.015250 0.000000 -0.004811 0.000000
# 4 0.000000 0.000000 0.000000 0.041199 0.000000 0.011976
# 5 0.007698 0.005741 -0.004811 0.000000 0.040047 0.000000
# 6 0.000000 0.000000 0.000000 0.011976 0.000000 0.030334
#
#
# Mechanical properties :
#
#
# Convention : Reuss Voigt Hill
#
# Bulk Modulus (GPa) = 39.70086 45.67222 42.68654
# Shear Modulus (GPa) = 25.85125 29.92682 27.88904
#
# Velocity S-wave (km/s) = 3.53041 3.79852 3.66691
# Velocity P-wave (km/s) = 5.97993 6.42328 6.20556
#
# Compressibility (1/GPa) = 0.02518837
#
# Stress axis : x y z
#
# Youngs Moduli (GPa) = 49.68482 71.75664 65.57298
#
# Poissons Ratio (x) = -0.07276 0.53645
# Poissons Ratio (y) = -0.05038 0.32101
# Poissons Ratio (z) = 0.40647 0.35128
#
# Static dielectric constant tensor:
#      x y z
#    x 4.210950 0.000000 -0.551240 
#    y 0.000000 4.103230 0.000000 
#    z -0.551240 0.000000 3.763680 
# 
# 
# High freq. dielectric constant tensor:
#      x y z
#    x 1.812310 0.000000 -0.030070 
#    y 0.000000 1.830640 0.000000 
#    z -0.030070 0.000000 1.787670 
# 
# From -- ./inp_files/85993.got.cif
#   From: 2010.06.25/outbox.cif.g09.slc.cpg/sg13_43_cif.got.tgz:85993.got - 2010.06.28 04:50:58.
