data_PCOD8119332
_publ_section_title
;
Structure prediction by ZEFSAII (Michael W. Deem and Ramdas Pophale) SiO2 
 PCOD8119332
Probable space group: P 2/C
;
_chemical_formula_sum "Si O2"
_cell_formula_units_Z 30
_cell_length_a 14.209993
_cell_length_b 11.114652
_cell_length_c 16.239098
_cell_angle_alpha 90.000000
_cell_angle_beta 144.646498
_cell_angle_gamma 90.000000
_cell_volume 1484.036831
_symmetry_space_group_name_H-M "P 2/C"
_symmetry_group_IT_number 13
_symmetry_cell_setting 'monoclinic'
loop_
_space_group_symop_operation_xyz
x,y,z
-x,y,1/2-z
-x,-y,-z
x,-y,1/2+z
loop_
_atom_site_type_symbol
_atom_site_label
_atom_site_fract_x
_atom_site_fract_y
_atom_site_fract_z
Si Si1 0.091944 0.033935 0.149001
Si Si2 0.693541 0.660119 0.257751
Si Si3 0.336441 0.674546 0.971530
Si Si4 0.000000 0.643494 0.250000
Si Si5 0.574547 0.119146 0.089652
Si Si6 0.872569 0.474289 0.290326
Si Si7 0.894175 0.260142 0.046936
Si Si8 0.240008 0.815136 0.354768
O O1 0.264883 0.090939 0.242004
O O2 0.978096 0.130092 0.114624
O O3 0.132309 0.928796 0.244701
O O4 0.000000 0.000000 0.000000
O O5 0.796967 0.536569 0.318185
O O6 0.755226 0.737628 0.378613
O O7 0.718933 0.738310 0.195650
O O8 0.501948 0.633489 0.135545
O O9 0.368770 0.793057 0.942234
O O10 0.279281 0.561291 0.876256
O O11 0.187072 0.705263 0.925048
O O12 0.004234 0.563251 0.170539
O O13 0.151664 0.734818 0.360010
O O14 0.414782 0.164220 0.025051
O O15 0.500000 0.000000 0.000000
O O16 0.968851 0.355000 0.383883
#
# Coordination Sequence:
#
# PCOD8119332 Si02
#       8
#     4   4   4   2   4   4   4   4
#     4  11  21  37  59  86 119 155 197 245 304 365
#     4  10  22  38  59  84 122 163 189 244 313 364
#     4  11  21  38  60  92 117 155 207 257 294 353
#     4  10  20  38  62  86 116 148 206 252 292 362
#     4   9  20  37  60  86 117 153 203 244 296 366
#     4  11  21  39  61  88 117 154 207 248 299 364
#     4  12  22  37  60  92 122 153 202 256 306 357
#     4   9  20  38  61  83 114 158 198 241 298 362
#
# _framework density 20.215133000000002
#
# number of rings (size 3 to 8) (size 9 to 14) (size 15 to 20)
#    0.000    1.600    4.000    1.200    0.000    2.133 
#    0.000    0.000    0.000    0.000    0.000    0.000 
#    0.000    0.000    0.000    0.000    0.000    0.000 
#
# Total GULP energy -371663.631509 kJ/mol
# GULP energy per Si atom -12388.787717 kJ/mol
# Density = 2.016912 g / cm^3
# Si number density = 20.215133 Si / 1000 Ang^3
#
#
#
# Elastic Constant Matrix: (Units=GPa)
#
#
# Indices 1 2 3 4 5 6 
#
# 1 47.3958 27.5536 18.4990 0.0000 16.3693 0.0000
# 2 27.5536 91.9853 20.9878 0.0000 14.0011 0.0000
# 3 18.4990 20.9878 116.1502 0.0000 16.4796 0.0000
# 4 0.0000 0.0000 0.0000 32.0167 0.0000 9.5016
# 5 16.3693 14.0011 16.4796 0.0000 24.5410 0.0000
# 6 0.0000 0.0000 0.0000 9.5016 0.0000 30.4047
#
#
#
# Elastic Compliance Matrix: (Units=1/GPa)
#
#
# Indices 1 2 3 4 5 6 
#
# 1 0.030973 -0.006510 -0.001495 0.000000 -0.015941 0.000000
# 2 -0.006510 0.013457 -0.001019 0.000000 -0.002651 0.000000
# 3 -0.001495 -0.001019 0.009735 0.000000 -0.004959 0.000000
# 4 0.000000 0.000000 0.000000 0.034427 0.000000 -0.010758
# 5 -0.015941 -0.002651 -0.004959 0.000000 0.056224 0.000000
# 6 0.000000 0.000000 0.000000 -0.010758 0.000000 0.036252
#
#
# Mechanical properties :
#
#
# Convention : Reuss Voigt Hill
#
# Bulk Modulus (GPa) = 27.68687 43.29021 35.48854
# Shear Modulus (GPa) = 23.67934 29.95854 26.81894
#
# Velocity S-wave (km/s) = 3.42624 3.85383 3.64631
# Velocity P-wave (km/s) = 5.42015 6.42370 5.94314
#
# Compressibility (1/GPa) = 0.03611821
#
# Stress axis : x y z
#
# Youngs Moduli (GPa) = 32.28635 74.30889 102.71902
#
# Poissons Ratio (x) = 0.48376 0.15355
# Poissons Ratio (y) = 0.21019 0.10463
# Poissons Ratio (z) = 0.04826 0.07569
#
# Static dielectric constant tensor:
#      x y z
#    x 3.924310 0.000000 1.097500 
#    y 0.000000 4.101400 0.000000 
#    z 1.097500 0.000000 5.014810 
# 
# 
# High freq. dielectric constant tensor:
#      x y z
#    x 1.761780 0.000000 0.032710 
#    y 0.000000 1.802490 0.000000 
#    z 0.032710 0.000000 1.794660 
# 
# From -- ./inp_files/68527.got.cif
#   From: 2010.06.25/outbox.cif.g09.slc.cpg/sg13_35_cif.got.tgz:68527.got - 2010.06.28 04:50:58.
