data_PCOD8119947
_publ_section_title
;
Structure prediction by ZEFSAII (Michael W. Deem and Ramdas Pophale) SiO2 
 PCOD8119947
Probable space group: P 2/C
;
_chemical_formula_sum "Si O2"
_cell_formula_units_Z 22
_cell_length_a 27.131977
_cell_length_b 8.312730
_cell_length_c 5.101982
_cell_angle_alpha 90.000000
_cell_angle_beta 91.453420
_cell_angle_gamma 90.000000
_cell_volume 1150.334888
_symmetry_space_group_name_H-M "P 2/C"
_symmetry_group_IT_number 13
_symmetry_cell_setting 'monoclinic'
loop_
_space_group_symop_operation_xyz
x,y,z
-x,y,1/2-z
-x,-y,-z
x,-y,1/2+z
loop_
_atom_site_type_symbol
_atom_site_label
_atom_site_fract_x
_atom_site_fract_y
_atom_site_fract_z
Si Si1 0.076121 0.895048 0.776026
Si Si2 0.556367 0.102939 0.278064
Si Si3 0.371896 0.395797 0.304837
Si Si4 0.809093 0.897176 0.711202
Si Si5 0.000000 0.385898 0.250000
Si Si6 0.261054 0.397924 0.233562
O O1 0.133538 0.851263 0.777092
O O2 0.048219 0.726056 0.755661
O O3 0.060952 0.010989 0.536028
O O4 0.500000 0.161680 0.250000
O O5 0.590604 0.253743 0.237123
O O6 0.567739 0.033883 0.566293
O O7 0.381150 0.463696 0.595908
O O8 0.316261 0.327889 0.272570
O O9 0.778759 0.735030 0.707279
O O10 0.794137 0.994919 0.453627
O O11 0.000000 0.500000 0.500000
O O12 0.252904 0.543369 0.435964
#
# Coordination Sequence:
#
# PCOD8119947 Si02
#       6
#     4   4   4   4   2   4
#     4  10  21  39  58  77 108 146 177 213 264 317
#     4  10  21  36  54  78 106 136 173 219 267 309
#     4  10  21  36  54  78 106 140 178 212 258 318
#     4  10  21  36  57  82 105 138 183 218 255 314
#     4  12  24  36  56  86 110 136 180 224 262 310
#     4  10  21  36  54  78 110 141 171 216 268 310
#
# _framework density 19.124866000000001
#
# number of rings (size 3 to 8) (size 9 to 14) (size 15 to 20)
#    0.000    1.818    0.000    3.818    0.000    3.636 
#    0.000    0.000    0.000    0.000    0.000    0.000 
#    0.000    0.000    0.000    0.000    0.000    0.000 
#
# Total GULP energy -272908.889989 kJ/mol
# GULP energy per Si atom -12404.949545 kJ/mol
# Density = 1.908134 g / cm^3
# Si number density = 19.124866 Si / 1000 Ang^3
#
#
#
# Elastic Constant Matrix: (Units=GPa)
#
#
# Indices 1 2 3 4 5 6 
#
# 1 94.7109 63.6614 20.2873 0.0000 -2.6469 0.0000
# 2 63.6614 94.2523 18.2248 0.0000 4.2047 0.0000
# 3 20.2873 18.2248 101.4249 0.0000 5.4008 0.0000
# 4 0.0000 0.0000 0.0000 22.6620 0.0000 -10.2483
# 5 -2.6469 4.2047 5.4008 0.0000 19.5913 0.0000
# 6 0.0000 0.0000 0.0000 -10.2483 0.0000 48.0533
#
#
#
# Elastic Compliance Matrix: (Units=1/GPa)
#
#
# Indices 1 2 3 4 5 6 
#
# 1 0.020296 -0.013609 -0.001944 0.000000 0.006199 0.000000
# 2 -0.013609 0.020183 -0.000585 0.000000 -0.006009 0.000000
# 3 -0.001944 -0.000585 0.010515 0.000000 -0.003036 0.000000
# 4 0.000000 0.000000 0.000000 0.048837 0.000000 0.010415
# 5 0.006199 -0.006009 -0.003036 0.000000 0.054007 0.000000
# 6 0.000000 0.000000 0.000000 0.010415 0.000000 0.023032
#
#
# Mechanical properties :
#
#
# Convention : Reuss Voigt Hill
#
# Bulk Modulus (GPa) = 53.42441 54.97055 54.19748
# Shear Modulus (GPa) = 23.21432 30.60897 26.91164
#
# Velocity S-wave (km/s) = 3.48778 4.00494 3.75528
# Velocity P-wave (km/s) = 6.64941 7.08459 6.87045
#
# Compressibility (1/GPa) = 0.01871804
#
# Stress axis : x y z
#
# Youngs Moduli (GPa) = 49.27163 49.54680 95.10120
#
# Poissons Ratio (x) = 0.67428 0.18491
# Poissons Ratio (y) = 0.67054 0.05559
# Poissons Ratio (z) = 0.09580 0.02896
#
# Static dielectric constant tensor:
#      x y z
#    x 3.593840 0.000000 -0.039880 
#    y 0.000000 3.247710 0.000000 
#    z -0.039880 0.000000 3.875590 
# 
# 
# High freq. dielectric constant tensor:
#      x y z
#    x 1.751690 0.000000 -0.005020 
#    y 0.000000 1.734370 0.000000 
#    z -0.005020 0.000000 1.769400 
# 
# From -- ./inp_files/7937.got.cif
#   From: 2010.06.25/outbox.cif.g09.slc.cpg/sg13_4_cif.got.tgz:7937.got - 2010.06.28 04:50:58.
