data_PCOD8119334
_publ_section_title
;
Structure prediction by ZEFSAII (Michael W. Deem and Ramdas Pophale) SiO2 
 PCOD8119334
Probable space group: P 2/C
;
_chemical_formula_sum "Si O2"
_cell_formula_units_Z 30
_cell_length_a 28.205722
_cell_length_b 6.282912
_cell_length_c 14.467932
_cell_angle_alpha 90.000000
_cell_angle_beta 147.689469
_cell_angle_gamma 90.000000
_cell_volume 1370.435572
_symmetry_space_group_name_H-M "P 2/C"
_symmetry_group_IT_number 13
_symmetry_cell_setting 'monoclinic'
loop_
_space_group_symop_operation_xyz
x,y,z
-x,y,1/2-z
-x,-y,-z
x,-y,1/2+z
loop_
_atom_site_type_symbol
_atom_site_label
_atom_site_fract_x
_atom_site_fract_y
_atom_site_fract_z
Si Si1 0.783055 0.313890 0.338952
Si Si2 0.924921 0.617774 0.494686
Si Si3 0.889622 0.621899 0.753197
Si Si4 0.598930 0.453659 0.990413
Si Si5 0.567083 0.691577 0.752884
Si Si6 0.827346 0.994088 0.260646
Si Si7 0.251715 0.301514 0.022080
Si Si8 0.500000 0.073450 0.750000
O O1 0.870269 0.461854 0.471956
O O2 0.771299 0.147517 0.235940
O O3 0.784871 0.197965 0.442362
O O4 0.695578 0.463394 0.196095
O O5 0.915746 0.545538 0.374235
O O6 0.030834 0.619885 0.692919
O O7 0.888423 0.859543 0.432261
O O8 0.883890 0.860427 0.783686
O O9 0.795767 0.534858 0.559643
O O10 0.607247 0.563913 0.905085
O O11 0.525912 0.581986 0.931847
O O12 0.568347 0.211928 0.922918
O O13 0.551719 0.933502 0.759233
O O14 0.641230 0.675394 0.794636
O O15 0.765675 0.843946 0.096369
#
# Coordination Sequence:
#
# PCOD8119334 Si02
#       8
#     4   4   4   4   4   4   4   2
#     4  11  23  37  57  87 120 155 195 240 291 345
#     4   9  19  37  60  83 110 147 190 237 288 339
#     4   9  19  37  60  83 110 147 190 237 288 339
#     4   9  18  34  56  80 107 146 190 235 288 345
#     4   9  18  34  56  80 107 146 190 235 288 345
#     4  10  20  38  62  86 116 154 198 242 284 344
#     4  11  23  37  57  87 120 155 195 240 291 345
#     4   8  16  32  58  80 106 146 190 238 284 334
#
# _framework density 21.890851000000001
#
# number of rings (size 3 to 8) (size 9 to 14) (size 15 to 20)
#    0.000    2.667    0.000    3.600    0.000    5.333 
#    0.000    0.667    0.000    0.000    0.000    0.000 
#    0.000    0.000    0.000    0.000    0.000    0.000 
#
# Total GULP energy -371735.752827 kJ/mol
# GULP energy per Si atom -12391.191761 kJ/mol
# Density = 2.184103 g / cm^3
# Si number density = 21.890851 Si / 1000 Ang^3
#
#
#
# Elastic Constant Matrix: (Units=GPa)
#
#
# Indices 1 2 3 4 5 6 
#
# 1 149.9597 42.6424 39.8577 0.0000 31.4607 0.0000
# 2 42.6424 103.3408 18.0168 0.0000 13.8745 0.0000
# 3 39.8577 18.0168 53.5455 0.0000 27.2266 0.0000
# 4 0.0000 0.0000 0.0000 20.1165 0.0000 -0.0319
# 5 31.4607 13.8745 27.2266 0.0000 39.8724 0.0000
# 6 0.0000 0.0000 0.0000 -0.0319 0.0000 13.1215
#
#
#
# Elastic Compliance Matrix: (Units=1/GPa)
#
#
# Indices 1 2 3 4 5 6 
#
# 1 0.009276 -0.002617 -0.004237 0.000000 -0.003516 0.000000
# 2 -0.002617 0.011109 -0.001339 0.000000 -0.000886 0.000000
# 3 -0.004237 -0.001339 0.031164 0.000000 -0.017471 0.000000
# 4 0.000000 0.000000 0.000000 0.049711 0.000000 0.000121
# 5 -0.003516 -0.000886 -0.017471 0.000000 0.040092 0.000000
# 6 0.000000 0.000000 0.000000 0.000121 0.000000 0.076211
#
#
# Mechanical properties :
#
#
# Convention : Reuss Voigt Hill
#
# Bulk Modulus (GPa) = 28.43931 56.43109 42.43520
# Shear Modulus (GPa) = 20.35249 28.37735 24.36492
#
# Velocity S-wave (km/s) = 3.05245 3.60434 3.33981
# Velocity P-wave (km/s) = 5.04409 6.56932 5.85657
#
# Compressibility (1/GPa) = 0.03516260
#
# Stress axis : x y z
#
# Youngs Moduli (GPa) = 107.80160 90.01629 32.08874
#
# Poissons Ratio (x) = 0.23558 0.13596
# Poissons Ratio (y) = 0.28213 0.04297
# Poissons Ratio (z) = 0.45674 0.12055
#
# Static dielectric constant tensor:
#      x y z
#    x 3.932240 0.000000 0.347530 
#    y 0.000000 4.082320 0.000000 
#    z 0.347530 0.000000 3.810780 
# 
# 
# High freq. dielectric constant tensor:
#      x y z
#    x 1.857540 0.000000 0.025680 
#    y 0.000000 1.851170 0.000000 
#    z 0.025680 0.000000 1.840240 
# 
# From -- ./inp_files/59219.got.cif
#   From: 2010.06.25/outbox.cif.g09.slc.cpg/sg13_30_cif.got.tgz:59219.got - 2010.06.28 04:50:58.
