data_PCOD8119070
_publ_section_title
;
Structure prediction by ZEFSAII (Michael W. Deem and Ramdas Pophale) SiO2 
 PCOD8119070
Probable space group: P 2/C
;
_chemical_formula_sum "Si O2"
_cell_formula_units_Z 22
_cell_length_a 5.075939
_cell_length_b 15.900068
_cell_length_c 14.031366
_cell_angle_alpha 90.000000
_cell_angle_beta 111.204573
_cell_angle_gamma 90.000000
_cell_volume 1055.768388
_symmetry_space_group_name_H-M "P 2/C"
_symmetry_group_IT_number 13
_symmetry_cell_setting 'monoclinic'
loop_
_space_group_symop_operation_xyz
x,y,z
-x,y,1/2-z
-x,-y,-z
x,-y,1/2+z
loop_
_atom_site_type_symbol
_atom_site_label
_atom_site_fract_x
_atom_site_fract_y
_atom_site_fract_z
Si Si1 0.108622 0.034913 0.870026
Si Si2 0.500000 0.641369 0.250000
Si Si3 0.731327 0.702603 0.466433
Si Si4 0.745525 0.502031 0.663025
Si Si5 0.273331 0.399670 0.018775
Si Si6 0.699406 0.893622 0.470671
O O1 0.364377 0.101699 0.907223
O O2 0.000000 0.019662 0.750000
O O3 0.852083 0.070225 0.897963
O O4 0.216318 0.945642 0.924350
O O5 0.680708 0.699365 0.345602
O O6 0.290633 0.583701 0.283070
O O7 0.462404 0.668180 0.487742
O O8 0.788524 0.798168 0.503217
O O9 0.003486 0.646053 0.529489
O O10 0.823929 0.475964 0.564249
O O11 0.462241 0.558833 0.627599
O O12 0.000000 0.551386 0.750000
#
# Coordination Sequence:
#
# PCOD8119070 Si02
#       6
#     4   2   4   4   4   4
#     4  10  21  39  64  92 119 169 200 236 299 376
#     4  10  22  32  60  82 118 146 204 250 308 344
#     4  11  22  39  54  92 118 153 190 259 304 351
#     4  10  20  37  56  81 111 158 200 250 288 369
#     4  10  23  36  59  78 119 153 197 241 309 344
#     4  10  22  39  62  91 129 155 202 249 300 366
#
# _framework density 20.837903000000001
#
# number of rings (size 3 to 8) (size 9 to 14) (size 15 to 20)
#    0.000    1.818    1.818    1.636    5.091    2.182 
#    0.000    0.909    0.000    2.182    0.000    0.000 
#    0.000    0.000    0.000    0.000    0.000    0.000 
#
# Total GULP energy -272859.167491 kJ/mol
# GULP energy per Si atom -12402.689431 kJ/mol
# Density = 2.079047 g / cm^3
# Si number density = 20.837903 Si / 1000 Ang^3
#
#
#
# Elastic Constant Matrix: (Units=GPa)
#
#
# Indices 1 2 3 4 5 6 
#
# 1 64.6943 6.6467 24.7250 0.0000 14.6061 0.0000
# 2 6.6467 100.8030 31.4869 0.0000 16.5890 0.0000
# 3 24.7250 31.4869 110.7629 0.0000 24.6490 0.0000
# 4 0.0000 0.0000 0.0000 16.7083 0.0000 3.5799
# 5 14.6061 16.5890 24.6490 0.0000 32.5291 0.0000
# 6 0.0000 0.0000 0.0000 3.5799 0.0000 27.9631
#
#
#
# Elastic Compliance Matrix: (Units=1/GPa)
#
#
# Indices 1 2 3 4 5 6 
#
# 1 0.017869 0.000729 -0.002800 0.000000 -0.006273 0.000000
# 2 0.000729 0.011335 -0.002437 0.000000 -0.004261 0.000000
# 3 -0.002800 -0.002437 0.011775 0.000000 -0.006423 0.000000
# 4 0.000000 0.000000 0.000000 0.061538 0.000000 -0.007878
# 5 -0.006273 -0.004261 -0.006423 0.000000 0.040599 0.000000
# 6 0.000000 0.000000 0.000000 -0.007878 0.000000 0.036770
#
#
# Mechanical properties :
#
#
# Convention : Reuss Voigt Hill
#
# Bulk Modulus (GPa) = 31.28560 44.66415 37.97488
# Shear Modulus (GPa) = 25.05566 29.66687 27.36127
#
# Velocity S-wave (km/s) = 3.47134 3.77729 3.62754
# Velocity P-wave (km/s) = 5.57793 6.36431 5.98405
#
# Compressibility (1/GPa) = 0.03196358
#
# Stress axis : x y z
#
# Youngs Moduli (GPa) = 55.96326 88.22511 84.92360
#
# Poissons Ratio (x) = -0.06429 0.23777
# Poissons Ratio (y) = -0.04078 0.20692
# Poissons Ratio (z) = 0.15669 0.21496
#
# Static dielectric constant tensor:
#      x y z
#    x 3.808970 0.000000 0.122110 
#    y 0.000000 3.560630 0.000000 
#    z 0.122110 0.000000 3.886040 
# 
# 
# High freq. dielectric constant tensor:
#      x y z
#    x 1.829540 0.000000 0.008500 
#    y 0.000000 1.793060 0.000000 
#    z 0.008500 0.000000 1.810500 
# 
# From -- ./inp_files/44119.got.cif
#   From: 2010.06.25/outbox.cif.g09.slc.cpg/sg13_23_cif.got.tgz:44119.got - 2010.06.28 04:50:58.
