data_PCOD8119942
_publ_section_title
;
Structure prediction by ZEFSAII (Michael W. Deem and Ramdas Pophale) SiO2 
 PCOD8119942
Probable space group: P 2/C
;
_chemical_formula_sum "Si O2"
_cell_formula_units_Z 24
_cell_length_a 14.641911
_cell_length_b 5.023775
_cell_length_c 29.102161
_cell_angle_alpha 90.000000
_cell_angle_beta 145.174436
_cell_angle_gamma 90.000000
_cell_volume 1222.503321
_symmetry_space_group_name_H-M "P 2/C"
_symmetry_group_IT_number 13
_symmetry_cell_setting 'monoclinic'
loop_
_space_group_symop_operation_xyz
x,y,z
-x,y,1/2-z
-x,-y,-z
x,-y,1/2+z
loop_
_atom_site_type_symbol
_atom_site_label
_atom_site_fract_x
_atom_site_fract_y
_atom_site_fract_z
Si Si1 0.990753 0.587848 0.355714
Si Si2 0.681941 0.089229 0.311958
Si Si3 0.797931 0.918194 0.759017
Si Si4 0.348694 0.244627 0.394730
Si Si5 0.292498 0.253560 0.926372
Si Si6 0.119833 0.407791 0.588780
O O1 0.945363 0.287771 0.323549
O O2 0.982986 0.616873 0.407287
O O3 0.169117 0.661024 0.414530
O O4 0.870219 0.789774 0.280086
O O5 0.500000 0.037900 0.250000
O O6 0.692844 0.066933 0.261539
O O7 0.736302 0.382083 0.348946
O O8 0.796247 0.876948 0.385424
O O9 0.682451 0.826907 0.670739
O O10 0.537987 0.240718 0.478767
O O11 0.284323 0.535347 0.381256
O O12 0.257332 0.034067 0.389869
O O13 0.000000 0.500000 0.500000
#
# Coordination Sequence:
#
# PCOD8119942 Si02
#       6
#     4   4   4   4   4   4
#     4  10  21  36  55  80 108 139 178 222 265 317
#     4  10  21  38  58  83 113 144 183 230 277 331
#     4  10  21  36  55  80 108 139 179 222 265 318
#     4  10  21  36  53  77 108 141 178 220 265 316
#     4  10  21  36  53  77 109 141 178 221 264 316
#     4  10  21  38  58  83 113 144 183 229 277 332
#
# _framework density 19.631845999999999
#
# number of rings (size 3 to 8) (size 9 to 14) (size 15 to 20)
#    0.000    2.000    0.000    3.000    0.000    5.333 
#    0.000    5.000    0.000    0.000    0.000    0.000 
#    0.000    0.000    0.000    0.000    0.000    0.000 
#
# Total GULP energy -297629.936769 kJ/mol
# GULP energy per Si atom -12401.247365 kJ/mol
# Density = 1.958716 g / cm^3
# Si number density = 19.631846 Si / 1000 Ang^3
#
#
#
# Elastic Constant Matrix: (Units=GPa)
#
#
# Indices 1 2 3 4 5 6 
#
# 1 102.7395 34.0819 62.8114 0.0000 12.5232 0.0000
# 2 34.0819 94.3518 24.6960 0.0000 2.1415 0.0000
# 3 62.8114 24.6960 83.8238 0.0000 -9.2251 0.0000
# 4 0.0000 0.0000 0.0000 32.7266 0.0000 -3.4163
# 5 12.5232 2.1415 -9.2251 0.0000 30.0749 0.0000
# 6 0.0000 0.0000 0.0000 -3.4163 0.0000 25.5440
#
#
#
# Elastic Compliance Matrix: (Units=1/GPa)
#
#
# Indices 1 2 3 4 5 6 
#
# 1 0.024442 -0.003493 -0.019021 0.000000 -0.015764 0.000000
# 2 -0.003493 0.012091 -0.000911 0.000000 0.000314 0.000000
# 3 -0.019021 -0.000911 0.028285 0.000000 0.016661 0.000000
# 4 0.000000 0.000000 0.000000 0.030989 0.000000 0.004144
# 5 -0.015764 0.000314 0.016661 0.000000 0.044903 0.000000
# 6 0.000000 0.000000 0.000000 0.004144 0.000000 0.039702
#
#
# Mechanical properties :
#
#
# Convention : Reuss Voigt Hill
#
# Bulk Modulus (GPa) = 55.64934 58.23264 56.94099
# Shear Modulus (GPa) = 21.43611 28.29082 24.86346
#
# Velocity S-wave (km/s) = 3.30798 3.80026 3.56263
# Velocity P-wave (km/s) = 6.55731 6.99876 6.78163
#
# Compressibility (1/GPa) = 0.01796966
#
# Stress axis : x y z
#
# Youngs Moduli (GPa) = 40.91260 82.70279 35.35468
#
# Poissons Ratio (x) = 0.28885 0.67249
# Poissons Ratio (y) = 0.14289 0.03220
# Poissons Ratio (z) = 0.77821 0.07532
#
# Static dielectric constant tensor:
#      x y z
#    x 3.470300 0.000000 -0.033570 
#    y 0.000000 4.007620 0.000000 
#    z -0.033570 0.000000 3.313430 
# 
# 
# High freq. dielectric constant tensor:
#      x y z
#    x 1.759150 0.000000 0.000050 
#    y 0.000000 1.789750 0.000000 
#    z 0.000050 0.000000 1.752290 
# 
# From -- ./inp_files/96885.got.cif
#   From: 2010.06.25/outbox.cif.g09.slc.cpg/sg13_49_cif.got.tgz:96885.got - 2010.06.28 04:50:58.
