data_PCOD8119338
_publ_section_title
;
Structure prediction by ZEFSAII (Michael W. Deem and Ramdas Pophale) SiO2 
 PCOD8119338
Probable space group: P 2/C
;
_chemical_formula_sum "Si O2"
_cell_formula_units_Z 28
_cell_length_a 6.241195
_cell_length_b 11.714900
_cell_length_c 19.225076
_cell_angle_alpha 90.000000
_cell_angle_beta 72.463910
_cell_angle_gamma 90.000000
_cell_volume 1340.317097
_symmetry_space_group_name_H-M "P 2/C"
_symmetry_group_IT_number 13
_symmetry_cell_setting 'monoclinic'
loop_
_space_group_symop_operation_xyz
x,y,z
-x,y,1/2-z
-x,-y,-z
x,-y,1/2+z
loop_
_atom_site_type_symbol
_atom_site_label
_atom_site_fract_x
_atom_site_fract_y
_atom_site_fract_z
Si Si1 0.500000 0.698032 0.250000
Si Si2 0.375469 0.157000 0.455116
Si Si3 0.196766 0.157082 0.688885
Si Si4 0.761449 0.529333 0.143367
Si Si5 0.613569 0.095030 0.568658
Si Si6 0.993454 0.264259 0.574926
Si Si7 0.000000 0.426282 0.250000
Si Si8 0.543657 0.679464 0.826216
O O1 0.706507 0.771260 0.256653
O O2 0.570217 0.621089 0.178151
O O3 0.558175 0.147434 0.498625
O O4 0.165417 0.236667 0.496021
O O5 0.499604 0.208805 0.376121
O O6 0.278403 0.030796 0.447888
O O7 0.385103 0.076576 0.636102
O O8 0.106810 0.241976 0.638088
O O9 0.000000 0.087444 0.750000
O O10 0.891028 0.503777 0.201815
O O11 0.630008 0.418057 0.127817
O O12 0.925867 0.600199 0.074690
O O13 0.778169 0.181152 0.591288
O O14 0.806364 0.352312 0.307351
O O15 0.500000 0.706803 0.750000
#
# Coordination Sequence:
#
# PCOD8119338 Si02
#       8
#     2   4   4   4   4   4   2   4
#     4  12  18  34  60  90 134 152 196 256 304 368
#     4  10  24  44  61  84 123 164 210 248 305 367
#     4  11  20  33  58  95 124 153 200 254 308 362
#     4  11  20  34  61  92 121 158 199 246 312 362
#     4  10  22  42  62  85 122 166 202 254 308 363
#     4  11  22  37  65  91 120 160 199 253 310 363
#     4  10  20  38  62  86 130 168 192 248 312 360
#     4  10  23  41  60  89 119 161 206 251 301 366
#
# _framework density 20.89058
#
# number of rings (size 3 to 8) (size 9 to 14) (size 15 to 20)
#    0.000    1.429    5.000    1.286    0.000    2.857 
#    5.143    1.429    0.000    0.000    0.000    0.000 
#    0.000    0.000    0.000    0.000    0.000    0.000 
#
# Total GULP energy -346988.236667 kJ/mol
# GULP energy per Si atom -12392.437024 kJ/mol
# Density = 2.084303 g / cm^3
# Si number density = 20.890580 Si / 1000 Ang^3
#
#
#
# Elastic Constant Matrix: (Units=GPa)
#
#
# Indices 1 2 3 4 5 6 
#
# 1 92.7573 35.5496 29.5031 0.0000 -7.1656 0.0000
# 2 35.5496 94.6356 45.0765 0.0000 -3.7193 0.0000
# 3 29.5031 45.0765 96.2088 0.0000 -19.1426 0.0000
# 4 0.0000 0.0000 0.0000 32.9024 0.0000 -2.1013
# 5 -7.1656 -3.7193 -19.1426 0.0000 30.5371 0.0000
# 6 0.0000 0.0000 0.0000 -2.1013 0.0000 16.0464
#
#
#
# Elastic Compliance Matrix: (Units=1/GPa)
#
#
# Indices 1 2 3 4 5 6 
#
# 1 0.012990 -0.003939 -0.001859 0.000000 0.001403 0.000000
# 2 -0.003939 0.014991 -0.006439 0.000000 -0.003135 0.000000
# 3 -0.001859 -0.006439 0.015696 0.000000 0.008619 0.000000
# 4 0.000000 0.000000 0.000000 0.030649 0.000000 0.004014
# 5 0.001403 -0.003135 0.008619 0.000000 0.038097 0.000000
# 6 0.000000 0.000000 0.000000 0.004014 0.000000 0.062845
#
#
# Mechanical properties :
#
#
# Convention : Reuss Voigt Hill
#
# Bulk Modulus (GPa) = 52.07744 55.98445 54.03094
# Shear Modulus (GPa) = 24.25503 27.46202 25.85853
#
# Velocity S-wave (km/s) = 3.41112 3.62963 3.52207
# Velocity P-wave (km/s) = 6.36373 6.66503 6.51612
#
# Compressibility (1/GPa) = 0.01920217
#
# Stress axis : x y z
#
# Youngs Moduli (GPa) = 76.98149 66.70884 63.71105
#
# Poissons Ratio (x) = 0.26278 0.11842
# Poissons Ratio (y) = 0.30325 0.41025
# Poissons Ratio (z) = 0.14308 0.42956
#
# Static dielectric constant tensor:
#      x y z
#    x 3.985630 0.000000 -0.285700 
#    y 0.000000 3.537860 0.000000 
#    z -0.285700 0.000000 3.759300 
# 
# 
# High freq. dielectric constant tensor:
#      x y z
#    x 1.826630 0.000000 -0.012080 
#    y 0.000000 1.795110 0.000000 
#    z -0.012080 0.000000 1.813650 
# 
# From -- ./inp_files/73394.got.cif
#   From: 2010.06.25/outbox.cif.g09.slc.cpg/sg13_37_cif.got.tgz:73394.got - 2010.06.28 04:50:58.
