data_PCOD8119314
_publ_section_title
;
Structure prediction by ZEFSAII (Michael W. Deem and Ramdas Pophale) SiO2 
 PCOD8119314
Probable space group: P 2/C
;
_chemical_formula_sum "Si O2"
_cell_formula_units_Z 30
_cell_length_a 21.004527
_cell_length_b 6.881452
_cell_length_c 20.199353
_cell_angle_alpha 90.000000
_cell_angle_beta 150.886762
_cell_angle_gamma 90.000000
_cell_volume 1420.517360
_symmetry_space_group_name_H-M "P 2/C"
_symmetry_group_IT_number 13
_symmetry_cell_setting 'monoclinic'
loop_
_space_group_symop_operation_xyz
x,y,z
-x,y,1/2-z
-x,-y,-z
x,-y,1/2+z
loop_
_atom_site_type_symbol
_atom_site_label
_atom_site_fract_x
_atom_site_fract_y
_atom_site_fract_z
Si Si1 0.823597 0.689485 0.555482
Si Si2 0.253501 0.685120 0.674168
Si Si3 0.659732 0.319151 0.033637
Si Si4 0.000000 0.038300 0.750000
Si Si5 0.229665 0.403074 0.768836
Si Si6 0.579798 0.566433 0.259481
Si Si7 0.016566 0.355078 0.868099
Si Si8 0.654886 0.016889 0.136340
O O1 0.768207 0.629268 0.577041
O O2 0.882527 0.904824 0.615879
O O3 0.705049 0.695671 0.394832
O O4 0.932427 0.533909 0.631297
O O5 0.214173 0.501531 0.683532
O O6 0.377133 0.624220 0.741485
O O7 0.133610 0.736625 0.517370
O O8 0.290785 0.870431 0.750885
O O9 0.657623 0.492459 0.085500
O O10 0.694121 0.120758 0.103097
O O11 0.514746 0.299441 0.871062
O O12 0.044684 0.180884 0.731340
O O13 0.093051 0.432303 0.682091
O O14 0.270664 0.184278 0.794908
O O15 0.500000 0.487384 0.250000
O O16 0.500000 0.000000 0.000000
#
# Coordination Sequence:
#
# PCOD8119314 Si02
#       8
#     4   4   4   2   4   4   4   4
#     4  10  22  40  61  86 120 156 196 245 296 352
#     4  10  23  41  60  86 119 156 197 244 297 353
#     4  10  20  38  61  88 119 155 198 243 296 352
#     4  12  22  36  60  86 116 152 194 242 292 346
#     4  11  22  38  61  86 119 158 198 245 296 352
#     4   9  19  38  63  85 113 154 193 239 297 353
#     4  11  24  40  60  88 119 157 202 245 296 354
#     4  11  23  37  60  91 121 157 201 247 299 357
#
# _framework density 21.119064999999999
#
# number of rings (size 3 to 8) (size 9 to 14) (size 15 to 20)
#    0.000    1.600    0.000    4.800    0.000    6.933 
#    0.000    1.333    0.000    5.600    0.000    0.000 
#    0.000    0.000    0.000    0.000    0.000    0.000 
#
# Total GULP energy -372047.460821 kJ/mol
# GULP energy per Si atom -12401.582027 kJ/mol
# Density = 2.107100 g / cm^3
# Si number density = 21.119065 Si / 1000 Ang^3
#
#
#
# Elastic Constant Matrix: (Units=GPa)
#
#
# Indices 1 2 3 4 5 6 
#
# 1 111.5852 48.4971 42.2457 0.0000 0.1515 0.0000
# 2 48.4971 132.9904 45.1630 0.0000 -6.6480 0.0000
# 3 42.2457 45.1630 85.3074 0.0000 -1.4579 0.0000
# 4 0.0000 0.0000 0.0000 28.3072 0.0000 0.0177
# 5 0.1515 -6.6480 -1.4579 0.0000 34.7419 0.0000
# 6 0.0000 0.0000 0.0000 0.0177 0.0000 28.5851
#
#
#
# Elastic Compliance Matrix: (Units=1/GPa)
#
#
# Indices 1 2 3 4 5 6 
#
# 1 0.011869 -0.002886 -0.004363 0.000000 -0.000787 0.000000
# 2 -0.002886 0.009954 -0.003810 0.000000 0.001757 0.000000
# 3 -0.004363 -0.003810 0.015900 0.000000 -0.000043 0.000000
# 4 0.000000 0.000000 0.000000 0.035327 0.000000 -0.000022
# 5 -0.000787 0.001757 -0.000043 0.000000 0.029122 0.000000
# 6 0.000000 0.000000 0.000000 -0.000022 0.000000 0.034983
#
#
# Mechanical properties :
#
#
# Convention : Reuss Voigt Hill
#
# Bulk Modulus (GPa) = 64.09017 66.85497 65.47257
# Shear Modulus (GPa) = 30.39992 31.25866 30.82929
#
# Velocity S-wave (km/s) = 3.79813 3.85140 3.82486
# Velocity P-wave (km/s) = 7.04609 7.17653 7.11161
#
# Compressibility (1/GPa) = 0.01560302
#
# Stress axis : x y z
#
# Youngs Moduli (GPa) = 84.25295 100.46672 62.89411
#
# Poissons Ratio (x) = 0.28992 0.27443
# Poissons Ratio (y) = 0.24313 0.23965
# Poissons Ratio (z) = 0.36763 0.38282
#
# Static dielectric constant tensor:
#      x y z
#    x 4.104540 0.000000 -0.152560 
#    y 0.000000 3.596290 0.000000 
#    z -0.152560 0.000000 3.986410 
# 
# 
# High freq. dielectric constant tensor:
#      x y z
#    x 1.841130 0.000000 -0.010610 
#    y 0.000000 1.810230 0.000000 
#    z -0.010610 0.000000 1.843290 
# 
# From -- ./inp_files/81971.got.cif
#   From: 2010.06.25/outbox.cif.g09.slc.cpg/sg13_41_cif.got.tgz:81971.got - 2010.06.28 04:50:58.
