data_PCOD8119128
_publ_section_title
;
Structure prediction by ZEFSAII (Michael W. Deem and Ramdas Pophale) SiO2 
 PCOD8119128
Probable space group: P 2/C
;
_chemical_formula_sum "Si O2"
_cell_formula_units_Z 26
_cell_length_a 9.123219
_cell_length_b 9.840507
_cell_length_c 14.265330
_cell_angle_alpha 90.000000
_cell_angle_beta 79.670298
_cell_angle_gamma 90.000000
_cell_volume 1259.942655
_symmetry_space_group_name_H-M "P 2/C"
_symmetry_group_IT_number 13
_symmetry_cell_setting 'monoclinic'
loop_
_space_group_symop_operation_xyz
x,y,z
-x,y,1/2-z
-x,-y,-z
x,-y,1/2+z
loop_
_atom_site_type_symbol
_atom_site_label
_atom_site_fract_x
_atom_site_fract_y
_atom_site_fract_z
Si Si1 0.792058 0.030476 0.145463
Si Si2 0.124714 0.672731 0.104175
Si Si3 0.000000 0.545481 0.750000
Si Si4 0.986733 0.723906 0.578829
Si Si5 0.000000 0.107890 0.750000
Si Si6 0.604804 0.156772 0.922141
Si Si7 0.500000 0.966080 0.250000
Si Si8 0.718626 0.875682 0.984915
O O1 0.620277 0.067749 0.188890
O O2 0.875901 0.149348 0.081848
O O3 0.868456 0.992363 0.234446
O O4 0.786165 0.896468 0.080940
O O5 0.046812 0.804708 0.155907
O O6 0.299071 0.707286 0.070834
O O7 0.117068 0.548024 0.179019
O O8 0.040553 0.639689 0.014969
O O9 0.930226 0.639009 0.675887
O O10 0.159023 0.774505 0.576782
O O11 0.574164 0.135690 0.815960
O O12 0.700861 0.026275 0.944164
O O13 0.449055 0.184847 0.994929
#
# Coordination Sequence:
#
# PCOD8119128 Si02
#       8
#     4   4   2   4   2   4   2   4
#     4  11  20  34  60  98 129 158 189 253 330 377
#     4  11  22  43  63  82 124 167 215 255 305 356
#     4  11  29  40  62  88 117 175 230 266 284 347
#     4  12  23  42  62  90 126 163 212 267 301 362
#     4  11  19  32  62  98 121 159 198 250 314 391
#     4  10  20  37  60  95 127 160 188 251 320 392
#     4  10  22  32  56 100 136 152 192 242 320 402
#     4  10  21  36  62  97 126 154 191 249 337 384
#
# _framework density 20.635860999999998
#
# number of rings (size 3 to 8) (size 9 to 14) (size 15 to 20)
#    0.000    1.231    4.615    2.308    2.154    0.000 
#    0.000    0.769    0.000    4.615    0.000    0.000 
#    0.000    0.000    0.000    0.000    0.000    0.000 
#
# Total GULP energy -322137.695633 kJ/mol
# GULP energy per Si atom -12389.911370 kJ/mol
# Density = 2.058889 g / cm^3
# Si number density = 20.635861 Si / 1000 Ang^3
#
#
#
# Elastic Constant Matrix: (Units=GPa)
#
#
# Indices 1 2 3 4 5 6 
#
# 1 112.3630 46.4219 43.4854 0.0000 -2.2369 0.0000
# 2 46.4219 63.9515 32.8449 0.0000 -5.6724 0.0000
# 3 43.4854 32.8449 112.1562 0.0000 10.4355 0.0000
# 4 0.0000 0.0000 0.0000 33.7033 0.0000 -2.1434
# 5 -2.2369 -5.6724 10.4355 0.0000 40.3564 0.0000
# 6 0.0000 0.0000 0.0000 -2.1434 0.0000 7.9914
#
#
#
# Elastic Compliance Matrix: (Units=1/GPa)
#
#
# Indices 1 2 3 4 5 6 
#
# 1 0.013406 -0.008262 -0.002807 0.000000 0.000307 0.000000
# 2 -0.008262 0.024177 -0.004253 0.000000 0.004040 0.000000
# 3 -0.002807 -0.004253 0.011599 0.000000 -0.003753 0.000000
# 4 0.000000 0.000000 0.000000 0.030186 0.000000 0.008096
# 5 0.000307 0.004040 -0.003753 0.000000 0.026334 0.000000
# 6 0.000000 0.000000 0.000000 0.008096 0.000000 0.127306
#
#
# Mechanical properties :
#
#
# Convention : Reuss Voigt Hill
#
# Bulk Modulus (GPa) = 53.94261 59.33056 56.63659
# Shear Modulus (GPa) = 18.53022 27.45812 22.99417
#
# Velocity S-wave (km/s) = 2.99985 3.65170 3.34171
# Velocity P-wave (km/s) = 6.18027 6.82594 6.51112
#
# Compressibility (1/GPa) = 0.01853822
#
# Stress axis : x y z
#
# Youngs Moduli (GPa) = 74.59618 41.36200 86.21538
#
# Poissons Ratio (x) = 0.34174 0.24197
# Poissons Ratio (y) = 0.61633 0.36664
# Poissons Ratio (z) = 0.20936 0.17590
#
# Static dielectric constant tensor:
#      x y z
#    x 3.918570 0.000000 -0.043040 
#    y 0.000000 3.398140 0.000000 
#    z -0.043040 0.000000 3.955890 
# 
# 
# High freq. dielectric constant tensor:
#      x y z
#    x 1.810210 0.000000 0.004190 
#    y 0.000000 1.756890 0.000000 
#    z 0.004190 0.000000 1.828020 
# 
# From -- ./inp_files/46600.got.cif
#   From: 2010.06.25/outbox.cif.g09.slc.cpg/sg13_24_cif.got.tgz:46600.got - 2010.06.28 04:50:58.
