data_PCOD8119612
_publ_section_title
;
Structure prediction by ZEFSAII (Michael W. Deem and Ramdas Pophale) SiO2 
 PCOD8119612
Probable space group: P 2/C
;
_chemical_formula_sum "Si O2"
_cell_formula_units_Z 22
_cell_length_a 15.358158
_cell_length_b 12.717402
_cell_length_c 11.982690
_cell_angle_alpha 90.000000
_cell_angle_beta 28.076485
_cell_angle_gamma 90.000000
_cell_volume 1101.513279
_symmetry_space_group_name_H-M "P 2/C"
_symmetry_group_IT_number 13
_symmetry_cell_setting 'monoclinic'
loop_
_space_group_symop_operation_xyz
x,y,z
-x,y,1/2-z
-x,-y,-z
x,-y,1/2+z
loop_
_atom_site_type_symbol
_atom_site_label
_atom_site_fract_x
_atom_site_fract_y
_atom_site_fract_z
Si Si1 0.000000 0.924739 0.750000
Si Si2 0.605843 0.395432 0.017453
Si Si3 0.010432 0.698184 0.366823
Si Si4 0.874674 0.928865 0.565675
Si Si5 0.339621 0.372993 0.114967
Si Si6 0.329570 0.158437 0.014905
O O1 0.129333 0.852037 0.681068
O O2 0.149698 0.000409 0.517465
O O3 0.500000 0.365531 0.250000
O O4 0.492812 0.359423 0.037312
O O5 0.792956 0.329112 0.802666
O O6 0.642781 0.519617 0.973013
O O7 0.000000 0.664363 0.250000
O O8 0.977703 0.821630 0.417722
O O9 0.860690 0.629829 0.602110
O O10 0.685533 0.902471 0.848049
O O11 0.000000 0.000000 0.500000
O O12 0.366159 0.280918 0.994981
O O13 0.500000 0.112375 0.750000
#
# Coordination Sequence:
#
# PCOD8119612 Si02
#       6
#     2   4   4   4   4   4
#     4  10  20  40  62  86 124 158 194 260 310 346
#     4  11  22  39  62  88 124 160 194 252 302 353
#     4  11  20  38  62  88 116 157 204 239 297 364
#     4   9  20  38  61  87 120 157 199 250 302 351
#     4  10  23  40  58  90 123 156 203 244 298 366
#     4  10  22  39  61  89 119 158 203 246 302 366
#
# _framework density 19.972525000000001
#
# number of rings (size 3 to 8) (size 9 to 14) (size 15 to 20)
#    0.000    1.818    2.727    1.091    0.000    5.091 
#    1.636    9.091    0.000    0.000    0.000    0.000 
#    0.000    0.000    0.000    0.000    0.000    0.000 
#
# Total GULP energy -272730.774803 kJ/mol
# GULP energy per Si atom -12396.853400 kJ/mol
# Density = 1.992707 g / cm^3
# Si number density = 19.972525 Si / 1000 Ang^3
#
#
#
# Elastic Constant Matrix: (Units=GPa)
#
#
# Indices 1 2 3 4 5 6 
#
# 1 73.8482 38.1832 35.3150 0.0000 -2.5987 0.0000
# 2 38.1832 86.1308 29.8788 0.0000 -4.7420 0.0000
# 3 35.3150 29.8788 131.2294 0.0000 1.7675 0.0000
# 4 0.0000 0.0000 0.0000 7.2014 0.0000 -11.1937
# 5 -2.5987 -4.7420 1.7675 0.0000 34.0401 0.0000
# 6 0.0000 0.0000 0.0000 -11.1937 0.0000 20.2212
#
#
#
# Elastic Compliance Matrix: (Units=1/GPa)
#
#
# Indices 1 2 3 4 5 6 
#
# 1 0.018920 -0.007148 -0.003472 0.000000 0.000629 0.000000
# 2 -0.007148 0.015432 -0.001613 0.000000 0.001688 0.000000
# 3 -0.003472 -0.001613 0.008935 0.000000 -0.000954 0.000000
# 4 0.000000 0.000000 0.000000 0.995099 0.000000 0.550853
# 5 0.000629 0.001688 -0.000954 0.000000 0.029710 0.000000
# 6 0.000000 0.000000 0.000000 0.550853 0.000000 0.354387
#
#
# Mechanical properties :
#
#
# Convention : Reuss Voigt Hill
#
# Bulk Modulus (GPa) = 53.13619 55.32918 54.23268
# Shear Modulus (GPa) = 3.44063 24.81461 14.12762
#
# Velocity S-wave (km/s) = 1.31393 3.52865 2.66250
# Velocity P-wave (km/s) = 5.38185 6.66067 6.05512
#
# Compressibility (1/GPa) = 0.01881956
#
# Stress axis : x y z
#
# Youngs Moduli (GPa) = 52.85397 64.80229 111.92299
#
# Poissons Ratio (x) = 0.46323 0.38865
# Poissons Ratio (y) = 0.37782 0.18048
# Poissons Ratio (z) = 0.18353 0.10450
#
# Static dielectric constant tensor:
#      x y z
#    x 3.713980 0.000000 0.384920 
#    y 0.000000 3.724740 0.000000 
#    z 0.384920 0.000000 3.889380 
# 
# 
# High freq. dielectric constant tensor:
#      x y z
#    x 1.775740 0.000000 0.020630 
#    y 0.000000 1.779490 0.000000 
#    z 0.020630 0.000000 1.787130 
# 
# From -- ./inp_files/29554.got.cif
#   From: 2010.06.25/outbox.cif.g09.slc.cpg/sg13_15_cif.got.tgz:29554.got - 2010.06.28 04:50:58.
