data_PCOD8119262
_publ_section_title
;
Structure prediction by ZEFSAII (Michael W. Deem and Ramdas Pophale) SiO2 
 PCOD8119262
Probable space group: P 2/C
;
_chemical_formula_sum "Si O2"
_cell_formula_units_Z 20
_cell_length_a 8.553651
_cell_length_b 8.782798
_cell_length_c 22.277584
_cell_angle_alpha 90.000000
_cell_angle_beta 31.229231
_cell_angle_gamma 90.000000
_cell_volume 867.701913
_symmetry_space_group_name_H-M "P 2/C"
_symmetry_group_IT_number 13
_symmetry_cell_setting 'monoclinic'
loop_
_space_group_symop_operation_xyz
x,y,z
-x,y,1/2-z
-x,-y,-z
x,-y,1/2+z
loop_
_atom_site_type_symbol
_atom_site_label
_atom_site_fract_x
_atom_site_fract_y
_atom_site_fract_z
Si Si1 0.676300 0.970617 0.050705
Si Si2 0.172586 0.803208 0.385432
Si Si3 0.661827 0.276919 0.471497
Si Si4 0.364077 0.226170 0.228496
Si Si5 0.335624 0.407265 0.466762
O O1 0.816289 0.838218 0.047374
O O2 0.445438 0.076101 0.162942
O O3 0.517151 0.873684 0.049999
O O4 0.953179 0.065772 0.930537
O O5 0.500000 0.809130 0.250000
O O6 0.017989 0.639010 0.423440
O O7 0.489204 0.299576 0.466288
O O8 0.621722 0.418864 0.529646
O O9 0.010193 0.247828 0.344725
O O10 0.500000 0.208699 0.250000
O O11 0.504257 0.374588 0.149518
#
# Coordination Sequence:
#
# PCOD8119262 Si02
#       5
#     4   4   4   4   4
#     4  10  21  38  64  93 124 164 212 261 314 376
#     4  10  20  38  59  89 126 161 211 262 309 370
#     4  11  23  44  65  93 136 167 209 265 314 380
#     4  11  23  42  68  94 126 168 213 266 319 372
#     4  10  25  42  64  96 129 170 211 258 320 382
#
# _framework density 23.049388
#
# number of rings (size 3 to 8) (size 9 to 14) (size 15 to 20)
#    0.000    1.600    0.000    6.000    0.000    8.800 
#    0.000   12.000    0.000    0.000    0.000    0.000 
#    0.000    0.000    0.000    0.000    0.000    0.000 
#
# Total GULP energy -247931.411523 kJ/mol
# GULP energy per Si atom -12396.570576 kJ/mol
# Density = 2.299693 g / cm^3
# Si number density = 23.049388 Si / 1000 Ang^3
#
#
#
# Elastic Constant Matrix: (Units=GPa)
#
#
# Indices 1 2 3 4 5 6 
#
# 1 55.1875 38.9162 41.6436 0.0000 4.6909 0.0000
# 2 38.9162 48.0081 41.4076 0.0000 16.8909 0.0000
# 3 41.6436 41.4076 134.3712 0.0000 8.6288 0.0000
# 4 0.0000 0.0000 0.0000 25.1198 0.0000 8.3432
# 5 4.6909 16.8909 8.6288 0.0000 30.0050 0.0000
# 6 0.0000 0.0000 0.0000 8.3432 0.0000 39.7743
#
#
#
# Elastic Compliance Matrix: (Units=1/GPa)
#
#
# Indices 1 2 3 4 5 6 
#
# 1 0.050197 -0.044426 -0.003025 0.000000 0.018031 0.000000
# 2 -0.044426 0.074566 -0.007091 0.000000 -0.032991 0.000000
# 3 -0.003025 -0.007091 0.010471 0.000000 0.001453 0.000000
# 4 0.000000 0.000000 0.000000 0.042790 0.000000 -0.008976
# 5 0.018031 -0.032991 0.001453 0.000000 0.048663 0.000000
# 6 0.000000 0.000000 0.000000 -0.008976 0.000000 0.027025
#
#
# Mechanical properties :
#
#
# Convention : Reuss Voigt Hill
#
# Bulk Modulus (GPa) = 38.23949 53.50016 45.86983
# Shear Modulus (GPa) = 13.45845 26.68645 20.07245
#
# Velocity S-wave (km/s) = 2.41902 3.40633 2.95421
# Velocity P-wave (km/s) = 4.94251 6.22352 5.61964
#
# Compressibility (1/GPa) = 0.02615097
#
# Stress axis : x y z
#
# Youngs Moduli (GPa) = 19.92136 13.41089 95.49906
#
# Poissons Ratio (x) = 0.59579 0.28884
# Poissons Ratio (y) = 0.88503 0.67721
# Poissons Ratio (z) = 0.06025 0.09510
#
# Static dielectric constant tensor:
#      x y z
#    x 4.409130 0.000000 0.065900 
#    y 0.000000 4.268660 0.000000 
#    z 0.065900 0.000000 4.009120 
# 
# 
# High freq. dielectric constant tensor:
#      x y z
#    x 1.915030 0.000000 0.005830 
#    y 0.000000 1.916640 0.000000 
#    z 0.005830 0.000000 1.902630 
# 
# From -- ./inp_files/84936.got.cif
#   From: 2010.06.25/outbox.cif.g09.slc.cpg/sg13_43_cif.got.tgz:84936.got - 2010.06.28 04:50:58.
