data_PCOD8119407
_publ_section_title
;
Structure prediction by ZEFSAII (Michael W. Deem and Ramdas Pophale) SiO2 
 PCOD8119407
Probable space group: P 2/C
;
_chemical_formula_sum "Si O2"
_cell_formula_units_Z 20
_cell_length_a 26.636399
_cell_length_b 7.475120
_cell_length_c 15.351816
_cell_angle_alpha 90.000000
_cell_angle_beta 19.781204
_cell_angle_gamma 90.000000
_cell_volume 1034.478148
_symmetry_space_group_name_H-M "P 2/C"
_symmetry_group_IT_number 13
_symmetry_cell_setting 'monoclinic'
loop_
_space_group_symop_operation_xyz
x,y,z
-x,y,1/2-z
-x,-y,-z
x,-y,1/2+z
loop_
_atom_site_type_symbol
_atom_site_label
_atom_site_fract_x
_atom_site_fract_y
_atom_site_fract_z
Si Si1 0.008200 0.755552 0.335652
Si Si2 0.892447 0.146718 0.500476
Si Si3 0.307327 0.597874 0.894482
Si Si4 0.203156 0.529991 0.251731
Si Si5 0.361084 0.341422 0.651820
O O1 0.000000 0.687414 0.250000
O O2 0.912043 0.632393 0.555924
O O3 0.180197 0.744383 0.082619
O O4 0.941709 0.953842 0.453276
O O5 0.892079 0.284607 0.582553
O O6 0.727558 0.155531 0.724048
O O7 0.000000 0.220871 0.250000
O O8 0.304464 0.429414 0.834026
O O9 0.464316 0.700147 0.630509
O O10 0.288170 0.519544 0.022201
O O11 0.322585 0.518995 0.135891
#
# Coordination Sequence:
#
# PCOD8119407 Si02
#       5
#     4   4   4   4   4
#     4  11  20  37  61  87 118 159 198 241 292 356
#     4   9  20  37  60  82 124 155 189 244 293 342
#     4  11  20  36  68  90 114 161 200 242 304 351
#     4  10  20  38  65  84 121 154 197 242 294 352
#     4   9  21  39  61  88 122 156 192 248 300 347
#
# _framework density 19.33342
#
# number of rings (size 3 to 8) (size 9 to 14) (size 15 to 20)
#    1.200    0.800    2.000    3.000    0.000    0.800 
#    0.000    6.000   13.200    0.000    0.000    0.000 
#    0.000    0.000    0.000    0.000    0.000    0.000 
#
# Total GULP energy -247809.046529 kJ/mol
# GULP energy per Si atom -12390.452326 kJ/mol
# Density = 1.928942 g / cm^3
# Si number density = 19.333420 Si / 1000 Ang^3
#
#
#
# Elastic Constant Matrix: (Units=GPa)
#
#
# Indices 1 2 3 4 5 6 
#
# 1 97.7952 32.0305 55.5608 0.0000 9.1627 0.0000
# 2 32.0305 104.4930 62.5407 0.0000 -5.4943 0.0000
# 3 55.5608 62.5407 122.0658 0.0000 -9.4097 0.0000
# 4 0.0000 0.0000 0.0000 14.5010 0.0000 -9.9996
# 5 9.1627 -5.4943 -9.4097 0.0000 53.7614 0.0000
# 6 0.0000 0.0000 0.0000 -9.9996 0.0000 19.1294
#
#
#
# Elastic Compliance Matrix: (Units=1/GPa)
#
#
# Indices 1 2 3 4 5 6 
#
# 1 0.014513 -0.000748 -0.006507 0.000000 -0.003689 0.000000
# 2 -0.000748 0.013843 -0.006724 0.000000 0.000365 0.000000
# 3 -0.006507 -0.006724 0.014832 0.000000 0.003018 0.000000
# 4 0.000000 0.000000 0.000000 0.107829 0.000000 0.056366
# 5 -0.003689 0.000365 0.003018 0.000000 0.019795 0.000000
# 6 0.000000 0.000000 0.000000 0.056366 0.000000 0.081740
#
#
# Mechanical properties :
#
#
# Convention : Reuss Voigt Hill
#
# Bulk Modulus (GPa) = 65.66070 69.40199 67.53135
# Shear Modulus (GPa) = 17.50788 29.09318 23.30053
#
# Velocity S-wave (km/s) = 3.01254 3.88340 3.47536
# Velocity P-wave (km/s) = 6.79239 7.48886 7.14911
#
# Compressibility (1/GPa) = 0.01522981
#
# Stress axis : x y z
#
# Youngs Moduli (GPa) = 68.90429 72.23975 67.42381
#
# Poissons Ratio (x) = 0.05405 0.43872
# Poissons Ratio (y) = 0.05155 0.45334
# Poissons Ratio (z) = 0.44835 0.48572
#
# Static dielectric constant tensor:
#      x y z
#    x 3.562630 0.000000 -0.043610 
#    y 0.000000 3.056010 0.000000 
#    z -0.043610 0.000000 3.576290 
# 
# 
# High freq. dielectric constant tensor:
#      x y z
#    x 1.758970 0.000000 0.001180 
#    y 0.000000 1.712040 0.000000 
#    z 0.001180 0.000000 1.761400 
# 
# From -- ./inp_files/59257.got.cif
#   From: 2010.06.25/outbox.cif.g09.slc.cpg/sg13_30_cif.got.tgz:59257.got - 2010.06.28 04:50:58.
