data_PCOD8119033
_publ_section_title
;
Structure prediction by ZEFSAII (Michael W. Deem and Ramdas Pophale) SiO2 
 PCOD8119033
Probable space group: P 2/C
;
_chemical_formula_sum "Si O2"
_cell_formula_units_Z 22
_cell_length_a 15.461929
_cell_length_b 8.492865
_cell_length_c 9.722732
_cell_angle_alpha 90.000000
_cell_angle_beta 105.298967
_cell_angle_gamma 90.000000
_cell_volume 1231.505733
_symmetry_space_group_name_H-M "P 2/C"
_symmetry_group_IT_number 13
_symmetry_cell_setting 'monoclinic'
loop_
_space_group_symop_operation_xyz
x,y,z
-x,y,1/2-z
-x,-y,-z
x,-y,1/2+z
loop_
_atom_site_type_symbol
_atom_site_label
_atom_site_fract_x
_atom_site_fract_y
_atom_site_fract_z
Si Si1 0.500000 0.115235 0.750000
Si Si2 0.016624 0.633954 0.611724
Si Si3 0.083607 0.050958 0.371471
Si Si4 0.829497 0.850174 0.852847
Si Si5 0.622235 0.175935 0.301584
Si Si6 0.501346 0.314841 0.027449
O O1 0.497855 0.224639 0.616057
O O2 0.412368 0.004062 0.716522
O O3 0.949826 0.784241 0.576220
O O4 0.000000 0.550543 0.750000
O O5 0.000000 0.500000 0.500000
O O6 0.120118 0.683904 0.637056
O O7 0.164830 0.069210 0.295521
O O8 0.000000 0.976550 0.250000
O O9 0.116850 0.946131 0.509278
O O10 0.728365 0.823509 0.854764
O O11 0.589677 0.268101 0.151502
O O12 0.585959 0.264283 0.422069
O O13 0.500000 0.500000 0.000000
#
# Coordination Sequence:
#
# PCOD8119033 Si02
#       6
#     2   4   4   4   4   4
#     4  10  20  36  64  82 112 152 192 226 292 338
#     4   9  19  37  55  77 115 153 183 222 283 332
#     4   9  19  36  57  80 114 152 182 233 283 325
#     4  10  21  35  58  86 112 140 198 235 271 332
#     4  10  21  37  58  88 115 144 197 241 275 338
#     4  10  21  40  60  80 120 155 179 232 300 349
#
# _framework density 17.864311000000001
#
# number of rings (size 3 to 8) (size 9 to 14) (size 15 to 20)
#    0.000    2.909    0.000    5.455    5.091    2.182 
#    6.545    1.818    0.000    0.000    0.000    0.000 
#    0.000    0.000    0.000    0.000    0.000    0.000 
#
# Total GULP energy -272611.267740 kJ/mol
# GULP energy per Si atom -12391.421261 kJ/mol
# Density = 1.782365 g / cm^3
# Si number density = 17.864311 Si / 1000 Ang^3
#
#
#
# Elastic Constant Matrix: (Units=GPa)
#
#
# Indices 1 2 3 4 5 6 
#
# 1 132.0330 51.0271 54.5773 0.0000 -1.2131 0.0000
# 2 51.0271 116.0164 82.1299 0.0000 -0.5254 0.0000
# 3 54.5773 82.1299 151.0166 0.0000 -8.9149 0.0000
# 4 0.0000 0.0000 0.0000 42.4152 0.0000 1.0466
# 5 -1.2131 -0.5254 -8.9149 0.0000 16.9944 0.0000
# 6 0.0000 0.0000 0.0000 1.0466 0.0000 6.1704
#
#
#
# Elastic Compliance Matrix: (Units=1/GPa)
#
#
# Indices 1 2 3 4 5 6 
#
# 1 0.009444 -0.002800 -0.001915 0.000000 -0.000417 0.000000
# 2 -0.002800 0.015072 -0.007398 0.000000 -0.003615 0.000000
# 3 -0.001915 -0.007398 0.011677 0.000000 0.005760 0.000000
# 4 0.000000 0.000000 0.000000 0.023676 0.000000 -0.004016
# 5 -0.000417 -0.003615 0.005760 0.000000 0.061723 0.000000
# 6 0.000000 0.000000 0.000000 -0.004016 0.000000 0.162744
#
#
# Mechanical properties :
#
#
# Convention : Reuss Voigt Hill
#
# Bulk Modulus (GPa) = 83.56408 86.05940 84.81174
# Shear Modulus (GPa) = 15.99741 27.20480 21.60111
#
# Velocity S-wave (km/s) = 2.99573 3.90661 3.48109
# Velocity P-wave (km/s) = 7.67102 8.28416 7.98348
#
# Compressibility (1/GPa) = 0.01196686
#
# Stress axis : x y z
#
# Youngs Moduli (GPa) = 105.89151 66.34821 85.63536
#
# Poissons Ratio (x) = 0.18577 0.16397
# Poissons Ratio (y) = 0.29649 0.63356
# Poissons Ratio (z) = 0.20276 0.49087
#
# Static dielectric constant tensor:
#      x y z
#    x 3.229950 0.000000 -0.201220 
#    y 0.000000 3.263920 0.000000 
#    z -0.201220 0.000000 3.500710 
# 
# 
# High freq. dielectric constant tensor:
#      x y z
#    x 1.680410 0.000000 -0.016900 
#    y 0.000000 1.680190 0.000000 
#    z -0.016900 0.000000 1.711860 
# 
# From -- ./inp_files/17943.got.cif
#   From: 2010.06.25/outbox.cif.g09.slc.cpg/sg13_9_cif.got.tgz:17943.got - 2010.06.28 04:50:58.
