data_PCOD8119317
_publ_section_title
;
Structure prediction by ZEFSAII (Michael W. Deem and Ramdas Pophale) SiO2 
 PCOD8119317
Probable space group: P 2/C
;
_chemical_formula_sum "Si O2"
_cell_formula_units_Z 20
_cell_length_a 4.889012
_cell_length_b 11.166023
_cell_length_c 17.445607
_cell_angle_alpha 90.000000
_cell_angle_beta 73.725290
_cell_angle_gamma 90.000000
_cell_volume 914.207660
_symmetry_space_group_name_H-M "P 2/C"
_symmetry_group_IT_number 13
_symmetry_cell_setting 'monoclinic'
loop_
_space_group_symop_operation_xyz
x,y,z
-x,y,1/2-z
-x,-y,-z
x,-y,1/2+z
loop_
_atom_site_type_symbol
_atom_site_label
_atom_site_fract_x
_atom_site_fract_y
_atom_site_fract_z
Si Si1 0.544627 0.377305 0.091798
Si Si2 0.992140 0.252872 0.159309
Si Si3 0.805613 0.000000 0.694387
Si Si4 0.271777 0.622695 0.091798
Si Si5 0.689241 0.252872 0.659309
O O1 0.762152 0.345324 0.142803
O O2 0.376001 0.500000 0.123999
O O3 0.305145 0.275804 0.101001
O O4 0.727313 0.389361 0.000000
O O5 0.000000 0.267870 0.250000
O O6 0.922633 0.116196 0.140507
O O7 0.500000 0.961789 0.750000
O O8 0.796352 0.116196 0.640507
O O9 0.000000 0.038211 0.750000
O O10 0.492853 0.724196 0.101001
O O11 0.952243 0.654676 0.142803
O O12 0.500000 0.267870 0.750000
#
# Coordination Sequence:
#
# PCOD8119317 Si02
#       5
#     4   4   4   4   4
#     4  11  24  42  62  88 128 166 196 245 312 363
#     4  11  22  40  65  92 119 158 209 252 293 359
#     4  10  20  38  61  88 123 158 194 252 316 352
#     4  11  24  42  62  88 128 166 196 245 312 363
#     4  11  22  40  65  92 119 158 209 252 293 359
#
# _framework density 21.876864999999999
#
# number of rings (size 3 to 8) (size 9 to 14) (size 15 to 20)
#    0.000    1.200    0.000    8.400    0.000    6.400 
#    0.000    8.000    0.000    0.000    0.000    0.000 
#    0.000    0.000    0.000    0.000    0.000    0.000 
#
# Total GULP energy -248050.539275 kJ/mol
# GULP energy per Si atom -12402.526964 kJ/mol
# Density = 2.182707 g / cm^3
# Si number density = 21.876865 Si / 1000 Ang^3
#
#
#
# Elastic Constant Matrix: (Units=GPa)
#
#
# Indices 1 2 3 4 5 6 
#
# 1 146.4611 38.9585 37.8502 0.0000 3.4501 0.0000
# 2 38.9585 107.6343 53.3858 0.0000 -1.3997 0.0000
# 3 37.8502 53.3858 66.0922 0.0000 4.3467 0.0000
# 4 0.0000 0.0000 0.0000 16.6697 0.0000 2.7123
# 5 3.4501 -1.3997 4.3467 0.0000 36.4367 0.0000
# 6 0.0000 0.0000 0.0000 2.7123 0.0000 44.6273
#
#
#
# Elastic Compliance Matrix: (Units=1/GPa)
#
#
# Indices 1 2 3 4 5 6 
#
# 1 0.008089 -0.001079 -0.003737 0.000000 -0.000362 0.000000
# 2 -0.001079 0.015807 -0.012293 0.000000 0.002176 0.000000
# 3 -0.003737 -0.012293 0.027423 0.000000 -0.003390 0.000000
# 4 0.000000 0.000000 0.000000 0.060588 0.000000 -0.003682
# 5 -0.000362 0.002176 -0.003390 0.000000 0.027967 0.000000
# 6 0.000000 0.000000 0.000000 -0.003682 0.000000 0.022632
#
#
# Mechanical properties :
#
#
# Convention : Reuss Voigt Hill
#
# Bulk Modulus (GPa) = 58.47732 64.50850 61.49291
# Shear Modulus (GPa) = 24.70050 32.21294 28.45672
#
# Velocity S-wave (km/s) = 3.36381 3.84144 3.61053
# Velocity P-wave (km/s) = 6.47110 7.01617 6.74914
#
# Compressibility (1/GPa) = 0.01710065
#
# Stress axis : x y z
#
# Youngs Moduli (GPa) = 123.62338 63.26386 36.46531
#
# Poissons Ratio (x) = 0.06826 0.13628
# Poissons Ratio (y) = 0.13338 0.44827
# Poissons Ratio (z) = 0.46201 0.77771
#
# Static dielectric constant tensor:
#      x y z
#    x 4.156680 0.000000 0.056660 
#    y 0.000000 4.187670 0.000000 
#    z 0.056660 0.000000 3.572580 
# 
# 
# High freq. dielectric constant tensor:
#      x y z
#    x 1.888250 0.000000 0.006090 
#    y 0.000000 1.870100 0.000000 
#    z 0.006090 0.000000 1.825450 
# 
# From -- ./inp_files/43411.got.cif
#   From: 2010.06.25/outbox.cif.g09.slc.cpg/sg13_22_cif.got.tgz:43411.got - 2010.06.28 04:50:58.
