data_PCOD8119274
_publ_section_title
;
Structure prediction by ZEFSAII (Michael W. Deem and Ramdas Pophale) SiO2 
 PCOD8119274
Probable space group: P 2/C
;
_chemical_formula_sum "Si O2"
_cell_formula_units_Z 20
_cell_length_a 10.798111
_cell_length_b 18.606430
_cell_length_c 14.393993
_cell_angle_alpha 90.000000
_cell_angle_beta 163.520276
_cell_angle_gamma 90.000000
_cell_volume 820.379404
_symmetry_space_group_name_H-M "P 2/C"
_symmetry_group_IT_number 13
_symmetry_cell_setting 'monoclinic'
loop_
_space_group_symop_operation_xyz
x,y,z
-x,y,1/2-z
-x,-y,-z
x,-y,1/2+z
loop_
_atom_site_type_symbol
_atom_site_label
_atom_site_fract_x
_atom_site_fract_y
_atom_site_fract_z
Si Si1 0.583321 0.923408 0.015407
Si Si2 0.993016 0.547564 0.140102
Si Si3 0.008632 0.614003 0.860422
Si Si4 0.927109 0.836594 0.994352
Si Si5 0.108845 0.323213 0.042053
O O1 0.000000 0.930808 0.250000
O O2 0.669332 0.870521 0.162253
O O3 0.174714 0.887831 0.667365
O O4 0.500000 0.000000 0.000000
O O5 0.203421 0.466874 0.285774
O O6 0.000000 0.575407 0.250000
O O7 0.500000 0.537257 0.750000
O O8 0.207463 0.611145 0.227264
O O9 0.000000 0.646415 0.750000
O O10 0.731301 0.658082 0.738190
O O11 0.500000 0.618016 0.250000
O O12 0.500000 0.832224 0.750000
O O13 0.096444 0.755945 0.094612
O O14 0.500000 0.320906 0.250000
#
# Coordination Sequence:
#
# PCOD8119274 Si02
#       5
#     4   4   4   4   4
#     4  10  20  38  60  84 112 144 179 223 276 336
#     4   9  19  34  55  82 111 149 197 242 284 333
#     4  10  22  39  56  80 118 157 193 242 296 335
#     4   9  20  35  57  86 115 143 181 232 281 325
#     4  10  21  38  61  86 114 153 199 239 281 341
#
# _framework density 24.378965000000001
#
# number of rings (size 3 to 8) (size 9 to 14) (size 15 to 20)
#    0.000    2.400    0.000    1.200    0.000   10.400 
#    0.000   15.000    0.000    0.000    0.000    0.000 
#    0.000    0.000    0.000    0.000    0.000    0.000 
#
# Total GULP energy -247798.632713 kJ/mol
# GULP energy per Si atom -12389.931636 kJ/mol
# Density = 2.432348 g / cm^3
# Si number density = 24.378965 Si / 1000 Ang^3
#
#
#
# Elastic Constant Matrix: (Units=GPa)
#
#
# Indices 1 2 3 4 5 6 
#
# 1 159.3799 77.3899 55.6896 0.0000 -53.4600 0.0000
# 2 77.3899 210.0653 26.6989 0.0000 -35.8415 0.0000
# 3 55.6896 26.6989 58.7580 0.0000 -39.4467 0.0000
# 4 0.0000 0.0000 0.0000 28.0105 0.0000 -6.3535
# 5 -53.4600 -35.8415 -39.4467 0.0000 50.6343 0.0000
# 6 0.0000 0.0000 0.0000 -6.3535 0.0000 33.2514
#
#
#
# Elastic Compliance Matrix: (Units=1/GPa)
#
#
# Indices 1 2 3 4 5 6 
#
# 1 0.011472 -0.002495 -0.005857 0.000000 0.005784 0.000000
# 2 -0.002495 0.005959 0.001510 0.000000 0.002760 0.000000
# 3 -0.005857 0.001510 0.038680 0.000000 0.025019 0.000000
# 4 0.000000 0.000000 0.000000 0.037318 0.000000 0.007131
# 5 0.005784 0.002760 0.025019 0.000000 0.047301 0.000000
# 6 0.000000 0.000000 0.000000 0.007131 0.000000 0.031436
#
#
# Mechanical properties :
#
#
# Convention : Reuss Voigt Hill
#
# Bulk Modulus (GPa) = 23.56951 83.08444 53.32698
# Shear Modulus (GPa) = 25.00096 40.27422 32.63759
#
# Velocity S-wave (km/s) = 3.20584 4.06890 3.66288
# Velocity P-wave (km/s) = 4.83654 7.49860 6.30956
#
# Compressibility (1/GPa) = 0.04242770
#
# Stress axis : x y z
#
# Youngs Moduli (GPa) = 87.16625 167.82293 25.85316
#
# Poissons Ratio (x) = 0.41878 0.15141
# Poissons Ratio (y) = 0.21751 -0.03905
# Poissons Ratio (z) = 0.51050 -0.25346
#
# Static dielectric constant tensor:
#      x y z
#    x 4.488530 0.000000 -0.302630 
#    y 0.000000 5.091160 0.000000 
#    z -0.302630 0.000000 4.748400 
# 
# 
# High freq. dielectric constant tensor:
#      x y z
#    x 1.966470 0.000000 -0.022580 
#    y 0.000000 1.966230 0.000000 
#    z -0.022580 0.000000 1.982540 
# 
# From -- ./inp_files/51580.got.cif
#   From: 2010.06.25/outbox.cif.g09.slc.cpg/sg13_26_cif.got.tgz:51580.got - 2010.06.28 04:50:58.
