data_PCOD8119416
_publ_section_title
;
Structure prediction by ZEFSAII (Michael W. Deem and Ramdas Pophale) SiO2 
 PCOD8119416
Probable space group: P 2/C
;
_chemical_formula_sum "Si O2"
_cell_formula_units_Z 28
_cell_length_a 9.355410
_cell_length_b 14.582652
_cell_length_c 20.458003
_cell_angle_alpha 90.000000
_cell_angle_beta 149.166878
_cell_angle_gamma 90.000000
_cell_volume 1430.506301
_symmetry_space_group_name_H-M "P 2/C"
_symmetry_group_IT_number 13
_symmetry_cell_setting 'monoclinic'
loop_
_space_group_symop_operation_xyz
x,y,z
-x,y,1/2-z
-x,-y,-z
x,-y,1/2+z
loop_
_atom_site_type_symbol
_atom_site_label
_atom_site_fract_x
_atom_site_fract_y
_atom_site_fract_z
Si Si1 0.647740 0.422201 0.378895
Si Si2 0.166496 0.044379 0.125995
Si Si3 0.269476 0.626084 0.104752
Si Si4 0.210048 0.686474 0.780403
Si Si5 0.087823 0.961674 0.351445
Si Si6 0.844796 0.225795 0.036650
Si Si7 0.606681 0.144288 0.065150
O O1 0.500000 0.410415 0.250000
O O2 0.679002 0.528849 0.410752
O O3 0.471184 0.378109 0.368651
O O4 0.947335 0.372709 0.501501
O O5 0.500000 0.054116 0.250000
O O6 0.023598 0.143013 0.077072
O O7 0.136251 0.982750 0.180008
O O8 0.000000 0.000000 0.000000
O O9 0.500000 0.636941 0.250000
O O10 0.322763 0.716020 0.082399
O O11 0.289981 0.787723 0.837935
O O12 0.000000 0.638595 0.750000
O O13 0.057531 0.702087 0.652176
O O14 0.307679 0.892647 0.470509
O O15 0.000000 0.909588 0.250000
O O16 0.201074 0.056387 0.366819
O O17 0.610272 0.193938 0.996179
#
# Coordination Sequence:
#
# PCOD8119416 Si02
#       7
#     4   4   4   4   4   4   4
#     4  10  20  39  68  93 120 167 208 254 321 388
#     4  11  27  40  62  98 128 162 215 270 314 366
#     4  10  22  39  63  92 130 165 204 253 324 382
#     4  10  20  38  65  94 115 156 216 264 301 369
#     4  10  21  40  63  79 124 173 201 253 321 384
#     4  10  21  39  63  89 126 160 211 259 305 373
#     4   9  20  37  62  86 114 160 214 247 309 372
#
# _framework density 19.57349
#
# number of rings (size 3 to 8) (size 9 to 14) (size 15 to 20)
#    0.000    2.000    1.429    2.143   10.000    0.571 
#    2.571    2.857    0.000    0.000    0.000    0.000 
#    0.000    0.000    0.000    0.000    0.000    0.000 
#
# Total GULP energy -346916.309543 kJ/mol
# GULP energy per Si atom -12389.868198 kJ/mol
# Density = 1.952894 g / cm^3
# Si number density = 19.573490 Si / 1000 Ang^3
#
#
#
# Elastic Constant Matrix: (Units=GPa)
#
#
# Indices 1 2 3 4 5 6 
#
# 1 90.7620 35.3372 47.3164 0.0000 12.2894 0.0000
# 2 35.3372 64.3030 36.0337 0.0000 12.2405 0.0000
# 3 47.3164 36.0337 96.5392 0.0000 2.8677 0.0000
# 4 0.0000 0.0000 0.0000 4.3879 0.0000 -35.5643
# 5 12.2894 12.2405 2.8677 0.0000 31.7669 0.0000
# 6 0.0000 0.0000 0.0000 -35.5643 0.0000 -28.3504
#
#
#
# Elastic Compliance Matrix: (Units=1/GPa)
#
#
# Indices 1 2 3 4 5 6 
#
# 1 0.016736 -0.004937 -0.006241 0.000000 -0.004009 0.000000
# 2 -0.004937 0.022771 -0.005892 0.000000 -0.006333 0.000000
# 3 -0.006241 -0.005892 0.015519 0.000000 0.003284 0.000000
# 4 0.000000 0.000000 0.000000 0.020407 0.000000 -0.025600
# 5 -0.004009 -0.006333 0.003284 0.000000 0.035174 0.000000
# 6 0.000000 0.000000 0.000000 -0.025600 0.000000 -0.003159
#
#
# Mechanical properties :
#
#
# Convention : Reuss Voigt Hill
#
# Bulk Modulus (GPa) = 47.87589 54.33097 51.10343
# Shear Modulus (GPa) = 33.65834 10.42201 22.04018
#
# Velocity S-wave (km/s) = 4.15129 2.31000 3.35927
# Velocity P-wave (km/s) = 6.89132 5.91037 6.41961
#
# Compressibility (1/GPa) = 0.02088734
#
# Stress axis : x y z
#
# Youngs Moduli (GPa) = 59.74995 43.91474 64.43708
#
# Poissons Ratio (x) = 0.21680 0.40216
# Poissons Ratio (y) = 0.29498 0.37965
# Poissons Ratio (z) = 0.37291 0.25873
#
# Static dielectric constant tensor:
#      x y z
#    x 3.605210 0.000000 0.008350 
#    y 0.000000 3.567230 0.000000 
#    z 0.008350 0.000000 3.634410 
# 
# 
# High freq. dielectric constant tensor:
#      x y z
#    x 1.757270 0.000000 -0.000390 
#    y 0.000000 1.755670 0.000000 
#    z -0.000390 0.000000 1.764250 
# 
# From -- ./inp_files/76655.got.cif
#   From: 2010.06.25/outbox.cif.g09.slc.cpg/sg13_39_cif.got.tgz:76655.got - 2010.06.28 04:50:58.
