data_PCOD8119047
_publ_section_title
;
Structure prediction by ZEFSAII (Michael W. Deem and Ramdas Pophale) SiO2 
 PCOD8119047
Probable space group: P 2/C
;
_chemical_formula_sum "Si O2"
_cell_formula_units_Z 32
_cell_length_a 20.230027
_cell_length_b 6.715422
_cell_length_c 16.676686
_cell_angle_alpha 90.000000
_cell_angle_beta 47.982387
_cell_angle_gamma 90.000000
_cell_volume 1683.188427
_symmetry_space_group_name_H-M "P 2/C"
_symmetry_group_IT_number 13
_symmetry_cell_setting 'monoclinic'
loop_
_space_group_symop_operation_xyz
x,y,z
-x,y,1/2-z
-x,-y,-z
x,-y,1/2+z
loop_
_atom_site_type_symbol
_atom_site_label
_atom_site_fract_x
_atom_site_fract_y
_atom_site_fract_z
Si Si1 0.238308 0.467681 0.039741
Si Si2 0.741649 0.417355 0.659391
Si Si3 0.395724 0.605731 0.009527
Si Si4 0.912495 0.511467 0.623596
Si Si5 0.686511 0.067931 0.812126
Si Si6 0.594625 0.323777 0.349522
Si Si7 0.909438 0.748844 0.278606
Si Si8 0.840113 0.146607 0.279944
O O1 0.336686 0.546221 0.981090
O O2 0.169620 0.647747 0.107553
O O3 0.215497 0.283412 0.114965
O O4 0.233813 0.392436 0.952924
O O5 0.825732 0.499309 0.639323
O O6 0.711924 0.202834 0.715650
O O7 0.662067 0.576003 0.732230
O O8 0.354898 0.801365 0.083382
O O9 0.394687 0.422940 0.072174
O O10 0.494776 0.649205 0.897739
O O11 0.912287 0.328977 0.685445
O O12 0.910397 0.720056 0.673233
O O13 0.000000 0.500000 0.500000
O O14 0.613631 0.910375 0.841439
O O15 0.774242 0.958653 0.771568
O O16 0.000000 0.697562 0.250000
O O17 0.894754 0.985724 0.287026
#
# Coordination Sequence:
#
# PCOD8119047 Si02
#       8
#     4   4   4   4   4   4   4   4
#     4  11  23  40  61  87 126 164 199 253 308 367
#     4  11  23  38  60  89 125 164 200 251 313 361
#     4  10  20  36  65  90 116 161 203 245 307 362
#     4  11  23  41  62  88 121 161 202 254 308 371
#     4  11  18  40  63  91 117 158 209 251 301 365
#     4  10  20  37  63  90 119 157 204 251 297 370
#     4  11  23  41  63  89 119 158 208 254 304 364
#     4  11  21  41  65  86 121 159 208 256 298 370
#
# _framework density 19.011536
#
# number of rings (size 3 to 8) (size 9 to 14) (size 15 to 20)
#    0.000    1.250    5.000    2.625    0.000    5.000 
#    2.250    0.000    0.000    0.000    0.000    0.000 
#    0.000    0.000    0.000    0.000    0.000    0.000 
#
# Total GULP energy -396968.516795 kJ/mol
# GULP energy per Si atom -12405.266150 kJ/mol
# Density = 1.896826 g / cm^3
# Si number density = 19.011536 Si / 1000 Ang^3
#
#
#
# Elastic Constant Matrix: (Units=GPa)
#
#
# Indices 1 2 3 4 5 6 
#
# 1 112.3126 34.1061 46.0138 0.0000 -7.6125 0.0000
# 2 34.1061 124.7057 42.1366 0.0000 0.0883 0.0000
# 3 46.0138 42.1366 113.6595 0.0000 -3.1319 0.0000
# 4 0.0000 0.0000 0.0000 14.3086 0.0000 -4.5524
# 5 -7.6125 0.0883 -3.1319 0.0000 34.2358 0.0000
# 6 0.0000 0.0000 0.0000 -4.5524 0.0000 27.5501
#
#
#
# Elastic Compliance Matrix: (Units=1/GPa)
#
#
# Indices 1 2 3 4 5 6 
#
# 1 0.011140 -0.001765 -0.003797 0.000000 0.002134 0.000000
# 2 -0.001765 0.009451 -0.002808 0.000000 -0.000674 0.000000
# 3 -0.003797 -0.002808 0.011382 0.000000 0.000204 0.000000
# 4 0.000000 0.000000 0.000000 0.073766 0.000000 0.012189
# 5 0.002134 -0.000674 0.000204 0.000000 0.029704 0.000000
# 6 0.000000 0.000000 0.000000 0.012189 0.000000 0.038312
#
#
# Mechanical properties :
#
#
# Convention : Reuss Voigt Hill
#
# Bulk Modulus (GPa) = 65.64528 66.13232 65.88880
# Shear Modulus (GPa) = 25.56611 30.44697 28.00654
#
# Velocity S-wave (km/s) = 3.67109 4.00622 3.84231
# Velocity P-wave (km/s) = 7.25075 7.50070 7.37678
#
# Compressibility (1/GPa) = 0.01523339
#
# Stress axis : x y z
#
# Youngs Moduli (GPa) = 89.76724 105.81103 87.86050
#
# Poissons Ratio (x) = 0.18680 0.33357
# Poissons Ratio (y) = 0.15847 0.24667
# Poissons Ratio (z) = 0.34081 0.29707
#
# Static dielectric constant tensor:
#      x y z
#    x 2.907230 0.000000 -0.309710 
#    y 0.000000 -4.313000 0.000000 
#    z -0.309710 0.000000 3.376840 
# 
# 
# High freq. dielectric constant tensor:
#      x y z
#    x 1.740640 0.000000 -0.013590 
#    y 0.000000 1.749740 0.000000 
#    z -0.013590 0.000000 1.731080 
# 
# From -- ./inp_files/70289.got.cif
#   From: 2010.06.25/outbox.cif.g09.slc.cpg/sg13_36_cif.got.tgz:70289.got - 2010.06.28 04:50:58.
