data_PCOD8119885
_publ_section_title
;
Structure prediction by ZEFSAII (Michael W. Deem and Ramdas Pophale) SiO2 
 PCOD8119885
Probable space group: P 2/C
;
_chemical_formula_sum "Si O2"
_cell_formula_units_Z 32
_cell_length_a 14.167328
_cell_length_b 9.786666
_cell_length_c 19.333407
_cell_angle_alpha 90.000000
_cell_angle_beta 44.157552
_cell_angle_gamma 90.000000
_cell_volume 1867.392632
_symmetry_space_group_name_H-M "P 2/C"
_symmetry_group_IT_number 13
_symmetry_cell_setting 'monoclinic'
loop_
_space_group_symop_operation_xyz
x,y,z
-x,y,1/2-z
-x,-y,-z
x,-y,1/2+z
loop_
_atom_site_type_symbol
_atom_site_label
_atom_site_fract_x
_atom_site_fract_y
_atom_site_fract_z
Si Si1 0.855917 0.216245 0.061805
Si Si2 0.373326 0.124714 0.135681
Si Si3 0.547764 0.134181 0.559468
Si Si4 0.150732 0.215147 0.883608
Si Si5 0.424019 0.354538 0.720745
Si Si6 0.104409 0.961552 0.825613
Si Si7 0.191034 0.962255 0.497914
Si Si8 0.600842 0.666436 0.755414
O O1 0.881350 0.108555 0.108189
O O2 0.749951 0.331569 0.141641
O O3 0.798367 0.122809 0.028992
O O4 0.001650 0.285725 0.968624
O O5 0.210216 0.103699 0.215631
O O6 0.409658 0.240201 0.171806
O O7 0.436309 0.982743 0.129090
O O8 0.432485 0.169719 0.031335
O O9 0.494921 0.273017 0.621465
O O10 0.687530 0.078936 0.516410
O O11 0.263599 0.328530 0.809654
O O12 0.193737 0.135023 0.929982
O O13 0.142330 0.118836 0.820438
O O14 0.500000 0.306889 0.750000
O O15 0.441890 0.515349 0.698642
O O16 0.948307 0.943824 0.884213
O O17 0.500000 0.723749 0.750000
#
# Coordination Sequence:
#
# PCOD8119885 Si02
#       8
#     4   4   4   4   4   4   4   4
#     4   8  16  29  50  76 100 130 161 202 255 302
#     4  10  21  35  50  74 103 132 175 208 251 311
#     4  11  21  32  52  76 100 135 172 213 253 300
#     4   9  15  29  50  75 104 124 163 210 247 299
#     4  11  21  32  51  77 103 135 171 212 255 297
#     4   8  15  29  49  74 101 127 160 210 252 298
#     4   9  16  28  51  78 101 128 161 206 263 288
#     4  10  21  35  51  74 103 133 170 209 256 308
#
# _framework density 17.136192000000001
#
# number of rings (size 3 to 8) (size 9 to 14) (size 15 to 20)
#    0.000    2.500    2.500    2.250    0.000    2.000 
#    0.000    0.000    0.000    0.000    0.000    0.000 
#   11.250    0.000    0.000    0.000    0.000    0.000 
#
# Total GULP energy -396596.126860 kJ/mol
# GULP energy per Si atom -12393.628964 kJ/mol
# Density = 1.709719 g / cm^3
# Si number density = 17.136192 Si / 1000 Ang^3
#
#
#
# Elastic Constant Matrix: (Units=GPa)
#
#
# Indices 1 2 3 4 5 6 
#
# 1 75.0071 31.2819 47.3631 0.0000 -11.2845 0.0000
# 2 31.2819 65.9667 47.7556 0.0000 2.5512 0.0000
# 3 47.3631 47.7556 106.2061 0.0000 -13.0877 0.0000
# 4 0.0000 0.0000 0.0000 20.8504 0.0000 -1.0989
# 5 -11.2845 2.5512 -13.0877 0.0000 24.5321 0.0000
# 6 0.0000 0.0000 0.0000 -1.0989 0.0000 20.8827
#
#
#
# Elastic Compliance Matrix: (Units=1/GPa)
#
#
# Indices 1 2 3 4 5 6 
#
# 1 0.020360 -0.005898 -0.005563 0.000000 0.007011 0.000000
# 2 -0.005898 0.025870 -0.010348 0.000000 -0.010924 0.000000
# 3 -0.005563 -0.010348 0.017519 0.000000 0.007863 0.000000
# 4 0.000000 0.000000 0.000000 0.048094 0.000000 0.002531
# 5 0.007011 -0.010924 0.007863 0.000000 0.049319 0.000000
# 6 0.000000 0.000000 0.000000 0.002531 0.000000 0.048020
#
#
# Mechanical properties :
#
#
# Convention : Reuss Voigt Hill
#
# Bulk Modulus (GPa) = 49.68065 55.55346 52.61705
# Shear Modulus (GPa) = 19.26701 21.30500 20.28600
#
# Velocity S-wave (km/s) = 3.35676 3.52984 3.44439
# Velocity P-wave (km/s) = 6.63916 7.00729 6.82571
#
# Compressibility (1/GPa) = 0.02012856
#
# Stress axis : x y z
#
# Youngs Moduli (GPa) = 49.11660 38.65447 57.08150
#
# Poissons Ratio (x) = 0.22800 0.31757
# Poissons Ratio (y) = 0.28970 0.59070
# Poissons Ratio (z) = 0.27326 0.40001
#
# Static dielectric constant tensor:
#      x y z
#    x 3.110570 0.000000 -0.323070 
#    y 0.000000 2.891440 0.000000 
#    z -0.323070 0.000000 3.446760 
# 
# 
# High freq. dielectric constant tensor:
#      x y z
#    x 1.649090 0.000000 -0.023210 
#    y 0.000000 1.634520 0.000000 
#    z -0.023210 0.000000 1.668580 
# 
# From -- ./inp_files/79800.got.cif
#   From: 2010.06.25/outbox.cif.g09.slc.cpg/sg13_40_cif.got.tgz:79800.got - 2010.06.28 04:50:58.
