data_PCOD8119418
_publ_section_title
;
Structure prediction by ZEFSAII (Michael W. Deem and Ramdas Pophale) SiO2 
 PCOD8119418
Probable space group: P 2/C
;
_chemical_formula_sum "Si O2"
_cell_formula_units_Z 28
_cell_length_a 31.369554
_cell_length_b 8.427613
_cell_length_c 31.777873
_cell_angle_alpha 90.000000
_cell_angle_beta 9.090723
_cell_angle_gamma 90.000000
_cell_volume 1327.363473
_symmetry_space_group_name_H-M "P 2/C"
_symmetry_group_IT_number 13
_symmetry_cell_setting 'monoclinic'
loop_
_space_group_symop_operation_xyz
x,y,z
-x,y,1/2-z
-x,-y,-z
x,-y,1/2+z
loop_
_atom_site_type_symbol
_atom_site_label
_atom_site_fract_x
_atom_site_fract_y
_atom_site_fract_z
Si Si1 0.837630 0.821709 0.072700
Si Si2 0.311875 0.677436 0.556554
Si Si3 0.242016 0.884941 0.258626
Si Si4 0.716152 0.820612 0.504690
Si Si5 0.545878 0.320777 0.085994
Si Si6 0.275976 0.817176 0.503259
Si Si7 0.987105 0.182286 0.602135
O O1 0.077372 0.719175 0.818561
O O2 0.566694 0.792927 0.311505
O O3 0.756481 0.777968 0.200402
O O4 0.910540 0.004119 0.997379
O O5 0.387613 0.497801 0.493344
O O6 0.245202 0.697890 0.572503
O O7 0.159709 0.773222 0.299277
O O8 0.000000 0.000000 0.500000
O O9 0.500000 0.000000 0.000000
O O10 0.614719 0.699927 0.567808
O O11 0.000000 0.777801 0.250000
O O12 0.700416 0.001601 0.503277
O O13 0.500000 0.792011 0.750000
O O14 0.236394 0.292917 0.373213
O O15 0.745649 0.195110 0.870188
O O16 0.000000 0.792220 0.750000
O O17 0.500000 0.772263 0.250000
#
# Coordination Sequence:
#
# PCOD8119418 Si02
#       7
#     4   4   4   4   4   4   4
#     4  11  22  41  66  90 120 163 211 257 304 366
#     4  12  25  40  60  93 131 163 200 252 317 375
#     4  10  20  38  65  96 119 154 215 268 305 358
#     4  10  21  38  61  87 116 157 208 255 301 360
#     4  12  25  40  60  93 131 163 200 252 317 375
#     4  10  21  38  61  87 116 157 208 255 301 360
#     4  11  22  41  66  90 120 163 211 257 304 366
#
# _framework density 21.094446999999999
#
# number of rings (size 3 to 8) (size 9 to 14) (size 15 to 20)
#    0.000    1.143    0.000    8.571    0.000    3.429 
#    0.000    4.286    0.000    0.000    0.000    0.000 
#    0.000    0.000    0.000    0.000    0.000    0.000 
#
# Total GULP energy -346923.969770 kJ/mol
# GULP energy per Si atom -12390.141778 kJ/mol
# Density = 2.104644 g / cm^3
# Si number density = 21.094447 Si / 1000 Ang^3
#
#
#
# Elastic Constant Matrix: (Units=GPa)
#
#
# Indices 1 2 3 4 5 6 
#
# 1 -69.7142 227.2262 -17.2413 0.0000 40.1720 0.0000
# 2 227.2262 -135.1191 72.2682 0.0000 -30.7921 0.0000
# 3 -17.2413 72.2682 123.0877 0.0000 19.5361 0.0000
# 4 0.0000 0.0000 0.0000 27.4335 0.0000 6.0387
# 5 40.1720 -30.7921 19.5361 0.0000 52.2925 0.0000
# 6 0.0000 0.0000 0.0000 6.0387 0.0000 35.8581
#
#
#
# Elastic Compliance Matrix: (Units=1/GPa)
#
#
# Indices 1 2 3 4 5 6 
#
# 1 0.004131 0.005297 -0.002682 0.000000 0.000947 0.000000
# 2 0.005297 0.002117 -0.000056 0.000000 -0.002802 0.000000
# 3 -0.002682 -0.000056 0.007930 0.000000 -0.000935 0.000000
# 4 0.000000 0.000000 0.000000 0.037855 0.000000 -0.006375
# 5 0.000947 -0.002802 -0.000935 0.000000 0.017094 0.000000
# 6 0.000000 0.000000 0.000000 -0.006375 0.000000 0.028961
#
#
# Mechanical properties :
#
#
# Convention : Reuss Voigt Hill
#
# Bulk Modulus (GPa) = 51.82110 53.64007 52.73058
# Shear Modulus (GPa) = 50.30092 -1.14977 24.57557
#
# Velocity S-wave (km/s) = 4.88849 -0.73908 3.41695
# Velocity P-wave (km/s) = 7.51550 4.97548 6.37331
#
# Compressibility (1/GPa) = 0.01929716
#
# Stress axis : x y z
#
# Youngs Moduli (GPa) = 242.04367 472.47671 126.10640
#
# Poissons Ratio (x) = -2.50293 0.33821
# Poissons Ratio (y) = -1.28222 0.00704
# Poissons Ratio (z) = 0.64915 0.02638
#
# Static dielectric constant tensor:
#      x y z
#    x -27.086010 0.000000 -0.376530 
#    y 0.000000 3.529810 0.000000 
#    z -0.376530 0.000000 4.024660 
# 
# 
# High freq. dielectric constant tensor:
#      x y z
#    x 1.845670 0.000000 -0.000480 
#    y 0.000000 1.798370 0.000000 
#    z -0.000480 0.000000 1.851040 
# 
# From -- ./inp_files/98048.got.cif
#   From: 2010.06.25/outbox.cif.g09.slc.cpg/sg13_50_cif.got.tgz:98048.got - 2010.06.28 04:50:58.
