data_PCOD8119723
_publ_section_title
;
Structure prediction by ZEFSAII (Michael W. Deem and Ramdas Pophale) SiO2 
 PCOD8119723
Probable space group: P 2/C
;
_chemical_formula_sum "Si O2"
_cell_formula_units_Z 28
_cell_length_a 8.466852
_cell_length_b 12.486638
_cell_length_c 13.348527
_cell_angle_alpha 90.000000
_cell_angle_beta 71.778789
_cell_angle_gamma 90.000000
_cell_volume 1340.475154
_symmetry_space_group_name_H-M "P 2/C"
_symmetry_group_IT_number 13
_symmetry_cell_setting 'monoclinic'
loop_
_space_group_symop_operation_xyz
x,y,z
-x,y,1/2-z
-x,-y,-z
x,-y,1/2+z
loop_
_atom_site_type_symbol
_atom_site_label
_atom_site_fract_x
_atom_site_fract_y
_atom_site_fract_z
Si Si1 0.809770 0.698932 0.542428
Si Si2 0.812152 0.154976 0.752593
Si Si3 0.457583 0.756040 0.649109
Si Si4 0.817321 0.375174 0.825675
Si Si5 0.343302 0.037113 0.093643
Si Si6 0.809080 0.399106 0.258941
Si Si7 0.086283 0.114122 0.986119
O O1 0.627187 0.747629 0.551582
O O2 0.842082 0.623743 0.440867
O O3 0.801119 0.625365 0.642145
O O4 0.947150 0.793337 0.527668
O O5 0.725475 0.268278 0.800444
O O6 0.804049 0.134831 0.635394
O O7 0.000000 0.159690 0.750000
O O8 0.729402 0.061715 0.832274
O O9 0.500000 0.714736 0.750000
O O10 0.401617 0.878733 0.665028
O O11 0.301999 0.680289 0.649316
O O12 0.732922 0.483443 0.800313
O O13 0.000000 0.376013 0.750000
O O14 0.213075 0.105376 0.053038
O O15 0.500000 0.000000 0.000000
O O16 0.000000 0.386397 0.250000
O O17 0.000000 0.000000 0.000000
#
# Coordination Sequence:
#
# PCOD8119723 Si02
#       7
#     4   4   4   4   4   4   4
#     4  11  22  43  68  92 130 174 222 270 333 392
#     4  11  22  41  66  95 129 173 215 267 327 392
#     4  10  24  42  64  92 130 171 216 276 330 388
#     4  10  20  41  64  93 128 166 220 273 328 388
#     4  12  26  40  64  99 136 169 216 266 329 394
#     4  10  23  40  66  95 124 166 222 274 332 391
#     4  12  23  39  68  97 127 174 217 261 329 397
#
# _framework density 20.888117000000001
#
# number of rings (size 3 to 8) (size 9 to 14) (size 15 to 20)
#    0.000    1.143    4.286    2.571    6.000    3.429 
#    2.571    0.000    6.286    0.000    0.000    0.000 
#    0.000    0.000    0.000    0.000    0.000    0.000 
#
# Total GULP energy -346917.769963 kJ/mol
# GULP energy per Si atom -12389.920356 kJ/mol
# Density = 2.084057 g / cm^3
# Si number density = 20.888117 Si / 1000 Ang^3
#
#
#
# Elastic Constant Matrix: (Units=GPa)
#
#
# Indices 1 2 3 4 5 6 
#
# 1 82.2212 48.1485 36.8856 0.0000 -11.9487 0.0000
# 2 48.1485 185.6997 62.9685 0.0000 -2.6028 0.0000
# 3 36.8856 62.9685 113.1550 0.0000 0.9303 0.0000
# 4 0.0000 0.0000 0.0000 27.1860 0.0000 16.2571
# 5 -11.9487 -2.6028 0.9303 0.0000 29.1271 0.0000
# 6 0.0000 0.0000 0.0000 16.2571 0.0000 13.9429
#
#
#
# Elastic Compliance Matrix: (Units=1/GPa)
#
#
# Indices 1 2 3 4 5 6 
#
# 1 0.016546 -0.002896 -0.003837 0.000000 0.006651 0.000000
# 2 -0.002896 0.007159 -0.003036 0.000000 -0.000451 0.000000
# 3 -0.003837 -0.003036 0.011796 0.000000 -0.002222 0.000000
# 4 0.000000 0.000000 0.000000 0.121499 0.000000 -0.141665
# 5 0.006651 -0.000451 -0.002222 0.000000 0.037092 0.000000
# 6 0.000000 0.000000 0.000000 -0.141665 0.000000 0.236899
#
#
# Mechanical properties :
#
#
# Convention : Reuss Voigt Hill
#
# Bulk Modulus (GPa) = 62.64333 75.23125 68.93729
# Shear Modulus (GPa) = 10.96855 29.58941 20.27898
#
# Velocity S-wave (km/s) = 2.29401 3.76781 3.11921
# Velocity P-wave (km/s) = 6.08865 7.41775 6.78582
#
# Compressibility (1/GPa) = 0.01596339
#
# Stress axis : x y z
#
# Youngs Moduli (GPa) = 60.43785 139.68245 84.77462
#
# Poissons Ratio (x) = 0.40450 0.32526
# Poissons Ratio (y) = 0.17502 0.25739
# Poissons Ratio (z) = 0.23189 0.42411
#
# Static dielectric constant tensor:
#      x y z
#    x 3.429000 0.000000 0.590820 
#    y 0.000000 8.801050 0.000000 
#    z 0.590820 0.000000 2.024500 
# 
# 
# High freq. dielectric constant tensor:
#      x y z
#    x 1.805200 0.000000 -0.005750 
#    y 0.000000 1.830730 0.000000 
#    z -0.005750 0.000000 1.826650 
# 
# From -- ./inp_files/47144.got.cif
#   From: 2010.06.25/outbox.cif.g09.slc.cpg/sg13_24_cif.got.tgz:47144.got - 2010.06.28 04:50:58.
