data_PCOD8119941
_publ_section_title
;
Structure prediction by ZEFSAII (Michael W. Deem and Ramdas Pophale) SiO2 
 PCOD8119941
Probable space group: P 2/C
;
_chemical_formula_sum "Si O2"
_cell_formula_units_Z 28
_cell_length_a 9.271247
_cell_length_b 32.857492
_cell_length_c 5.064488
_cell_angle_alpha 90.000000
_cell_angle_beta 64.462583
_cell_angle_gamma 90.000000
_cell_volume 1392.069652
_symmetry_space_group_name_H-M "P 2/C"
_symmetry_group_IT_number 13
_symmetry_cell_setting 'monoclinic'
loop_
_space_group_symop_operation_xyz
x,y,z
-x,y,1/2-z
-x,-y,-z
x,-y,1/2+z
loop_
_atom_site_type_symbol
_atom_site_label
_atom_site_fract_x
_atom_site_fract_y
_atom_site_fract_z
Si Si1 0.107075 0.902438 0.923918
Si Si2 0.603569 0.752331 0.926221
Si Si3 0.688612 0.976620 0.629116
Si Si4 0.105715 0.601892 0.921152
Si Si5 0.605994 0.660287 0.925595
Si Si6 0.893607 0.189079 0.079538
Si Si7 0.681448 0.473536 0.089286
O O1 0.258042 0.932327 0.810416
O O2 0.172810 0.856525 0.917052
O O3 0.000000 0.906557 0.750000
O O4 0.000000 0.916496 0.250000
O O5 0.500000 0.751093 0.750000
O O6 0.658596 0.706496 0.952517
O O7 0.752615 0.780164 0.745854
O O8 0.500000 0.770631 0.250000
O O9 0.500000 0.975303 0.750000
O O10 0.753378 0.990379 0.291857
O O11 0.230716 0.635966 0.734813
O O12 0.195521 0.562059 0.952302
O O13 0.000000 0.590798 0.750000
O O14 0.000000 0.618442 0.250000
O O15 0.500000 0.656966 0.750000
O O16 0.500000 0.642366 0.250000
O O17 0.000000 0.188175 0.250000
O O18 0.000000 0.204409 0.750000
O O19 0.500000 0.456634 0.250000
O O20 0.711019 0.510100 0.271440
#
# Coordination Sequence:
#
# PCOD8119941 Si02
#       7
#     4   4   4   4   4   4   4
#     4  10  21  36  54  79 108 142 184 222 269 332
#     4  10  21  38  61  88 113 147 194 235 276 332
#     4  10  21  36  53  76 106 139 178 226 277 323
#     4  12  25  38  59  91 121 150 190 241 291 334
#     4  10  22  41  62  83 116 156 192 232 278 339
#     4  10  21  37  57  83 117 150 181 229 285 336
#     4  10  22  40  61  83 112 155 197 231 280 343
#
# _framework density 20.113934
#
# number of rings (size 3 to 8) (size 9 to 14) (size 15 to 20)
#    0.000    1.714    0.000    3.857    0.000    6.857 
#    0.000    2.143    0.000    0.000    0.000    0.000 
#    0.000    0.000    0.000    0.000    0.000    0.000 
#
# Total GULP energy -347215.060239 kJ/mol
# GULP energy per Si atom -12400.537866 kJ/mol
# Density = 2.006815 g / cm^3
# Si number density = 20.113934 Si / 1000 Ang^3
#
#
#
# Elastic Constant Matrix: (Units=GPa)
#
#
# Indices 1 2 3 4 5 6 
#
# 1 89.7207 50.3878 44.7630 0.0000 1.0178 0.0000
# 2 50.3878 93.2130 41.1447 0.0000 -21.5591 0.0000
# 3 44.7630 41.1447 150.4570 0.0000 3.3867 0.0000
# 4 0.0000 0.0000 0.0000 30.9403 0.0000 -7.5262
# 5 1.0178 -21.5591 3.3867 0.0000 34.3743 0.0000
# 6 0.0000 0.0000 0.0000 -7.5262 0.0000 6.6804
#
#
#
# Elastic Compliance Matrix: (Units=1/GPa)
#
#
# Indices 1 2 3 4 5 6 
#
# 1 0.018266 -0.010367 -0.002446 0.000000 -0.006802 0.000000
# 2 -0.010367 0.020761 -0.002899 0.000000 0.013614 0.000000
# 3 -0.002446 -0.002899 0.008225 0.000000 -0.002556 0.000000
# 4 0.000000 0.000000 0.000000 0.044521 0.000000 0.050157
# 5 -0.006802 0.013614 -0.002556 0.000000 0.038083 0.000000
# 6 0.000000 0.000000 0.000000 0.050157 0.000000 0.206199
#
#
# Mechanical properties :
#
#
# Convention : Reuss Voigt Hill
#
# Bulk Modulus (GPa) = 63.18916 67.33128 65.26022
# Shear Modulus (GPa) = 13.41365 27.53867 20.47616
#
# Velocity S-wave (km/s) = 2.58521 3.70420 3.19409
# Velocity P-wave (km/s) = 6.35570 7.20016 6.79107
#
# Compressibility (1/GPa) = 0.01582550
#
# Stress axis : x y z
#
# Youngs Moduli (GPa) = 54.74771 48.16772 121.58699
#
# Poissons Ratio (x) = 0.49937 0.29741
# Poissons Ratio (y) = 0.56759 0.35252
# Poissons Ratio (z) = 0.13392 0.13966
#
# Static dielectric constant tensor:
#      x y z
#    x 3.502370 0.000000 0.271510 
#    y 0.000000 3.908160 0.000000 
#    z 0.271510 0.000000 3.905160 
# 
# 
# High freq. dielectric constant tensor:
#      x y z
#    x 1.788220 0.000000 0.015700 
#    y 0.000000 1.782850 0.000000 
#    z 0.015700 0.000000 1.801920 
# 
# From -- ./inp_files/2677.got.cif
#   From: 2010.06.25/outbox.cif.g09.slc.cpg/sg13_2_cif.got.tgz:2677.got - 2010.06.28 04:50:58.
