data_PCOD8119144
_publ_section_title
;
Structure prediction by ZEFSAII (Michael W. Deem and Ramdas Pophale) SiO2 
 PCOD8119144
Probable space group: P 2/C
;
_chemical_formula_sum "Si O2"
_cell_formula_units_Z 18
_cell_length_a 6.132135
_cell_length_b 6.998340
_cell_length_c 21.074907
_cell_angle_alpha 90.000000
_cell_angle_beta 104.515210
_cell_angle_gamma 90.000000
_cell_volume 875.556489
_symmetry_space_group_name_H-M "P 2/C"
_symmetry_group_IT_number 13
_symmetry_cell_setting 'monoclinic'
loop_
_space_group_symop_operation_xyz
x,y,z
-x,y,1/2-z
-x,-y,-z
x,-y,1/2+z
loop_
_atom_site_type_symbol
_atom_site_label
_atom_site_fract_x
_atom_site_fract_y
_atom_site_fract_z
Si Si1 0.605323 0.050455 0.141980
Si Si2 0.483114 0.361355 0.592736
Si Si3 0.000000 0.785764 0.750000
Si Si4 0.231518 0.675523 0.950026
Si Si5 0.227818 0.671934 0.644756
O O1 0.646915 0.150685 0.077338
O O2 0.377141 0.135786 0.155487
O O3 0.815112 0.080779 0.203882
O O4 0.583988 0.825489 0.131951
O O5 0.683148 0.473602 0.571856
O O6 0.288104 0.307095 0.528340
O O7 0.382315 0.488947 0.642179
O O8 0.885822 0.649001 0.794386
O O9 0.962658 0.688947 0.923430
#
# Coordination Sequence:
#
# PCOD8119144 Si02
#       5
#     4   4   2   4   4
#     4  10  21  38  59  83 113 151 192 234 283 338
#     4  10  20  37  61  90 115 147 188 231 289 347
#     4  10  22  42  54  74 118 156 192 242 282 322
#     4   9  20  37  59  89 122 143 177 237 294 343
#     4  10  21  38  58  82 115 152 191 236 281 336
#
# _framework density 20.558350999999998
#
# number of rings (size 3 to 8) (size 9 to 14) (size 15 to 20)
#    0.000    2.222    0.000    2.000    0.000    4.444 
#    0.000   26.667    0.000    0.000    0.000    0.000 
#    0.000    0.000    0.000    0.000    0.000    0.000 
#
# Total GULP energy -223278.842608 kJ/mol
# GULP energy per Si atom -12404.380145 kJ/mol
# Density = 2.051156 g / cm^3
# Si number density = 20.558351 Si / 1000 Ang^3
#
#
#
# Elastic Constant Matrix: (Units=GPa)
#
#
# Indices 1 2 3 4 5 6 
#
# 1 102.6153 40.5340 41.0486 0.0000 14.5574 0.0000
# 2 40.5340 119.0455 43.7886 0.0000 8.8092 0.0000
# 3 41.0486 43.7886 113.1270 0.0000 14.4939 0.0000
# 4 0.0000 0.0000 0.0000 19.8452 0.0000 5.5323
# 5 14.5574 8.8092 14.4939 0.0000 31.0535 0.0000
# 6 0.0000 0.0000 0.0000 5.5323 0.0000 14.2180
#
#
#
# Elastic Compliance Matrix: (Units=1/GPa)
#
#
# Indices 1 2 3 4 5 6 
#
# 1 0.012615 -0.002929 -0.002970 0.000000 -0.003696 0.000000
# 2 -0.002929 0.010509 -0.002977 0.000000 -0.000219 0.000000
# 3 -0.002970 -0.002977 0.011469 0.000000 -0.003116 0.000000
# 4 0.000000 0.000000 0.000000 0.056521 0.000000 -0.021993
# 5 -0.003696 -0.000219 -0.003116 0.000000 0.035452 0.000000
# 6 0.000000 0.000000 0.000000 -0.021993 0.000000 0.078891
#
#
# Mechanical properties :
#
#
# Convention : Reuss Voigt Hill
#
# Bulk Modulus (GPa) = 59.38131 65.05893 62.22012
# Shear Modulus (GPa) = 21.85120 26.98447 24.41783
#
# Velocity S-wave (km/s) = 3.26373 3.62688 3.45009
# Velocity P-wave (km/s) = 6.56883 7.01810 6.79718
#
# Compressibility (1/GPa) = 0.01684032
#
# Stress axis : x y z
#
# Youngs Moduli (GPa) = 79.27316 95.15980 87.19372
#
# Poissons Ratio (x) = 0.27875 0.25895
# Poissons Ratio (y) = 0.23221 0.25955
# Poissons Ratio (z) = 0.23543 0.28327
#
# Static dielectric constant tensor:
#      x y z
#    x 3.846600 0.000000 0.066140 
#    y 0.000000 3.459210 0.000000 
#    z 0.066140 0.000000 3.753670 
# 
# 
# High freq. dielectric constant tensor:
#      x y z
#    x 1.813330 0.000000 0.006950 
#    y 0.000000 1.784690 0.000000 
#    z 0.006950 0.000000 1.805750 
# 
# From -- ./inp_files/72699.got.cif
#   From: 2010.06.25/outbox.cif.g09.slc.cpg/sg13_37_cif.got.tgz:72699.got - 2010.06.28 04:50:58.
