data_PCOD8119022
_publ_section_title
;
Structure prediction by ZEFSAII (Michael W. Deem and Ramdas Pophale) SiO2 
 PCOD8119022
Probable space group: P 2/C
;
_chemical_formula_sum "Si O2"
_cell_formula_units_Z 28
_cell_length_a 13.258511
_cell_length_b 13.861046
_cell_length_c 9.038198
_cell_angle_alpha 90.000000
_cell_angle_beta 121.700894
_cell_angle_gamma 90.000000
_cell_volume 1413.193320
_symmetry_space_group_name_H-M "P 2/C"
_symmetry_group_IT_number 13
_symmetry_cell_setting 'monoclinic'
loop_
_space_group_symop_operation_xyz
x,y,z
-x,y,1/2-z
-x,-y,-z
x,-y,1/2+z
loop_
_atom_site_type_symbol
_atom_site_label
_atom_site_fract_x
_atom_site_fract_y
_atom_site_fract_z
Si Si1 0.809764 0.877057 0.860868
Si Si2 0.464118 0.368333 0.571832
Si Si3 0.864752 0.940759 0.596060
Si Si4 0.965044 0.236895 0.056626
Si Si5 0.626168 0.278867 0.277868
Si Si6 0.673204 0.441524 0.536504
Si Si7 0.930335 0.423750 0.846413
O O1 0.783729 0.920049 0.677541
O O2 0.702723 0.816949 0.847252
O O3 0.923066 0.807030 0.944497
O O4 0.821626 0.965274 0.981243
O O5 0.500000 0.311897 0.750000
O O6 0.384098 0.303469 0.403700
O O7 0.586526 0.395158 0.588543
O O8 0.386766 0.460182 0.565748
O O9 0.863618 0.846299 0.488417
O O10 0.000000 0.956288 0.750000
O O11 0.000000 0.270724 0.250000
O O12 0.913646 0.325674 0.925585
O O13 0.500000 0.254620 0.250000
O O14 0.687256 0.369576 0.407552
O O15 0.800247 0.463803 0.707428
O O16 0.000000 0.402446 0.750000
O O17 0.000000 0.500000 0.000000
#
# Coordination Sequence:
#
# PCOD8119022 Si02
#       7
#     4   4   4   4   4   4   4
#     4  10  20  36  63  85 120 154 197 258 299 362
#     4  10  21  38  65  83 108 158 212 258 291 354
#     4   9  19  36  60  90 115 157 203 243 298 369
#     4   9  20  39  58  86 121 163 202 242 297 368
#     4  10  22  40  59  89 116 153 207 260 311 356
#     4  10  22  38  59  84 118 160 207 249 293 363
#     4  12  27  38  55  89 131 171 197 245 311 365
#
# _framework density 19.813283999999999
#
# number of rings (size 3 to 8) (size 9 to 14) (size 15 to 20)
#    0.000    2.286    0.000    5.143    6.000    6.286 
#    0.000    2.143    0.000    0.000    0.000    0.000 
#    0.000    0.000    0.000    0.000    0.000    0.000 
#
# Total GULP energy -347142.956132 kJ/mol
# GULP energy per Si atom -12397.962719 kJ/mol
# Density = 1.976819 g / cm^3
# Si number density = 19.813284 Si / 1000 Ang^3
#
#
#
# Elastic Constant Matrix: (Units=GPa)
#
#
# Indices 1 2 3 4 5 6 
#
# 1 62.6512 43.5394 36.7245 0.0000 1.9104 0.0000
# 2 43.5394 114.8090 59.0875 0.0000 -10.4940 0.0000
# 3 36.7245 59.0875 114.0232 0.0000 -7.5182 0.0000
# 4 0.0000 0.0000 0.0000 39.5296 0.0000 -1.7102
# 5 1.9104 -10.4940 -7.5182 0.0000 30.5889 0.0000
# 6 0.0000 0.0000 0.0000 -1.7102 0.0000 31.8104
#
#
#
# Elastic Compliance Matrix: (Units=1/GPa)
#
#
# Indices 1 2 3 4 5 6 
#
# 1 0.023604 -0.007262 -0.004168 0.000000 -0.004990 0.000000
# 2 -0.007262 0.014320 -0.004806 0.000000 0.004185 0.000000
# 3 -0.004168 -0.004806 0.012717 0.000000 0.001737 0.000000
# 4 0.000000 0.000000 0.000000 0.025357 0.000000 0.001363
# 5 -0.004990 0.004185 0.001737 0.000000 0.034866 0.000000
# 6 0.000000 0.000000 0.000000 0.001363 0.000000 0.031510
#
#
# Mechanical properties :
#
#
# Convention : Reuss Voigt Hill
#
# Bulk Modulus (GPa) = 55.03811 63.35402 59.19607
# Shear Modulus (GPa) = 27.63933 30.52790 29.08362
#
# Velocity S-wave (km/s) = 3.73901 3.92953 3.83545
# Velocity P-wave (km/s) = 6.81755 7.25488 7.03961
#
# Compressibility (1/GPa) = 0.01816923
#
# Stress axis : x y z
#
# Youngs Moduli (GPa) = 42.36638 69.83186 78.63209
#
# Poissons Ratio (x) = 0.50714 0.32773
# Poissons Ratio (y) = 0.30768 0.37789
# Poissons Ratio (z) = 0.17658 0.33560
#
# Static dielectric constant tensor:
#      x y z
#    x 3.537380 0.000000 -0.223950 
#    y 0.000000 3.539340 0.000000 
#    z -0.223950 0.000000 3.561040 
# 
# 
# High freq. dielectric constant tensor:
#      x y z
#    x 1.769120 0.000000 -0.018880 
#    y 0.000000 1.760780 0.000000 
#    z -0.018880 0.000000 1.770550 
# 
# From -- ./inp_files/16851.got.cif
#   From: 2010.06.25/outbox.cif.g09.slc.cpg/sg13_9_cif.got.tgz:16851.got - 2010.06.28 04:50:58.
