data_PCOD8119412
_publ_section_title
;
Structure prediction by ZEFSAII (Michael W. Deem and Ramdas Pophale) SiO2 
 PCOD8119412
Probable space group: P 2/C
;
_chemical_formula_sum "Si O2"
_cell_formula_units_Z 20
_cell_length_a 8.535398
_cell_length_b 12.150334
_cell_length_c 7.465499
_cell_angle_alpha 90.000000
_cell_angle_beta 96.260416
_cell_angle_gamma 90.000000
_cell_volume 769.614390
_symmetry_space_group_name_H-M "P 2/C"
_symmetry_group_IT_number 13
_symmetry_cell_setting 'monoclinic'
loop_
_space_group_symop_operation_xyz
x,y,z
-x,y,1/2-z
-x,-y,-z
x,-y,1/2+z
loop_
_atom_site_type_symbol
_atom_site_label
_atom_site_fract_x
_atom_site_fract_y
_atom_site_fract_z
Si Si1 0.671130 0.876515 0.998723
Si Si2 0.118484 0.678623 0.930989
Si Si3 0.685539 0.472942 0.279593
Si Si4 0.315608 0.881526 0.917469
Si Si5 0.176054 0.661289 0.382348
O O1 0.487309 0.871612 0.030997
O O2 0.683563 0.851992 0.790925
O O3 0.769730 0.787540 0.123359
O O4 0.745679 0.994671 0.058087
O O5 0.246206 0.584402 0.895048
O O6 0.199800 0.793735 0.993439
O O7 0.000000 0.694219 0.750000
O O8 0.010960 0.650870 0.094949
O O9 0.500000 0.487503 0.250000
O O10 0.769764 0.594451 0.292064
O O11 0.723039 0.395786 0.449262
#
# Coordination Sequence:
#
# PCOD8119412 Si02
#       5
#     4   4   4   4   4
#     4  10  21  40  65  90 124 160 208 256 310 366
#     4  10  20  38  65  87 126 169 198 252 318 368
#     4  11  22  40  64  88 123 165 211 254 303 365
#     4  10  20  40  65  89 124 164 201 258 312 368
#     4  11  23  41  61  92 125 165 204 257 309 369
#
# _framework density 25.987037999999998
#
# number of rings (size 3 to 8) (size 9 to 14) (size 15 to 20)
#    0.000    1.600    4.000    2.400    0.000    0.800 
#   10.800    0.000    0.000    0.000    0.000    0.000 
#    0.000    0.000    0.000    0.000    0.000    0.000 
#
# Total GULP energy -248087.922285 kJ/mol
# GULP energy per Si atom -12404.396114 kJ/mol
# Density = 2.592789 g / cm^3
# Si number density = 25.987038 Si / 1000 Ang^3
#
#
#
# Elastic Constant Matrix: (Units=GPa)
#
#
# Indices 1 2 3 4 5 6 
#
# 1 193.2881 85.9229 17.2131 0.0000 -7.6422 0.0000
# 2 85.9229 179.9467 -6.7583 0.0000 5.2874 0.0000
# 3 17.2131 -6.7583 70.3351 0.0000 -14.0912 0.0000
# 4 0.0000 0.0000 0.0000 31.7892 0.0000 -4.7799
# 5 -7.6422 5.2874 -14.0912 0.0000 18.9092 0.0000
# 6 0.0000 0.0000 0.0000 -4.7799 0.0000 54.0471
#
#
#
# Elastic Compliance Matrix: (Units=1/GPa)
#
#
# Indices 1 2 3 4 5 6 
#
# 1 0.006946 -0.003451 -0.001500 0.000000 0.002655 0.000000
# 2 -0.003451 0.007322 0.001009 0.000000 -0.002690 0.000000
# 3 -0.001500 0.001009 0.017049 0.000000 0.011817 0.000000
# 4 0.000000 0.000000 0.000000 0.031881 0.000000 0.002820
# 5 0.002655 -0.002690 0.011817 0.000000 0.063515 0.000000
# 6 0.000000 0.000000 0.000000 0.002820 0.000000 0.018752
#
#
# Mechanical properties :
#
#
# Convention : Reuss Voigt Hill
#
# Bulk Modulus (GPa) = 42.67288 70.70281 56.68784
# Shear Modulus (GPa) = 31.02507 44.09524 37.56016
#
# Velocity S-wave (km/s) = 3.45899 4.12371 3.80589
# Velocity P-wave (km/s) = 5.69291 7.06678 6.41672
#
# Compressibility (1/GPa) = 0.02343409
#
# Stress axis : x y z
#
# Youngs Moduli (GPa) = 143.96200 136.57427 58.65440
#
# Poissons Ratio (x) = 0.47133 0.08796
# Poissons Ratio (y) = 0.49683 -0.05919
# Poissons Ratio (z) = 0.21590 -0.13783
#
# Static dielectric constant tensor:
#      x y z
#    x 4.760360 0.000000 -0.159730 
#    y 0.000000 4.842540 0.000000 
#    z -0.159730 0.000000 5.254960 
# 
# 
# High freq. dielectric constant tensor:
#      x y z
#    x 2.043680 0.000000 0.006420 
#    y 0.000000 2.049830 0.000000 
#    z 0.006420 0.000000 2.073330 
# 
# From -- ./inp_files/11751.got.cif
#   From: 2010.06.25/outbox.cif.g09.slc.cpg/sg13_6_cif.got.tgz:11751.got - 2010.06.28 04:50:58.
