data_PCOD8119478
_publ_section_title
;
Structure prediction by ZEFSAII (Michael W. Deem and Ramdas Pophale) SiO2 
 PCOD8119478
Probable space group: P 2/C
;
_chemical_formula_sum "Si O2"
_cell_formula_units_Z 26
_cell_length_a 5.102068
_cell_length_b 12.260162
_cell_length_c 22.588499
_cell_angle_alpha 90.000000
_cell_angle_beta 115.781794
_cell_angle_gamma 90.000000
_cell_volume 1272.309629
_symmetry_space_group_name_H-M "P 2/C"
_symmetry_group_IT_number 13
_symmetry_cell_setting 'monoclinic'
loop_
_space_group_symop_operation_xyz
x,y,z
-x,y,1/2-z
-x,-y,-z
x,-y,1/2+z
loop_
_atom_site_type_symbol
_atom_site_label
_atom_site_fract_x
_atom_site_fract_y
_atom_site_fract_z
Si Si1 0.675143 0.671793 0.109795
Si Si2 0.156589 0.177828 0.208734
Si Si3 0.364265 0.898977 0.059798
Si Si4 0.000000 0.391798 0.750000
Si Si5 0.798936 0.411367 0.306786
Si Si6 0.116735 0.459687 0.573660
Si Si7 0.920403 0.027539 0.085191
O O1 0.505527 0.780261 0.076072
O O2 0.805905 0.686494 0.189327
O O3 0.441574 0.577276 0.092099
O O4 0.913487 0.634573 0.083774
O O5 0.500000 0.171512 0.250000
O O6 0.016773 0.301200 0.187529
O O7 0.000000 0.124176 0.250000
O O8 0.080660 0.110665 0.143262
O O9 0.629164 0.983755 0.087201
O O10 0.145054 0.928121 0.092224
O O11 0.169308 0.905833 0.981945
O O12 0.152103 0.473330 0.719634
O O13 0.500000 0.370376 0.250000
O O14 0.835865 0.435160 0.379846
O O15 0.000000 0.500000 0.500000
#
# Coordination Sequence:
#
# PCOD8119478 Si02
#       7
#     4   4   4   2   4   4   4
#     4  11  23  41  65  92 127 168 216 249 324 377
#     4  11  23  39  63  94 121 162 206 254 309 377
#     4  10  22  43  66  91 121 165 209 260 322 373
#     4  10  20  40  62  88 128 168 200 258 298 398
#     4  10  20  39  60  86 127 165 203 241 317 372
#     4  11  24  39  61  97 130 161 212 270 304 370
#     4  10  22  43  65  89 125 160 207 267 316 370
#
# _framework density 20.435278
#
# number of rings (size 3 to 8) (size 9 to 14) (size 15 to 20)
#    0.000    1.538    2.308    2.308    2.154    0.000 
#    9.692    0.000    0.000    0.000    0.000    0.000 
#    0.000    0.000    0.000    0.000    0.000    0.000 
#
# Total GULP energy -322093.788297 kJ/mol
# GULP energy per Si atom -12388.222627 kJ/mol
# Density = 2.038877 g / cm^3
# Si number density = 20.435278 Si / 1000 Ang^3
#
#
#
# Elastic Constant Matrix: (Units=GPa)
#
#
# Indices 1 2 3 4 5 6 
#
# 1 89.6130 14.2684 36.6039 0.0000 1.4674 0.0000
# 2 14.2684 74.7813 49.5157 0.0000 4.1107 0.0000
# 3 36.6039 49.5157 147.4548 0.0000 6.6357 0.0000
# 4 0.0000 0.0000 0.0000 22.4393 0.0000 -14.8161
# 5 1.4674 4.1107 6.6357 0.0000 28.5758 0.0000
# 6 0.0000 0.0000 0.0000 -14.8161 0.0000 3.5458
#
#
#
# Elastic Compliance Matrix: (Units=1/GPa)
#
#
# Indices 1 2 3 4 5 6 
#
# 1 0.012429 -0.000426 -0.002947 0.000000 0.000107 0.000000
# 2 -0.000426 0.017248 -0.005634 0.000000 -0.001151 0.000000
# 3 -0.002947 -0.005634 0.009461 0.000000 -0.001235 0.000000
# 4 0.000000 0.000000 0.000000 -0.025336 0.000000 -0.105865
# 5 0.000107 -0.001151 -0.001235 0.000000 0.035442 0.000000
# 6 0.000000 0.000000 0.000000 -0.105865 0.000000 -0.160335
#
#
# Mechanical properties :
#
#
# Convention : Reuss Voigt Hill
#
# Bulk Modulus (GPa) = 47.34234 56.95835 52.15035
# Shear Modulus (GPa) = -58.11517 25.00958 -16.55280
#
# Velocity S-wave (km/s) = -5.33858 3.50214 -2.84916
# Velocity P-wave (km/s) = 3.84490 6.65480 3.84078
#
# Compressibility (1/GPa) = 0.02112274
#
# Stress axis : x y z
#
# Youngs Moduli (GPa) = 80.45729 57.97934 105.69815
#
# Poissons Ratio (x) = 0.02470 0.31151
# Poissons Ratio (y) = 0.03427 0.59553
# Poissons Ratio (z) = 0.23712 0.32667
#
# Static dielectric constant tensor:
#      x y z
#    x 3.891840 0.000000 -0.043700 
#    y 0.000000 3.731280 0.000000 
#    z -0.043700 0.000000 3.920430 
# 
# 
# High freq. dielectric constant tensor:
#      x y z
#    x 1.805380 0.000000 0.003770 
#    y 0.000000 1.788120 0.000000 
#    z 0.003770 0.000000 1.808320 
# 
# From -- ./inp_files/73300.got.cif
#   From: 2010.06.25/outbox.cif.g09.slc.cpg/sg13_37_cif.got.tgz:73300.got - 2010.06.28 04:50:58.
