data_PCOD8119067
_publ_section_title
;
Structure prediction by ZEFSAII (Michael W. Deem and Ramdas Pophale) SiO2 
 PCOD8119067
Probable space group: P 2/C
;
_chemical_formula_sum "Si O2"
_cell_formula_units_Z 28
_cell_length_a 7.657077
_cell_length_b 19.318257
_cell_length_c 16.902232
_cell_angle_alpha 90.000000
_cell_angle_beta 145.586449
_cell_angle_gamma 90.000000
_cell_volume 1413.019220
_symmetry_space_group_name_H-M "P 2/C"
_symmetry_group_IT_number 13
_symmetry_cell_setting 'monoclinic'
loop_
_space_group_symop_operation_xyz
x,y,z
-x,y,1/2-z
-x,-y,-z
x,-y,1/2+z
loop_
_atom_site_type_symbol
_atom_site_label
_atom_site_fract_x
_atom_site_fract_y
_atom_site_fract_z
Si Si1 0.699470 0.432635 0.088081
Si Si2 0.036560 0.199863 0.617512
Si Si3 0.135019 0.059597 0.885295
Si Si4 0.363441 0.789227 0.074863
Si Si5 0.815275 0.910440 0.606722
Si Si6 0.391739 0.321160 0.081809
Si Si7 0.984542 0.336122 0.406253
O O1 0.469762 0.377781 0.044410
O O2 0.846023 0.405437 0.060408
O O3 0.000000 0.452805 0.250000
O O4 0.500000 0.500000 0.000000
O O5 0.264916 0.214174 0.777599
O O6 0.210992 0.213294 0.602740
O O7 0.964259 0.118215 0.589512
O O8 0.733763 0.250260 0.507324
O O9 0.000000 0.080807 0.750000
O O10 0.020488 0.981391 0.865322
O O11 0.500694 0.062244 0.025444
O O12 0.238928 0.856001 0.982467
O O13 0.248656 0.720567 0.989345
O O14 0.000000 0.877563 0.750000
O O15 0.703829 0.308199 0.247301
O O16 0.128964 0.348004 0.045745
#
# Coordination Sequence:
#
# PCOD8119067 Si02
#       7
#     4   4   4   4   4   4   4
#     4  10  22  38  59  87 115 148 186 223 272 332
#     4  10  21  36  57  80 110 145 185 234 286 335
#     4  10  20  37  53  77 108 146 188 234 287 338
#     4  10  21  37  55  82 110 143 187 235 285 335
#     4  10  22  35  54  77 108 146 189 234 285 340
#     4   9  20  38  58  83 115 150 185 229 279 329
#     4   9  20  38  57  83 117 147 185 231 276 331
#
# _framework density 19.815722999999998
#
# number of rings (size 3 to 8) (size 9 to 14) (size 15 to 20)
#    0.000    2.286    1.429    0.000    4.000    2.857 
#    0.000    0.000    0.000    0.000    0.000    0.000 
#    0.000    0.000    0.000    0.000    0.000    0.000 
#
# Total GULP energy -346875.618346 kJ/mol
# GULP energy per Si atom -12388.414941 kJ/mol
# Density = 1.977062 g / cm^3
# Si number density = 19.815723 Si / 1000 Ang^3
#
#
#
# Elastic Constant Matrix: (Units=GPa)
#
#
# Indices 1 2 3 4 5 6 
#
# 1 50.4280 36.0297 27.8062 0.0000 4.1650 0.0000
# 2 36.0297 117.0064 57.6153 0.0000 -0.4930 0.0000
# 3 27.8062 57.6153 109.6355 0.0000 1.7527 0.0000
# 4 0.0000 0.0000 0.0000 43.4634 0.0000 12.1855
# 5 4.1650 -0.4930 1.7527 0.0000 21.9810 0.0000
# 6 0.0000 0.0000 0.0000 12.1855 0.0000 38.1848
#
#
#
# Elastic Compliance Matrix: (Units=1/GPa)
#
#
# Indices 1 2 3 4 5 6 
#
# 1 0.026787 -0.006696 -0.003196 0.000000 -0.004971 0.000000
# 2 -0.006696 0.013216 -0.005279 0.000000 0.001986 0.000000
# 3 -0.003196 -0.005279 0.012714 0.000000 -0.000527 0.000000
# 4 0.000000 0.000000 0.000000 0.025269 0.000000 -0.008064
# 5 -0.004971 0.001986 -0.000527 0.000000 0.046522 0.000000
# 6 0.000000 0.000000 0.000000 -0.008064 0.000000 0.028762
#
#
# Mechanical properties :
#
#
# Convention : Reuss Voigt Hill
#
# Bulk Modulus (GPa) = 44.68935 57.77469 51.23202
# Shear Modulus (GPa) = 26.16852 31.10042 28.63447
#
# Velocity S-wave (km/s) = 3.63794 3.96597 3.80549
# Velocity P-wave (km/s) = 6.34410 7.08457 6.72453
#
# Compressibility (1/GPa) = 0.02237670
#
# Stress axis : x y z
#
# Youngs Moduli (GPa) = 37.33161 75.66520 78.65272
#
# Poissons Ratio (x) = 0.50665 0.25134
# Poissons Ratio (y) = 0.24997 0.41519
# Poissons Ratio (z) = 0.11929 0.39942
#
# Static dielectric constant tensor:
#      x y z
#    x 3.507910 0.000000 0.130010 
#    y 0.000000 3.696780 0.000000 
#    z 0.130010 0.000000 4.115460 
# 
# 
# High freq. dielectric constant tensor:
#      x y z
#    x 1.755990 0.000000 0.002870 
#    y 0.000000 1.767910 0.000000 
#    z 0.002870 0.000000 1.783810 
# 
# From -- ./inp_files/76751.got.cif
#   From: 2010.06.25/outbox.cif.g09.slc.cpg/sg13_39_cif.got.tgz:76751.got - 2010.06.28 04:50:58.
