data_PCOD8119201
_publ_section_title
;
Structure prediction by ZEFSAII (Michael W. Deem and Ramdas Pophale) SiO2 
 PCOD8119201
Probable space group: P 2/C
;
_chemical_formula_sum "Si O2"
_cell_formula_units_Z 28
_cell_length_a 8.879031
_cell_length_b 14.995886
_cell_length_c 20.715118
_cell_angle_alpha 90.000000
_cell_angle_beta 149.663728
_cell_angle_gamma 90.000000
_cell_volume 1393.093354
_symmetry_space_group_name_H-M "P 2/C"
_symmetry_group_IT_number 13
_symmetry_cell_setting 'monoclinic'
loop_
_space_group_symop_operation_xyz
x,y,z
-x,y,1/2-z
-x,-y,-z
x,-y,1/2+z
loop_
_atom_site_type_symbol
_atom_site_label
_atom_site_fract_x
_atom_site_fract_y
_atom_site_fract_z
Si Si1 0.323003 0.199533 0.750692
Si Si2 0.000000 0.499583 0.250000
Si Si3 0.813183 0.099978 0.496172
Si Si4 0.500000 0.495768 0.250000
Si Si5 0.532863 0.622869 0.641221
Si Si6 0.808778 0.192912 0.243470
Si Si7 0.038876 0.619017 0.144553
Si Si8 0.147687 0.108741 0.488420
O O1 0.500000 0.207067 0.750000
O O2 0.238318 0.298606 0.743393
O O3 0.027398 0.140409 0.630576
O O4 0.530928 0.154807 0.881814
O O5 0.284925 0.439095 0.340508
O O6 0.920341 0.561483 0.160169
O O7 0.480910 0.135542 0.380007
O O8 0.931127 0.125385 0.468818
O O9 0.801198 0.995116 0.503254
O O10 0.578747 0.433624 0.339371
O O11 0.216866 0.556889 0.160617
O O12 0.725539 0.707262 0.735397
O O13 0.242814 0.659817 0.497205
O O14 0.000000 0.198284 0.250000
O O15 0.998079 0.149451 0.370213
#
# Coordination Sequence:
#
# PCOD8119201 Si02
#       8
#     4   2   4   2   4   4   4   4
#     4  10  20  37  64  94 124 154 206 267 307 366
#     4  10  24  42  60  86 120 168 210 250 300 376
#     4  10  21  44  68  91 124 164 211 259 310 365
#     4  10  24  38  62  92 116 158 206 264 316 360
#     4  11  23  42  61  90 125 163 206 254 310 369
#     4  12  25  40  63  94 134 167 203 254 307 376
#     4  11  21  41  62  89 121 161 206 258 311 362
#     4  10  23  41  68  96 121 164 210 256 315 372
#
# _framework density 20.099156000000001
#
# number of rings (size 3 to 8) (size 9 to 14) (size 15 to 20)
#    0.000    1.429    2.857    2.143    2.000    4.000 
#   10.286    0.000    0.000    0.000    0.000    0.000 
#    0.000    0.000    0.000    0.000    0.000    0.000 
#
# Total GULP energy -347323.406421 kJ/mol
# GULP energy per Si atom -12404.407372 kJ/mol
# Density = 2.005341 g / cm^3
# Si number density = 20.099156 Si / 1000 Ang^3
#
#
#
# Elastic Constant Matrix: (Units=GPa)
#
#
# Indices 1 2 3 4 5 6 
#
# 1 87.1079 47.8763 40.3312 0.0000 -0.3249 0.0000
# 2 47.8763 131.8348 60.5694 0.0000 -1.2398 0.0000
# 3 40.3312 60.5694 143.6465 0.0000 0.3643 0.0000
# 4 0.0000 0.0000 0.0000 3.5166 0.0000 44.6030
# 5 -0.3249 -1.2398 0.3643 0.0000 17.0411 0.0000
# 6 0.0000 0.0000 0.0000 44.6030 0.0000 -88.1616
#
#
#
# Elastic Compliance Matrix: (Units=1/GPa)
#
#
# Indices 1 2 3 4 5 6 
#
# 1 0.014966 -0.004346 -0.002369 0.000000 0.000020 0.000000
# 2 -0.004346 0.010680 -0.003285 0.000000 0.000764 0.000000
# 3 -0.002369 -0.003285 0.009013 0.000000 -0.000477 0.000000
# 4 0.000000 0.000000 0.000000 0.038340 0.000000 0.019397
# 5 0.000020 0.000764 -0.000477 0.000000 0.058748 0.000000
# 6 0.000000 0.000000 0.000000 0.019397 0.000000 -0.001529
#
#
# Mechanical properties :
#
#
# Convention : Reuss Voigt Hill
#
# Bulk Modulus (GPa) = 68.22234 73.34924 70.78579
# Shear Modulus (GPa) = 32.23632 0.73337 16.48485
#
# Velocity S-wave (km/s) = 4.00917 0.60471 2.86698
# Velocity P-wave (km/s) = 7.44633 6.08773 6.80104
#
# Compressibility (1/GPa) = 0.01465795
#
# Stress axis : x y z
#
# Youngs Moduli (GPa) = 66.81878 93.63311 110.94942
#
# Poissons Ratio (x) = 0.40694 0.26288
# Poissons Ratio (y) = 0.29040 0.36447
# Poissons Ratio (z) = 0.15832 0.30758
#
# Static dielectric constant tensor:
#      x y z
#    x 3.620280 0.000000 0.112070 
#    y 0.000000 3.788800 0.000000 
#    z 0.112070 0.000000 3.635790 
# 
# 
# High freq. dielectric constant tensor:
#      x y z
#    x 1.775250 0.000000 0.009300 
#    y 0.000000 1.802920 0.000000 
#    z 0.009300 0.000000 1.788710 
# 
# From -- ./inp_files/76727.got.cif
#   From: 2010.06.25/outbox.cif.g09.slc.cpg/sg13_39_cif.got.tgz:76727.got - 2010.06.28 04:50:58.
