data_PCOD8119579
_publ_section_title
;
Structure prediction by ZEFSAII (Michael W. Deem and Ramdas Pophale) SiO2 
 PCOD8119579
Probable space group: P 2/C
;
_chemical_formula_sum "Si O2"
_cell_formula_units_Z 24
_cell_length_a 14.242528
_cell_length_b 8.574509
_cell_length_c 14.832283
_cell_angle_alpha 90.000000
_cell_angle_beta 38.603984
_cell_angle_gamma 90.000000
_cell_volume 1130.167865
_symmetry_space_group_name_H-M "P 2/C"
_symmetry_group_IT_number 13
_symmetry_cell_setting 'monoclinic'
loop_
_space_group_symop_operation_xyz
x,y,z
-x,y,1/2-z
-x,-y,-z
x,-y,1/2+z
loop_
_atom_site_type_symbol
_atom_site_label
_atom_site_fract_x
_atom_site_fract_y
_atom_site_fract_z
Si Si1 0.810915 0.443639 0.959249
Si Si2 0.282726 0.407390 0.674169
Si Si3 0.428302 0.728751 0.612349
Si Si4 0.500000 0.363105 0.250000
Si Si5 0.851335 0.101203 0.216897
Si Si6 0.016380 0.775964 0.418518
Si Si7 0.000000 0.296978 0.250000
O O1 0.793739 0.411050 0.866273
O O2 0.910259 0.599903 0.891670
O O3 0.892432 0.296809 0.944612
O O4 0.647239 0.471935 0.127148
O O5 0.322270 0.576964 0.681930
O O6 0.429795 0.294867 0.560894
O O7 0.154416 0.341286 0.837012
O O8 0.483563 0.745553 0.674191
O O9 0.329725 0.881736 0.662246
O O10 0.882673 0.189444 0.286082
O O11 0.904495 0.924354 0.188238
O O12 0.937938 0.181333 0.069873
#
# Coordination Sequence:
#
# PCOD8119579 Si02
#       7
#     4   4   4   2   4   4   2
#     4  11  20  38  63  92 116 161 205 252 309 358
#     4  10  21  36  63  89 120 157 205 254 302 363
#     4  10  20  40  59  92 122 158 208 255 303 356
#     4  10  22  34  66  88 122 160 204 256 308 360
#     4  11  25  40  60  90 130 160 205 253 304 371
#     4  11  23  41  62  87 125 170 203 244 311 370
#     4  12  24  38  64  96 116 156 210 264 300 356
#
# _framework density 21.235782
#
# number of rings (size 3 to 8) (size 9 to 14) (size 15 to 20)
#    0.000    1.333    5.000    0.000    4.667    2.000 
#    0.000    0.000    0.000    2.000    0.000    0.000 
#    0.000    0.000    0.000    0.000    0.000    0.000 
#
# Total GULP energy -297549.683233 kJ/mol
# GULP energy per Si atom -12397.903468 kJ/mol
# Density = 2.118745 g / cm^3
# Si number density = 21.235782 Si / 1000 Ang^3
#
#
#
# Elastic Constant Matrix: (Units=GPa)
#
#
# Indices 1 2 3 4 5 6 
#
# 1 94.9070 29.7699 8.0651 0.0000 -9.8149 0.0000
# 2 29.7699 64.0272 8.4977 0.0000 -7.7172 0.0000
# 3 8.0651 8.4977 68.7861 0.0000 -27.0361 0.0000
# 4 0.0000 0.0000 0.0000 25.9402 0.0000 -1.6752
# 5 -9.8149 -7.7172 -27.0361 0.0000 36.4505 0.0000
# 6 0.0000 0.0000 0.0000 -1.6752 0.0000 26.4683
#
#
#
# Elastic Compliance Matrix: (Units=1/GPa)
#
#
# Indices 1 2 3 4 5 6 
#
# 1 0.012505 -0.005555 0.000115 0.000000 0.002276 0.000000
# 2 -0.005555 0.018536 -0.000965 0.000000 0.001712 0.000000
# 3 0.000115 -0.000965 0.020573 0.000000 0.015086 0.000000
# 4 0.000000 0.000000 0.000000 0.038708 0.000000 0.002450
# 5 0.002276 0.001712 0.015086 0.000000 0.039599 0.000000
# 6 0.000000 0.000000 0.000000 0.002450 0.000000 0.037936
#
#
# Mechanical properties :
#
#
# Convention : Reuss Voigt Hill
#
# Bulk Modulus (GPa) = 25.77189 35.59842 30.68515
# Shear Modulus (GPa) = 25.82600 29.86430 27.84515
#
# Velocity S-wave (km/s) = 3.49112 3.75416 3.62503
# Velocity P-wave (km/s) = 5.33039 5.96586 5.65705
#
# Compressibility (1/GPa) = 0.03880197
#
# Stress axis : x y z
#
# Youngs Moduli (GPa) = 79.96956 53.94969 48.60709
#
# Poissons Ratio (x) = 0.29969 -0.00557
# Poissons Ratio (y) = 0.44424 0.04693
# Poissons Ratio (z) = -0.00917 0.05209
#
# Static dielectric constant tensor:
#      x y z
#    x 3.969160 0.000000 -0.272060 
#    y 0.000000 3.673810 0.000000 
#    z -0.272060 0.000000 4.026210 
# 
# 
# High freq. dielectric constant tensor:
#      x y z
#    x 1.842470 0.000000 -0.016000 
#    y 0.000000 1.799710 0.000000 
#    z -0.016000 0.000000 1.842490 
# 
# From -- ./inp_files/52930.got.cif
#   From: 2010.06.25/outbox.cif.g09.slc.cpg/sg13_27_cif.got.tgz:52930.got - 2010.06.28 04:50:58.
