data_PCOD8119138
_publ_section_title
;
Structure prediction by ZEFSAII (Michael W. Deem and Ramdas Pophale) SiO2 
 PCOD8119138
Probable space group: P 2/C
;
_chemical_formula_sum "Si O2"
_cell_formula_units_Z 24
_cell_length_a 20.609209
_cell_length_b 10.227048
_cell_length_c 15.558640
_cell_angle_alpha 90.000000
_cell_angle_beta 21.504824
_cell_angle_gamma 90.000000
_cell_volume 1202.130172
_symmetry_space_group_name_H-M "P 2/C"
_symmetry_group_IT_number 13
_symmetry_cell_setting 'monoclinic'
loop_
_space_group_symop_operation_xyz
x,y,z
-x,y,1/2-z
-x,-y,-z
x,-y,1/2+z
loop_
_atom_site_type_symbol
_atom_site_label
_atom_site_fract_x
_atom_site_fract_y
_atom_site_fract_z
Si Si1 0.504243 0.613297 0.564771
Si Si2 0.532142 0.136045 0.503933
Si Si3 0.679328 0.782696 0.077045
Si Si4 0.891604 0.128023 0.160779
Si Si5 0.186070 0.465799 0.000225
Si Si6 0.118860 0.384937 0.889810
O O1 0.500000 0.500000 0.500000
O O2 0.486857 0.754046 0.543941
O O3 0.686820 0.611356 0.395599
O O4 0.333894 0.578104 0.832854
O O5 0.377928 0.144739 0.765440
O O6 0.729502 0.148171 0.296395
O O7 0.500000 0.000000 0.500000
O O8 0.500000 0.741848 0.250000
O O9 0.808115 0.875316 0.860445
O O10 0.784583 0.650150 0.967428
O O11 0.024329 0.248775 0.988025
O O12 0.000000 0.000000 0.000000
O O13 0.000000 0.535152 0.250000
O O14 0.173744 0.402274 0.921202
O O15 0.000000 0.500000 0.000000
#
# Coordination Sequence:
#
# PCOD8119138 Si02
#       6
#     4   4   4   4   4   4
#     4  10  20  37  61  88 124 161 213 261 322 376
#     4  11  22  41  64  91 127 174 215 269 331 388
#     4  10  22  39  64  91 124 170 223 268 324 395
#     4  11  23  39  63  95 129 168 221 268 322 392
#     4  11  21  37  64  94 128 166 222 266 326 387
#     4  11  22  37  62  95 128 165 213 268 328 384
#
# _framework density 19.964559999999999
#
# number of rings (size 3 to 8) (size 9 to 14) (size 15 to 20)
#    0.000    1.333    5.000    3.000    2.333    0.000 
#    0.000    3.333    0.000    1.000    0.000    0.000 
#    0.000    0.000    0.000    0.000    0.000    0.000 
#
# Total GULP energy -297441.976788 kJ/mol
# GULP energy per Si atom -12393.415700 kJ/mol
# Density = 1.991912 g / cm^3
# Si number density = 19.964560 Si / 1000 Ang^3
#
#
#
# Elastic Constant Matrix: (Units=GPa)
#
#
# Indices 1 2 3 4 5 6 
#
# 1 66.3443 47.5224 47.8092 0.0000 -11.9245 0.0000
# 2 47.5224 157.1488 81.2123 0.0000 -10.1939 0.0000
# 3 47.8092 81.2123 196.0848 0.0000 -24.9694 0.0000
# 4 0.0000 0.0000 0.0000 41.6240 0.0000 -3.5779
# 5 -11.9245 -10.1939 -24.9694 0.0000 33.0342 0.0000
# 6 0.0000 0.0000 0.0000 -3.5779 0.0000 29.5459
#
#
#
# Elastic Compliance Matrix: (Units=1/GPa)
#
#
# Indices 1 2 3 4 5 6 
#
# 1 0.021136 -0.004749 -0.002657 0.000000 0.004156 0.000000
# 2 -0.004749 0.009163 -0.002761 0.000000 -0.000974 0.000000
# 3 -0.002657 -0.002761 0.007370 0.000000 0.003759 0.000000
# 4 0.000000 0.000000 0.000000 0.024277 0.000000 0.002940
# 5 0.004156 -0.000974 0.003759 0.000000 0.034313 0.000000
# 6 0.000000 0.000000 0.000000 0.002940 0.000000 0.034202
#
#
# Mechanical properties :
#
#
# Convention : Reuss Voigt Hill
#
# Bulk Modulus (GPa) = 57.68785 85.85176 71.76981
# Shear Modulus (GPa) = 31.93356 37.04308 34.48832
#
# Velocity S-wave (km/s) = 4.00373 4.31216 4.16080
# Velocity P-wave (km/s) = 7.09443 8.23944 7.68828
#
# Compressibility (1/GPa) = 0.01733467
#
# Stress axis : x y z
#
# Youngs Moduli (GPa) = 47.31169 109.13099 135.68249
#
# Poissons Ratio (x) = 0.51825 0.36057
# Poissons Ratio (y) = 0.22468 0.37466
# Poissons Ratio (z) = 0.12573 0.30134
#
# Static dielectric constant tensor:
#      x y z
#    x 3.638590 0.000000 -0.124920 
#    y 0.000000 3.648080 0.000000 
#    z -0.124920 0.000000 5.144850 
# 
# 
# High freq. dielectric constant tensor:
#      x y z
#    x 1.769350 0.000000 -0.023270 
#    y 0.000000 1.762100 0.000000 
#    z -0.023270 0.000000 1.806100 
# 
# From -- ./inp_files/71225.got.cif
#   From: 2010.06.25/outbox.cif.g09.slc.cpg/sg13_36_cif.got.tgz:71225.got - 2010.06.28 04:50:58.
