data_PCOD8119160
_publ_section_title
;
Structure prediction by ZEFSAII (Michael W. Deem and Ramdas Pophale) SiO2 
 PCOD8119160
Probable space group: P 2/C
;
_chemical_formula_sum "Si O2"
_cell_formula_units_Z 28
_cell_length_a 14.097901
_cell_length_b 9.677954
_cell_length_c 17.344071
_cell_angle_alpha 90.000000
_cell_angle_beta 141.549835
_cell_angle_gamma 90.000000
_cell_volume 1471.510305
_symmetry_space_group_name_H-M "P 2/C"
_symmetry_group_IT_number 13
_symmetry_cell_setting 'monoclinic'
loop_
_space_group_symop_operation_xyz
x,y,z
-x,y,1/2-z
-x,-y,-z
x,-y,1/2+z
loop_
_atom_site_type_symbol
_atom_site_label
_atom_site_fract_x
_atom_site_fract_y
_atom_site_fract_z
Si Si1 0.561332 0.081002 0.112589
Si Si2 0.140589 0.778663 0.740437
Si Si3 0.904834 0.318956 0.963576
Si Si4 0.890380 0.404311 0.533919
Si Si5 0.660151 0.084191 0.817522
Si Si6 0.000000 0.985068 0.250000
Si Si7 0.264660 0.145066 0.013521
Si Si8 0.000000 0.558414 0.750000
O O1 0.681668 0.199603 0.165821
O O2 0.644500 0.972662 0.221401
O O3 0.423204 0.154130 0.069073
O O4 0.500000 0.000000 0.000000
O O5 0.046251 0.730653 0.605911
O O6 0.131441 0.658106 0.798815
O O7 0.073540 0.921747 0.730013
O O8 0.766844 0.215411 0.881746
O O9 0.963569 0.330130 0.913073
O O10 0.838978 0.467807 0.947778
O O11 0.756563 0.292369 0.458234
O O12 0.928582 0.458775 0.642228
O O13 0.500000 0.134478 0.750000
O O14 0.733859 0.970287 0.919667
O O15 0.872007 0.886394 0.132352
#
# Coordination Sequence:
#
# PCOD8119160 Si02
#       8
#     4   4   4   4   4   2   4   2
#     4  11  23  37  57  92 125 152 196 254 301 355
#     4  10  20  37  62  87 118 160 196 247 298 357
#     4  10  21  41  62  87 116 160 209 238 298 364
#     4  10  22  37  60  87 120 156 200 255 290 356
#     4  10  23  39  60  88 123 157 195 249 301 358
#     4  11  19  32  64  90 116 158 196 242 296 356
#     4  11  22  38  59  93 125 152 199 250 307 348
#     4   9  21  38  58  84 122 156 206 242 302 354
#
# _framework density 19.028068999999999
#
# number of rings (size 3 to 8) (size 9 to 14) (size 15 to 20)
#    0.000    1.714    2.857    1.286    2.000    2.286 
#    0.000    7.143    0.000    0.000    0.000    0.000 
#    0.000    0.000    0.000    0.000    0.000    0.000 
#
# Total GULP energy -347250.442748 kJ/mol
# GULP energy per Si atom -12401.801527 kJ/mol
# Density = 1.898476 g / cm^3
# Si number density = 19.028069 Si / 1000 Ang^3
#
#
#
# Elastic Constant Matrix: (Units=GPa)
#
#
# Indices 1 2 3 4 5 6 
#
# 1 124.3410 79.9376 45.8368 0.0000 5.6018 0.0000
# 2 79.9376 128.5859 49.7633 0.0000 18.8023 0.0000
# 3 45.8368 49.7633 95.8042 0.0000 4.7641 0.0000
# 4 0.0000 0.0000 0.0000 8.5272 0.0000 -3.2319
# 5 5.6018 18.8023 4.7641 0.0000 31.2381 0.0000
# 6 0.0000 0.0000 0.0000 -3.2319 0.0000 28.2344
#
#
#
# Elastic Compliance Matrix: (Units=1/GPa)
#
#
# Indices 1 2 3 4 5 6 
#
# 1 0.014156 -0.008177 -0.002664 0.000000 0.002790 0.000000
# 2 -0.008177 0.015346 -0.003701 0.000000 -0.007206 0.000000
# 3 -0.002664 -0.003701 0.013603 0.000000 0.000631 0.000000
# 4 0.000000 0.000000 0.000000 0.122590 0.000000 0.014032
# 5 0.002790 -0.007206 0.000631 0.000000 0.035753 0.000000
# 6 0.000000 0.000000 0.000000 0.014032 0.000000 0.037024
#
#
# Mechanical properties :
#
#
# Convention : Reuss Voigt Hill
#
# Bulk Modulus (GPa) = 71.31722 77.75629 74.53675
# Shear Modulus (GPa) = 18.36685 25.14619 21.75652
#
# Velocity S-wave (km/s) = 3.11022 3.63923 3.38507
# Velocity P-wave (km/s) = 7.10347 7.65581 7.38481
#
# Compressibility (1/GPa) = 0.01402186
#
# Stress axis : x y z
#
# Youngs Moduli (GPa) = 70.64265 65.16284 73.51109
#
# Poissons Ratio (x) = 0.53284 0.19584
# Poissons Ratio (y) = 0.57765 0.27204
# Poissons Ratio (z) = 0.18820 0.24114
#
# Static dielectric constant tensor:
#      x y z
#    x 3.713710 0.000000 -0.166660 
#    y 0.000000 3.534430 0.000000 
#    z -0.166660 0.000000 3.457180 
# 
# 
# High freq. dielectric constant tensor:
#      x y z
#    x 1.756120 0.000000 -0.014240 
#    y 0.000000 1.740230 0.000000 
#    z -0.014240 0.000000 1.728570 
# 
# From -- ./inp_files/68204.got.cif
#   From: 2010.06.25/outbox.cif.g09.slc.cpg/sg13_35_cif.got.tgz:68204.got - 2010.06.28 04:50:58.
