data_PCOD8119209
_publ_section_title
;
Structure prediction by ZEFSAII (Michael W. Deem and Ramdas Pophale) SiO2 
 PCOD8119209
Probable space group: P 2/C
;
_chemical_formula_sum "Si O2"
_cell_formula_units_Z 26
_cell_length_a 8.801654
_cell_length_b 8.709034
_cell_length_c 19.389238
_cell_angle_alpha 90.000000
_cell_angle_beta 52.153955
_cell_angle_gamma 90.000000
_cell_volume 1173.643967
_symmetry_space_group_name_H-M "P 2/C"
_symmetry_group_IT_number 13
_symmetry_cell_setting 'monoclinic'
loop_
_space_group_symop_operation_xyz
x,y,z
-x,y,1/2-z
-x,-y,-z
x,-y,1/2+z
loop_
_atom_site_type_symbol
_atom_site_label
_atom_site_fract_x
_atom_site_fract_y
_atom_site_fract_z
Si Si1 0.183350 0.440276 0.650063
Si Si2 0.000000 0.099843 0.250000
Si Si3 0.316637 0.952035 0.916844
Si Si4 0.617968 0.259354 0.385007
Si Si5 0.012907 0.067088 0.397981
Si Si6 0.888760 0.589136 0.970609
Si Si7 0.524912 0.761680 0.065043
O O1 0.355819 0.558097 0.621380
O O2 0.110663 0.470583 0.593120
O O3 0.299733 0.281334 0.624321
O O4 0.000000 0.440562 0.750000
O O5 0.811772 0.203094 0.295280
O O6 0.004935 0.008703 0.176245
O O7 0.429308 0.790637 0.894500
O O8 0.229701 0.966978 0.864257
O O9 0.468326 0.088214 0.888694
O O10 0.138199 0.961467 0.019314
O O11 0.601717 0.193229 0.467294
O O12 0.983047 0.249767 0.419537
O O13 0.669874 0.630420 0.054788
O O14 0.000000 0.500000 0.000000
#
# Coordination Sequence:
#
# PCOD8119209 Si02
#       7
#     4   2   4   4   4   4   4
#     4  11  22  42  65  96 129 168 223 278 321 388
#     4  12  20  40  64 100 126 166 220 286 314 372
#     4  10  22  41  63  95 127 172 215 261 334 394
#     4  11  20  39  69  92 127 170 226 263 322 392
#     4  10  22  39  66  95 132 163 217 282 317 397
#     4  10  20  37  65  97 122 172 222 262 328 392
#     4  10  22  40  64  94 130 173 211 265 331 403
#
# _framework density 22.153224999999999
#
# number of rings (size 3 to 8) (size 9 to 14) (size 15 to 20)
#    0.000    1.538    5.385    2.308    4.308    0.615 
#    1.385    0.769    6.769    0.000    0.000    0.000 
#    0.000    0.000    0.000    0.000    0.000    0.000 
#
# Total GULP energy -322194.630321 kJ/mol
# GULP energy per Si atom -12392.101166 kJ/mol
# Density = 2.210280 g / cm^3
# Si number density = 22.153225 Si / 1000 Ang^3
#
#
#
# Elastic Constant Matrix: (Units=GPa)
#
#
# Indices 1 2 3 4 5 6 
#
# 1 149.7611 40.7558 64.2102 0.0000 -0.4750 0.0000
# 2 40.7558 42.8150 33.2536 0.0000 -7.7068 0.0000
# 3 64.2102 33.2536 77.2033 0.0000 5.5593 0.0000
# 4 0.0000 0.0000 0.0000 19.7164 0.0000 -6.1399
# 5 -0.4750 -7.7068 5.5593 0.0000 31.5468 0.0000
# 6 0.0000 0.0000 0.0000 -6.1399 0.0000 44.3929
#
#
#
# Elastic Compliance Matrix: (Units=1/GPa)
#
#
# Indices 1 2 3 4 5 6 
#
# 1 0.011071 -0.005025 -0.007056 0.000000 0.000183 0.000000
# 2 -0.005025 0.041939 -0.014805 0.000000 0.012779 0.000000
# 3 -0.007056 -0.014805 0.025794 0.000000 -0.008269 0.000000
# 4 0.000000 0.000000 0.000000 0.053002 0.000000 0.007331
# 5 0.000183 0.012779 -0.008269 0.000000 0.036281 0.000000
# 6 0.000000 0.000000 0.000000 0.007331 0.000000 0.023540
#
#
# Mechanical properties :
#
#
# Convention : Reuss Voigt Hill
#
# Bulk Modulus (GPa) = 39.95102 60.69095 50.32098
# Shear Modulus (GPa) = 19.70505 27.90189 23.80347
#
# Velocity S-wave (km/s) = 2.98567 3.55279 3.28150
# Velocity P-wave (km/s) = 5.47345 6.65471 6.09278
#
# Compressibility (1/GPa) = 0.02503065
#
# Stress axis : x y z
#
# Youngs Moduli (GPa) = 90.32792 23.84439 38.76876
#
# Poissons Ratio (x) = 0.11982 0.27357
# Poissons Ratio (y) = 0.45389 0.57397
# Poissons Ratio (z) = 0.63739 0.35302
#
# Static dielectric constant tensor:
#      x y z
#    x 4.322970 0.000000 -0.062870 
#    y 0.000000 3.790980 0.000000 
#    z -0.062870 0.000000 3.744550 
# 
# 
# High freq. dielectric constant tensor:
#      x y z
#    x 1.886880 0.000000 -0.014090 
#    y 0.000000 1.852740 0.000000 
#    z -0.014090 0.000000 1.847990 
# 
# From -- ./inp_files/75916.got.cif
#   From: 2010.06.25/outbox.cif.g09.slc.cpg/sg13_38_cif.got.tgz:75916.got - 2010.06.28 04:50:58.
