data_PCOD8119141
_publ_section_title
;
Structure prediction by ZEFSAII (Michael W. Deem and Ramdas Pophale) SiO2 
 PCOD8119141
Probable space group: P 2/C
;
_chemical_formula_sum "Si O2"
_cell_formula_units_Z 24
_cell_length_a 23.877257
_cell_length_b 8.805951
_cell_length_c 18.141554
_cell_angle_alpha 90.000000
_cell_angle_beta 18.790235
_cell_angle_gamma 90.000000
_cell_volume 1228.660161
_symmetry_space_group_name_H-M "P 2/C"
_symmetry_group_IT_number 13
_symmetry_cell_setting 'monoclinic'
loop_
_space_group_symop_operation_xyz
x,y,z
-x,y,1/2-z
-x,-y,-z
x,-y,1/2+z
loop_
_atom_site_type_symbol
_atom_site_label
_atom_site_fract_x
_atom_site_fract_y
_atom_site_fract_z
Si Si1 0.183692 0.573452 0.983370
Si Si2 0.354736 0.662498 0.376892
Si Si3 0.474924 0.210318 0.091215
Si Si4 0.210819 0.570862 0.292349
Si Si5 0.572185 0.893761 0.015634
Si Si6 0.856836 0.295720 0.223872
O O1 0.297928 0.452952 0.885268
O O2 0.287291 0.732777 0.853016
O O3 0.154836 0.513568 0.936846
O O4 0.000000 0.605567 0.250000
O O5 0.500000 0.588886 0.250000
O O6 0.434784 0.813290 0.240573
O O7 0.187602 0.709039 0.633811
O O8 0.543538 0.074667 0.057880
O O9 0.603454 0.352600 0.933233
O O10 0.462714 0.157056 0.023258
O O11 0.225080 0.448124 0.209639
O O12 0.065279 0.699334 0.454912
O O13 0.770208 0.850474 0.792032
#
# Coordination Sequence:
#
# PCOD8119141 Si02
#       6
#     4   4   4   4   4   4
#     4  12  22  39  62  93 118 156 206 261 306 357
#     4  10  20  37  61  89 118 155 201 252 303 360
#     4  11  22  38  60  87 119 160 198 247 303 362
#     4  11  21  38  65  92 118 156 206 256 305 356
#     4  10  21  38  59  85 123 159 199 238 301 374
#     4  10  21  38  61  90 121 157 200 255 302 357
#
# _framework density 19.533473000000001
#
# number of rings (size 3 to 8) (size 9 to 14) (size 15 to 20)
#    0.000    1.333    5.000    2.500    0.000    0.667 
#    0.000   11.667    0.000    0.000    0.000    0.000 
#    0.000    0.000    0.000    0.000    0.000    0.000 
#
# Total GULP energy -297601.558540 kJ/mol
# GULP energy per Si atom -12400.064939 kJ/mol
# Density = 1.948901 g / cm^3
# Si number density = 19.533473 Si / 1000 Ang^3
#
#
#
# Elastic Constant Matrix: (Units=GPa)
#
#
# Indices 1 2 3 4 5 6 
#
# 1 72.4909 29.5295 23.5470 0.0000 7.2597 0.0000
# 2 29.5295 86.8017 50.3395 0.0000 -2.9120 0.0000
# 3 23.5470 50.3395 111.3777 0.0000 2.8733 0.0000
# 4 0.0000 0.0000 0.0000 22.6994 0.0000 -7.7365
# 5 7.2597 -2.9120 2.8733 0.0000 30.6299 0.0000
# 6 0.0000 0.0000 0.0000 -7.7365 0.0000 33.3487
#
#
#
# Elastic Compliance Matrix: (Units=1/GPa)
#
#
# Indices 1 2 3 4 5 6 
#
# 1 0.016699 -0.005210 -0.001063 0.000000 -0.004353 0.000000
# 2 -0.005210 0.017381 -0.006845 0.000000 0.003529 0.000000
# 3 -0.001063 -0.006845 0.012337 0.000000 -0.001556 0.000000
# 4 0.000000 0.000000 0.000000 0.047836 0.000000 0.011097
# 5 -0.004353 0.003529 -0.001556 0.000000 0.034161 0.000000
# 6 0.000000 0.000000 0.000000 0.011097 0.000000 0.032561
#
#
# Mechanical properties :
#
#
# Convention : Reuss Voigt Hill
#
# Bulk Modulus (GPa) = 49.55500 53.05583 51.30541
# Shear Modulus (GPa) = 25.78127 28.48589 27.13358
#
# Velocity S-wave (km/s) = 3.63692 3.82293 3.73108
# Velocity P-wave (km/s) = 6.56205 6.83424 6.69953
#
# Compressibility (1/GPa) = 0.02017960
#
# Stress axis : x y z
#
# Youngs Moduli (GPa) = 59.88539 57.53310 81.05512
#
# Poissons Ratio (x) = 0.29976 0.08617
# Poissons Ratio (y) = 0.31202 0.55485
# Poissons Ratio (z) = 0.06367 0.39384
#
# Static dielectric constant tensor:
#      x y z
#    x 3.786950 0.000000 -0.009530 
#    y 0.000000 3.527660 0.000000 
#    z -0.009530 0.000000 3.612830 
# 
# 
# High freq. dielectric constant tensor:
#      x y z
#    x 1.772960 0.000000 0.000630 
#    y 0.000000 1.736430 0.000000 
#    z 0.000630 0.000000 1.766230 
# 
# From -- ./inp_files/68080.got.cif
#   From: 2010.06.25/outbox.cif.g09.slc.cpg/sg13_35_cif.got.tgz:68080.got - 2010.06.28 04:50:58.
