data_PCOD8119353
_publ_section_title
;
Structure prediction by ZEFSAII (Michael W. Deem and Ramdas Pophale) SiO2 
 PCOD8119353
Probable space group: P 2/C
;
_chemical_formula_sum "Si O2"
_cell_formula_units_Z 28
_cell_length_a 31.253727
_cell_length_b 8.926008
_cell_length_c 30.846057
_cell_angle_alpha 90.000000
_cell_angle_beta 9.263793
_cell_angle_gamma 90.000000
_cell_volume 1385.259406
_symmetry_space_group_name_H-M "P 2/C"
_symmetry_group_IT_number 13
_symmetry_cell_setting 'monoclinic'
loop_
_space_group_symop_operation_xyz
x,y,z
-x,y,1/2-z
-x,-y,-z
x,-y,1/2+z
loop_
_atom_site_type_symbol
_atom_site_label
_atom_site_fract_x
_atom_site_fract_y
_atom_site_fract_z
Si Si1 0.254085 0.919467 0.726431
Si Si2 0.500000 0.347138 0.250000
Si Si3 0.245918 0.419466 0.234599
Si Si4 0.798710 0.419330 0.323173
Si Si5 0.701330 0.919329 0.920554
Si Si6 0.000000 0.847116 0.250000
Si Si7 0.809159 0.076541 0.030507
Si Si8 0.690800 0.423472 0.148867
O O1 0.249998 0.750001 0.746983
O O2 0.301142 0.926584 0.628376
O O3 0.500000 0.000000 0.500000
O O4 0.000000 0.000000 0.000000
O O5 0.622847 0.447789 0.165806
O O6 0.250006 0.250007 0.518555
O O7 0.198898 0.426585 0.230621
O O8 0.000000 0.500000 0.500000
O O9 0.500000 0.500000 0.000000
O O10 0.750002 0.250003 0.388219
O O11 0.566536 0.531775 0.567462
O O12 0.068822 0.472771 0.075867
O O13 0.431310 0.972822 0.213396
O O14 0.933607 0.031730 0.700375
O O15 0.122819 0.947773 0.088527
O O16 0.750006 0.250010 0.098906
#
# Coordination Sequence:
#
# PCOD8119353 Si02
#       8
#     4   2   4   4   4   2   4   4
#     4  11  24  41  62  88 123 162 202 250 303 358
#     4  10  20  38  62  92 124 154 198 258 308 348
#     4  11  24  41  62  88 123 162 202 250 303 358
#     4  11  24  41  60  90 128 160 194 251 314 359
#     4  11  24  41  60  90 128 160 194 251 314 359
#     4  10  20  38  62  92 124 154 198 258 308 348
#     4  11  22  39  65  91 117 159 208 249 294 363
#     4  11  22  39  65  91 117 159 208 249 294 363
#
# _framework density 20.212821000000002
#
# number of rings (size 3 to 8) (size 9 to 14) (size 15 to 20)
#    0.000    1.143    0.000    7.714    0.000   11.429 
#    0.000    2.857    0.000    1.714    0.000    0.000 
#    0.000    0.000    0.000    0.000    0.000    0.000 
#
# Total GULP energy -347134.996641 kJ/mol
# GULP energy per Si atom -12397.678451 kJ/mol
# Density = 2.016682 g / cm^3
# Si number density = 20.212821 Si / 1000 Ang^3
#
#
#
# Elastic Constant Matrix: (Units=GPa)
#
#
# Indices 1 2 3 4 5 6 
#
# 1 106.2303 95.4326 82.1038 0.0000 -10.4612 0.0000
# 2 95.4326 437.2682 310.2039 0.0000 -28.2113 0.0000
# 3 82.1038 310.2039 379.0656 0.0000 -25.4386 0.0000
# 4 0.0000 0.0000 0.0000 60.1487 0.0000 -3.8055
# 5 -10.4612 -28.2113 -25.4386 0.0000 53.6147 0.0000
# 6 0.0000 0.0000 0.0000 -3.8055 0.0000 31.3734
#
#
#
# Elastic Compliance Matrix: (Units=1/GPa)
#
#
# Indices 1 2 3 4 5 6 
#
# 1 0.011931 -0.001802 -0.001051 0.000000 0.000881 0.000000
# 2 -0.001802 0.005756 -0.004276 0.000000 0.000648 0.000000
# 3 -0.001051 -0.004276 0.006404 0.000000 0.000583 0.000000
# 4 0.000000 0.000000 0.000000 0.016754 0.000000 0.002032
# 5 0.000881 0.000648 0.000583 0.000000 0.019441 0.000000
# 6 0.000000 0.000000 0.000000 0.002032 0.000000 0.032121
#
#
# Mechanical properties :
#
#
# Convention : Reuss Voigt Hill
#
# Bulk Modulus (GPa) = 101.69336 210.89386 156.29361
# Shear Modulus (GPa) = 45.47855 58.01563 51.74709
#
# Velocity S-wave (km/s) = 4.74855 5.36327 5.06524
# Velocity P-wave (km/s) = 8.97137 11.95475 10.56886
#
# Compressibility (1/GPa) = 0.00983348
#
# Stress axis : x y z
#
# Youngs Moduli (GPa) = 83.81615 173.74283 156.14573
#
# Poissons Ratio (x) = 0.31303 0.16405
# Poissons Ratio (y) = 0.15101 0.66773
# Poissons Ratio (z) = 0.08806 0.74298
#
# Static dielectric constant tensor:
#      x y z
#    x 3.757610 0.000000 -0.018010 
#    y 0.000000 3.868500 0.000000 
#    z -0.018010 0.000000 3.892690 
# 
# 
# High freq. dielectric constant tensor:
#      x y z
#    x 1.800260 0.000000 -0.002290 
#    y 0.000000 1.789070 0.000000 
#    z -0.002290 0.000000 1.817490 
# 
# From -- ./inp_files/97987.got.cif
#   From: 2010.06.25/outbox.cif.g09.slc.cpg/sg13_49_cif.got.tgz:97987.got - 2010.06.28 04:50:58.
