data_PCOD8119327
_publ_section_title
;
Structure prediction by ZEFSAII (Michael W. Deem and Ramdas Pophale) SiO2 
 PCOD8119327
Probable space group: P 2/C
;
_chemical_formula_sum "Si O2"
_cell_formula_units_Z 20
_cell_length_a 9.514498
_cell_length_b 12.268621
_cell_length_c 10.631378
_cell_angle_alpha 90.000000
_cell_angle_beta 122.507628
_cell_angle_gamma 90.000000
_cell_volume 1046.558576
_symmetry_space_group_name_H-M "P 2/C"
_symmetry_group_IT_number 13
_symmetry_cell_setting 'monoclinic'
loop_
_space_group_symop_operation_xyz
x,y,z
-x,y,1/2-z
-x,-y,-z
x,-y,1/2+z
loop_
_atom_site_type_symbol
_atom_site_label
_atom_site_fract_x
_atom_site_fract_y
_atom_site_fract_z
Si Si1 0.319035 0.945549 0.403971
Si Si2 0.188484 0.715760 0.334907
Si Si3 0.301085 0.921393 0.667228
Si Si4 0.892807 0.494919 0.823292
Si Si5 0.695540 0.677047 0.841179
O O1 0.319133 0.814995 0.374202
O O2 0.227362 0.959589 0.495537
O O3 0.500000 0.000000 0.500000
O O4 0.225808 0.004246 0.242859
O O5 0.199694 0.623163 0.231675
O O6 0.229428 0.653573 0.484823
O O7 0.000000 0.763337 0.250000
O O8 0.500000 0.930834 0.750000
O O9 0.249052 0.798229 0.673805
O O10 0.000000 0.513815 0.750000
O O11 0.758965 0.591641 0.768191
O O12 0.000000 0.500000 0.000000
O O13 0.500000 0.665678 0.750000
#
# Coordination Sequence:
#
# PCOD8119327 Si02
#       5
#     4   4   4   4   4
#     4   9  17  34  56  80 111 150 192 242 298 357
#     4  10  20  38  62  83 122 162 200 245 322 361
#     4   8  16  32  54  77 110 146 189 243 299 345
#     4  11  21  41  63  87 124 166 205 251 310 371
#     4  10  20  38  62  89 120 164 207 253 308 363
#
# _framework density 19.110254999999999
#
# number of rings (size 3 to 8) (size 9 to 14) (size 15 to 20)
#    0.000    2.400    4.000    1.200    0.000    0.800 
#    3.600    8.000    0.000    0.000    0.000    0.000 
#    0.000    0.000    0.000    0.000    0.000    0.000 
#
# Total GULP energy -247769.415389 kJ/mol
# GULP energy per Si atom -12388.470769 kJ/mol
# Density = 1.906676 g / cm^3
# Si number density = 19.110255 Si / 1000 Ang^3
#
#
#
# Elastic Constant Matrix: (Units=GPa)
#
#
# Indices 1 2 3 4 5 6 
#
# 1 59.4337 63.9958 40.2997 0.0000 -12.8226 0.0000
# 2 63.9958 168.5292 63.0681 0.0000 -29.3421 0.0000
# 3 40.2997 63.0681 121.8977 0.0000 -27.2052 0.0000
# 4 0.0000 0.0000 0.0000 39.1039 0.0000 -26.8735
# 5 -12.8226 -29.3421 -27.2052 0.0000 32.6493 0.0000
# 6 0.0000 0.0000 0.0000 -26.8735 0.0000 -100.6595
#
#
#
# Elastic Compliance Matrix: (Units=1/GPa)
#
#
# Indices 1 2 3 4 5 6 
#
# 1 0.030892 -0.009950 -0.005347 0.000000 -0.001265 0.000000
# 2 -0.009950 0.011071 -0.001339 0.000000 0.004926 0.000000
# 3 -0.005347 -0.001339 0.012195 0.000000 0.006858 0.000000
# 4 0.000000 0.000000 0.000000 0.021608 0.000000 -0.005769
# 5 -0.001265 0.004926 0.006858 0.000000 0.040273 0.000000
# 6 0.000000 0.000000 0.000000 -0.005769 0.000000 -0.008394
#
#
# Mechanical properties :
#
#
# Convention : Reuss Voigt Hill
#
# Bulk Modulus (GPa) = 47.88157 76.06532 61.97345
# Shear Modulus (GPa) = 33.81160 6.38521 20.09840
#
# Velocity S-wave (km/s) = 4.21086 1.82989 3.24652
# Velocity P-wave (km/s) = 6.98223 6.65992 6.82298
#
# Compressibility (1/GPa) = 0.02088486
#
# Stress axis : x y z
#
# Youngs Moduli (GPa) = 32.37095 90.32894 82.00208
#
# Poissons Ratio (x) = 0.89875 0.43850
# Poissons Ratio (y) = 0.32208 0.10980
# Poissons Ratio (z) = 0.17310 0.12095
#
# Static dielectric constant tensor:
#      x y z
#    x 3.080130 0.000000 -0.421660 
#    y 0.000000 3.860320 0.000000 
#    z -0.421660 0.000000 4.105520 
# 
# 
# High freq. dielectric constant tensor:
#      x y z
#    x 1.694370 0.000000 -0.008790 
#    y 0.000000 1.749190 0.000000 
#    z -0.008790 0.000000 1.761780 
# 
# From -- ./inp_files/28618.got.cif
#   From: 2010.06.25/outbox.cif.g09.slc.cpg/sg13_15_cif.got.tgz:28618.got - 2010.06.28 04:50:58.
