data_PCOD8119731
_publ_section_title
;
Structure prediction by ZEFSAII (Michael W. Deem and Ramdas Pophale) SiO2 
 PCOD8119731
Probable space group: P 2/C
;
_chemical_formula_sum "Si O2"
_cell_formula_units_Z 26
_cell_length_a 15.517579
_cell_length_b 13.397114
_cell_length_c 9.427240
_cell_angle_alpha 90.000000
_cell_angle_beta 139.260323
_cell_angle_gamma 90.000000
_cell_volume 1279.034691
_symmetry_space_group_name_H-M "P 2/C"
_symmetry_group_IT_number 13
_symmetry_cell_setting 'monoclinic'
loop_
_space_group_symop_operation_xyz
x,y,z
-x,y,1/2-z
-x,-y,-z
x,-y,1/2+z
loop_
_atom_site_type_symbol
_atom_site_label
_atom_site_fract_x
_atom_site_fract_y
_atom_site_fract_z
Si Si1 0.500000 0.726394 0.750000
Si Si2 0.647720 0.384280 0.917391
Si Si3 0.903983 0.012621 0.249727
Si Si4 0.745717 0.161212 0.451938
Si Si5 0.693561 0.577993 0.150631
Si Si6 0.169382 0.784722 0.744554
Si Si7 0.064634 0.673824 0.190217
O O1 0.403056 0.799775 0.713962
O O2 0.415583 0.656969 0.538997
O O3 0.500000 0.346283 0.750000
O O4 0.686163 0.427383 0.811265
O O5 0.664199 0.468451 0.057121
O O6 0.730679 0.286746 0.051959
O O7 0.864515 0.128479 0.185248
O O8 0.000000 0.973623 0.250000
O O9 0.000000 0.000000 0.500000
O O10 0.772186 0.943482 0.068263
O O11 0.768294 0.156546 0.311486
O O12 0.849812 0.235961 0.647172
O O13 0.842247 0.600469 0.283368
O O14 0.044718 0.716510 0.551349
O O15 0.000000 0.620504 0.250000
#
# Coordination Sequence:
#
# PCOD8119731 Si02
#       7
#     2   4   4   4   4   4   4
#     4  10  22  42  74  90 132 170 230 264 324 392
#     4  12  27  44  67  96 132 174 225 269 331 395
#     4  12  22  40  67  96 130 172 216 262 332 392
#     4  10  20  41  66  98 125 178 215 269 326 382
#     4  11  25  43  69  97 126 178 219 271 331 398
#     4  11  24  41  66  95 137 168 218 276 326 387
#     4   9  20  39  65  95 128 167 218 271 327 384
#
# _framework density 20.327829999999999
#
# number of rings (size 3 to 8) (size 9 to 14) (size 15 to 20)
#    0.000    1.231    3.846    1.846    8.615    0.615 
#    1.385    0.769    0.000    0.000    0.000    0.000 
#    0.000    0.000    0.000    0.000    0.000    0.000 
#
# Total GULP energy -322304.433018 kJ/mol
# GULP energy per Si atom -12396.324347 kJ/mol
# Density = 2.028156 g / cm^3
# Si number density = 20.327830 Si / 1000 Ang^3
#
#
#
# Elastic Constant Matrix: (Units=GPa)
#
#
# Indices 1 2 3 4 5 6 
#
# 1 99.6951 26.8945 45.6325 0.0000 6.7012 0.0000
# 2 26.8945 96.6793 47.0814 0.0000 9.3202 0.0000
# 3 45.6325 47.0814 83.1832 0.0000 2.8459 0.0000
# 4 0.0000 0.0000 0.0000 -9.5609 0.0000 -1.5749
# 5 6.7012 9.3202 2.8459 0.0000 40.4169 0.0000
# 6 0.0000 0.0000 0.0000 -1.5749 0.0000 30.0242
#
#
#
# Elastic Compliance Matrix: (Units=1/GPa)
#
#
# Indices 1 2 3 4 5 6 
#
# 1 0.013512 -0.000017 -0.007344 0.000000 -0.001719 0.000000
# 2 -0.000017 0.014586 -0.008151 0.000000 -0.002787 0.000000
# 3 -0.007344 -0.008151 0.020608 0.000000 0.001646 0.000000
# 4 0.000000 0.000000 0.000000 -0.103696 0.000000 -0.005439
# 5 -0.001719 -0.002787 0.001646 0.000000 0.025554 0.000000
# 6 0.000000 0.000000 0.000000 -0.005439 0.000000 0.033021
#
#
# Mechanical properties :
#
#
# Convention : Reuss Voigt Hill
#
# Bulk Modulus (GPa) = 56.55473 57.64161 57.09817
# Shear Modulus (GPa) = 123.44466 22.83931 73.14199
#
# Velocity S-wave (km/s) = 7.80120 3.35557 6.00494
# Velocity P-wave (km/s) = 10.44159 6.59020 8.73091
#
# Compressibility (1/GPa) = 0.01768199
#
# Stress axis : x y z
#
# Youngs Moduli (GPa) = 74.00670 68.55723 48.52491
#
# Poissons Ratio (x) = 0.00113 0.35639
# Poissons Ratio (y) = 0.00122 0.39555
# Poissons Ratio (z) = 0.54353 0.55884
#
# Static dielectric constant tensor:
#      x y z
#    x 4.188210 0.000000 0.233660 
#    y 0.000000 3.702440 0.000000 
#    z 0.233660 0.000000 3.796820 
# 
# 
# High freq. dielectric constant tensor:
#      x y z
#    x 1.802180 0.000000 0.003380 
#    y 0.000000 1.789520 0.000000 
#    z 0.003380 0.000000 1.796050 
# 
# From -- ./inp_files/19779.got.cif
#   From: 2010.06.25/outbox.cif.g09.slc.cpg/sg13_10_cif.got.tgz:19779.got - 2010.06.28 04:50:58.
