data_PCOD8119063
_publ_section_title
;
Structure prediction by ZEFSAII (Michael W. Deem and Ramdas Pophale) SiO2 
 PCOD8119063
Probable space group: P 2/C
;
_chemical_formula_sum "Si O2"
_cell_formula_units_Z 22
_cell_length_a 8.578449
_cell_length_b 7.600184
_cell_length_c 16.173852
_cell_angle_alpha 90.000000
_cell_angle_beta 73.804765
_cell_angle_gamma 90.000000
_cell_volume 1012.653598
_symmetry_space_group_name_H-M "P 2/C"
_symmetry_group_IT_number 13
_symmetry_cell_setting 'monoclinic'
loop_
_space_group_symop_operation_xyz
x,y,z
-x,y,1/2-z
-x,-y,-z
x,-y,1/2+z
loop_
_atom_site_type_symbol
_atom_site_label
_atom_site_fract_x
_atom_site_fract_y
_atom_site_fract_z
Si Si1 0.475689 0.307362 0.347418
Si Si2 0.118512 0.212393 0.401188
Si Si3 0.000000 0.140353 0.250000
Si Si4 0.303139 0.012750 0.114546
Si Si5 0.495072 0.704095 0.346229
Si Si6 0.816982 0.855150 0.038456
O O1 0.500000 0.243567 0.250000
O O2 0.284904 0.310725 0.398687
O O3 0.570390 0.171510 0.390510
O O4 0.549552 0.501923 0.349458
O O5 0.060752 0.263676 0.316798
O O6 0.975479 0.258486 0.487952
O O7 0.140081 0.999343 0.398134
O O8 0.850488 0.020755 0.302072
O O9 0.387677 0.825441 0.116704
O O10 0.249951 0.027947 0.027810
O O11 0.500000 0.762357 0.250000
O O12 0.311820 0.719608 0.406257
#
# Coordination Sequence:
#
# PCOD8119063 Si02
#       6
#     4   4   2   4   4   4
#     4  11  22  38  65  90 121 163 209 245 305 368
#     4  10  20  38  62  91 121 161 206 248 302 370
#     4  10  20  36  70  84 118 174 198 248 318 346
#     4  11  21  40  63  90 123 162 201 257 305 368
#     4  11  23  38  62  90 122 158 207 252 302 363
#     4  10  22  38  62  92 123 159 205 250 312 364
#
# _framework density 21.725099
#
# number of rings (size 3 to 8) (size 9 to 14) (size 15 to 20)
#    0.000    1.455    3.636    2.182    0.000    1.455 
#    0.000    0.909   12.000    0.000    0.000    0.000 
#    0.000    0.000    0.000    0.000    0.000    0.000 
#
# Total GULP energy -272818.181872 kJ/mol
# GULP energy per Si atom -12400.826449 kJ/mol
# Density = 2.167565 g / cm^3
# Si number density = 21.725099 Si / 1000 Ang^3
#
#
#
# Elastic Constant Matrix: (Units=GPa)
#
#
# Indices 1 2 3 4 5 6 
#
# 1 124.4601 30.9032 34.5125 0.0000 -23.8803 0.0000
# 2 30.9032 75.4443 11.4779 0.0000 0.2409 0.0000
# 3 34.5125 11.4779 88.9334 0.0000 -19.9540 0.0000
# 4 0.0000 0.0000 0.0000 14.3121 0.0000 -9.6759
# 5 -23.8803 0.2409 -19.9540 0.0000 43.0947 0.0000
# 6 0.0000 0.0000 0.0000 -9.6759 0.0000 10.0481
#
#
#
# Elastic Compliance Matrix: (Units=1/GPa)
#
#
# Indices 1 2 3 4 5 6 
#
# 1 0.010641 -0.003986 -0.002552 0.000000 0.004737 0.000000
# 2 -0.003986 0.015051 -0.001016 0.000000 -0.002763 0.000000
# 3 -0.002552 -0.001016 0.013447 0.000000 0.004818 0.000000
# 4 0.000000 0.000000 0.000000 0.200219 0.000000 0.192804
# 5 0.004737 -0.002763 0.004818 0.000000 0.028076 0.000000
# 6 0.000000 0.000000 0.000000 0.192804 0.000000 0.285185
#
#
# Mechanical properties :
#
#
# Convention : Reuss Voigt Hill
#
# Bulk Modulus (GPa) = 41.61200 49.18055 45.39628
# Shear Modulus (GPa) = 8.68454 27.62059 18.15256
#
# Velocity S-wave (km/s) = 2.00154 3.56949 2.89374
# Velocity P-wave (km/s) = 4.95348 6.29882 5.66622
#
# Compressibility (1/GPa) = 0.02403153
#
# Stress axis : x y z
#
# Youngs Moduli (GPa) = 93.97676 66.44211 74.36699
#
# Poissons Ratio (x) = 0.26481 0.18980
# Poissons Ratio (y) = 0.37455 0.07554
# Poissons Ratio (z) = 0.23985 0.06749
#
# Static dielectric constant tensor:
#      x y z
#    x 4.154240 0.000000 -0.184490 
#    y 0.000000 3.380490 0.000000 
#    z -0.184490 0.000000 4.100740 
# 
# 
# High freq. dielectric constant tensor:
#      x y z
#    x 1.866030 0.000000 -0.012650 
#    y 0.000000 1.811280 0.000000 
#    z -0.012650 0.000000 1.868600 
# 
# From -- ./inp_files/63013.got.cif
#   From: 2010.06.25/outbox.cif.g09.slc.cpg/sg13_32_cif.got.tgz:63013.got - 2010.06.28 04:50:58.
