data_PCOD8119998
_publ_section_title
;
Structure prediction by ZEFSAII (Michael W. Deem and Ramdas Pophale) SiO2 
 PCOD8119998
Probable space group: P 2/C
;
_chemical_formula_sum "Si O2"
_cell_formula_units_Z 28
_cell_length_a 21.989106
_cell_length_b 5.090080
_cell_length_c 12.616414
_cell_angle_alpha 90.000000
_cell_angle_beta 71.411009
_cell_angle_gamma 90.000000
_cell_volume 1338.438485
_symmetry_space_group_name_H-M "P 2/C"
_symmetry_group_IT_number 13
_symmetry_cell_setting 'monoclinic'
loop_
_space_group_symop_operation_xyz
x,y,z
-x,y,1/2-z
-x,-y,-z
x,-y,1/2+z
loop_
_atom_site_type_symbol
_atom_site_label
_atom_site_fract_x
_atom_site_fract_y
_atom_site_fract_z
Si Si1 0.862054 0.228220 0.931948
Si Si2 0.925486 0.287987 0.307761
Si Si3 0.588880 0.664290 0.743290
Si Si4 0.764132 0.795886 0.308283
Si Si5 0.825712 0.692632 0.687927
Si Si6 0.622754 0.134491 0.841247
Si Si7 0.530347 0.285778 0.060749
O O1 0.913424 0.460519 0.888546
O O2 0.797912 0.284110 0.899559
O O3 0.895898 0.960161 0.882541
O O4 0.840172 0.209453 0.063608
O O5 0.893113 0.336551 0.211699
O O6 0.000000 0.240903 0.250000
O O7 0.600530 0.377291 0.782095
O O8 0.526721 0.811926 0.831504
O O9 0.583384 0.621731 0.619538
O O10 0.639844 0.884238 0.755419
O O11 0.787763 0.584607 0.207329
O O12 0.687664 0.781932 0.365069
O O13 0.782096 0.090558 0.268097
O O14 0.567829 0.077983 0.963497
O O15 0.500000 0.500000 0.000000
#
# Coordination Sequence:
#
# PCOD8119998 Si02
#       7
#     4   4   4   4   4   4   4
#     4  10  21  38  58  80 114 155 182 225 287 327
#     4  10  21  36  58  89 115 142 190 235 274 336
#     4  10  22  38  59  84 112 146 185 231 288 342
#     4  10  22  37  55  81 112 146 192 234 271 333
#     4  10  21  39  57  79 115 153 187 231 282 331
#     4  11  22  37  57  84 111 144 189 235 279 332
#     4   9  21  40  60  83 115 148 183 232 289 342
#
# _framework density 20.919900999999999
#
# number of rings (size 3 to 8) (size 9 to 14) (size 15 to 20)
#    0.000    2.000    0.000    2.571    0.000   10.286 
#    0.000    0.000    0.000    0.000    0.000    0.000 
#    0.000    0.000    0.000    0.000    0.000    0.000 
#
# Total GULP energy -346968.758303 kJ/mol
# GULP energy per Si atom -12391.741368 kJ/mol
# Density = 2.087229 g / cm^3
# Si number density = 20.919901 Si / 1000 Ang^3
#
#
#
# Elastic Constant Matrix: (Units=GPa)
#
#
# Indices 1 2 3 4 5 6 
#
# 1 73.1446 0.9176 24.0866 0.0000 0.6861 0.0000
# 2 0.9176 95.2877 7.1250 0.0000 8.0322 0.0000
# 3 24.0866 7.1250 92.5514 0.0000 21.5983 0.0000
# 4 0.0000 0.0000 0.0000 53.2911 0.0000 61.9230
# 5 0.6861 8.0322 21.5983 0.0000 23.6566 0.0000
# 6 0.0000 0.0000 0.0000 61.9230 0.0000 196.7825
#
#
#
# Elastic Compliance Matrix: (Units=1/GPa)
#
#
# Indices 1 2 3 4 5 6 
#
# 1 0.015253 -0.000124 -0.004913 0.000000 0.004086 0.000000
# 2 -0.000124 0.010805 0.000071 0.000000 -0.003730 0.000000
# 3 -0.004913 0.000071 0.015313 0.000000 -0.013862 0.000000
# 4 0.000000 0.000000 0.000000 0.029581 0.000000 -0.009309
# 5 0.004086 -0.003730 -0.013862 0.000000 0.056075 0.000000
# 6 0.000000 0.000000 0.000000 -0.009309 0.000000 0.008011
#
#
# Mechanical properties :
#
#
# Convention : Reuss Voigt Hill
#
# Bulk Modulus (GPa) = 31.80903 36.13800 33.97351
# Shear Modulus (GPa) = 32.16459 70.00300 51.08380
#
# Velocity S-wave (km/s) = 3.92537 5.79094 4.94689
# Velocity P-wave (km/s) = 5.98187 7.87562 6.99315
#
# Compressibility (1/GPa) = 0.03143762
#
# Stress axis : x y z
#
# Youngs Moduli (GPa) = 65.56184 92.55126 65.30373
#
# Poissons Ratio (x) = 0.01147 0.32087
# Poissons Ratio (y) = 0.00812 -0.00462
# Poissons Ratio (z) = 0.32214 -0.00655
#
# Static dielectric constant tensor:
#      x y z
#    x 3.910250 0.000000 0.199990 
#    y 0.000000 3.724010 0.000000 
#    z 0.199990 0.000000 3.837680 
# 
# 
# High freq. dielectric constant tensor:
#      x y z
#    x 1.821010 0.000000 0.012620 
#    y 0.000000 1.823830 0.000000 
#    z 0.012620 0.000000 1.810680 
# 
# From -- ./inp_files/40089.got.cif
#   From: 2010.06.25/outbox.cif.g09.slc.cpg/sg13_21_cif.got.tgz:40089.got - 2010.06.28 04:50:58.
