data_PCOD8119021
_publ_section_title
;
Structure prediction by ZEFSAII (Michael W. Deem and Ramdas Pophale) SiO2 
 PCOD8119021
Probable space group: P 2/C
;
_chemical_formula_sum "Si O2"
_cell_formula_units_Z 26
_cell_length_a 11.595068
_cell_length_b 5.371947
_cell_length_c 24.415357
_cell_angle_alpha 90.000000
_cell_angle_beta 132.700152
_cell_angle_gamma 90.000000
_cell_volume 1117.645071
_symmetry_space_group_name_H-M "P 2/C"
_symmetry_group_IT_number 13
_symmetry_cell_setting 'monoclinic'
loop_
_space_group_symop_operation_xyz
x,y,z
-x,y,1/2-z
-x,-y,-z
x,-y,1/2+z
loop_
_atom_site_type_symbol
_atom_site_label
_atom_site_fract_x
_atom_site_fract_y
_atom_site_fract_z
Si Si1 0.500000 0.486393 0.750000
Si Si2 0.759656 0.829310 0.801617
Si Si3 0.299523 0.797107 0.025588
Si Si4 0.929329 0.528182 0.283813
Si Si5 0.893147 0.186945 0.933525
Si Si6 0.605410 0.196511 0.681312
Si Si7 0.854824 0.320173 0.559361
O O1 0.660191 0.645061 0.808157
O O2 0.509430 0.325965 0.698778
O O3 0.907234 0.695547 0.820407
O O4 0.812215 0.062615 0.854396
O O5 0.647795 0.920272 0.715852
O O6 0.235576 0.718159 0.065333
O O7 0.488746 0.823970 0.091626
O O8 0.261706 0.558453 0.975038
O O9 0.232012 0.057991 0.980807
O O10 0.764564 0.660143 0.217168
O O11 0.000000 0.425328 0.250000
O O12 0.056231 0.711564 0.353545
O O13 0.013292 0.387314 0.945393
O O14 0.000000 0.000000 0.000000
#
# Coordination Sequence:
#
# PCOD8119021 Si02
#       7
#     2   4   4   4   4   4   4
#     4  10  22  34  64  98 142 174 220 280 348 422
#     4  11  22  41  65 100 138 177 238 278 351 415
#     4  11  25  40  70 102 149 180 222 282 362 428
#     4  11  26  47  72  94 131 187 246 296 339 402
#     4  10  20  36  63 100 139 184 214 274 347 425
#     4  11  24  41  66 102 136 182 230 289 350 419
#     4  11  24  45  64 103 142 186 233 282 346 425
#
# _framework density 23.263197000000002
#
# number of rings (size 3 to 8) (size 9 to 14) (size 15 to 20)
#    0.000    1.231    1.538    4.615   10.769    0.615 
#    0.000    1.538    0.000    0.000    0.000    0.000 
#    0.000    0.000    0.000    0.000    0.000    0.000 
#
# Total GULP energy -322249.735578 kJ/mol
# GULP energy per Si atom -12394.220599 kJ/mol
# Density = 2.321025 g / cm^3
# Si number density = 23.263197 Si / 1000 Ang^3
#
#
#
# Elastic Constant Matrix: (Units=GPa)
#
#
# Indices 1 2 3 4 5 6 
#
# 1 82.6700 21.8515 35.0571 0.0000 -0.6982 0.0000
# 2 21.8515 107.0015 33.4997 0.0000 10.0409 0.0000
# 3 35.0571 33.4997 128.9202 0.0000 31.7911 0.0000
# 4 0.0000 0.0000 0.0000 23.6534 0.0000 1.6881
# 5 -0.6982 10.0409 31.7911 0.0000 31.0000 0.0000
# 6 0.0000 0.0000 0.0000 1.6881 0.0000 4.5572
#
#
#
# Elastic Compliance Matrix: (Units=1/GPa)
#
#
# Indices 1 2 3 4 5 6 
#
# 1 0.014810 -0.002031 -0.005011 0.000000 0.006131 0.000000
# 2 -0.002031 0.010466 -0.001767 0.000000 -0.001624 0.000000
# 3 -0.005011 -0.001767 0.012669 0.000000 -0.012533 0.000000
# 4 0.000000 0.000000 0.000000 0.043425 0.000000 -0.016086
# 5 0.006131 -0.001624 -0.012533 0.000000 0.045775 0.000000
# 6 0.000000 0.000000 0.000000 -0.016086 0.000000 0.225389
#
#
# Mechanical properties :
#
#
# Convention : Reuss Voigt Hill
#
# Bulk Modulus (GPa) = 49.19576 55.48979 52.34278
# Shear Modulus (GPa) = 13.26512 27.05436 20.15974
#
# Velocity S-wave (km/s) = 2.39052 3.41393 2.94699
# Velocity P-wave (km/s) = 5.36776 6.28050 5.84198
#
# Compressibility (1/GPa) = 0.02032696
#
# Stress axis : x y z
#
# Youngs Moduli (GPa) = 67.52220 95.54809 78.93180
#
# Poissons Ratio (x) = 0.19404 0.39555
# Poissons Ratio (y) = 0.13712 0.13947
# Poissons Ratio (z) = 0.33837 0.16883
#
# Static dielectric constant tensor:
#      x y z
#    x 4.303870 0.000000 0.181240 
#    y 0.000000 4.021440 0.000000 
#    z 0.181240 0.000000 4.332940 
# 
# 
# High freq. dielectric constant tensor:
#      x y z
#    x 1.886040 0.000000 0.026280 
#    y 0.000000 1.912950 0.000000 
#    z 0.026280 0.000000 1.930330 
# 
# From -- ./inp_files/80695.got.cif
#   From: 2010.06.25/outbox.cif.g09.slc.cpg/sg13_41_cif.got.tgz:80695.got - 2010.06.28 04:50:58.
