data_PCOD8119340
_publ_section_title
;
Structure prediction by ZEFSAII (Michael W. Deem and Ramdas Pophale) SiO2 
 PCOD8119340
Probable space group: P 2/C
;
_chemical_formula_sum "Si O2"
_cell_formula_units_Z 24
_cell_length_a 8.283855
_cell_length_b 9.136021
_cell_length_c 28.575499
_cell_angle_alpha 90.000000
_cell_angle_beta 32.854937
_cell_angle_gamma 90.000000
_cell_volume 1173.260066
_symmetry_space_group_name_H-M "P 2/C"
_symmetry_group_IT_number 13
_symmetry_cell_setting 'monoclinic'
loop_
_space_group_symop_operation_xyz
x,y,z
-x,y,1/2-z
-x,-y,-z
x,-y,1/2+z
loop_
_atom_site_type_symbol
_atom_site_label
_atom_site_fract_x
_atom_site_fract_y
_atom_site_fract_z
Si Si1 0.846745 0.147769 0.837849
Si Si2 0.666054 0.929334 0.757302
Si Si3 0.709193 0.907339 0.078873
Si Si4 0.181255 0.567769 0.090657
Si Si5 0.675510 0.394156 0.255328
Si Si6 0.822678 0.583207 0.082485
O O1 0.516367 0.083576 0.910000
O O2 0.807403 0.284156 0.882046
O O3 0.000000 0.188044 0.750000
O O4 0.024718 0.018344 0.820993
O O5 0.500000 0.903246 0.750000
O O6 0.713352 0.768098 0.768515
O O7 0.439625 0.027663 0.839838
O O8 0.774735 0.740368 0.072701
O O9 0.000000 0.000000 0.000000
O O10 0.007505 0.452262 0.165371
O O11 0.002520 0.597432 0.086713
O O12 0.500000 0.500000 0.000000
O O13 0.500000 0.385534 0.250000
O O14 0.494789 0.502338 0.333642
O O15 0.000000 0.500000 0.000000
#
# Coordination Sequence:
#
# PCOD8119340 Si02
#       6
#     4   4   4   4   4   4
#     4  10  22  40  60  86 121 161 203 252 306 366
#     4  10  20  38  62  87 116 155 196 245 307 368
#     4  11  23  39  59  86 120 158 201 250 302 364
#     4  11  23  39  61  91 121 157 205 256 307 363
#     4   9  20  38  61  87 118 153 196 245 299 363
#     4  11  22  40  64  89 120 162 203 248 305 368
#
# _framework density 20.455822999999999
#
# number of rings (size 3 to 8) (size 9 to 14) (size 15 to 20)
#    0.000    1.667    0.000    5.000    0.000    5.333 
#    0.000   11.667    0.000    0.000    0.000    0.000 
#    0.000    0.000    0.000    0.000    0.000    0.000 
#
# Total GULP energy -297477.201753 kJ/mol
# GULP energy per Si atom -12394.883406 kJ/mol
# Density = 2.040926 g / cm^3
# Si number density = 20.455823 Si / 1000 Ang^3
#
#
#
# Elastic Constant Matrix: (Units=GPa)
#
#
# Indices 1 2 3 4 5 6 
#
# 1 87.5302 38.0317 43.8097 0.0000 -16.6354 0.0000
# 2 38.0317 176.6682 82.4125 0.0000 -17.3949 0.0000
# 3 43.8097 82.4125 141.5695 0.0000 -26.1870 0.0000
# 4 0.0000 0.0000 0.0000 38.9641 0.0000 -5.7276
# 5 -16.6354 -17.3949 -26.1870 0.0000 36.9194 0.0000
# 6 0.0000 0.0000 0.0000 -5.7276 0.0000 20.8274
#
#
#
# Elastic Compliance Matrix: (Units=1/GPa)
#
#
# Indices 1 2 3 4 5 6 
#
# 1 0.014166 -0.001318 -0.002936 0.000000 0.003680 0.000000
# 2 -0.001318 0.007902 -0.004159 0.000000 0.000179 0.000000
# 3 -0.002936 -0.004159 0.011264 0.000000 0.004707 0.000000
# 4 0.000000 0.000000 0.000000 0.026746 0.000000 0.007355
# 5 0.003680 0.000179 0.004707 0.000000 0.032167 0.000000
# 6 0.000000 0.000000 0.000000 0.007355 0.000000 0.050036
#
#
# Mechanical properties :
#
#
# Convention : Reuss Voigt Hill
#
# Bulk Modulus (GPa) = 60.58245 81.58619 71.08432
# Shear Modulus (GPa) = 30.37507 35.44311 32.90909
#
# Velocity S-wave (km/s) = 3.85763 4.16705 4.01532
# Velocity P-wave (km/s) = 7.03721 7.94500 7.50484
#
# Compressibility (1/GPa) = 0.01650643
#
# Stress axis : x y z
#
# Youngs Moduli (GPa) = 70.59157 126.55510 88.77807
#
# Poissons Ratio (x) = 0.16675 0.26066
# Poissons Ratio (y) = 0.09301 0.36922
# Poissons Ratio (z) = 0.20726 0.52634
#
# Static dielectric constant tensor:
#      x y z
#    x 3.979580 0.000000 -0.247700 
#    y 0.000000 4.064890 0.000000 
#    z -0.247700 0.000000 3.915050 
# 
# 
# High freq. dielectric constant tensor:
#      x y z
#    x 1.800240 0.000000 -0.009420 
#    y 0.000000 1.817670 0.000000 
#    z -0.009420 0.000000 1.802540 
# 
# From -- ./inp_files/95896.got.cif
#   From: 2010.06.25/outbox.cif.g09.slc.cpg/sg13_48_cif.got.tgz:95896.got - 2010.06.28 04:50:58.
