data_PCOD8119809
_publ_section_title
;
Structure prediction by ZEFSAII (Michael W. Deem and Ramdas Pophale) SiO2 
 PCOD8119809
Probable space group: P 2/C
;
_chemical_formula_sum "Si O2"
_cell_formula_units_Z 24
_cell_length_a 13.090694
_cell_length_b 14.066323
_cell_length_c 20.787093
_cell_angle_alpha 90.000000
_cell_angle_beta 19.095559
_cell_angle_gamma 90.000000
_cell_volume 1252.209069
_symmetry_space_group_name_H-M "P 2/C"
_symmetry_group_IT_number 13
_symmetry_cell_setting 'monoclinic'
loop_
_space_group_symop_operation_xyz
x,y,z
-x,y,1/2-z
-x,-y,-z
x,-y,1/2+z
loop_
_atom_site_type_symbol
_atom_site_label
_atom_site_fract_x
_atom_site_fract_y
_atom_site_fract_z
Si Si1 0.786643 0.913921 0.031062
Si Si2 0.146204 0.733235 0.597163
Si Si3 0.462952 0.091211 0.195087
Si Si4 0.359813 0.596859 0.654157
Si Si5 0.707087 0.620378 0.319377
Si Si6 0.642591 0.705014 0.594413
O O1 0.500000 0.899969 0.250000
O O2 0.701531 0.004843 0.035583
O O3 0.782660 0.822812 0.988772
O O4 0.111819 0.928505 0.877011
O O5 0.435709 0.666697 0.439825
O O6 0.000000 0.772832 0.750000
O O7 0.927518 0.663522 0.688615
O O8 0.500000 0.097539 0.250000
O O9 0.578188 0.192431 0.098899
O O10 0.634291 0.618429 0.439100
O O11 0.243701 0.489150 0.727820
O O12 0.480671 0.620525 0.652560
O O13 0.992006 0.685755 0.127875
O O14 0.500000 0.702610 0.750000
#
# Coordination Sequence:
#
# PCOD8119809 Si02
#       6
#     4   4   4   4   4   4
#     4  11  22  39  65  85 117 158 199 242 293 360
#     4  10  22  38  59  89 120 150 199 250 294 344
#     4  10  22  38  61  90 118 153 199 239 294 362
#     4  10  20  43  59  88 115 161 208 235 291 354
#     4  10  22  37  67  82 118 165 200 240 286 358
#     4  11  23  37  59  92 124 148 197 250 296 347
#
# _framework density 19.166129000000002
#
# number of rings (size 3 to 8) (size 9 to 14) (size 15 to 20)
#    0.000    1.667    1.667    3.500    7.000    3.333 
#    0.000    4.167    0.000    0.000    0.000    0.000 
#    0.000    0.000    0.000    0.000    0.000    0.000 
#
# Total GULP energy -297381.092626 kJ/mol
# GULP energy per Si atom -12390.878859 kJ/mol
# Density = 1.912251 g / cm^3
# Si number density = 19.166129 Si / 1000 Ang^3
#
#
#
# Elastic Constant Matrix: (Units=GPa)
#
#
# Indices 1 2 3 4 5 6 
#
# 1 91.3479 60.4757 57.2264 0.0000 -25.4009 0.0000
# 2 60.4757 171.9380 83.4379 0.0000 -10.4739 0.0000
# 3 57.2264 83.4379 152.6385 0.0000 -27.3458 0.0000
# 4 0.0000 0.0000 0.0000 38.0273 0.0000 -9.4920
# 5 -25.4009 -10.4739 -27.3458 0.0000 33.2268 0.0000
# 6 0.0000 0.0000 0.0000 -9.4920 0.0000 38.5790
#
#
#
# Elastic Compliance Matrix: (Units=1/GPa)
#
#
# Indices 1 2 3 4 5 6 
#
# 1 0.018570 -0.004669 -0.002499 0.000000 0.010668 0.000000
# 2 -0.004669 0.009135 -0.003948 0.000000 -0.003940 0.000000
# 3 -0.002499 -0.003948 0.010652 0.000000 0.005612 0.000000
# 4 0.000000 0.000000 0.000000 0.028018 0.000000 0.006893
# 5 0.010668 -0.003940 0.005612 0.000000 0.041628 0.000000
# 6 0.000000 0.000000 0.000000 0.006893 0.000000 0.027617
#
#
# Mechanical properties :
#
#
# Convention : Reuss Voigt Hill
#
# Bulk Modulus (GPa) = 62.01983 90.91160 76.46572
# Shear Modulus (GPa) = 30.63224 36.28559 33.45892
#
# Velocity S-wave (km/s) = 4.00215 4.35583 4.18273
# Velocity P-wave (km/s) = 7.33387 8.53429 7.95675
#
# Compressibility (1/GPa) = 0.01612387
#
# Stress axis : x y z
#
# Youngs Moduli (GPa) = 53.84992 109.47501 93.87952
#
# Poissons Ratio (x) = 0.51117 0.23456
# Poissons Ratio (y) = 0.25144 0.37068
# Poissons Ratio (z) = 0.13455 0.43226
#
# Static dielectric constant tensor:
#      x y z
#    x 3.478850 0.000000 -0.178070 
#    y 0.000000 4.136070 0.000000 
#    z -0.178070 0.000000 3.447760 
# 
# 
# High freq. dielectric constant tensor:
#      x y z
#    x 1.738710 0.000000 -0.022610 
#    y 0.000000 1.768250 0.000000 
#    z -0.022610 0.000000 1.743440 
# 
# From -- ./inp_files/78708.got.cif
#   From: 2010.06.25/outbox.cif.g09.slc.cpg/sg13_40_cif.got.tgz:78708.got - 2010.06.28 04:50:58.
