data_PCOD8119670
_publ_section_title
;
Structure prediction by ZEFSAII (Michael W. Deem and Ramdas Pophale) SiO2 
 PCOD8119670
Probable space group: P 2/C
;
_chemical_formula_sum "Si O2"
_cell_formula_units_Z 26
_cell_length_a 22.770632
_cell_length_b 8.470729
_cell_length_c 16.260905
_cell_angle_alpha 90.000000
_cell_angle_beta 21.675547
_cell_angle_gamma 90.000000
_cell_volume 1158.454295
_symmetry_space_group_name_H-M "P 2/C"
_symmetry_group_IT_number 13
_symmetry_cell_setting 'monoclinic'
loop_
_space_group_symop_operation_xyz
x,y,z
-x,y,1/2-z
-x,-y,-z
x,-y,1/2+z
loop_
_atom_site_type_symbol
_atom_site_label
_atom_site_fract_x
_atom_site_fract_y
_atom_site_fract_z
Si Si1 0.728953 0.375207 0.689836
Si Si2 0.000000 0.552368 0.250000
Si Si3 0.674178 0.028120 0.811755
Si Si4 0.500000 0.312877 0.250000
Si Si5 0.727345 0.046755 0.932984
Si Si6 0.500000 0.204336 0.750000
Si Si7 0.972561 0.857268 0.374332
Si Si8 0.565825 0.445522 0.530420
O O1 0.758114 0.193163 0.676636
O O2 0.553739 0.378032 0.880946
O O3 0.853020 0.435950 0.459947
O O4 0.724565 0.490417 0.776714
O O5 0.983591 0.669271 0.191694
O O6 0.668493 0.019899 0.917061
O O7 0.788123 0.882981 0.636953
O O8 0.500000 0.000000 0.000000
O O9 0.507835 0.409802 0.323743
O O10 0.340217 0.212717 0.448630
O O11 0.644068 0.907463 0.095797
O O12 0.916492 0.056128 0.701998
O O13 0.592852 0.305439 0.560174
O O14 0.000000 0.939855 0.250000
#
# Coordination Sequence:
#
# PCOD8119670 Si02
#       8
#     4   2   4   2   4   2   4   4
#     4  11  24  42  68  98 138 179 229 283 342 415
#     4  10  26  42  68  98 138 186 228 282 356 408
#     4  12  27  44  73 103 137 184 237 282 348 413
#     4  10  20  40  68 100 134 176 222 284 346 414
#     4  11  23  43  67 102 140 179 229 284 349 411
#     4  10  24  36  72 102 138 178 230 288 344 420
#     4  10  27  45  69  96 139 183 232 290 342 410
#     4  10  22  40  65 102 132 176 228 282 341 410
#
# _framework density 22.443698999999999
#
# number of rings (size 3 to 8) (size 9 to 14) (size 15 to 20)
#    0.462    0.923    1.538    2.308   14.000    0.000 
#    0.000    0.769    0.000    0.000    0.000    0.000 
#    0.000    0.000    0.000    0.000    0.000    0.000 
#
# Total GULP energy -322109.492843 kJ/mol
# GULP energy per Si atom -12388.826648 kJ/mol
# Density = 2.239262 g / cm^3
# Si number density = 22.443699 Si / 1000 Ang^3
#
#
#
# Elastic Constant Matrix: (Units=GPa)
#
#
# Indices 1 2 3 4 5 6 
#
# 1 83.4664 17.8790 27.3630 0.0000 -4.8050 0.0000
# 2 17.8790 122.4360 37.7452 0.0000 10.3010 0.0000
# 3 27.3630 37.7452 120.8578 0.0000 -0.8580 0.0000
# 4 0.0000 0.0000 0.0000 30.3449 0.0000 13.3526
# 5 -4.8050 10.3010 -0.8580 0.0000 37.3638 0.0000
# 6 0.0000 0.0000 0.0000 13.3526 0.0000 19.1349
#
#
#
# Elastic Compliance Matrix: (Units=1/GPa)
#
#
# Indices 1 2 3 4 5 6 
#
# 1 0.013219 -0.001306 -0.002571 0.000000 0.002001 0.000000
# 2 -0.001306 0.009418 -0.002666 0.000000 -0.002826 0.000000
# 3 -0.002571 -0.002666 0.009693 0.000000 0.000627 0.000000
# 4 0.000000 0.000000 0.000000 0.047557 0.000000 -0.033186
# 5 0.002001 -0.002826 0.000627 0.000000 0.027815 0.000000
# 6 0.000000 0.000000 0.000000 -0.033186 0.000000 0.075418
#
#
# Mechanical properties :
#
#
# Convention : Reuss Voigt Hill
#
# Bulk Modulus (GPa) = 51.96234 54.74830 53.35532
# Shear Modulus (GPa) = 24.67688 33.62027 29.14857
#
# Velocity S-wave (km/s) = 3.31947 3.87458 3.60772
# Velocity P-wave (km/s) = 6.15584 6.66806 6.41707
#
# Compressibility (1/GPa) = 0.01924471
#
# Stress axis : x y z
#
# Youngs Moduli (GPa) = 75.65108 106.18240 103.16567
#
# Poissons Ratio (x) = 0.13869 0.26520
# Poissons Ratio (y) = 0.09881 0.27500
# Poissons Ratio (z) = 0.19447 0.28304
#
# Static dielectric constant tensor:
#      x y z
#    x 3.968440 0.000000 0.405560 
#    y 0.000000 4.269620 0.000000 
#    z 0.405560 0.000000 3.912160 
# 
# 
# High freq. dielectric constant tensor:
#      x y z
#    x 1.867390 0.000000 0.023720 
#    y 0.000000 1.898390 0.000000 
#    z 0.023720 0.000000 1.873660 
# 
# From -- ./inp_files/71287.got.cif
#   From: 2010.06.25/outbox.cif.g09.slc.cpg/sg13_36_cif.got.tgz:71287.got - 2010.06.28 04:50:58.
