data_PCOD8119092
_publ_section_title
;
Structure prediction by ZEFSAII (Michael W. Deem and Ramdas Pophale) SiO2 
 PCOD8119092
Probable space group: P 2/C
;
_chemical_formula_sum "Si O2"
_cell_formula_units_Z 24
_cell_length_a 10.974055
_cell_length_b 9.348868
_cell_length_c 12.876423
_cell_angle_alpha 90.000000
_cell_angle_beta 115.896283
_cell_angle_gamma 90.000000
_cell_volume 1188.404092
_symmetry_space_group_name_H-M "P 2/C"
_symmetry_group_IT_number 13
_symmetry_cell_setting 'monoclinic'
loop_
_space_group_symop_operation_xyz
x,y,z
-x,y,1/2-z
-x,-y,-z
x,-y,1/2+z
loop_
_atom_site_type_symbol
_atom_site_label
_atom_site_fract_x
_atom_site_fract_y
_atom_site_fract_z
Si Si1 0.083353 0.143649 0.048267
Si Si2 0.093472 0.322960 0.377210
Si Si3 0.529193 0.338345 0.140093
Si Si4 0.708085 0.553778 0.088919
Si Si5 0.151072 0.173438 0.843678
Si Si6 0.260863 0.108056 0.311407
O O1 0.202377 0.120184 0.174283
O O2 0.987723 0.274420 0.050663
O O3 0.154742 0.188834 0.968978
O O4 0.000000 0.000000 0.000000
O O5 0.200340 0.446609 0.446817
O O6 0.165117 0.181131 0.360674
O O7 0.000000 0.385616 0.250000
O O8 0.500000 0.349614 0.250000
O O9 0.636881 0.462231 0.152593
O O10 0.590970 0.182004 0.134042
O O11 0.394951 0.362807 0.023848
O O12 0.800075 0.672830 0.181125
O O13 0.000000 0.132893 0.750000
O O14 0.261288 0.058021 0.844526
#
# Coordination Sequence:
#
# PCOD8119092 Si02
#       6
#     4   4   4   4   4   4
#     4  11  19  34  58  88 118 154 184 227 295 354
#     4   9  18  36  58  84 120 157 182 227 294 351
#     4  10  22  44  60  75 110 162 202 230 281 352
#     4  10  23  38  59  87 114 152 196 241 282 334
#     4  12  22  35  57  92 121 139 186 248 290 340
#     4  10  20  37  59  80 116 152 191 235 287 340
#
# _framework density 20.195152
#
# number of rings (size 3 to 8) (size 9 to 14) (size 15 to 20)
#    0.000    1.667    3.333    2.000    0.000    2.667 
#    0.000    0.833    0.000    0.000    0.000    0.000 
#    0.000    0.000    0.000    0.000    0.000    0.000 
#
# Total GULP energy -297590.139211 kJ/mol
# GULP energy per Si atom -12399.589134 kJ/mol
# Density = 2.014919 g / cm^3
# Si number density = 20.195152 Si / 1000 Ang^3
#
#
#
# Elastic Constant Matrix: (Units=GPa)
#
#
# Indices 1 2 3 4 5 6 
#
# 1 96.0717 59.2566 42.9310 0.0000 -7.7890 0.0000
# 2 59.2566 136.3145 36.7661 0.0000 0.8166 0.0000
# 3 42.9310 36.7661 75.6112 0.0000 -15.2538 0.0000
# 4 0.0000 0.0000 0.0000 24.7940 0.0000 9.1868
# 5 -7.7890 0.8166 -15.2538 0.0000 33.2974 0.0000
# 6 0.0000 0.0000 0.0000 9.1868 0.0000 40.7266
#
#
#
# Elastic Compliance Matrix: (Units=1/GPa)
#
#
# Indices 1 2 3 4 5 6 
#
# 1 0.016906 -0.005550 -0.006694 0.000000 0.001024 0.000000
# 2 -0.005550 0.010428 -0.002460 0.000000 -0.002681 0.000000
# 3 -0.006694 -0.002460 0.019744 0.000000 0.007539 0.000000
# 4 0.000000 0.000000 0.000000 0.044011 0.000000 -0.009928
# 5 0.001024 -0.002681 0.007539 0.000000 0.033792 0.000000
# 6 0.000000 0.000000 0.000000 -0.009928 0.000000 0.026793
#
#
# Mechanical properties :
#
#
# Convention : Reuss Voigt Hill
#
# Bulk Modulus (GPa) = 56.59427 65.10053 60.84740
# Shear Modulus (GPa) = 26.74192 31.03320 28.88756
#
# Velocity S-wave (km/s) = 3.64287 3.92429 3.78619
# Velocity P-wave (km/s) = 6.76598 7.26905 7.02202
#
# Compressibility (1/GPa) = 0.01766963
#
# Stress axis : x y z
#
# Youngs Moduli (GPa) = 59.14916 95.89325 50.64935
#
# Poissons Ratio (x) = 0.53221 0.33904
# Poissons Ratio (y) = 0.32828 0.12462
# Poissons Ratio (z) = 0.39594 0.23594
#
# Static dielectric constant tensor:
#      x y z
#    x 3.779910 0.000000 0.067520 
#    y 0.000000 3.712640 0.000000 
#    z 0.067520 0.000000 3.660380 
# 
# 
# High freq. dielectric constant tensor:
#      x y z
#    x 1.788290 0.000000 -0.000750 
#    y 0.000000 1.795990 0.000000 
#    z -0.000750 0.000000 1.772140 
# 
# From -- ./inp_files/32527.got.cif
#   From: 2010.06.25/outbox.cif.g09.slc.cpg/sg13_17_cif.got.tgz:32527.got - 2010.06.28 04:50:58.
