data_PCOD8119598
_publ_section_title
;
Structure prediction by ZEFSAII (Michael W. Deem and Ramdas Pophale) SiO2 
 PCOD8119598
Probable space group: P 2/C
;
_chemical_formula_sum "Si O2"
_cell_formula_units_Z 24
_cell_length_a 12.422806
_cell_length_b 11.767102
_cell_length_c 10.025261
_cell_angle_alpha 90.000000
_cell_angle_beta 46.808952
_cell_angle_gamma 90.000000
_cell_volume 1068.458005
_symmetry_space_group_name_H-M "P 2/C"
_symmetry_group_IT_number 13
_symmetry_cell_setting 'monoclinic'
loop_
_space_group_symop_operation_xyz
x,y,z
-x,y,1/2-z
-x,-y,-z
x,-y,1/2+z
loop_
_atom_site_type_symbol
_atom_site_label
_atom_site_fract_x
_atom_site_fract_y
_atom_site_fract_z
Si Si1 0.035545 0.338475 0.383153
Si Si2 0.678129 0.777566 0.837258
Si Si3 0.354608 0.746999 0.061121
Si Si4 0.335530 0.052776 0.368139
Si Si5 0.772954 0.814756 0.045039
Si Si6 0.121646 0.429734 0.739612
O O1 0.172533 0.281753 0.345083
O O2 0.116834 0.433257 0.217831
O O3 0.935458 0.242517 0.393600
O O4 0.921605 0.405508 0.571648
O O5 0.677475 0.903020 0.773369
O O6 0.528588 0.718044 0.910748
O O7 0.678407 0.774817 0.997382
O O8 0.307076 0.784804 0.249224
O O9 0.279177 0.628598 0.079367
O O10 0.307686 0.845728 0.997523
O O11 0.500000 0.001736 0.250000
O O12 0.215723 0.951814 0.480795
O O13 0.000000 0.369142 0.750000
#
# Coordination Sequence:
#
# PCOD8119598 Si02
#       6
#     4   4   4   4   4   4
#     4  10  23  38  58  86 115 154 198 245 295 348
#     4  11  21  37  58  86 119 149 196 245 290 348
#     4  10  22  37  60  88 114 154 196 240 297 350
#     4  10  21  37  58  86 121 157 195 245 295 346
#     4  11  21  37  59  84 118 158 196 236 292 352
#     4  10  20  40  61  80 115 155 196 245 297 350
#
# _framework density 22.462277
#
# number of rings (size 3 to 8) (size 9 to 14) (size 15 to 20)
#    0.000    1.667    0.000    5.000    0.000    4.000 
#    0.000    5.000    0.000    4.000    0.000    0.000 
#    0.000    0.000    0.000    0.000    0.000    0.000 
#
# Total GULP energy -297317.341659 kJ/mol
# GULP energy per Si atom -12388.222569 kJ/mol
# Density = 2.241115 g / cm^3
# Si number density = 22.462277 Si / 1000 Ang^3
#
#
#
# Elastic Constant Matrix: (Units=GPa)
#
#
# Indices 1 2 3 4 5 6 
#
# 1 140.9498 74.8937 35.6991 0.0000 -24.0707 0.0000
# 2 74.8937 152.7903 47.0119 0.0000 -38.0118 0.0000
# 3 35.6991 47.0119 69.5817 0.0000 -12.5201 0.0000
# 4 0.0000 0.0000 0.0000 32.7788 0.0000 -8.5746
# 5 -24.0707 -38.0118 -12.5201 0.0000 48.6996 0.0000
# 6 0.0000 0.0000 0.0000 -8.5746 0.0000 24.5152
#
#
#
# Elastic Compliance Matrix: (Units=1/GPa)
#
#
# Indices 1 2 3 4 5 6 
#
# 1 0.009937 -0.003844 -0.002262 0.000000 0.001330 0.000000
# 2 -0.003844 0.011270 -0.004614 0.000000 0.005710 0.000000
# 3 -0.002262 -0.004614 0.018664 0.000000 0.000079 0.000000
# 4 0.000000 0.000000 0.000000 0.033580 0.000000 0.011745
# 5 0.001330 0.005710 0.000079 0.000000 0.025668 0.000000
# 6 0.000000 0.000000 0.000000 0.011745 0.000000 0.044899
#
#
# Mechanical properties :
#
#
# Convention : Reuss Voigt Hill
#
# Bulk Modulus (GPa) = 54.26013 75.39237 64.82625
# Shear Modulus (GPa) = 29.13714 34.91318 32.02516
#
# Velocity S-wave (km/s) = 3.60552 3.94674 3.77998
# Velocity P-wave (km/s) = 6.44527 7.37603 6.92631
#
# Compressibility (1/GPa) = 0.01842974
#
# Stress axis : x y z
#
# Youngs Moduli (GPa) = 100.63084 88.73395 53.57959
#
# Poissons Ratio (x) = 0.34112 0.12119
# Poissons Ratio (y) = 0.38685 0.24724
# Poissons Ratio (z) = 0.22761 0.40946
#
# Static dielectric constant tensor:
#      x y z
#    x 4.235920 0.000000 -0.006510 
#    y 0.000000 4.147680 0.000000 
#    z -0.006510 0.000000 4.002550 
# 
# 
# High freq. dielectric constant tensor:
#      x y z
#    x 1.899560 0.000000 0.013390 
#    y 0.000000 1.875020 0.000000 
#    z 0.013390 0.000000 1.878390 
# 
# From -- ./inp_files/33740.got.cif
#   From: 2010.06.25/outbox.cif.g09.slc.cpg/sg13_17_cif.got.tgz:33740.got - 2010.06.28 04:50:58.
