data_PCOD8119700
_publ_section_title
;
Structure prediction by ZEFSAII (Michael W. Deem and Ramdas Pophale) SiO2 
 PCOD8119700
Probable space group: P 2/C
;
_chemical_formula_sum "Si O2"
_cell_formula_units_Z 26
_cell_length_a 15.304433
_cell_length_b 6.949786
_cell_length_c 23.089370
_cell_angle_alpha 90.000000
_cell_angle_beta 32.893193
_cell_angle_gamma 90.000000
_cell_volume 1333.706681
_symmetry_space_group_name_H-M "P 2/C"
_symmetry_group_IT_number 13
_symmetry_cell_setting 'monoclinic'
loop_
_space_group_symop_operation_xyz
x,y,z
-x,y,1/2-z
-x,-y,-z
x,-y,1/2+z
loop_
_atom_site_type_symbol
_atom_site_label
_atom_site_fract_x
_atom_site_fract_y
_atom_site_fract_z
Si Si1 0.778825 0.619801 0.593546
Si Si2 0.901838 0.548068 0.137457
Si Si3 0.624933 0.359674 0.000856
Si Si4 0.632169 0.678235 0.365456
Si Si5 0.583032 0.959740 0.084154
Si Si6 0.189160 0.367651 0.025492
Si Si7 0.500000 0.078516 0.250000
O O1 0.781047 0.545432 0.658210
O O2 0.717397 0.452320 0.583655
O O3 0.662629 0.799700 0.654433
O O4 0.961929 0.677358 0.471430
O O5 0.800368 0.678655 0.237633
O O6 0.996522 0.380450 0.121350
O O7 0.669110 0.287628 0.912228
O O8 0.766166 0.499023 0.944442
O O9 0.455753 0.473646 0.095378
O O10 0.613544 0.178375 0.049554
O O11 0.525556 0.855488 0.403090
O O12 0.491491 0.949872 0.196904
O O13 0.754533 0.850175 0.994477
#
# Coordination Sequence:
#
# PCOD8119700 Si02
#       7
#     4   4   4   4   4   4   2
#     4   9  20  37  57  82 120 148 189 243 286 352
#     4   9  19  37  59  84 114 157 189 239 292 349
#     4  10  20  41  58  86 119 152 200 244 282 350
#     4  10  22  37  64  83 116 160 196 241 294 347
#     4  11  22  35  59  92 113 153 197 242 293 347
#     4   9  20  38  58  82 116 152 193 238 295 344
#     4  12  22  34  60  86 118 154 194 248 292 356
#
# _framework density 19.494541000000002
#
# number of rings (size 3 to 8) (size 9 to 14) (size 15 to 20)
#    0.923    1.231    1.538    1.385    4.308    0.615 
#    0.000    7.692    0.000   11.077    0.000    0.000 
#    0.000    0.000    0.000    0.000    0.000    0.000 
#
# Total GULP energy -322268.229939 kJ/mol
# GULP energy per Si atom -12394.931921 kJ/mol
# Density = 1.945017 g / cm^3
# Si number density = 19.494541 Si / 1000 Ang^3
#
#
#
# Elastic Constant Matrix: (Units=GPa)
#
#
# Indices 1 2 3 4 5 6 
#
# 1 113.4063 16.5246 14.2573 0.0000 15.7176 0.0000
# 2 16.5246 67.5886 3.5366 0.0000 1.7746 0.0000
# 3 14.2573 3.5366 64.3651 0.0000 8.5316 0.0000
# 4 0.0000 0.0000 0.0000 18.8403 0.0000 9.2545
# 5 15.7176 1.7746 8.5316 0.0000 32.4937 0.0000
# 6 0.0000 0.0000 0.0000 9.2545 0.0000 15.0513
#
#
#
# Elastic Compliance Matrix: (Units=1/GPa)
#
#
# Indices 1 2 3 4 5 6 
#
# 1 0.009927 -0.002236 -0.001508 0.000000 -0.004284 0.000000
# 2 -0.002236 0.015354 -0.000394 0.000000 0.000346 0.000000
# 3 -0.001508 -0.000394 0.016362 0.000000 -0.003545 0.000000
# 4 0.000000 0.000000 0.000000 0.076045 0.000000 -0.046758
# 5 -0.004284 0.000346 -0.003545 0.000000 0.033759 0.000000
# 6 0.000000 0.000000 0.000000 -0.046758 0.000000 0.095189
#
#
# Mechanical properties :
#
#
# Convention : Reuss Voigt Hill
#
# Bulk Modulus (GPa) = 29.97059 34.88858 32.42958
# Shear Modulus (GPa) = 18.79457 27.34650 23.07053
#
# Velocity S-wave (km/s) = 3.10835 3.74943 3.44384
# Velocity P-wave (km/s) = 5.31881 6.05638 5.69954
#
# Compressibility (1/GPa) = 0.03336605
#
# Stress axis : x y z
#
# Youngs Moduli (GPa) = 100.73619 65.13169 61.11723
#
# Poissons Ratio (x) = 0.14561 0.09218
# Poissons Ratio (y) = 0.22521 0.02410
# Poissons Ratio (z) = 0.15193 0.02568
#
# Static dielectric constant tensor:
#      x y z
#    x 3.835740 0.000000 0.140330 
#    y 0.000000 3.191030 0.000000 
#    z 0.140330 0.000000 3.300990 
# 
# 
# High freq. dielectric constant tensor:
#      x y z
#    x 1.782200 0.000000 0.008730 
#    y 0.000000 1.730260 0.000000 
#    z 0.008730 0.000000 1.736630 
# 
# From -- ./inp_files/93069.got.cif
#   From: 2010.06.25/outbox.cif.g09.slc.cpg/sg13_47_cif.got.tgz:93069.got - 2010.06.28 04:50:58.
