data_PCOD8119678
_publ_section_title
;
Structure prediction by ZEFSAII (Michael W. Deem and Ramdas Pophale) SiO2 
 PCOD8119678
Probable space group: P 2/C
;
_chemical_formula_sum "Si O2"
_cell_formula_units_Z 30
_cell_length_a 14.773476
_cell_length_b 9.176374
_cell_length_c 17.330191
_cell_angle_alpha 90.000000
_cell_angle_beta 142.755284
_cell_angle_gamma 90.000000
_cell_volume 1421.905815
_symmetry_space_group_name_H-M "P 2/C"
_symmetry_group_IT_number 13
_symmetry_cell_setting 'monoclinic'
loop_
_space_group_symop_operation_xyz
x,y,z
-x,y,1/2-z
-x,-y,-z
x,-y,1/2+z
loop_
_atom_site_type_symbol
_atom_site_label
_atom_site_fract_x
_atom_site_fract_y
_atom_site_fract_z
Si Si1 0.272303 0.471066 0.808944
Si Si2 0.611868 0.791838 0.453164
Si Si3 0.893205 0.285321 0.241522
Si Si4 0.267763 0.996832 0.597316
Si Si5 0.500000 0.757134 0.750000
Si Si6 0.721802 0.163754 0.742294
Si Si7 0.973162 0.022606 0.819898
Si Si8 0.568535 0.464736 0.428025
O O1 0.139780 0.590479 0.717772
O O2 0.222533 0.330626 0.727078
O O3 0.411707 0.550029 0.864689
O O4 0.304940 0.433175 0.921451
O O5 0.741948 0.786891 0.604551
O O6 0.649085 0.906427 0.411363
O O7 0.458156 0.843206 0.391244
O O8 0.589535 0.626722 0.405350
O O9 0.000000 0.358392 0.250000
O O10 0.983068 0.151828 0.339684
O O11 0.231474 0.102689 0.643427
O O12 0.370517 0.862600 0.694883
O O13 0.114089 0.921061 0.464823
O O14 0.425614 0.657231 0.633780
O O15 0.810984 0.077945 0.736570
O O16 0.000000 0.068196 0.750000
#
# Coordination Sequence:
#
# PCOD8119678 Si02
#       8
#     4   4   4   4   2   4   4   4
#     4   9  21  41  65  93 125 168 222 263 325 380
#     4  10  20  43  70  91 128 176 217 263 334 383
#     4  10  20  40  68  95 125 171 218 273 314 387
#     4  12  24  44  62 100 134 177 214 264 338 394
#     4  12  26  38  68 100 134 170 216 274 320 392
#     4  11  24  41  67  93 134 172 217 276 319 397
#     4  11  25  44  64  92 135 176 218 272 327 391
#     4   9  22  40  62  99 129 161 216 279 312 379
#
# _framework density 21.098443
#
# number of rings (size 3 to 8) (size 9 to 14) (size 15 to 20)
#    0.000    1.600    4.000    1.200    7.467    1.067 
#    2.400    0.667    0.000    0.000    0.000    0.000 
#    0.000    0.000    0.000    0.000    0.000    0.000 
#
# Total GULP energy -371889.272294 kJ/mol
# GULP energy per Si atom -12396.309076 kJ/mol
# Density = 2.105042 g / cm^3
# Si number density = 21.098443 Si / 1000 Ang^3
#
#
#
# Elastic Constant Matrix: (Units=GPa)
#
#
# Indices 1 2 3 4 5 6 
#
# 1 110.1035 36.1013 19.8512 0.0000 10.8186 0.0000
# 2 36.1013 82.5412 14.1445 0.0000 -0.8980 0.0000
# 3 19.8512 14.1445 72.0617 0.0000 3.9441 0.0000
# 4 0.0000 0.0000 0.0000 24.9418 0.0000 2.3006
# 5 10.8186 -0.8980 3.9441 0.0000 32.0398 0.0000
# 6 0.0000 0.0000 0.0000 2.3006 0.0000 42.0839
#
#
#
# Elastic Compliance Matrix: (Units=1/GPa)
#
#
# Indices 1 2 3 4 5 6 
#
# 1 0.011335 -0.004654 -0.002006 0.000000 -0.003711 0.000000
# 2 -0.004654 0.014462 -0.001676 0.000000 0.002183 0.000000
# 3 -0.002006 -0.001676 0.014824 0.000000 -0.001194 0.000000
# 4 0.000000 0.000000 0.000000 0.040297 0.000000 -0.002203
# 5 -0.003711 0.002183 -0.001194 0.000000 0.032672 0.000000
# 6 0.000000 0.000000 0.000000 -0.002203 0.000000 0.023883
#
#
# Mechanical properties :
#
#
# Convention : Reuss Voigt Hill
#
# Bulk Modulus (GPa) = 41.75636 44.98894 43.37265
# Shear Modulus (GPa) = 30.84017 32.78705 31.81361
#
# Velocity S-wave (km/s) = 3.82740 3.94636 3.88734
# Velocity P-wave (km/s) = 6.27425 6.49112 6.38361
#
# Compressibility (1/GPa) = 0.02394845
#
# Stress axis : x y z
#
# Youngs Moduli (GPa) = 88.22517 69.14815 67.45869
#
# Poissons Ratio (x) = 0.32182 0.13531
# Poissons Ratio (y) = 0.41061 0.11306
# Poissons Ratio (z) = 0.17696 0.11589
#
# Static dielectric constant tensor:
#      x y z
#    x 3.871550 0.000000 0.194540 
#    y 0.000000 3.902510 0.000000 
#    z 0.194540 0.000000 3.638060 
# 
# 
# High freq. dielectric constant tensor:
#      x y z
#    x 1.826720 0.000000 0.015600 
#    y 0.000000 1.825750 0.000000 
#    z 0.015600 0.000000 1.807880 
# 
# From -- ./inp_files/68265.got.cif
#   From: 2010.06.25/outbox.cif.g09.slc.cpg/sg13_35_cif.got.tgz:68265.got - 2010.06.28 04:50:58.
