data_PCOD8119601
_publ_section_title
;
Structure prediction by ZEFSAII (Michael W. Deem and Ramdas Pophale) SiO2 
 PCOD8119601
Probable space group: P 2/C
;
_chemical_formula_sum "Si O2"
_cell_formula_units_Z 20
_cell_length_a 12.024775
_cell_length_b 8.623488
_cell_length_c 9.878423
_cell_angle_alpha 90.000000
_cell_angle_beta 102.706987
_cell_angle_gamma 90.000000
_cell_volume 999.259429
_symmetry_space_group_name_H-M "P 2/C"
_symmetry_group_IT_number 13
_symmetry_cell_setting 'monoclinic'
loop_
_space_group_symop_operation_xyz
x,y,z
-x,y,1/2-z
-x,-y,-z
x,-y,1/2+z
loop_
_atom_site_type_symbol
_atom_site_label
_atom_site_fract_x
_atom_site_fract_y
_atom_site_fract_z
Si Si1 0.694573 0.148611 0.629847
Si Si2 0.275414 0.860384 0.052899
Si Si3 0.481995 0.642624 0.093204
Si Si4 0.907804 0.645828 0.115724
Si Si5 0.947835 0.704489 0.599817
O O1 0.715508 0.090243 0.788098
O O2 0.570956 0.223224 0.582801
O O3 0.787789 0.275297 0.612624
O O4 0.691552 0.004796 0.529348
O O5 0.356023 0.713859 0.041917
O O6 0.145775 0.817518 0.986394
O O7 0.500000 0.580430 0.250000
O O8 0.500000 0.500000 0.000000
O O9 0.891305 0.460988 0.120611
O O10 0.000000 0.703153 0.250000
O O11 0.948397 0.689950 0.976953
O O12 0.000000 0.779302 0.750000
#
# Coordination Sequence:
#
# PCOD8119601 Si02
#       5
#     4   4   4   4   4
#     4  11  24  40  62  89 125 160 197 248 300 357
#     4  11  24  41  60  90 125 159 200 246 300 359
#     4  10  23  44  67  91 119 154 201 250 298 357
#     4  10  20  40  61  86 123 158 202 254 295 349
#     4  10  22  38  63  89 119 161 206 248 299 352
#
# _framework density 20.014824000000001
#
# number of rings (size 3 to 8) (size 9 to 14) (size 15 to 20)
#    0.000    1.600    2.000    1.800    2.800    3.200 
#    0.000    0.000    0.000    0.000    0.000    0.000 
#    0.000    0.000    0.000    0.000    0.000    0.000 
#
# Total GULP energy -248106.257374 kJ/mol
# GULP energy per Si atom -12405.312869 kJ/mol
# Density = 1.996927 g / cm^3
# Si number density = 20.014824 Si / 1000 Ang^3
#
#
#
# Elastic Constant Matrix: (Units=GPa)
#
#
# Indices 1 2 3 4 5 6 
#
# 1 70.7464 12.7251 35.0141 0.0000 -1.7332 0.0000
# 2 12.7251 72.8935 58.5992 0.0000 -7.8355 0.0000
# 3 35.0141 58.5992 140.8778 0.0000 -7.6547 0.0000
# 4 0.0000 0.0000 0.0000 32.2447 0.0000 -12.9968
# 5 -1.7332 -7.8355 -7.6547 0.0000 31.5777 0.0000
# 6 0.0000 0.0000 0.0000 -12.9968 0.0000 21.4085
#
#
#
# Elastic Compliance Matrix: (Units=1/GPa)
#
#
# Indices 1 2 3 4 5 6 
#
# 1 0.016136 0.000612 -0.004265 0.000000 0.000004 0.000000
# 2 0.000612 0.020933 -0.008690 0.000000 0.003121 0.000000
# 3 -0.004265 -0.008690 0.011798 0.000000 0.000470 0.000000
# 4 0.000000 0.000000 0.000000 0.041060 0.000000 0.024927
# 5 0.000004 0.003121 0.000470 0.000000 0.032557 0.000000
# 6 0.000000 0.000000 0.000000 0.024927 0.000000 0.061843
#
#
# Mechanical properties :
#
#
# Convention : Reuss Voigt Hill
#
# Bulk Modulus (GPa) = 41.35281 55.24385 48.29833
# Shear Modulus (GPa) = 23.03374 28.92480 25.97927
#
# Velocity S-wave (km/s) = 3.39607 3.80566 3.60669
# Velocity P-wave (km/s) = 6.00697 6.85362 6.44422
#
# Compressibility (1/GPa) = 0.02418215
#
# Stress axis : x y z
#
# Youngs Moduli (GPa) = 61.97414 47.77137 84.75697
#
# Poissons Ratio (x) = -0.02924 0.36147
# Poissons Ratio (y) = -0.03793 0.73652
# Poissons Ratio (z) = 0.26431 0.41512
#
# Static dielectric constant tensor:
#      x y z
#    x 3.695280 0.000000 -0.065720 
#    y 0.000000 3.440630 0.000000 
#    z -0.065720 0.000000 3.688060 
# 
# 
# High freq. dielectric constant tensor:
#      x y z
#    x 1.790620 0.000000 -0.004310 
#    y 0.000000 1.769530 0.000000 
#    z -0.004310 0.000000 1.797430 
# 
# From -- ./inp_files/14923.got.cif
#   From: 2010.06.25/outbox.cif.g09.slc.cpg/sg13_8_cif.got.tgz:14923.got - 2010.06.28 04:50:58.
