data_PCOD8119523
_publ_section_title
;
Structure prediction by ZEFSAII (Michael W. Deem and Ramdas Pophale) SiO2 
 PCOD8119523
Probable space group: P 2/C
;
_chemical_formula_sum "Si O2"
_cell_formula_units_Z 30
_cell_length_a 25.143606
_cell_length_b 8.599816
_cell_length_c 16.866926
_cell_angle_alpha 90.000000
_cell_angle_beta 154.798005
_cell_angle_gamma 90.000000
_cell_volume 1552.992401
_symmetry_space_group_name_H-M "P 2/C"
_symmetry_group_IT_number 13
_symmetry_cell_setting 'monoclinic'
loop_
_space_group_symop_operation_xyz
x,y,z
-x,y,1/2-z
-x,-y,-z
x,-y,1/2+z
loop_
_atom_site_type_symbol
_atom_site_label
_atom_site_fract_x
_atom_site_fract_y
_atom_site_fract_z
Si Si1 0.137753 0.836925 0.731089
Si Si2 0.633816 0.678110 0.079791
Si Si3 0.728727 0.669048 0.720281
Si Si4 0.694417 0.976402 0.416522
Si Si5 0.500000 0.181443 0.250000
Si Si6 0.870190 0.103432 0.903241
Si Si7 0.868387 0.850220 0.034233
Si Si8 0.512054 0.165797 0.555605
O O1 0.195395 0.696262 0.758444
O O2 0.994765 0.793620 0.559106
O O3 0.148284 0.998155 0.698384
O O4 0.211702 0.863668 0.911359
O O5 0.677143 0.502809 0.146654
O O6 0.752018 0.787334 0.252746
O O7 0.537949 0.707794 0.022337
O O8 0.566013 0.708705 0.904472
O O9 0.615178 0.791717 0.570900
O O10 0.818167 0.701664 0.916629
O O11 0.601799 0.070009 0.348237
O O12 0.767819 0.106478 0.465358
O O13 0.622344 0.848306 0.267419
O O14 0.887830 0.998971 0.004665
O O15 0.000000 0.801206 0.250000
O O16 0.500000 0.000000 0.500000
#
# Coordination Sequence:
#
# PCOD8119523 Si02
#       8
#     4   4   4   4   2   4   4   4
#     4  10  21  38  62  92 116 158 208 263 302 354
#     4  12  24  41  61  92 132 167 200 250 320 381
#     4  11  25  41  59  91 134 167 196 251 327 376
#     4  12  21  36  66  95 115 153 219 269 291 354
#     4  12  24  36  62  92 126 164 200 252 314 370
#     4  10  20  39  64  87 121 159 212 257 300 358
#     4  11  21  40  66  92 117 164 217 262 301 360
#     4  12  21  40  65  89 119 164 216 256 299 358
#
# _framework density 19.317544999999999
#
# number of rings (size 3 to 8) (size 9 to 14) (size 15 to 20)
#    0.000    0.800    6.667    2.000    0.000    1.600 
#    0.000    2.000    0.000    0.000    0.000    0.000 
#    0.000    0.000    0.000    0.000    0.000    0.000 
#
# Total GULP energy -372087.650046 kJ/mol
# GULP energy per Si atom -12402.921668 kJ/mol
# Density = 1.927358 g / cm^3
# Si number density = 19.317545 Si / 1000 Ang^3
#
#
#
# Elastic Constant Matrix: (Units=GPa)
#
#
# Indices 1 2 3 4 5 6 
#
# 1 91.4696 10.6736 28.2641 0.0000 0.9289 0.0000
# 2 10.6736 74.6698 30.9027 0.0000 -4.9715 0.0000
# 3 28.2641 30.9027 130.5209 0.0000 -13.1694 0.0000
# 4 0.0000 0.0000 0.0000 22.1362 0.0000 2.3243
# 5 0.9289 -4.9715 -13.1694 0.0000 38.7865 0.0000
# 6 0.0000 0.0000 0.0000 2.3243 0.0000 21.6640
#
#
#
# Elastic Compliance Matrix: (Units=1/GPa)
#
#
# Indices 1 2 3 4 5 6 
#
# 1 0.011805 -0.000732 -0.002507 0.000000 -0.001228 0.000000
# 2 -0.000732 0.014913 -0.003290 0.000000 0.000812 0.000000
# 3 -0.002507 -0.003290 0.009264 0.000000 0.002784 0.000000
# 4 0.000000 0.000000 0.000000 0.045690 0.000000 -0.004902
# 5 -0.001228 0.000812 0.002784 0.000000 0.026861 0.000000
# 6 0.000000 0.000000 0.000000 -0.004902 0.000000 0.046685
#
#
# Mechanical properties :
#
#
# Convention : Reuss Voigt Hill
#
# Bulk Modulus (GPa) = 43.62240 48.48234 46.05237
# Shear Modulus (GPa) = 28.42238 31.63868 30.03053
#
# Velocity S-wave (km/s) = 3.83995 4.05139 3.94708
# Velocity P-wave (km/s) = 6.50315 6.85836 6.68312
#
# Compressibility (1/GPa) = 0.02292400
#
# Stress axis : x y z
#
# Youngs Moduli (GPa) = 84.70913 67.05687 107.93943
#
# Poissons Ratio (x) = 0.04906 0.27061
# Poissons Ratio (y) = 0.06198 0.35517
# Poissons Ratio (z) = 0.21237 0.22065
#
# Static dielectric constant tensor:
#      x y z
#    x 3.631190 0.000000 -0.001580 
#    y 0.000000 3.425460 0.000000 
#    z -0.001580 0.000000 2.884470 
# 
# 
# High freq. dielectric constant tensor:
#      x y z
#    x 1.771520 0.000000 0.005340 
#    y 0.000000 1.716090 0.000000 
#    z 0.005340 0.000000 1.771290 
# 
# From -- ./inp_files/58702.got.cif
#   From: 2010.06.25/outbox.cif.g09.slc.cpg/sg13_30_cif.got.tgz:58702.got - 2010.06.28 04:50:58.
