data_PCOD8119038
_publ_section_title
;
Structure prediction by ZEFSAII (Michael W. Deem and Ramdas Pophale) SiO2 
 PCOD8119038
Probable space group: P 2/C
;
_chemical_formula_sum "Si O2"
_cell_formula_units_Z 28
_cell_length_a 16.064420
_cell_length_b 6.455821
_cell_length_c 17.505042
_cell_angle_alpha 90.000000
_cell_angle_beta 126.586761
_cell_angle_gamma 90.000000
_cell_volume 1457.709598
_symmetry_space_group_name_H-M "P 2/C"
_symmetry_group_IT_number 13
_symmetry_cell_setting 'monoclinic'
loop_
_space_group_symop_operation_xyz
x,y,z
-x,y,1/2-z
-x,-y,-z
x,-y,1/2+z
loop_
_atom_site_type_symbol
_atom_site_label
_atom_site_fract_x
_atom_site_fract_y
_atom_site_fract_z
Si Si1 0.842871 0.655718 0.387336
Si Si2 0.435360 0.688804 0.933675
Si Si3 0.899129 0.406258 0.149753
Si Si4 0.795336 0.071581 0.996584
Si Si5 0.379763 0.928965 0.499925
Si Si6 0.261849 0.387394 0.827965
Si Si7 0.072916 0.692713 0.477611
O O1 0.775417 0.782336 0.412663
O O2 0.788059 0.693669 0.277057
O O3 0.852245 0.413624 0.417444
O O4 0.960088 0.742645 0.450056
O O5 0.331785 0.586978 0.841718
O O6 0.403217 0.839775 0.984812
O O7 0.500000 0.500000 0.000000
O O8 0.511112 0.816306 0.917160
O O9 0.834376 0.204675 0.090038
O O10 0.827841 0.550678 0.162734
O O11 0.938370 0.533337 0.098377
O O12 0.000000 0.328884 0.250000
O O13 0.690984 0.949035 0.963464
O O14 0.882783 0.908283 0.024700
O O15 0.326113 0.797934 0.402373
#
# Coordination Sequence:
#
# PCOD8119038 Si02
#       7
#     4   4   4   4   4   4   4
#     4  10  23  36  58  82 126 162 193 237 298 358
#     4   9  20  37  61  88 113 143 196 255 304 344
#     4  11  21  34  57  87 121 156 202 243 286 345
#     4  11  22  37  58  87 118 162 197 239 298 358
#     4  10  20  36  64  89 110 150 202 250 298 350
#     4  11  20  37  60  88 116 155 198 248 293 353
#     4  10  21  40  53  81 124 166 191 236 294 355
#
# _framework density 19.208214999999999
#
# number of rings (size 3 to 8) (size 9 to 14) (size 15 to 20)
#    0.000    1.714    4.286    0.429    0.000    2.857 
#    0.000    0.000    0.000   20.571    0.000    0.000 
#    0.000    0.000    0.000    0.000    0.000    0.000 
#
# Total GULP energy -347103.468677 kJ/mol
# GULP energy per Si atom -12396.552453 kJ/mol
# Density = 1.916450 g / cm^3
# Si number density = 19.208215 Si / 1000 Ang^3
#
#
#
# Elastic Constant Matrix: (Units=GPa)
#
#
# Indices 1 2 3 4 5 6 
#
# 1 103.4069 34.3175 33.3787 0.0000 -2.4455 0.0000
# 2 34.3175 84.6865 15.3756 0.0000 -2.1368 0.0000
# 3 33.3787 15.3756 53.2883 0.0000 -12.2032 0.0000
# 4 0.0000 0.0000 0.0000 16.7036 0.0000 -0.0962
# 5 -2.4455 -2.1368 -12.2032 0.0000 21.7086 0.0000
# 6 0.0000 0.0000 0.0000 -0.0962 0.0000 40.1499
#
#
#
# Elastic Compliance Matrix: (Units=1/GPa)
#
#
# Indices 1 2 3 4 5 6 
#
# 1 0.013569 -0.004115 -0.008097 0.000000 -0.003428 0.000000
# 2 -0.004115 0.013725 -0.001354 0.000000 0.000126 0.000000
# 3 -0.008097 -0.001354 0.027533 0.000000 0.014432 0.000000
# 4 0.000000 0.000000 0.000000 0.059868 0.000000 0.000143
# 5 -0.003428 0.000126 0.014432 0.000000 0.053804 0.000000
# 6 0.000000 0.000000 0.000000 0.000143 0.000000 0.024907
#
#
# Mechanical properties :
#
#
# Convention : Reuss Voigt Hill
#
# Bulk Modulus (GPa) = 36.10670 45.28059 40.69365
# Shear Modulus (GPa) = 21.76109 26.26641 24.01375
#
# Velocity S-wave (km/s) = 3.36952 3.70193 3.53963
# Velocity P-wave (km/s) = 5.82894 6.47280 6.15929
#
# Compressibility (1/GPa) = 0.02769569
#
# Stress axis : x y z
#
# Youngs Moduli (GPa) = 73.69942 72.86143 36.31994
#
# Poissons Ratio (x) = 0.29981 0.29408
# Poissons Ratio (y) = 0.30326 0.04916
# Poissons Ratio (z) = 0.59673 0.09863
#
# Static dielectric constant tensor:
#      x y z
#    x 3.873500 0.000000 0.138630 
#    y 0.000000 3.685790 0.000000 
#    z 0.138630 0.000000 3.284980 
# 
# 
# High freq. dielectric constant tensor:
#      x y z
#    x 1.764680 0.000000 0.005290 
#    y 0.000000 1.757730 0.000000 
#    z 0.005290 0.000000 1.709340 
# 
# From -- ./inp_files/67608.got.cif
#   From: 2010.06.25/outbox.cif.g09.slc.cpg/sg13_34_cif.got.tgz:67608.got - 2010.06.28 04:50:58.
