data_PCOD8119752
_publ_section_title
;
Structure prediction by ZEFSAII (Michael W. Deem and Ramdas Pophale) SiO2 
 PCOD8119752
Probable space group: P 2/C
;
_chemical_formula_sum "Si O2"
_cell_formula_units_Z 24
_cell_length_a 22.983829
_cell_length_b 7.542634
_cell_length_c 16.957485
_cell_angle_alpha 90.000000
_cell_angle_beta 158.970425
_cell_angle_gamma 90.000000
_cell_volume 1054.920093
_symmetry_space_group_name_H-M "P 2/C"
_symmetry_group_IT_number 13
_symmetry_cell_setting 'monoclinic'
loop_
_space_group_symop_operation_xyz
x,y,z
-x,y,1/2-z
-x,-y,-z
x,-y,1/2+z
loop_
_atom_site_type_symbol
_atom_site_label
_atom_site_fract_x
_atom_site_fract_y
_atom_site_fract_z
Si Si1 0.042209 0.222901 0.719380
Si Si2 0.473974 0.483530 0.624457
Si Si3 0.270281 0.214971 0.600621
Si Si4 0.608113 0.850802 0.815888
Si Si5 0.120624 0.653755 0.638361
Si Si6 0.012214 0.822619 0.652763
O O1 0.911718 0.291620 0.491956
O O2 0.000000 0.312310 0.750000
O O3 0.234352 0.248463 0.945601
O O4 0.013782 0.016714 0.689119
O O5 0.500000 0.450713 0.750000
O O6 0.587706 0.357122 0.716395
O O7 0.507515 0.691730 0.645643
O O8 0.298120 0.419401 0.375885
O O9 0.171381 0.239402 0.558300
O O10 0.150949 0.277204 0.378739
O O11 0.342755 0.013083 0.679870
O O12 0.500000 0.932272 0.750000
O O13 0.064310 0.809961 0.627233
O O14 0.000000 0.500000 0.500000
#
# Coordination Sequence:
#
# PCOD8119752 Si02
#       6
#     4   4   4   4   4   4
#     4  11  23  46  71  98 137 189 237 291 352 419
#     4  11  22  41  66 103 142 187 232 290 357 416
#     4  10  20  41  72  98 134 183 231 286 354 417
#     4  10  21  39  68  99 138 183 234 285 353 412
#     4  12  26  44  68 106 141 182 237 289 354 430
#     4  10  21  44  69  99 134 177 238 287 350 418
#
# _framework density 22.750537999999999
#
# number of rings (size 3 to 8) (size 9 to 14) (size 15 to 20)
#    0.000    1.333    5.000    3.000    2.333    1.333 
#    3.000    5.833    0.000    0.000    0.000    0.000 
#    0.000    0.000    0.000    0.000    0.000    0.000 
#
# Total GULP energy -297333.218586 kJ/mol
# GULP energy per Si atom -12388.884108 kJ/mol
# Density = 2.269876 g / cm^3
# Si number density = 22.750538 Si / 1000 Ang^3
#
#
#
# Elastic Constant Matrix: (Units=GPa)
#
#
# Indices 1 2 3 4 5 6 
#
# 1 119.9346 34.3501 63.8721 0.0000 4.3969 0.0000
# 2 34.3501 77.1048 25.9635 0.0000 15.0534 0.0000
# 3 63.8721 25.9635 128.5149 0.0000 22.8094 0.0000
# 4 0.0000 0.0000 0.0000 24.9947 0.0000 22.5980
# 5 4.3969 15.0534 22.8094 0.0000 44.4679 0.0000
# 6 0.0000 0.0000 0.0000 22.5980 0.0000 -15.2115
#
#
#
# Elastic Compliance Matrix: (Units=1/GPa)
#
#
# Indices 1 2 3 4 5 6 
#
# 1 0.012628 -0.004243 -0.005998 0.000000 0.003265 0.000000
# 2 -0.004243 0.015885 -0.000242 0.000000 -0.004834 0.000000
# 3 -0.005998 -0.000242 0.011762 0.000000 -0.005358 0.000000
# 4 0.000000 0.000000 0.000000 0.017075 0.000000 0.025366
# 5 0.003265 -0.004834 -0.005358 0.000000 0.026550 0.000000
# 6 0.000000 0.000000 0.000000 0.025366 0.000000 -0.028056
#
#
# Mechanical properties :
#
#
# Convention : Reuss Voigt Hill
#
# Bulk Modulus (GPa) = 51.79371 63.76953 57.78162
# Shear Modulus (GPa) = 60.06195 24.27480 42.16837
#
# Velocity S-wave (km/s) = 5.14369 3.27004 4.30991
# Velocity P-wave (km/s) = 7.62182 6.50756 7.08662
#
# Compressibility (1/GPa) = 0.01930736
#
# Stress axis : x y z
#
# Youngs Moduli (GPa) = 79.18969 62.95237 85.01730
#
# Poissons Ratio (x) = 0.26712 0.50995
# Poissons Ratio (y) = 0.33602 0.02061
# Poissons Ratio (z) = 0.47500 0.01526
#
# Static dielectric constant tensor:
#      x y z
#    x 3.667820 0.000000 0.276460 
#    y 0.000000 3.991180 0.000000 
#    z 0.276460 0.000000 4.121670 
# 
# 
# High freq. dielectric constant tensor:
#      x y z
#    x 1.887330 0.000000 0.030090 
#    y 0.000000 1.896830 0.000000 
#    z 0.030090 0.000000 1.899000 
# 
# From -- ./inp_files/71325.got.cif
#   From: 2010.06.25/outbox.cif.g09.slc.cpg/sg13_36_cif.got.tgz:71325.got - 2010.06.28 04:50:58.
