data_PCOD8119789
_publ_section_title
;
Structure prediction by ZEFSAII (Michael W. Deem and Ramdas Pophale) SiO2 
 PCOD8119789
Probable space group: P 2/C
;
_chemical_formula_sum "Si O2"
_cell_formula_units_Z 18
_cell_length_a 8.094680
_cell_length_b 8.298860
_cell_length_c 11.743496
_cell_angle_alpha 90.000000
_cell_angle_beta 90.406934
_cell_angle_gamma 90.000000
_cell_volume 788.868425
_symmetry_space_group_name_H-M "P 2/C"
_symmetry_group_IT_number 13
_symmetry_cell_setting 'monoclinic'
loop_
_space_group_symop_operation_xyz
x,y,z
-x,y,1/2-z
-x,-y,-z
x,-y,1/2+z
loop_
_atom_site_type_symbol
_atom_site_label
_atom_site_fract_x
_atom_site_fract_y
_atom_site_fract_z
Si Si1 0.687683 0.833069 0.753248
Si Si2 0.795248 0.687877 0.519344
Si Si3 0.863102 0.365347 0.438569
Si Si4 0.000000 0.588906 0.250000
Si Si5 0.317242 0.796238 0.210959
O O1 0.500000 0.781731 0.750000
O O2 0.771107 0.750068 0.646233
O O3 0.756453 0.766214 0.872720
O O4 0.713583 0.023074 0.746664
O O5 0.749897 0.495337 0.506183
O O6 0.688022 0.787784 0.427065
O O7 0.990911 0.720142 0.486980
O O8 0.980122 0.473160 0.357194
O O9 0.829444 0.690955 0.234097
O O10 0.500000 0.736401 0.250000
#
# Coordination Sequence:
#
# PCOD8119789 Si02
#       5
#     4   4   4   2   4
#     4  11  24  43  66  98 134 168 215 278 323 388
#     4  10  22  44  64  94 130 174 216 264 331 385
#     4  10  21  42  65  97 129 165 228 261 322 397
#     4  10  20  42  68  92 132 176 206 280 316 380
#     4  10  25  44  64  99 135 171 222 266 323 397
#
# _framework density 22.817494
#
# number of rings (size 3 to 8) (size 9 to 14) (size 15 to 20)
#    0.000    1.778    2.222    0.000    3.111    8.889 
#   20.000    0.000    0.000    0.000    0.000    0.000 
#    0.000    0.000    0.000    0.000    0.000    0.000 
#
# Total GULP energy -223023.195998 kJ/mol
# GULP energy per Si atom -12390.177555 kJ/mol
# Density = 2.276556 g / cm^3
# Si number density = 22.817494 Si / 1000 Ang^3
#
#
#
# Elastic Constant Matrix: (Units=GPa)
#
#
# Indices 1 2 3 4 5 6 
#
# 1 137.0109 51.0466 13.4443 0.0000 30.8737 0.0000
# 2 51.0466 66.1685 12.0959 0.0000 1.1521 0.0000
# 3 13.4443 12.0959 43.7813 0.0000 26.7347 0.0000
# 4 0.0000 0.0000 0.0000 29.0269 0.0000 9.4110
# 5 30.8737 1.1521 26.7347 0.0000 43.4526 0.0000
# 6 0.0000 0.0000 0.0000 9.4110 0.0000 31.7356
#
#
#
# Elastic Compliance Matrix: (Units=1/GPa)
#
#
# Indices 1 2 3 4 5 6 
#
# 1 0.014496 -0.012406 0.008113 0.000000 -0.014962 0.000000
# 2 -0.012406 0.026905 -0.013729 0.000000 0.016548 0.000000
# 3 0.008113 -0.013729 0.043954 0.000000 -0.032443 0.000000
# 4 0.000000 0.000000 0.000000 0.038115 0.000000 -0.011303
# 5 -0.014962 0.016548 -0.032443 0.000000 0.053167 0.000000
# 6 0.000000 0.000000 0.000000 -0.011303 0.000000 0.034862
#
#
# Mechanical properties :
#
#
# Convention : Reuss Voigt Hill
#
# Bulk Modulus (GPa) = 20.27932 44.45937 32.36935
# Shear Modulus (GPa) = 18.94080 32.20127 25.57103
#
# Velocity S-wave (km/s) = 2.88427 3.76074 3.35128
# Velocity P-wave (km/s) = 4.47202 6.19553 5.40294
#
# Compressibility (1/GPa) = 0.04931131
#
# Stress axis : x y z
#
# Youngs Moduli (GPa) = 68.98305 37.16756 22.75122
#
# Poissons Ratio (x) = 0.46110 -0.18457
# Poissons Ratio (y) = 0.85580 0.31234
# Poissons Ratio (z) = -0.55963 0.51026
#
# Static dielectric constant tensor:
#      x y z
#    x 4.271830 0.000000 0.117840 
#    y 0.000000 4.074670 0.000000 
#    z 0.117840 0.000000 4.464710 
# 
# 
# High freq. dielectric constant tensor:
#      x y z
#    x 1.900470 0.000000 0.023970 
#    y 0.000000 1.893980 0.000000 
#    z 0.023970 0.000000 1.912270 
# 
# From -- ./inp_files/28207.got.cif
#   From: 2010.06.25/outbox.cif.g09.slc.cpg/sg13_15_cif.got.tgz:28207.got - 2010.06.28 04:50:58.
