data_PCOD8119266
_publ_section_title
;
Structure prediction by ZEFSAII (Michael W. Deem and Ramdas Pophale) SiO2 
 PCOD8119266
Probable space group: P 2/C
;
_chemical_formula_sum "Si O2"
_cell_formula_units_Z 24
_cell_length_a 12.349230
_cell_length_b 10.973758
_cell_length_c 22.757521
_cell_angle_alpha 90.000000
_cell_angle_beta 156.582538
_cell_angle_gamma 90.000000
_cell_volume 1225.683127
_symmetry_space_group_name_H-M "P 2/C"
_symmetry_group_IT_number 13
_symmetry_cell_setting 'monoclinic'
loop_
_space_group_symop_operation_xyz
x,y,z
-x,y,1/2-z
-x,-y,-z
x,-y,1/2+z
loop_
_atom_site_type_symbol
_atom_site_label
_atom_site_fract_x
_atom_site_fract_y
_atom_site_fract_z
Si Si1 0.897623 0.239734 0.892696
Si Si2 0.597700 0.143647 0.424677
Si Si3 0.069428 0.749766 0.612596
Si Si4 0.246143 0.501382 0.665463
Si Si5 0.446054 0.138072 0.595685
Si Si6 0.319285 0.118875 0.908100
O O1 0.759007 0.370082 0.805560
O O2 0.665588 0.144123 0.758096
O O3 0.965122 0.225661 0.994743
O O4 0.178902 0.219631 0.999209
O O5 0.602222 0.195459 0.494139
O O6 0.305295 0.156834 0.248367
O O7 0.668492 0.999798 0.462335
O O8 0.808716 0.770740 0.523966
O O9 0.197196 0.614220 0.685619
O O10 0.500000 0.525515 0.750000
O O11 0.000000 0.500000 0.500000
O O12 0.598981 0.183774 0.612337
O O13 0.000000 0.086776 0.750000
O O14 0.500000 0.000000 0.000000
#
# Coordination Sequence:
#
# PCOD8119266 Si02
#       6
#     4   4   4   4   4   4
#     4  11  21  38  60  86 121 157 192 240 296 349
#     4  11  23  37  59  87 122 154 192 242 294 351
#     4  11  23  36  58  90 119 153 196 240 295 347
#     4  10  20  38  60  81 114 159 206 234 271 350
#     4  11  23  37  59  87 120 156 194 239 296 352
#     4  10  22  40  62  83 113 161 207 236 278 351
#
# _framework density 19.580918
#
# number of rings (size 3 to 8) (size 9 to 14) (size 15 to 20)
#    0.000    1.333    1.667    6.000    7.000    4.000 
#    0.000    0.000    0.000    6.000    0.000    0.000 
#    0.000    0.000    0.000    0.000    0.000    0.000 
#
# Total GULP energy -297429.920951 kJ/mol
# GULP energy per Si atom -12392.913373 kJ/mol
# Density = 1.953635 g / cm^3
# Si number density = 19.580918 Si / 1000 Ang^3
#
#
#
# Elastic Constant Matrix: (Units=GPa)
#
#
# Indices 1 2 3 4 5 6 
#
# 1 123.4533 51.6736 54.3859 0.0000 22.0223 0.0000
# 2 51.6736 68.7574 31.4888 0.0000 6.4373 0.0000
# 3 54.3859 31.4888 131.0973 0.0000 25.2025 0.0000
# 4 0.0000 0.0000 0.0000 26.1687 0.0000 12.7486
# 5 22.0223 6.4373 25.2025 0.0000 43.0600 0.0000
# 6 0.0000 0.0000 0.0000 12.7486 0.0000 13.0110
#
#
#
# Elastic Compliance Matrix: (Units=1/GPa)
#
#
# Indices 1 2 3 4 5 6 
#
# 1 0.013666 -0.008597 -0.002826 0.000000 -0.004050 0.000000
# 2 -0.008597 0.021751 -0.002116 0.000000 0.002384 0.000000
# 3 -0.002826 -0.002116 0.010107 0.000000 -0.004154 0.000000
# 4 0.000000 0.000000 0.000000 0.073114 0.000000 -0.071639
# 5 -0.004050 0.002384 -0.004154 0.000000 0.027370 0.000000
# 6 0.000000 0.000000 0.000000 -0.071639 0.000000 0.147052
#
#
# Mechanical properties :
#
#
# Convention : Reuss Voigt Hill
#
# Bulk Modulus (GPa) = 54.21290 66.48941 60.35116
# Shear Modulus (GPa) = 15.32392 28.83190 22.07791
#
# Velocity S-wave (km/s) = 2.80052 3.84141 3.36150
# Velocity P-wave (km/s) = 6.18093 7.32838 6.77898
#
# Compressibility (1/GPa) = 0.01844579
#
# Stress axis : x y z
#
# Youngs Moduli (GPa) = 73.17360 45.97490 98.94063
#
# Poissons Ratio (x) = 0.39526 0.27959
# Poissons Ratio (y) = 0.62909 0.20937
# Poissons Ratio (z) = 0.20677 0.09729
#
# Static dielectric constant tensor:
#      x y z
#    x 4.170690 0.000000 -0.078620 
#    y 0.000000 1.301920 0.000000 
#    z -0.078620 0.000000 3.708740 
# 
# 
# High freq. dielectric constant tensor:
#      x y z
#    x 1.758390 0.000000 0.010960 
#    y 0.000000 1.737320 0.000000 
#    z 0.010960 0.000000 1.786440 
# 
# From -- ./inp_files/86626.got.cif
#   From: 2010.06.25/outbox.cif.g09.slc.cpg/sg13_44_cif.got.tgz:86626.got - 2010.06.28 04:50:58.
