data_PCOD8119481
_publ_section_title
;
Structure prediction by ZEFSAII (Michael W. Deem and Ramdas Pophale) SiO2 
 PCOD8119481
Probable space group: P 2/C
;
_chemical_formula_sum "Si O2"
_cell_formula_units_Z 24
_cell_length_a 20.077965
_cell_length_b 8.678180
_cell_length_c 20.514288
_cell_angle_alpha 90.000000
_cell_angle_beta 20.166067
_cell_angle_gamma 90.000000
_cell_volume 1232.251623
_symmetry_space_group_name_H-M "P 2/C"
_symmetry_group_IT_number 13
_symmetry_cell_setting 'monoclinic'
loop_
_space_group_symop_operation_xyz
x,y,z
-x,y,1/2-z
-x,-y,-z
x,-y,1/2+z
loop_
_atom_site_type_symbol
_atom_site_label
_atom_site_fract_x
_atom_site_fract_y
_atom_site_fract_z
Si Si1 0.437826 0.828293 0.538116
Si Si2 0.829152 0.189836 0.627912
Si Si3 0.188789 0.165823 0.381856
Si Si4 0.727089 0.733798 0.550609
Si Si5 0.000000 0.523591 0.750000
Si Si6 0.000000 0.976925 0.250000
Si Si7 0.922970 0.227967 0.217652
O O1 0.626654 0.735867 0.338542
O O2 0.342916 0.754566 0.690436
O O3 0.280667 0.822849 0.625235
O O4 0.500000 0.000000 0.500000
O O5 0.970894 0.201344 0.559397
O O6 0.921886 0.276036 0.480555
O O7 0.785626 0.017192 0.643864
O O8 0.220593 0.235565 0.422924
O O9 0.500000 0.721382 0.750000
O O10 0.825543 0.574362 0.439806
O O11 0.809051 0.870284 0.429554
O O12 0.900407 0.627515 0.785975
O O13 0.003246 0.078329 0.311832
#
# Coordination Sequence:
#
# PCOD8119481 Si02
#       7
#     4   4   4   4   2   2   4
#     4   9  19  30  59  93 121 146 186 251 306 357
#     4   9  17  33  59  89 119 147 183 255 305 345
#     4   9  18  34  55  89 120 146 193 245 306 342
#     4  11  24  39  59  85 120 164 202 242 293 356
#     4  10  26  44  56  80 128 172 198 236 286 366
#     4  10  22  34  60  90 116 150 200 258 296 346
#     4  10  20  39  60  89 120 154 200 245 302 348
#
# _framework density 19.476542999999999
#
# number of rings (size 3 to 8) (size 9 to 14) (size 15 to 20)
#    0.000    2.333    1.667    1.000    4.667    2.667 
#    0.000    6.667    0.000    6.000    0.000    0.000 
#    0.000    0.000    0.000    0.000    0.000    0.000 
#
# Total GULP energy -297478.835886 kJ/mol
# GULP energy per Si atom -12394.951495 kJ/mol
# Density = 1.943221 g / cm^3
# Si number density = 19.476543 Si / 1000 Ang^3
#
#
#
# Elastic Constant Matrix: (Units=GPa)
#
#
# Indices 1 2 3 4 5 6 
#
# 1 120.4291 48.1933 59.0395 0.0000 3.4374 0.0000
# 2 48.1933 73.8876 37.1575 0.0000 -4.0086 0.0000
# 3 59.0395 37.1575 165.7160 0.0000 -7.7924 0.0000
# 4 0.0000 0.0000 0.0000 16.6805 0.0000 7.4999
# 5 3.4374 -4.0086 -7.7924 0.0000 27.4246 0.0000
# 6 0.0000 0.0000 0.0000 7.4999 0.0000 18.2444
#
#
#
# Elastic Compliance Matrix: (Units=1/GPa)
#
#
# Indices 1 2 3 4 5 6 
#
# 1 0.012704 -0.006894 -0.003144 0.000000 -0.003493 0.000000
# 2 -0.006894 0.019040 -0.001664 0.000000 0.003174 0.000000
# 3 -0.003144 -0.001664 0.007637 0.000000 0.002321 0.000000
# 4 0.000000 0.000000 0.000000 0.073543 0.000000 -0.030232
# 5 -0.003493 0.003174 0.002321 0.000000 0.038025 0.000000
# 6 0.000000 0.000000 0.000000 -0.030232 0.000000 0.067239
#
#
# Mechanical properties :
#
#
# Convention : Reuss Voigt Hill
#
# Bulk Modulus (GPa) = 62.59516 72.09038 67.34277
# Shear Modulus (GPa) = 20.24966 26.84607 23.54786
#
# Velocity S-wave (km/s) = 3.22793 3.71668 3.48089
# Velocity P-wave (km/s) = 6.78979 7.45068 7.12790
#
# Compressibility (1/GPa) = 0.01597568
#
# Stress axis : x y z
#
# Youngs Moduli (GPa) = 78.71630 52.52156 130.94431
#
# Poissons Ratio (x) = 0.36210 0.41174
# Poissons Ratio (y) = 0.54270 0.21785
# Poissons Ratio (z) = 0.24751 0.08738
#
# Static dielectric constant tensor:
#      x y z
#    x 3.610600 0.000000 0.236850 
#    y 0.000000 3.210190 0.000000 
#    z 0.236850 0.000000 4.192990 
# 
# 
# High freq. dielectric constant tensor:
#      x y z
#    x 1.765400 0.000000 0.012300 
#    y 0.000000 1.717900 0.000000 
#    z 0.012300 0.000000 1.776700 
# 
# From -- ./inp_files/81655.got.cif
#   From: 2010.06.25/outbox.cif.g09.slc.cpg/sg13_41_cif.got.tgz:81655.got - 2010.06.28 04:50:58.
