data_PCOD8119155
_publ_section_title
;
Structure prediction by ZEFSAII (Michael W. Deem and Ramdas Pophale) SiO2 
 PCOD8119155
Probable space group: P 2/C
;
_chemical_formula_sum "Si O2"
_cell_formula_units_Z 24
_cell_length_a 15.963443
_cell_length_b 11.443920
_cell_length_c 21.362305
_cell_angle_alpha 90.000000
_cell_angle_beta 162.219163
_cell_angle_gamma 90.000000
_cell_volume 1191.751175
_symmetry_space_group_name_H-M "P 2/C"
_symmetry_group_IT_number 13
_symmetry_cell_setting 'monoclinic'
loop_
_space_group_symop_operation_xyz
x,y,z
-x,y,1/2-z
-x,-y,-z
x,-y,1/2+z
loop_
_atom_site_type_symbol
_atom_site_label
_atom_site_fract_x
_atom_site_fract_y
_atom_site_fract_z
Si Si1 0.713080 0.710102 0.351377
Si Si2 0.419495 0.799850 0.553028
Si Si3 0.636145 0.339593 0.656085
Si Si4 0.284926 0.389339 0.295168
Si Si5 0.972010 0.065674 0.416873
Si Si6 0.999922 0.153359 0.649914
O O1 0.500000 0.662113 0.250000
O O2 0.577210 0.688095 0.186535
O O3 0.989606 0.639092 0.557748
O O4 0.772505 0.846241 0.407068
O O5 0.483502 0.661143 0.588394
O O6 0.688886 0.865939 0.721427
O O7 0.184312 0.848950 0.341944
O O8 0.314888 0.820378 0.550319
O O9 0.362084 0.326039 0.417382
O O10 0.721037 0.472332 0.704705
O O11 0.889648 0.254567 0.817806
O O12 0.982315 0.974751 0.367370
O O13 0.000000 0.000000 0.500000
#
# Coordination Sequence:
#
# PCOD8119155 Si02
#       6
#     4   4   4   4   4   4
#     4  11  24  39  57  89 124 158 204 248 299 363
#     4   9  21  38  58  88 115 152 202 251 297 361
#     4  10  20  40  65  88 122 159 199 253 305 359
#     4   9  21  41  63  89 121 159 202 250 306 359
#     4  11  22  37  56  81 119 155 197 243 297 354
#     4  10  20  37  62  85 115 155 202 246 302 363
#
# _framework density 20.138432999999999
#
# number of rings (size 3 to 8) (size 9 to 14) (size 15 to 20)
#    0.000    2.000    1.667    1.000    2.333    2.000 
#    0.000    3.333    0.000    0.000    0.000    0.000 
#    0.000    0.000    0.000    0.000    0.000    0.000 
#
# Total GULP energy -297333.495061 kJ/mol
# GULP energy per Si atom -12388.895628 kJ/mol
# Density = 2.009260 g / cm^3
# Si number density = 20.138433 Si / 1000 Ang^3
#
#
#
# Elastic Constant Matrix: (Units=GPa)
#
#
# Indices 1 2 3 4 5 6 
#
# 1 124.3450 21.7775 30.6443 0.0000 7.1299 0.0000
# 2 21.7775 93.2936 10.5559 0.0000 -4.6052 0.0000
# 3 30.6443 10.5559 49.8497 0.0000 0.1168 0.0000
# 4 0.0000 0.0000 0.0000 14.0020 0.0000 -7.2696
# 5 7.1299 -4.6052 0.1168 0.0000 22.8383 0.0000
# 6 0.0000 0.0000 0.0000 -7.2696 0.0000 22.8383
#
#
#
# Elastic Compliance Matrix: (Units=1/GPa)
#
#
# Indices 1 2 3 4 5 6 
#
# 1 0.009978 -0.001851 -0.005734 0.000000 -0.003459 0.000000
# 2 -0.001851 0.011440 -0.001291 0.000000 0.002891 0.000000
# 3 -0.005734 -0.001291 0.023855 0.000000 0.001408 0.000000
# 4 0.000000 0.000000 0.000000 0.085557 0.000000 0.027233
# 5 -0.003459 0.002891 0.001408 0.000000 0.045442 0.000000
# 6 0.000000 0.000000 0.000000 0.027233 0.000000 0.052455
#
#
# Mechanical properties :
#
#
# Convention : Reuss Voigt Hill
#
# Bulk Modulus (GPa) = 36.33631 43.71597 40.02614
# Shear Modulus (GPa) = 19.55789 25.56977 22.56383
#
# Velocity S-wave (km/s) = 3.11974 3.56715 3.35092
# Velocity P-wave (km/s) = 5.57311 6.22262 5.90680
#
# Compressibility (1/GPa) = 0.02752068
#
# Stress axis : x y z
#
# Youngs Moduli (GPa) = 100.22372 87.41436 41.91986
#
# Poissons Ratio (x) = 0.16181 0.24035
# Poissons Ratio (y) = 0.18552 0.05413
# Poissons Ratio (z) = 0.57464 0.11288
#
# Static dielectric constant tensor:
#      x y z
#    x 3.704230 0.000000 -0.141660 
#    y 0.000000 3.520540 0.000000 
#    z -0.141660 0.000000 3.639850 
# 
# 
# High freq. dielectric constant tensor:
#      x y z
#    x 1.786300 0.000000 -0.010370 
#    y 0.000000 1.792110 0.000000 
#    z -0.010370 0.000000 1.784070 
# 
# From -- ./inp_files/29447.got.cif
#   From: 2010.06.25/outbox.cif.g09.slc.cpg/sg13_15_cif.got.tgz:29447.got - 2010.06.28 04:50:58.
