data_PCOD8119732
_publ_section_title
;
Structure prediction by ZEFSAII (Michael W. Deem and Ramdas Pophale) SiO2 
 PCOD8119732
Probable space group: P 2/C
;
_chemical_formula_sum "Si O2"
_cell_formula_units_Z 24
_cell_length_a 8.696556
_cell_length_b 7.608388
_cell_length_c 21.354871
_cell_angle_alpha 90.000000
_cell_angle_beta 58.095473
_cell_angle_gamma 90.000000
_cell_volume 1199.523467
_symmetry_space_group_name_H-M "P 2/C"
_symmetry_group_IT_number 13
_symmetry_cell_setting 'monoclinic'
loop_
_space_group_symop_operation_xyz
x,y,z
-x,y,1/2-z
-x,-y,-z
x,-y,1/2+z
loop_
_atom_site_type_symbol
_atom_site_label
_atom_site_fract_x
_atom_site_fract_y
_atom_site_fract_z
Si Si1 0.706338 0.952375 0.711454
Si Si2 0.210426 0.254921 0.713808
Si Si3 0.435459 0.332525 0.432319
Si Si4 0.534981 0.724550 0.049899
Si Si5 0.209483 0.986826 0.943639
Si Si6 0.657495 0.395475 0.264289
O O1 0.500000 0.892203 0.750000
O O2 0.715110 0.091830 0.764055
O O3 0.776925 0.033518 0.632363
O O4 0.791806 0.760166 0.709831
O O5 0.334103 0.263436 0.624533
O O6 0.222245 0.432536 0.751176
O O7 0.000000 0.216540 0.750000
O O8 0.374347 0.535620 0.453841
O O9 0.516073 0.255230 0.479477
O O10 0.584349 0.322149 0.346185
O O11 0.267200 0.212060 0.447555
O O12 0.670554 0.875115 0.043584
O O13 0.000000 0.000000 0.000000
O O14 0.500000 0.453294 0.250000
#
# Coordination Sequence:
#
# PCOD8119732 Si02
#       6
#     4   4   4   4   4   4
#     4  11  21  42  65  89 122 164 207 256 309 358
#     4  11  24  39  64  95 122 159 205 254 309 368
#     4  10  21  42  64  89 120 165 202 247 314 366
#     4  10  23  43  64  86 128 165 200 254 310 367
#     4  12  25  40  63  95 123 165 211 253 304 366
#     4  10  20  41  67  88 119 161 204 251 307 364
#
# _framework density 20.007943999999998
#
# number of rings (size 3 to 8) (size 9 to 14) (size 15 to 20)
#    0.000    1.333    5.000    1.000    4.667    1.333 
#    9.000    0.000    0.000    0.000    0.000    0.000 
#    0.000    0.000    0.000    0.000    0.000    0.000 
#
# Total GULP energy -297494.087357 kJ/mol
# GULP energy per Si atom -12395.586973 kJ/mol
# Density = 1.996241 g / cm^3
# Si number density = 20.007944 Si / 1000 Ang^3
#
#
#
# Elastic Constant Matrix: (Units=GPa)
#
#
# Indices 1 2 3 4 5 6 
#
# 1 62.7833 29.2897 41.3287 0.0000 -4.7161 0.0000
# 2 29.2897 100.8285 7.4155 0.0000 1.9235 0.0000
# 3 41.3287 7.4155 87.4150 0.0000 14.5120 0.0000
# 4 0.0000 0.0000 0.0000 43.0070 0.0000 3.1187
# 5 -4.7161 1.9235 14.5120 0.0000 38.3639 0.0000
# 6 0.0000 0.0000 0.0000 3.1187 0.0000 3.4219
#
#
#
# Elastic Compliance Matrix: (Units=1/GPa)
#
#
# Indices 1 2 3 4 5 6 
#
# 1 0.030520 -0.007923 -0.015414 0.000000 0.009980 0.000000
# 2 -0.007923 0.012038 0.003186 0.000000 -0.002783 0.000000
# 3 -0.015414 0.003186 0.020058 0.000000 -0.009642 0.000000
# 4 0.000000 0.000000 0.000000 0.024897 0.000000 -0.022691
# 5 0.009980 -0.002783 -0.009642 0.000000 0.031080 0.000000
# 6 0.000000 0.000000 0.000000 -0.022691 0.000000 0.312915
#
#
# Mechanical properties :
#
#
# Convention : Reuss Voigt Hill
#
# Bulk Modulus (GPa) = 44.81247 45.23277 45.02262
# Shear Modulus (GPa) = 10.43301 28.49141 19.46221
#
# Velocity S-wave (km/s) = 2.28599 3.77769 3.12224
# Velocity P-wave (km/s) = 5.42343 6.45635 5.96230
#
# Compressibility (1/GPa) = 0.02231522
#
# Stress axis : x y z
#
# Youngs Moduli (GPa) = 32.76494 83.07024 49.85594
#
# Poissons Ratio (x) = 0.65813 0.76850
# Poissons Ratio (y) = 0.25958 -0.15887
# Poissons Ratio (z) = 0.50505 -0.26470
#
# Static dielectric constant tensor:
#      x y z
#    x 3.435330 0.000000 0.202950 
#    y 0.000000 3.944380 0.000000 
#    z 0.202950 0.000000 3.521330 
# 
# 
# High freq. dielectric constant tensor:
#      x y z
#    x 1.755170 0.000000 0.025330 
#    y 0.000000 1.807360 0.000000 
#    z 0.025330 0.000000 1.784600 
# 
# From -- ./inp_files/75191.got.cif
#   From: 2010.06.25/outbox.cif.g09.slc.cpg/sg13_38_cif.got.tgz:75191.got - 2010.06.28 04:50:58.
