data_PCOD8119652
_publ_section_title
;
Structure prediction by ZEFSAII (Michael W. Deem and Ramdas Pophale) SiO2 
 PCOD8119652
Probable space group: P 2/C
;
_chemical_formula_sum "Si O2"
_cell_formula_units_Z 18
_cell_length_a 7.671279
_cell_length_b 9.327148
_cell_length_c 12.914845
_cell_angle_alpha 90.000000
_cell_angle_beta 64.718266
_cell_angle_gamma 90.000000
_cell_volume 835.563289
_symmetry_space_group_name_H-M "P 2/C"
_symmetry_group_IT_number 13
_symmetry_cell_setting 'monoclinic'
loop_
_space_group_symop_operation_xyz
x,y,z
-x,y,1/2-z
-x,-y,-z
x,-y,1/2+z
loop_
_atom_site_type_symbol
_atom_site_label
_atom_site_fract_x
_atom_site_fract_y
_atom_site_fract_z
Si Si1 0.575606 0.624680 0.344121
Si Si2 0.500000 0.917371 0.750000
Si Si3 0.000000 0.231569 0.250000
Si Si4 0.899815 0.980644 0.131068
Si Si5 0.000000 0.735191 0.250000
Si Si6 0.407825 0.310898 0.099431
O O1 0.500000 0.674221 0.250000
O O2 0.509108 0.460019 0.377429
O O3 0.476574 0.715526 0.462886
O O4 0.807656 0.639134 0.295303
O O5 0.519223 0.820251 0.848261
O O6 0.330660 0.032935 0.812623
O O7 0.824319 0.326663 0.337683
O O8 0.926657 0.132351 0.177840
O O9 0.002056 0.841477 0.151877
O O10 0.000000 0.000000 0.000000
#
# Coordination Sequence:
#
# PCOD8119652 Si02
#       6
#     4   2   2   4   2   4
#     4  11  24  41  64  93 128 161 203 261 310 372
#     4  10  20  40  66  86 126 166 206 258 302 364
#     4   9  21  38  62  86 123 159 206 256 298 367
#     4  10  22  38  60  90 121 164 205 249 304 362
#     4  11  25  40  58  98 125 159 210 246 312 369
#     4  10  21  42  62  94 121 162 212 251 314 370
#
# _framework density 21.542354
#
# number of rings (size 3 to 8) (size 9 to 14) (size 15 to 20)
#    0.000    1.778    1.111    2.000    4.667    0.000 
#    0.000   10.000    0.000    0.000    0.000    0.000 
#    0.000    0.000    0.000    0.000    0.000    0.000 
#
# Total GULP energy -223081.403143 kJ/mol
# GULP energy per Si atom -12393.411286 kJ/mol
# Density = 2.149332 g / cm^3
# Si number density = 21.542354 Si / 1000 Ang^3
#
#
#
# Elastic Constant Matrix: (Units=GPa)
#
#
# Indices 1 2 3 4 5 6 
#
# 1 129.0319 9.3011 61.9395 0.0000 -8.5195 0.0000
# 2 9.3011 48.6355 13.0605 0.0000 7.2674 0.0000
# 3 61.9395 13.0605 174.5186 0.0000 3.2236 0.0000
# 4 0.0000 0.0000 0.0000 38.1939 0.0000 -6.3417
# 5 -8.5195 7.2674 3.2236 0.0000 27.1695 0.0000
# 6 0.0000 0.0000 0.0000 -6.3417 0.0000 26.0877
#
#
#
# Elastic Compliance Matrix: (Units=1/GPa)
#
#
# Indices 1 2 3 4 5 6 
#
# 1 0.009758 -0.001526 -0.003421 0.000000 0.003874 0.000000
# 2 -0.001526 0.022055 -0.000993 0.000000 -0.006260 0.000000
# 3 -0.003421 -0.000993 0.007049 0.000000 -0.001643 0.000000
# 4 0.000000 0.000000 0.000000 0.027283 0.000000 0.006632
# 5 0.003874 -0.006260 -0.001643 0.000000 0.039890 0.000000
# 6 0.000000 0.000000 0.000000 0.006632 0.000000 0.039945
#
#
# Mechanical properties :
#
#
# Convention : Reuss Voigt Hill
#
# Bulk Modulus (GPa) = 37.06247 57.86537 47.46392
# Shear Modulus (GPa) = 29.96636 36.14921 33.05779
#
# Velocity S-wave (km/s) = 3.73372 4.10085 3.92158
# Velocity P-wave (km/s) = 5.98576 7.02440 6.52577
#
# Compressibility (1/GPa) = 0.02698147
#
# Stress axis : x y z
#
# Youngs Moduli (GPa) = 102.48224 45.34088 141.86956
#
# Poissons Ratio (x) = 0.06921 0.48527
# Poissons Ratio (y) = 0.15643 0.14090
# Poissons Ratio (z) = 0.35054 0.04503
#
# Static dielectric constant tensor:
#      x y z
#    x 4.050870 0.000000 -0.083430 
#    y 0.000000 3.670710 0.000000 
#    z -0.083430 0.000000 3.952290 
# 
# 
# High freq. dielectric constant tensor:
#      x y z
#    x 1.848520 0.000000 -0.005460 
#    y 0.000000 1.840820 0.000000 
#    z -0.005460 0.000000 1.853650 
# 
# From -- ./inp_files/28085.got.cif
#   From: 2010.06.25/outbox.cif.g09.slc.cpg/sg13_15_cif.got.tgz:28085.got - 2010.06.28 04:50:58.
