data_PCOD8119093
_publ_section_title
;
Structure prediction by ZEFSAII (Michael W. Deem and Ramdas Pophale) SiO2 
 PCOD8119093
Probable space group: P 2/C
;
_chemical_formula_sum "Si O2"
_cell_formula_units_Z 28
_cell_length_a 7.871594
_cell_length_b 17.786671
_cell_length_c 18.857325
_cell_angle_alpha 90.000000
_cell_angle_beta 33.399041
_cell_angle_gamma 90.000000
_cell_volume 1453.344423
_symmetry_space_group_name_H-M "P 2/C"
_symmetry_group_IT_number 13
_symmetry_cell_setting 'monoclinic'
loop_
_space_group_symop_operation_xyz
x,y,z
-x,y,1/2-z
-x,-y,-z
x,-y,1/2+z
loop_
_atom_site_type_symbol
_atom_site_label
_atom_site_fract_x
_atom_site_fract_y
_atom_site_fract_z
Si Si1 0.312215 0.933346 0.749999
Si Si2 0.488714 0.677085 0.601457
Si Si3 0.105460 0.322916 0.101457
Si Si4 0.674808 0.839679 0.511836
Si Si5 0.801073 0.567804 0.599464
Si Si6 0.722154 0.839679 0.988162
Si Si7 0.191901 0.095229 0.749999
O O1 0.500000 0.967804 0.750000
O O2 0.540034 0.881948 0.625858
O O3 0.043469 0.881947 0.874139
O O4 0.188857 0.004842 0.749999
O O5 0.356803 0.647151 0.571599
O O6 0.697785 0.750598 0.517423
O O7 0.693967 0.614129 0.567801
O O8 0.206008 0.701230 0.750000
O O9 0.232526 0.249402 0.017423
O O10 0.034830 0.385871 0.067801
O O11 0.449129 0.858018 0.525436
O O12 0.020996 0.870855 0.378473
O O13 0.500000 0.541893 0.750000
O O14 0.000000 0.500000 0.500000
O O15 0.534894 0.870855 0.121524
O O16 0.000000 0.124692 0.750000
#
# Coordination Sequence:
#
# PCOD8119093 Si02
#       7
#     4   4   4   4   4   4   4
#     4  12  24  34  54  80 112 151 198 240 285 342
#     4   9  18  35  62  89 113 151 195 232 275 337
#     4   9  18  35  62  89 113 151 195 232 275 337
#     4  10  20  37  59  81 108 148 197 240 285 338
#     4  10  22  40  62  88 121 149 184 226 281 343
#     4  10  20  37  59  81 108 148 197 240 285 338
#     4  10  22  38  54  78 114 151 188 244 299 336
#
# _framework density 19.265908
#
# number of rings (size 3 to 8) (size 9 to 14) (size 15 to 20)
#    0.000    2.000    1.429    2.143    2.000    5.143 
#    2.571    0.000    0.000    0.000    0.000    0.000 
#    0.000    0.000    0.000    0.000    0.000    0.000 
#
# Total GULP energy -347182.795316 kJ/mol
# GULP energy per Si atom -12399.385547 kJ/mol
# Density = 1.922206 g / cm^3
# Si number density = 19.265908 Si / 1000 Ang^3
#
#
#
# Elastic Constant Matrix: (Units=GPa)
#
#
# Indices 1 2 3 4 5 6 
#
# 1 88.9288 54.8817 40.0264 0.0000 -0.5178 0.0000
# 2 54.8817 123.3979 71.0574 0.0000 0.1355 0.0000
# 3 40.0264 71.0574 145.8079 0.0000 0.9971 0.0000
# 4 0.0000 0.0000 0.0000 26.9984 0.0000 0.0346
# 5 -0.5178 0.1355 0.9971 0.0000 -6.6510 0.0000
# 6 0.0000 0.0000 0.0000 0.0346 0.0000 22.9780
#
#
#
# Elastic Compliance Matrix: (Units=1/GPa)
#
#
# Indices 1 2 3 4 5 6 
#
# 1 0.015648 -0.006242 -0.001243 0.000000 -0.001532 0.000000
# 2 -0.006242 0.013753 -0.004989 0.000000 0.000018 0.000000
# 3 -0.001243 -0.004989 0.009621 0.000000 0.001438 0.000000
# 4 0.000000 0.000000 0.000000 0.037039 0.000000 -0.000056
# 5 -0.001532 0.000018 0.001438 0.000000 -0.150018 0.000000
# 6 0.000000 0.000000 0.000000 -0.000056 0.000000 0.043520
#
#
# Mechanical properties :
#
#
# Convention : Reuss Voigt Hill
#
# Bulk Modulus (GPa) = 71.05442 76.67397 73.86420
# Shear Modulus (GPa) = -6261.10008 21.47635 -3119.81186
#
# Velocity S-wave (km/s) = -57.06916 3.34238 -40.28472
# Velocity P-wave (km/s) = 65.61675 7.40132 46.10194
#
# Compressibility (1/GPa) = 0.01407372
#
# Stress axis : x y z
#
# Youngs Moduli (GPa) = 63.90733 72.71309 103.93909
#
# Poissons Ratio (x) = 0.45386 0.12922
# Poissons Ratio (y) = 0.39890 0.51853
# Poissons Ratio (z) = 0.07945 0.36275
#
# Static dielectric constant tensor:
#      x y z
#    x 3.594450 0.000000 0.000990 
#    y 0.000000 3.254890 0.000000 
#    z 0.000990 0.000000 3.712910 
# 
# 
# High freq. dielectric constant tensor:
#      x y z
#    x 1.752290 0.000000 -0.000050 
#    y 0.000000 1.734140 0.000000 
#    z -0.000050 0.000000 1.746240 
# 
# From -- ./inp_files/76716.got.cif
#   From: 2010.06.25/outbox.cif.g09.slc.cpg/sg13_39_cif.got.tgz:76716.got - 2010.06.28 04:50:58.
