data_PCOD8119043
_publ_section_title
;
Structure prediction by ZEFSAII (Michael W. Deem and Ramdas Pophale) SiO2 
 PCOD8119043
Probable space group: P 2/C
;
_chemical_formula_sum "Si O2"
_cell_formula_units_Z 26
_cell_length_a 15.789803
_cell_length_b 15.896026
_cell_length_c 8.878680
_cell_angle_alpha 90.000000
_cell_angle_beta 36.411964
_cell_angle_gamma 90.000000
_cell_volume 1322.811678
_symmetry_space_group_name_H-M "P 2/C"
_symmetry_group_IT_number 13
_symmetry_cell_setting 'monoclinic'
loop_
_space_group_symop_operation_xyz
x,y,z
-x,y,1/2-z
-x,-y,-z
x,-y,1/2+z
loop_
_atom_site_type_symbol
_atom_site_label
_atom_site_fract_x
_atom_site_fract_y
_atom_site_fract_z
Si Si1 0.165590 0.980679 0.734442
Si Si2 0.540970 0.783203 0.365821
Si Si3 0.141377 0.807382 0.637560
Si Si4 0.500000 0.485244 0.250000
Si Si5 0.296734 0.109077 0.330608
Si Si6 0.139511 0.731286 0.967628
Si Si7 0.386108 0.386795 0.148550
O O1 0.159878 0.907354 0.619651
O O2 0.247407 0.950260 0.765136
O O3 0.260695 0.058382 0.535157
O O4 0.000000 0.000000 0.000000
O O5 0.500000 0.798938 0.250000
O O6 0.461545 0.858807 0.573421
O O7 0.495409 0.690527 0.480421
O O8 0.710396 0.780178 0.153066
O O9 0.119907 0.763227 0.827367
O O10 0.000000 0.781691 0.750000
O O11 0.395672 0.426431 0.301086
O O12 0.407852 0.542419 0.492253
O O13 0.205682 0.193806 0.471077
O O14 0.229805 0.646816 0.840329
O O15 0.000000 0.702039 0.250000
#
# Coordination Sequence:
#
# PCOD8119043 Si02
#       7
#     4   4   4   2   4   4   4
#     4  11  20  35  54  84 118 155 204 257 299 354
#     4  11  19  42  62  82 119 159 197 245 307 360
#     4  11  22  36  58  84 114 158 205 252 301 351
#     4  10  20  36  64  94 114 146 198 238 290 360
#     4  10  21  35  59  80 113 163 203 248 306 349
#     4  10  20  37  59  82 118 158 196 239 303 355
#     4  10  20  38  64  89 118 154 191 241 291 362
#
# _framework density 19.655103
#
# number of rings (size 3 to 8) (size 9 to 14) (size 15 to 20)
#    0.000    1.538    5.385    3.231    0.000    1.846 
#    0.000    2.308    0.000    3.692    0.000    0.000 
#    0.000    0.000    0.000    0.000    0.000    0.000 
#
# Total GULP energy -322233.092402 kJ/mol
# GULP energy per Si atom -12393.580477 kJ/mol
# Density = 1.961037 g / cm^3
# Si number density = 19.655103 Si / 1000 Ang^3
#
#
#
# Elastic Constant Matrix: (Units=GPa)
#
#
# Indices 1 2 3 4 5 6 
#
# 1 70.7390 34.7459 44.7297 0.0000 -14.0157 0.0000
# 2 34.7459 97.5181 47.4930 0.0000 2.6175 0.0000
# 3 44.7297 47.4930 140.1565 0.0000 -22.4685 0.0000
# 4 0.0000 0.0000 0.0000 23.7436 0.0000 -0.7185
# 5 -14.0157 2.6175 -22.4685 0.0000 33.9103 0.0000
# 6 0.0000 0.0000 0.0000 -0.7185 0.0000 21.6518
#
#
#
# Elastic Compliance Matrix: (Units=1/GPa)
#
#
# Indices 1 2 3 4 5 6 
#
# 1 0.020506 -0.005759 -0.003538 0.000000 0.006575 0.000000
# 2 -0.005759 0.014443 -0.004046 0.000000 -0.006176 0.000000
# 3 -0.003538 -0.004046 0.010574 0.000000 0.005856 0.000000
# 4 0.000000 0.000000 0.000000 0.042159 0.000000 0.001399
# 5 0.006575 -0.006176 0.005856 0.000000 0.036564 0.000000
# 6 0.000000 0.000000 0.000000 0.001399 0.000000 0.046232
#
#
# Mechanical properties :
#
#
# Convention : Reuss Voigt Hill
#
# Bulk Modulus (GPa) = 53.09402 62.48342 57.78872
# Shear Modulus (GPa) = 24.57683 27.95747 26.26715
#
# Velocity S-wave (km/s) = 3.53994 3.77557 3.65965
# Velocity P-wave (km/s) = 6.61663 7.13200 6.87914
#
# Compressibility (1/GPa) = 0.01883451
#
# Stress axis : x y z
#
# Youngs Moduli (GPa) = 48.76710 69.23818 94.57170
#
# Poissons Ratio (x) = 0.39877 0.33464
# Poissons Ratio (y) = 0.28087 0.38265
# Poissons Ratio (z) = 0.17256 0.28015
#
# Static dielectric constant tensor:
#      x y z
#    x 3.045860 0.000000 -0.636830 
#    y 0.000000 3.715450 0.000000 
#    z -0.636830 0.000000 2.927190 
# 
# 
# High freq. dielectric constant tensor:
#      x y z
#    x 1.750420 0.000000 0.002090 
#    y 0.000000 1.766200 0.000000 
#    z 0.002090 0.000000 1.773800 
# 
# From -- ./inp_files/16593.got.cif
#   From: 2010.06.25/outbox.cif.g09.slc.cpg/sg13_9_cif.got.tgz:16593.got - 2010.06.28 04:50:58.
