data_PCOD8119271
_publ_section_title
;
Structure prediction by ZEFSAII (Michael W. Deem and Ramdas Pophale) SiO2 
 PCOD8119271
Probable space group: P 2/C
;
_chemical_formula_sum "Si O2"
_cell_formula_units_Z 18
_cell_length_a 6.253033
_cell_length_b 6.573499
_cell_length_c 24.424814
_cell_angle_alpha 90.000000
_cell_angle_beta 58.584281
_cell_angle_gamma 90.000000
_cell_volume 856.791617
_symmetry_space_group_name_H-M "P 2/C"
_symmetry_group_IT_number 13
_symmetry_cell_setting 'monoclinic'
loop_
_space_group_symop_operation_xyz
x,y,z
-x,y,1/2-z
-x,-y,-z
x,-y,1/2+z
loop_
_atom_site_type_symbol
_atom_site_label
_atom_site_fract_x
_atom_site_fract_y
_atom_site_fract_z
Si Si1 0.142122 0.623702 0.527683
Si Si2 0.346786 0.295373 0.583334
Si Si3 0.500000 0.806398 0.750000
Si Si4 0.985683 0.099595 0.362860
Si Si5 0.750450 0.412188 0.312560
O O1 0.241734 0.457699 0.555662
O O2 0.369031 0.758565 0.471868
O O3 0.971678 0.782721 0.584829
O O4 0.000000 0.500000 0.500000
O O5 0.363614 0.393473 0.641421
O O6 0.159774 0.107209 0.607042
O O7 0.449550 0.661984 0.705074
O O8 0.743537 0.942428 0.701865
O O9 0.811211 0.229378 0.345898
O O10 0.000000 0.490393 0.250000
#
# Coordination Sequence:
#
# PCOD8119271 Si02
#       5
#     4   4   2   4   4
#     4  10  21  37  58  84 113 150 193 237 288 345
#     4  10  21  37  57  82 115 150 189 239 291 341
#     4  10  20  38  60  82 116 154 194 240 290 350
#     4  10  21  37  56  84 116 150 192 240 289 344
#     4   9  20  37  55  80 115 150 189 238 289 343
#
# _framework density 21.008607999999999
#
# number of rings (size 3 to 8) (size 9 to 14) (size 15 to 20)
#    0.000    2.222    0.000    2.000    0.000    5.333 
#    0.000   11.111    0.000    0.000    0.000    0.000 
#    0.000    0.000    0.000    0.000    0.000    0.000 
#
# Total GULP energy -223138.269713 kJ/mol
# GULP energy per Si atom -12396.570540 kJ/mol
# Density = 2.096079 g / cm^3
# Si number density = 21.008608 Si / 1000 Ang^3
#
#
#
# Elastic Constant Matrix: (Units=GPa)
#
#
# Indices 1 2 3 4 5 6 
#
# 1 93.2547 33.9325 48.3961 0.0000 1.6088 0.0000
# 2 33.9325 87.3570 64.9191 0.0000 -11.3949 0.0000
# 3 48.3961 64.9191 145.6194 0.0000 -11.5032 0.0000
# 4 0.0000 0.0000 0.0000 23.1112 0.0000 -12.5608
# 5 1.6088 -11.3949 -11.5032 0.0000 41.6099 0.0000
# 6 0.0000 0.0000 0.0000 -12.5608 0.0000 17.4489
#
#
#
# Elastic Compliance Matrix: (Units=1/GPa)
#
#
# Indices 1 2 3 4 5 6 
#
# 1 0.013621 -0.003128 -0.003314 0.000000 -0.002299 0.000000
# 2 -0.003128 0.018125 -0.006787 0.000000 0.003208 0.000000
# 3 -0.003314 -0.006787 0.011100 0.000000 0.001338 0.000000
# 4 0.000000 0.000000 0.000000 0.071078 0.000000 0.051166
# 5 -0.002299 0.003208 0.001338 0.000000 0.025370 0.000000
# 6 0.000000 0.000000 0.000000 0.051166 0.000000 0.094143
#
#
# Mechanical properties :
#
#
# Convention : Reuss Voigt Hill
#
# Bulk Modulus (GPa) = 61.02269 68.96960 64.99615
# Shear Modulus (GPa) = 18.84251 28.36625 23.60438
#
# Velocity S-wave (km/s) = 2.99807 3.67852 3.35559
# Velocity P-wave (km/s) = 6.41047 7.13740 6.78368
#
# Compressibility (1/GPa) = 0.01638735
#
# Stress axis : x y z
#
# Youngs Moduli (GPa) = 73.41578 55.17349 90.08879
#
# Poissons Ratio (x) = 0.17258 0.29856
# Poissons Ratio (y) = 0.22964 0.61145
# Poissons Ratio (z) = 0.24330 0.37447
#
# Static dielectric constant tensor:
#      x y z
#    x 3.778900 0.000000 0.079840 
#    y 0.000000 3.495780 0.000000 
#    z 0.079840 0.000000 4.470810 
# 
# 
# High freq. dielectric constant tensor:
#      x y z
#    x 1.817510 0.000000 0.002860 
#    y 0.000000 1.796200 0.000000 
#    z 0.002860 0.000000 1.853550 
# 
# From -- ./inp_files/82962.got.cif
#   From: 2010.06.25/outbox.cif.g09.slc.cpg/sg13_42_cif.got.tgz:82962.got - 2010.06.28 04:50:58.
