data_PCOD8119156
_publ_section_title
;
Structure prediction by ZEFSAII (Michael W. Deem and Ramdas Pophale) SiO2 
 PCOD8119156
Probable space group: P 2/C
;
_chemical_formula_sum "Si O2"
_cell_formula_units_Z 24
_cell_length_a 9.822934
_cell_length_b 14.176609
_cell_length_c 14.253069
_cell_angle_alpha 90.000000
_cell_angle_beta 143.169824
_cell_angle_gamma 90.000000
_cell_volume 1189.793217
_symmetry_space_group_name_H-M "P 2/C"
_symmetry_group_IT_number 13
_symmetry_cell_setting 'monoclinic'
loop_
_space_group_symop_operation_xyz
x,y,z
-x,y,1/2-z
-x,-y,-z
x,-y,1/2+z
loop_
_atom_site_type_symbol
_atom_site_label
_atom_site_fract_x
_atom_site_fract_y
_atom_site_fract_z
Si Si1 0.668436 0.231259 0.216658
Si Si2 0.500000 0.918459 0.750000
Si Si3 0.771672 0.583327 0.168764
Si Si4 0.565405 0.060109 0.947748
Si Si5 0.000000 0.835645 0.750000
Si Si6 0.752011 0.204043 0.649288
Si Si7 0.581480 0.561378 0.694065
O O1 0.692755 0.151074 0.311212
O O2 0.688365 0.335366 0.271782
O O3 0.874372 0.228641 0.257028
O O4 0.424041 0.208846 0.034747
O O5 0.597845 0.990158 0.879755
O O6 0.782716 0.691678 0.209464
O O7 0.748008 0.519702 0.248673
O O8 0.000000 0.547007 0.250000
O O9 0.593869 0.571098 0.987368
O O10 0.361977 0.138906 0.831352
O O11 0.814366 0.102744 0.094544
O O12 0.500000 0.000000 0.000000
O O13 0.000000 0.166494 0.750000
O O14 0.500000 0.524010 0.750000
#
# Coordination Sequence:
#
# PCOD8119156 Si02
#       7
#     4   2   4   4   2   4   4
#     4  10  21  38  61  88 115 154 200 242 296 352
#     4  12  22  40  58  88 118 152 210 236 288 360
#     4   9  20  38  60  88 113 155 197 235 296 350
#     4  11  23  39  59  87 118 157 196 245 297 345
#     4  10  22  42  58  86 122 154 194 250 296 346
#     4   9  19  40  62  80 120 158 194 240 296 350
#     4  10  20  37  62  86 119 152 191 245 291 350
#
# _framework density 20.171571
#
# number of rings (size 3 to 8) (size 9 to 14) (size 15 to 20)
#    0.000    2.000    4.167    0.000    2.333    1.333 
#    4.500    0.000    0.000    0.000    0.000    0.000 
#    0.000    0.000    0.000    0.000    0.000    0.000 
#
# Total GULP energy -297324.072868 kJ/mol
# GULP energy per Si atom -12388.503036 kJ/mol
# Density = 2.012566 g / cm^3
# Si number density = 20.171571 Si / 1000 Ang^3
#
#
#
# Elastic Constant Matrix: (Units=GPa)
#
#
# Indices 1 2 3 4 5 6 
#
# 1 163.3094 79.1515 41.2554 0.0000 7.0978 0.0000
# 2 79.1515 136.1817 27.7338 0.0000 1.8544 0.0000
# 3 41.2554 27.7338 43.2276 0.0000 17.7427 0.0000
# 4 0.0000 0.0000 0.0000 11.5103 0.0000 -3.0284
# 5 7.0978 1.8544 17.7427 0.0000 38.9243 0.0000
# 6 0.0000 0.0000 0.0000 -3.0284 0.0000 29.7633
#
#
#
# Elastic Compliance Matrix: (Units=1/GPa)
#
#
# Indices 1 2 3 4 5 6 
#
# 1 0.010052 -0.004327 -0.007566 0.000000 0.001822 0.000000
# 2 -0.004327 0.010519 -0.003368 0.000000 0.001823 0.000000
# 3 -0.007566 -0.003368 0.039220 0.000000 -0.016337 0.000000
# 4 0.000000 0.000000 0.000000 0.089268 0.000000 0.009083
# 5 0.001822 0.001823 -0.016337 0.000000 0.032719 0.000000
# 6 0.000000 0.000000 0.000000 0.009083 0.000000 0.034523
#
#
# Mechanical properties :
#
#
# Convention : Reuss Voigt Hill
#
# Bulk Modulus (GPa) = 34.16273 71.00001 52.58137
# Shear Modulus (GPa) = 19.48725 29.01146 24.24935
#
# Velocity S-wave (km/s) = 3.11155 3.79652 3.47097
# Velocity P-wave (km/s) = 5.46643 7.38191 6.49517
#
# Compressibility (1/GPa) = 0.02927167
#
# Stress axis : x y z
#
# Youngs Moduli (GPa) = 99.47824 95.06702 25.49715
#
# Poissons Ratio (x) = 0.41133 0.19290
# Poissons Ratio (y) = 0.43042 0.08586
# Poissons Ratio (z) = 0.75261 0.32014
#
# Static dielectric constant tensor:
#      x y z
#    x 3.526840 0.000000 0.140800 
#    y 0.000000 4.240910 0.000000 
#    z 0.140800 0.000000 3.347160 
# 
# 
# High freq. dielectric constant tensor:
#      x y z
#    x 1.790700 0.000000 0.006310 
#    y 0.000000 1.806320 0.000000 
#    z 0.006310 0.000000 1.754730 
# 
# From -- ./inp_files/47833.got.cif
#   From: 2010.06.25/outbox.cif.g09.slc.cpg/sg13_24_cif.got.tgz:47833.got - 2010.06.28 04:50:58.
