data_PCOD8119707
_publ_section_title
;
Structure prediction by ZEFSAII (Michael W. Deem and Ramdas Pophale) SiO2 
 PCOD8119707
Probable space group: P 2/C
;
_chemical_formula_sum "Si O2"
_cell_formula_units_Z 20
_cell_length_a 24.913365
_cell_length_b 7.253407
_cell_length_c 14.257855
_cell_angle_alpha 90.000000
_cell_angle_beta 20.723119
_cell_angle_gamma 90.000000
_cell_volume 911.697191
_symmetry_space_group_name_H-M "P 2/C"
_symmetry_group_IT_number 13
_symmetry_cell_setting 'monoclinic'
loop_
_space_group_symop_operation_xyz
x,y,z
-x,y,1/2-z
-x,-y,-z
x,-y,1/2+z
loop_
_atom_site_type_symbol
_atom_site_label
_atom_site_fract_x
_atom_site_fract_y
_atom_site_fract_z
Si Si1 0.793682 0.161962 0.779995
Si Si2 0.572455 0.718724 0.927900
Si Si3 0.858354 0.182889 0.281844
Si Si4 0.340455 0.478195 0.386998
Si Si5 0.709533 0.900713 0.212674
O O1 0.776632 0.186693 0.696992
O O2 0.965452 0.202569 0.531197
O O3 0.764634 0.955359 0.866283
O O4 0.671365 0.302592 0.025251
O O5 0.678311 0.590478 0.690053
O O6 0.669467 0.888920 0.807051
O O7 0.500066 0.595001 0.130854
O O8 0.438062 0.791647 0.079809
O O9 0.796362 0.386363 0.365977
O O10 0.836102 0.108517 0.424512
#
# Coordination Sequence:
#
# PCOD8119707 Si02
#       5
#     4   4   4   4   4
#     4  11  22  39  65  91 124 164 207 254 307 376
#     4   9  20  40  64  85 127 161 202 256 308 366
#     4  10  22  41  62  90 127 160 207 259 307 363
#     4  10  20  41  62  87 122 166 199 259 311 355
#     4  10  20  41  64  89 121 170 199 252 316 361
#
# _framework density 21.937107000000001
#
# number of rings (size 3 to 8) (size 9 to 14) (size 15 to 20)
#    0.000    2.000    2.000    1.200    0.000    0.800 
#   14.400    0.000    8.800    0.000    0.000    0.000 
#    0.000    0.000    0.000    0.000    0.000    0.000 
#
# Total GULP energy -247904.106652 kJ/mol
# GULP energy per Si atom -12395.205333 kJ/mol
# Density = 2.188718 g / cm^3
# Si number density = 21.937107 Si / 1000 Ang^3
#
#
#
# Elastic Constant Matrix: (Units=GPa)
#
#
# Indices 1 2 3 4 5 6 
#
# 1 58.0468 -3.5369 2.2407 0.0000 17.2789 0.0000
# 2 -3.5369 97.0660 20.9242 0.0000 -0.0605 0.0000
# 3 2.2407 20.9242 63.8248 0.0000 16.8319 0.0000
# 4 0.0000 0.0000 0.0000 45.0629 0.0000 11.1106
# 5 17.2789 -0.0605 16.8319 0.0000 25.2552 0.0000
# 6 0.0000 0.0000 0.0000 11.1106 0.0000 19.6146
#
#
#
# Elastic Compliance Matrix: (Units=1/GPa)
#
#
# Indices 1 2 3 4 5 6 
#
# 1 0.022427 -0.000051 0.003974 0.000000 -0.017993 0.000000
# 2 -0.000051 0.011273 -0.004501 0.000000 0.003062 0.000000
# 3 0.003974 -0.004501 0.021504 0.000000 -0.017061 0.000000
# 4 0.000000 0.000000 0.000000 0.025794 0.000000 -0.014611
# 5 -0.017993 0.003062 -0.017061 0.000000 0.063284 0.000000
# 6 0.000000 0.000000 0.000000 -0.014611 0.000000 0.059258
#
#
# Mechanical properties :
#
#
# Convention : Reuss Voigt Hill
#
# Bulk Modulus (GPa) = 18.50216 28.68818 23.59517
# Shear Modulus (GPa) = 22.45066 31.27386 26.86226
#
# Velocity S-wave (km/s) = 3.20255 3.77983 3.50310
# Velocity P-wave (km/s) = 4.70400 5.67057 5.20975
#
# Compressibility (1/GPa) = 0.05404775
#
# Stress axis : x y z
#
# Youngs Moduli (GPa) = 44.58932 88.71036 46.50405
#
# Poissons Ratio (x) = 0.00450 -0.18482
# Poissons Ratio (y) = 0.00226 0.20933
# Poissons Ratio (z) = -0.17721 0.39931
#
# Static dielectric constant tensor:
#      x y z
#    x 3.418420 0.000000 0.264620 
#    y 0.000000 4.283510 0.000000 
#    z 0.264620 0.000000 3.937740 
# 
# 
# High freq. dielectric constant tensor:
#      x y z
#    x 1.819820 0.000000 0.025550 
#    y 0.000000 1.882890 0.000000 
#    z 0.025550 0.000000 1.863470 
# 
# From -- ./inp_files/59260.got.cif
#   From: 2010.06.25/outbox.cif.g09.slc.cpg/sg13_30_cif.got.tgz:59260.got - 2010.06.28 04:50:58.
