data_PCOD8119887
_publ_section_title
;
Structure prediction by ZEFSAII (Michael W. Deem and Ramdas Pophale) SiO2 
 PCOD8119887
Probable space group: P 2/C
;
_chemical_formula_sum "Si O2"
_cell_formula_units_Z 20
_cell_length_a 12.656506
_cell_length_b 9.020479
_cell_length_c 27.088050
_cell_angle_alpha 90.000000
_cell_angle_beta 20.857203
_cell_angle_gamma 90.000000
_cell_volume 1101.083063
_symmetry_space_group_name_H-M "P 2/C"
_symmetry_group_IT_number 13
_symmetry_cell_setting 'monoclinic'
loop_
_space_group_symop_operation_xyz
x,y,z
-x,y,1/2-z
-x,-y,-z
x,-y,1/2+z
loop_
_atom_site_type_symbol
_atom_site_label
_atom_site_fract_x
_atom_site_fract_y
_atom_site_fract_z
Si Si1 0.059931 0.639837 0.909804
Si Si2 0.321586 0.353055 0.089206
Si Si3 0.699146 0.360164 0.090196
Si Si4 0.515898 0.145457 0.089529
Si Si5 0.874016 0.854543 0.910470
O O1 0.113070 0.685058 0.943465
O O2 0.364818 0.593928 0.750000
O O3 0.913051 0.780039 0.947076
O O4 0.843246 0.500000 1.000000
O O5 0.502580 0.259398 0.050252
O O6 0.296407 0.259402 0.050253
O O7 0.000000 0.398174 0.250000
O O8 0.500000 0.500000 0.000000
O O9 0.701356 0.219963 0.052923
O O10 0.188397 0.099709 0.250000
O O11 0.680254 1.000000 1.000000
#
# Coordination Sequence:
#
# PCOD8119887 Si02
#       5
#     4   4   4   4   4
#     4   9  18  33  52  74 100 130 166 206 245 289
#     4  10  21  36  54  76 100 128 165 206 246 292
#     4   9  18  33  52  74 100 130 166 206 245 289
#     4  10  21  35  51  74 103 132 164 203 246 293
#     4  10  21  35  51  74 103 132 164 203 246 293
#
# _framework density 18.163934000000001
#
# number of rings (size 3 to 8) (size 9 to 14) (size 15 to 20)
#    0.000    2.400    0.000    1.800    0.000    4.000 
#    0.000    0.000    0.000    0.000    0.000    0.000 
#    0.000    0.000    0.000    0.000    0.000    0.000 
#
# Total GULP energy -248077.991300 kJ/mol
# GULP energy per Si atom -12403.899565 kJ/mol
# Density = 1.812259 g / cm^3
# Si number density = 18.163934 Si / 1000 Ang^3
#
#
#
# Elastic Constant Matrix: (Units=GPa)
#
#
# Indices 1 2 3 4 5 6 
#
# 1 111.6578 75.8199 53.9567 0.0000 -1.8036 0.0000
# 2 75.8199 160.2427 91.2992 0.0000 1.1594 0.0000
# 3 53.9567 91.2992 82.0878 0.0000 -0.4188 0.0001
# 4 0.0000 0.0000 0.0000 44.0606 0.0000 2.7791
# 5 -1.8036 1.1594 -0.4188 0.0000 16.9476 0.0000
# 6 0.0000 0.0000 0.0001 2.7791 0.0000 7.0127
#
#
#
# Elastic Compliance Matrix: (Units=1/GPa)
#
#
# Indices 1 2 3 4 5 6 
#
# 1 0.013946 -0.003801 -0.004931 0.000000 0.001622 0.000000
# 2 -0.003801 0.018117 -0.017663 0.000000 -0.002080 0.000000
# 3 -0.004931 -0.017663 0.035076 0.000000 0.001550 -0.000001
# 4 0.000000 0.000000 0.000000 0.023278 0.000000 -0.009225
# 5 0.001622 -0.002080 0.001550 0.000000 0.059359 0.000000
# 6 0.000000 0.000000 -0.000001 -0.009225 0.000000 0.146253
#
#
# Mechanical properties :
#
#
# Convention : Reuss Voigt Hill
#
# Bulk Modulus (GPa) = 69.68675 88.45997 79.07336
# Shear Modulus (GPa) = 14.14020 22.46502 18.30261
#
# Velocity S-wave (km/s) = 2.79315 3.52062 3.17777
# Velocity P-wave (km/s) = 6.98935 8.08288 7.55592
#
# Compressibility (1/GPa) = 0.01434993
#
# Stress axis : x y z
#
# Youngs Moduli (GPa) = 71.70557 55.19551 28.50949
#
# Poissons Ratio (x) = 0.20979 0.14059
# Poissons Ratio (y) = 0.27254 0.50356
# Poissons Ratio (z) = 0.35359 0.97491
#
# Static dielectric constant tensor:
#      x y z
#    x 3.640470 0.000000 -0.023090 
#    y 0.000000 3.128040 0.000000 
#    z -0.023090 0.000000 3.332930 
# 
# 
# High freq. dielectric constant tensor:
#      x y z
#    x 1.723970 0.000000 -0.001640 
#    y 0.000000 1.694550 0.000000 
#    z -0.001640 0.000000 1.702170 
# 
# From -- ./inp_files/14811.got.cif
#   From: 2010.06.25/outbox.cif.g09.slc.cpg/sg13_8_cif.got.tgz:14811.got - 2010.06.28 04:50:58.
