data_PCOD8119434
_publ_section_title
;
Structure prediction by ZEFSAII (Michael W. Deem and Ramdas Pophale) SiO2 
 PCOD8119434
Probable space group: P 2/C
;
_chemical_formula_sum "Si O2"
_cell_formula_units_Z 32
_cell_length_a 13.268325
_cell_length_b 18.994926
_cell_length_c 5.616498
_cell_angle_alpha 90.000000
_cell_angle_beta 91.043308
_cell_angle_gamma 90.000000
_cell_volume 1415.296104
_symmetry_space_group_name_H-M "P 2/C"
_symmetry_group_IT_number 13
_symmetry_cell_setting 'monoclinic'
loop_
_space_group_symop_operation_xyz
x,y,z
-x,y,1/2-z
-x,-y,-z
x,-y,1/2+z
loop_
_atom_site_type_symbol
_atom_site_label
_atom_site_fract_x
_atom_site_fract_y
_atom_site_fract_z
Si Si1 0.237171 0.266949 0.922991
Si Si2 0.115311 0.471287 0.380352
Si Si3 0.696054 0.174950 0.956339
Si Si4 0.613982 0.973412 0.497972
Si Si5 0.086779 0.328683 0.581768
Si Si6 0.651920 0.470163 0.094644
Si Si7 0.895911 0.195712 0.201736
Si Si8 0.383999 0.685593 0.796609
O O1 0.288181 0.195594 0.818236
O O2 0.192878 0.319023 0.722405
O O3 0.145821 0.238474 0.076479
O O4 0.320201 0.315624 0.051328
O O5 0.066207 0.504257 0.624177
O O6 0.105544 0.386808 0.380056
O O7 0.231857 0.493797 0.387333
O O8 0.618326 0.111136 0.983180
O O9 0.804518 0.152178 0.077066
O O10 0.653382 0.245400 0.069505
O O11 0.500000 0.000000 0.500000
O O12 0.665572 0.002525 0.253076
O O13 0.057754 0.253952 0.473122
O O14 0.000000 0.356957 0.750000
O O15 0.603272 0.495032 0.350102
O O16 0.635995 0.386399 0.063239
O O17 0.000000 0.149942 0.250000
O O18 0.500000 0.695462 0.750000
#
# Coordination Sequence:
#
# PCOD8119434 Si02
#       8
#     4   4   4   4   4   4   4   4
#     4  10  22  40  64  92 137 165 231 278 352 398
#     4  10  23  37  58  83 119 170 220 281 352 424
#     4  10  24  41  68 105 139 182 228 288 343 410
#     4  10  24  43  72 104 145 189 228 268 336 421
#     4  11  22  36  60  90 124 168 220 283 352 416
#     4  10  23  43  66  87 126 179 238 292 356 419
#     4  10  20  38  66  96 128 173 224 279 338 399
#     4  11  26  41  65  97 132 177 231 295 356 411
#
# _framework density 22.610109000000001
#
# number of rings (size 3 to 8) (size 9 to 14) (size 15 to 20)
#    0.000    1.750    1.250    2.250   14.000    2.500 
#    0.000    0.000    0.000    0.750    0.000    0.000 
#    0.000    0.000    0.000    0.000    0.000    0.000 
#
# Total GULP energy -396546.912466 kJ/mol
# GULP energy per Si atom -12392.091015 kJ/mol
# Density = 2.255865 g / cm^3
# Si number density = 22.610109 Si / 1000 Ang^3
#
#
#
# Elastic Constant Matrix: (Units=GPa)
#
#
# Indices 1 2 3 4 5 6 
#
# 1 99.2985 29.5001 36.8528 0.0000 0.5754 0.0000
# 2 29.5001 117.5424 27.4653 0.0000 6.3849 0.0000
# 3 36.8528 27.4653 106.6252 0.0000 2.4824 0.0000
# 4 0.0000 0.0000 0.0000 20.2529 0.0000 -0.4363
# 5 0.5754 6.3849 2.4824 0.0000 16.9309 0.0000
# 6 0.0000 0.0000 0.0000 -0.4363 0.0000 -3.4423
#
#
#
# Elastic Compliance Matrix: (Units=1/GPa)
#
#
# Indices 1 2 3 4 5 6 
#
# 1 0.012073 -0.002237 -0.003619 0.000000 0.000964 0.000000
# 2 -0.002237 0.009630 -0.001630 0.000000 -0.003317 0.000000
# 3 -0.003619 -0.001630 0.011070 0.000000 -0.000885 0.000000
# 4 0.000000 0.000000 0.000000 0.049241 0.000000 -0.006241
# 5 0.000964 -0.003317 -0.000885 0.000000 0.060411 0.000000
# 6 0.000000 0.000000 0.000000 -0.006241 0.000000 -0.289713
#
#
# Mechanical properties :
#
#
# Convention : Reuss Voigt Hill
#
# Bulk Modulus (GPa) = 56.17713 56.78915 56.48314
# Shear Modulus (GPa) = -39.56237 22.05817 -8.75210
#
# Velocity S-wave (km/s) = -4.18756 3.12683 -1.96959
# Velocity P-wave (km/s) = 1.23252 6.18121 4.45682
#
# Compressibility (1/GPa) = 0.01780084
#
# Stress axis : x y z
#
# Youngs Moduli (GPa) = 82.83182 103.84213 90.33406
#
# Poissons Ratio (x) = 0.23226 0.32692
# Poissons Ratio (y) = 0.18527 0.14727
# Poissons Ratio (z) = 0.29977 0.16929
#
# Static dielectric constant tensor:
#      x y z
#    x 3.748230 0.000000 0.673240 
#    y 0.000000 3.614770 0.000000 
#    z 0.673240 0.000000 4.674660 
# 
# 
# High freq. dielectric constant tensor:
#      x y z
#    x 1.894040 0.000000 -0.001780 
#    y 0.000000 1.847700 0.000000 
#    z -0.001780 0.000000 1.915120 
# 
# From -- ./inp_files/5362.got.cif
#   From: 2010.06.25/outbox.cif.g09.slc.cpg/sg13_3_cif.got.tgz:5362.got - 2010.06.28 04:50:58.
