data_PCOD8119501
_publ_section_title
;
Structure prediction by ZEFSAII (Michael W. Deem and Ramdas Pophale) SiO2 
 PCOD8119501
Probable space group: P 2/C
;
_chemical_formula_sum "Si O2"
_cell_formula_units_Z 30
_cell_length_a 11.107194
_cell_length_b 11.993278
_cell_length_c 12.662078
_cell_angle_alpha 90.000000
_cell_angle_beta 62.377350
_cell_angle_gamma 90.000000
_cell_volume 1494.482881
_symmetry_space_group_name_H-M "P 2/C"
_symmetry_group_IT_number 13
_symmetry_cell_setting 'monoclinic'
loop_
_space_group_symop_operation_xyz
x,y,z
-x,y,1/2-z
-x,-y,-z
x,-y,1/2+z
loop_
_atom_site_type_symbol
_atom_site_label
_atom_site_fract_x
_atom_site_fract_y
_atom_site_fract_z
Si Si1 0.717323 0.761389 0.532192
Si Si2 0.861492 0.107522 0.500244
Si Si3 0.556401 0.177599 0.610384
Si Si4 0.503239 0.628338 0.524655
Si Si5 0.000000 0.208506 0.250000
Si Si6 0.278034 0.248451 0.224051
Si Si7 0.487355 0.936014 0.630047
Si Si8 0.956090 0.887943 0.383789
O O1 0.650542 0.647174 0.518016
O O2 0.750484 0.753085 0.641396
O O3 0.610166 0.857478 0.544667
O O4 0.860305 0.778983 0.413148
O O5 0.719217 0.168610 0.544019
O O6 0.973987 0.139275 0.366947
O O7 0.912146 0.136255 0.597919
O O8 0.855701 0.974146 0.486890
O O9 0.500000 0.189041 0.750000
O O10 0.514673 0.290255 0.568535
O O11 0.497227 0.063199 0.577274
O O12 0.500000 0.500000 0.500000
O O13 0.383700 0.653034 0.657006
O O14 0.861397 0.276160 0.282034
O O15 0.345376 0.128666 0.159660
O O16 0.500000 0.955375 0.750000
O O17 0.000000 0.928479 0.250000
#
# Coordination Sequence:
#
# PCOD8119501 Si02
#       8
#     4   4   4   4   2   4   4   4
#     4  10  20  39  62  90 125 167 203 261 317 392
#     4  11  23  38  58  98 136 174 213 247 317 402
#     4  11  23  38  61  91 131 165 203 268 322 382
#     4  11  25  42  64  89 119 165 226 273 317 373
#     4  12  20  38  64  90 128 172 212 258 310 392
#     4  10  21  39  66  93 122 163 214 263 320 396
#     4   8  17  33  57  89 121 153 199 241 312 385
#     4  11  23  36  60  93 140 177 200 251 323 402
#
# _framework density 20.073833
#
# number of rings (size 3 to 8) (size 9 to 14) (size 15 to 20)
#    0.000    1.600    4.667    1.200    1.867    4.267 
#    0.000    0.000    1.467    1.600    0.000    0.000 
#    0.000    0.000    0.000    0.000    0.000    0.000 
#
# Total GULP energy -371850.619434 kJ/mol
# GULP energy per Si atom -12395.020648 kJ/mol
# Density = 2.002814 g / cm^3
# Si number density = 20.073833 Si / 1000 Ang^3
#
#
#
# Elastic Constant Matrix: (Units=GPa)
#
#
# Indices 1 2 3 4 5 6 
#
# 1 138.4850 44.1503 36.9894 0.0000 -3.8479 0.0000
# 2 44.1503 116.4974 25.9036 0.0000 1.7801 0.0000
# 3 36.9894 25.9036 89.8782 0.0000 -0.6073 0.0000
# 4 0.0000 0.0000 0.0000 12.5145 0.0000 10.2118
# 5 -3.8479 1.7801 -0.6073 0.0000 30.5467 0.0000
# 6 0.0000 0.0000 0.0000 10.2118 0.0000 13.4450
#
#
#
# Elastic Compliance Matrix: (Units=1/GPa)
#
#
# Indices 1 2 3 4 5 6 
#
# 1 0.008897 -0.002755 -0.002859 0.000000 0.001224 0.000000
# 2 -0.002755 0.010035 -0.001765 0.000000 -0.000967 0.000000
# 3 -0.002859 -0.001765 0.012812 0.000000 -0.000003 0.000000
# 4 0.000000 0.000000 0.000000 0.210154 0.000000 -0.159617
# 5 0.001224 -0.000967 -0.000003 0.000000 0.032947 0.000000
# 6 0.000000 0.000000 0.000000 -0.159617 0.000000 0.195610
#
#
# Mechanical properties :
#
#
# Convention : Reuss Voigt Hill
#
# Bulk Modulus (GPa) = 58.87367 62.10524 60.48945
# Shear Modulus (GPa) = 10.18589 27.15571 18.67080
#
# Velocity S-wave (km/s) = 2.25505 3.68202 3.05307
# Velocity P-wave (km/s) = 6.01436 7.00585 6.52895
#
# Compressibility (1/GPa) = 0.01698552
#
# Stress axis : x y z
#
# Youngs Moduli (GPa) = 112.39772 99.65026 78.05414
#
# Poissons Ratio (x) = 0.27451 0.22318
# Poissons Ratio (y) = 0.30962 0.13777
# Poissons Ratio (z) = 0.32139 0.17589
#
# Static dielectric constant tensor:
#      x y z
#    x 3.817160 0.000000 0.077100 
#    y 0.000000 3.248040 0.000000 
#    z 0.077100 0.000000 3.753080 
# 
# 
# High freq. dielectric constant tensor:
#      x y z
#    x 1.800210 0.000000 0.010650 
#    y 0.000000 1.724120 0.000000 
#    z 0.010650 0.000000 1.798480 
# 
# From -- ./inp_files/51165.got.cif
#   From: 2010.06.25/outbox.cif.g09.slc.cpg/sg13_26_cif.got.tgz:51165.got - 2010.06.28 04:50:58.
