data_PCOD8119521
_publ_section_title
;
Structure prediction by ZEFSAII (Michael W. Deem and Ramdas Pophale) SiO2 
 PCOD8119521
Probable space group: P 2/C
;
_chemical_formula_sum "Si O2"
_cell_formula_units_Z 14
_cell_length_a 19.657821
_cell_length_b 5.135943
_cell_length_c 18.107253
_cell_angle_alpha 90.000000
_cell_angle_beta 155.663732
_cell_angle_gamma 90.000000
_cell_volume 753.358117
_symmetry_space_group_name_H-M "P 2/C"
_symmetry_group_IT_number 13
_symmetry_cell_setting 'monoclinic'
loop_
_space_group_symop_operation_xyz
x,y,z
-x,y,1/2-z
-x,-y,-z
x,-y,1/2+z
loop_
_atom_site_type_symbol
_atom_site_label
_atom_site_fract_x
_atom_site_fract_y
_atom_site_fract_z
Si Si1 0.887268 0.750916 0.884623
Si Si2 0.589555 0.697066 0.696017
Si Si3 0.500000 0.536404 0.250000
Si Si4 0.608917 0.217275 0.996989
O O1 0.764781 0.754671 0.833268
O O2 0.789865 0.761244 0.710866
O O3 0.000000 0.500000 0.000000
O O4 0.000000 0.000000 0.000000
O O5 0.611375 0.645907 0.806150
O O6 0.492390 0.563385 0.420377
O O7 0.466112 0.936162 0.560151
O O8 0.382038 0.719866 0.082233
#
# Coordination Sequence:
#
# PCOD8119521 Si02
#       4
#     4   4   2   4
#     4  12  24  38  60  92 124 152 188 248 304 346
#     4  10  20  39  64  87 110 156 207 238 283 344
#     4   8  22  34  72  76 118 146 224 228 286 330
#     4  10  20  39  64  87 110 156 207 238 283 344
#
# _framework density 18.583459000000001
#
# number of rings (size 3 to 8) (size 9 to 14) (size 15 to 20)
#    1.714    0.000    0.000    6.000    0.000    0.000 
#    0.000    1.429    0.000    0.000    0.000    0.000 
#    0.000    0.000    0.000    0.000    0.000    0.000 
#
# Total GULP energy -173456.907053 kJ/mol
# GULP energy per Si atom -12389.779075 kJ/mol
# Density = 1.854116 g / cm^3
# Si number density = 18.583459 Si / 1000 Ang^3
#
#
#
# Elastic Constant Matrix: (Units=GPa)
#
#
# Indices 1 2 3 4 5 6 
#
# 1 64.4091 14.9056 68.2994 0.0000 -12.2973 0.0000
# 2 14.9056 137.3924 55.1507 0.0000 10.3283 0.0000
# 3 68.2994 55.1507 142.4495 0.0000 -3.6990 0.0000
# 4 0.0000 0.0000 0.0000 37.7025 0.0000 12.4636
# 5 -12.2973 10.3283 -3.6990 0.0000 32.0338 0.0000
# 6 0.0000 0.0000 0.0000 12.4636 0.0000 24.1921
#
#
#
# Elastic Compliance Matrix: (Units=1/GPa)
#
#
# Indices 1 2 3 4 5 6 
#
# 1 0.036142 0.002479 -0.018003 0.000000 0.010996 0.000000
# 2 0.002479 0.009122 -0.004786 0.000000 -0.002542 0.000000
# 3 -0.018003 -0.004786 0.017418 0.000000 -0.003357 0.000000
# 4 0.000000 0.000000 0.000000 0.031968 0.000000 -0.016470
# 5 0.010996 -0.002542 -0.003357 0.000000 0.035870 0.000000
# 6 0.000000 0.000000 0.000000 -0.016470 0.000000 0.049821
#
#
# Mechanical properties :
#
#
# Convention : Reuss Voigt Hill
#
# Bulk Modulus (GPa) = 45.32894 68.99580 57.16237
# Shear Modulus (GPa) = 21.89965 32.51203 27.20584
#
# Velocity S-wave (km/s) = 3.43658 4.18726 3.83035
# Velocity P-wave (km/s) = 6.33970 7.78368 7.09850
#
# Compressibility (1/GPa) = 0.02206096
#
# Stress axis : x y z
#
# Youngs Moduli (GPa) = 27.66879 109.62761 57.41320
#
# Poissons Ratio (x) = -0.27176 1.03360
# Poissons Ratio (y) = -0.06859 0.27479
# Poissons Ratio (z) = 0.49812 0.52469
#
# Static dielectric constant tensor:
#      x y z
#    x 3.393830 0.000000 -0.155590 
#    y 0.000000 3.537800 0.000000 
#    z -0.155590 0.000000 3.283720 
# 
# 
# High freq. dielectric constant tensor:
#      x y z
#    x 1.710220 0.000000 -0.019870 
#    y 0.000000 1.744900 0.000000 
#    z -0.019870 0.000000 1.706070 
# 
# From -- ./inp_files/44911.got.cif
#   From: 2010.06.25/outbox.cif.g09.slc.cpg/sg13_23_cif.got.tgz:44911.got - 2010.06.28 04:50:58.
