data_PCOD8119028
_publ_section_title
;
Structure prediction by ZEFSAII (Michael W. Deem and Ramdas Pophale) SiO2 
 PCOD8119028
Probable space group: P 2/C
;
_chemical_formula_sum "Si O2"
_cell_formula_units_Z 32
_cell_length_a 20.188773
_cell_length_b 10.902928
_cell_length_c 20.084777
_cell_angle_alpha 90.000000
_cell_angle_beta 159.054938
_cell_angle_gamma 90.000000
_cell_volume 1580.384892
_symmetry_space_group_name_H-M "P 2/C"
_symmetry_group_IT_number 13
_symmetry_cell_setting 'monoclinic'
loop_
_space_group_symop_operation_xyz
x,y,z
-x,y,1/2-z
-x,-y,-z
x,-y,1/2+z
loop_
_atom_site_type_symbol
_atom_site_label
_atom_site_fract_x
_atom_site_fract_y
_atom_site_fract_z
Si Si1 0.066556 0.750983 0.114940
Si Si2 0.676214 0.637475 0.571296
Si Si3 0.019409 0.935663 0.173862
Si Si4 0.704824 0.602845 0.751370
Si Si5 0.732361 0.330265 0.821903
Si Si6 0.988068 0.216226 0.161189
Si Si7 0.705141 0.161413 0.466500
Si Si8 0.321421 0.373548 0.960294
O O1 0.180071 0.754721 0.153193
O O2 0.162453 0.668051 0.260798
O O3 0.055968 0.890175 0.132991
O O4 0.861848 0.702406 0.909521
O O5 0.667025 0.585951 0.637674
O O6 0.482487 0.701256 0.372825
O O7 0.707338 0.518684 0.553136
O O8 0.826412 0.741736 0.701722
O O9 0.210842 0.925523 0.396139
O O10 0.951279 0.074632 0.110482
O O11 0.854680 0.847504 0.047394
O O12 0.771288 0.472386 0.842291
O O13 0.522492 0.651934 0.617082
O O14 0.820386 0.296698 0.975411
O O15 0.000000 0.242080 0.250000
O O16 0.500000 0.117685 0.250000
O O17 0.692804 0.300705 0.483120
#
# Coordination Sequence:
#
# PCOD8119028 Si02
#       8
#     4   4   4   4   4   4   4   4
#     4  11  19  36  68  94 118 161 206 260 316 353
#     4  11  22  41  63  94 129 161 198 253 313 385
#     4  10  24  43  63  87 123 163 221 266 294 363
#     4  11  19  38  66  98 129 158 193 256 325 377
#     4  11  22  39  68  93 128 165 201 254 324 374
#     4  12  26  47  59  84 126 176 213 247 307 373
#     4  10  20  41  65  87 117 164 203 258 317 355
#     4  10  20  36  63  96 126 151 204 253 310 378
#
# _framework density 20.248232000000002
#
# number of rings (size 3 to 8) (size 9 to 14) (size 15 to 20)
#    0.000    1.250    5.000    2.625    0.000    2.000 
#   11.250    0.625    0.000    0.000    0.000    0.000 
#    0.000    0.000    0.000    0.000    0.000    0.000 
#
# Total GULP energy -396837.123004 kJ/mol
# GULP energy per Si atom -12401.160094 kJ/mol
# Density = 2.020215 g / cm^3
# Si number density = 20.248232 Si / 1000 Ang^3
#
#
#
# Elastic Constant Matrix: (Units=GPa)
#
#
# Indices 1 2 3 4 5 6 
#
# 1 78.1807 55.0547 31.1403 0.0000 -2.0207 0.0000
# 2 55.0547 83.7880 40.1138 0.0000 -0.2296 0.0000
# 3 31.1403 40.1138 141.9571 0.0000 -2.0035 0.0000
# 4 0.0000 0.0000 0.0000 11.5541 0.0000 -5.0031
# 5 -2.0207 -0.2296 -2.0035 0.0000 28.5498 0.0000
# 6 0.0000 0.0000 0.0000 -5.0031 0.0000 28.2492
#
#
#
# Elastic Compliance Matrix: (Units=1/GPa)
#
#
# Indices 1 2 3 4 5 6 
#
# 1 0.023977 -0.015314 -0.000911 0.000000 0.001510 0.000000
# 2 -0.015314 0.023584 -0.003321 0.000000 -0.001127 0.000000
# 3 -0.000911 -0.003321 0.008189 0.000000 0.000484 0.000000
# 4 0.000000 0.000000 0.000000 0.093738 0.000000 0.016602
# 5 0.001510 -0.001127 0.000484 0.000000 0.035158 0.000000
# 6 0.000000 0.000000 0.000000 0.016602 0.000000 0.038339
#
#
# Mechanical properties :
#
#
# Convention : Reuss Voigt Hill
#
# Bulk Modulus (GPa) = 60.02950 61.83817 60.93383
# Shear Modulus (GPa) = 18.68238 25.51177 22.09707
#
# Velocity S-wave (km/s) = 3.04084 3.55343 3.30708
# Velocity P-wave (km/s) = 6.48383 6.88783 6.68888
#
# Compressibility (1/GPa) = 0.01665848
#
# Stress axis : x y z
#
# Youngs Moduli (GPa) = 41.70632 42.40096 122.10877
#
# Poissons Ratio (x) = 0.64935 0.11123
# Poissons Ratio (y) = 0.63871 0.40551
# Poissons Ratio (z) = 0.03799 0.14081
#
# Static dielectric constant tensor:
#      x y z
#    x 3.714750 0.000000 -0.032140 
#    y 0.000000 3.455890 0.000000 
#    z -0.032140 0.000000 3.855980 
# 
# 
# High freq. dielectric constant tensor:
#      x y z
#    x 1.782910 0.000000 -0.000440 
#    y 0.000000 1.771290 0.000000 
#    z -0.000440 0.000000 1.807760 
# 
# From -- ./inp_files/81819.got.cif
#   From: 2010.06.25/outbox.cif.g09.slc.cpg/sg13_41_cif.got.tgz:81819.got - 2010.06.28 04:50:58.
