data_PCOD8119706
_publ_section_title
;
Structure prediction by ZEFSAII (Michael W. Deem and Ramdas Pophale) SiO2 
 PCOD8119706
Probable space group: P 2/C
;
_chemical_formula_sum "Si O2"
_cell_formula_units_Z 32
_cell_length_a 26.023925
_cell_length_b 11.181899
_cell_length_c 12.458325
_cell_angle_alpha 90.000000
_cell_angle_beta 26.259991
_cell_angle_gamma 90.000000
_cell_volume 1604.011164
_symmetry_space_group_name_H-M "P 2/C"
_symmetry_group_IT_number 13
_symmetry_cell_setting 'monoclinic'
loop_
_space_group_symop_operation_xyz
x,y,z
-x,y,1/2-z
-x,-y,-z
x,-y,1/2+z
loop_
_atom_site_type_symbol
_atom_site_label
_atom_site_fract_x
_atom_site_fract_y
_atom_site_fract_z
Si Si1 0.862439 0.251334 0.741345
Si Si2 0.385803 0.133752 0.733195
Si Si3 0.271456 0.126013 0.166159
Si Si4 0.651451 0.129559 0.249572
Si Si5 0.881562 0.443459 0.529652
Si Si6 0.116510 0.091528 0.990495
Si Si7 0.202670 0.297008 0.983452
Si Si8 0.911400 0.693337 0.578775
O O1 0.851238 0.374512 0.696222
O O2 0.911300 0.147050 0.573752
O O3 0.951785 0.271790 0.673253
O O4 0.736702 0.208999 0.017731
O O5 0.520753 0.148510 0.452517
O O6 0.325712 0.013335 0.799418
O O7 0.370101 0.129501 0.890896
O O8 0.326802 0.250357 0.791810
O O9 0.331004 0.175971 0.161973
O O10 0.158879 0.197606 0.338820
O O11 0.227669 0.992812 0.272562
O O12 0.783599 0.412136 0.622041
O O13 0.887731 0.582628 0.544830
O O14 0.000000 0.399400 0.250000
O O15 0.140591 0.194842 0.031014
O O16 0.000000 0.023250 0.250000
O O17 0.125341 0.335405 0.230322
#
# Coordination Sequence:
#
# PCOD8119706 Si02
#       8
#     4   4   4   4   4   4   4   4
#     4  11  22  39  59  93 125 161 209 258 313 382
#     4  10  22  42  62  87 126 172 207 253 321 371
#     4  11  24  37  59  92 129 161 205 259 316 383
#     4  11  23  38  63  92 126 163 210 264 305 384
#     4  11  23  40  63  91 124 167 214 258 311 379
#     4  11  20  35  57  91 132 165 197 250 330 386
#     4  10  20  41  62  86 125 163 208 261 315 378
#     4  11  24  37  61  93 123 169 206 260 324 375
#
# _framework density 19.949985000000002
#
# number of rings (size 3 to 8) (size 9 to 14) (size 15 to 20)
#    0.000    1.250    5.000    1.500    3.500    0.500 
#    0.000    2.500    0.000    9.750    0.000    0.000 
#    0.000    0.000    0.000    0.000    0.000    0.000 
#
# Total GULP energy -396712.430951 kJ/mol
# GULP energy per Si atom -12397.263467 kJ/mol
# Density = 1.990458 g / cm^3
# Si number density = 19.949985 Si / 1000 Ang^3
#
#
#
# Elastic Constant Matrix: (Units=GPa)
#
#
# Indices 1 2 3 4 5 6 
#
# 1 99.0158 30.4551 29.8767 0.0000 11.3020 0.0000
# 2 30.4551 72.0852 41.6605 0.0000 4.1922 0.0000
# 3 29.8767 41.6605 103.0166 0.0000 2.5711 0.0000
# 4 0.0000 0.0000 0.0000 21.8457 0.0000 4.1102
# 5 11.3020 4.1922 2.5711 0.0000 22.9092 0.0000
# 6 0.0000 0.0000 0.0000 4.1102 0.0000 34.3800
#
#
#
# Elastic Compliance Matrix: (Units=1/GPa)
#
#
# Indices 1 2 3 4 5 6 
#
# 1 0.012461 -0.003846 -0.001928 0.000000 -0.005227 0.000000
# 2 -0.003846 0.019435 -0.006721 0.000000 -0.000905 0.000000
# 3 -0.001928 -0.006721 0.012966 0.000000 0.000726 0.000000
# 4 0.000000 0.000000 0.000000 0.046829 0.000000 -0.005599
# 5 -0.005227 -0.000905 0.000726 0.000000 0.046313 0.000000
# 6 0.000000 0.000000 0.000000 -0.005599 0.000000 0.029756
#
#
# Mechanical properties :
#
#
# Convention : Reuss Voigt Hill
#
# Bulk Modulus (GPa) = 50.32583 53.12246 51.72415
# Shear Modulus (GPa) = 25.07838 27.30201 26.19020
#
# Velocity S-wave (km/s) = 3.54935 3.70337 3.62718
# Velocity P-wave (km/s) = 6.48675 6.70613 6.59736
#
# Compressibility (1/GPa) = 0.01987051
#
# Stress axis : x y z
#
# Youngs Moduli (GPa) = 80.25151 51.45455 77.12272
#
# Poissons Ratio (x) = 0.19791 0.14869
# Poissons Ratio (y) = 0.30867 0.51837
# Poissons Ratio (z) = 0.15472 0.34585
#
# Static dielectric constant tensor:
#      x y z
#    x 3.798760 0.000000 0.172990 
#    y 0.000000 3.428800 0.000000 
#    z 0.172990 0.000000 3.473160 
# 
# 
# High freq. dielectric constant tensor:
#      x y z
#    x 1.792090 0.000000 0.012910 
#    y 0.000000 1.758870 0.000000 
#    z 0.012910 0.000000 1.762440 
# 
# From -- ./inp_files/41845.got.cif
#   From: 2010.06.25/outbox.cif.g09.slc.cpg/sg13_21_cif.got.tgz:41845.got - 2010.06.28 04:50:58.
