data_PCOD8119487
_publ_section_title
;
Structure prediction by ZEFSAII (Michael W. Deem and Ramdas Pophale) SiO2 
 PCOD8119487
Probable space group: P 2/C
;
_chemical_formula_sum "Si O2"
_cell_formula_units_Z 24
_cell_length_a 8.129951
_cell_length_b 20.668393
_cell_length_c 8.812623
_cell_angle_alpha 90.000000
_cell_angle_beta 130.284806
_cell_angle_gamma 90.000000
_cell_volume 1129.622116
_symmetry_space_group_name_H-M "P 2/C"
_symmetry_group_IT_number 13
_symmetry_cell_setting 'monoclinic'
loop_
_space_group_symop_operation_xyz
x,y,z
-x,y,1/2-z
-x,-y,-z
x,-y,1/2+z
loop_
_atom_site_type_symbol
_atom_site_label
_atom_site_fract_x
_atom_site_fract_y
_atom_site_fract_z
Si Si1 0.257347 0.428452 0.895975
Si Si2 0.000000 0.012302 0.250000
Si Si3 0.500000 0.472379 0.750000
Si Si4 0.274312 0.178536 0.190325
Si Si5 0.469499 0.194678 0.888090
Si Si6 0.226517 0.709422 0.458103
Si Si7 0.133966 0.910557 0.098293
O O1 0.349458 0.430770 0.776843
O O2 0.339539 0.360834 0.022725
O O3 0.000000 0.435308 0.750000
O O4 0.345288 0.485784 0.051656
O O5 0.154354 0.057880 0.443909
O O6 0.142601 0.967754 0.225923
O O7 0.500000 0.155029 0.250000
O O8 0.306153 0.175331 0.393000
O O9 0.220531 0.254697 0.118050
O O10 0.086204 0.131641 0.020086
O O11 0.500000 0.234980 0.750000
O O12 0.340967 0.237550 0.926183
O O13 0.340144 0.131994 0.755749
O O14 0.000000 0.695030 0.250000
#
# Coordination Sequence:
#
# PCOD8119487 Si02
#       7
#     4   2   2   4   4   4   4
#     4  10  22  39  64  92 128 168 214 253 308 367
#     4  10  22  36  64  78 114 166 186 244 300 374
#     4  10  22  40  64  92 132 176 202 262 298 368
#     4  10  21  37  62  83 114 158 196 245 308 364
#     4  11  23  37  61  89 119 153 196 260 306 355
#     4  10  20  39  61  89 118 162 201 248 304 367
#     4  11  21  42  56  85 120 148 201 245 306 358
#
# _framework density 21.246043
#
# number of rings (size 3 to 8) (size 9 to 14) (size 15 to 20)
#    0.000    1.667    1.667    3.500    4.667    0.000 
#    0.000   16.667    0.000    4.000    0.000    0.000 
#    0.000    0.000    0.000    0.000    0.000    0.000 
#
# Total GULP energy -297333.800732 kJ/mol
# GULP energy per Si atom -12388.908364 kJ/mol
# Density = 2.119769 g / cm^3
# Si number density = 21.246043 Si / 1000 Ang^3
#
#
#
# Elastic Constant Matrix: (Units=GPa)
#
#
# Indices 1 2 3 4 5 6 
#
# 1 77.2459 30.8481 41.6618 0.0000 -1.7832 0.0000
# 2 30.8481 118.7868 50.2524 0.0000 -0.7363 0.0000
# 3 41.6618 50.2524 131.7317 0.0000 -20.6829 0.0000
# 4 0.0000 0.0000 0.0000 5.7284 0.0000 -32.4108
# 5 -1.7832 -0.7363 -20.6829 0.0000 30.7876 0.0000
# 6 0.0000 0.0000 0.0000 -32.4108 0.0000 -18.4503
#
#
#
# Elastic Compliance Matrix: (Units=1/GPa)
#
#
# Indices 1 2 3 4 5 6 
#
# 1 0.016307 -0.002289 -0.004633 0.000000 -0.002223 0.000000
# 2 -0.002289 0.010550 -0.003669 0.000000 -0.002345 0.000000
# 3 -0.004633 -0.003669 0.011627 0.000000 0.007455 0.000000
# 4 0.000000 0.000000 0.000000 0.015958 0.000000 -0.028033
# 5 -0.002223 -0.002345 0.007455 0.000000 0.037304 0.000000
# 6 0.000000 0.000000 0.000000 -0.028033 0.000000 -0.004955
#
#
# Mechanical properties :
#
#
# Convention : Reuss Voigt Hill
#
# Bulk Modulus (GPa) = 57.79594 63.69877 60.74736
# Shear Modulus (GPa) = 43.95937 17.27994 30.61966
#
# Velocity S-wave (km/s) = 4.55363 2.85498 3.80042
# Velocity P-wave (km/s) = 7.41010 6.39644 6.92185
#
# Compressibility (1/GPa) = 0.01730225
#
# Stress axis : x y z
#
# Youngs Moduli (GPa) = 61.32245 94.78263 86.00898
#
# Poissons Ratio (x) = 0.21691 0.39851
# Poissons Ratio (y) = 0.14034 0.31558
# Poissons Ratio (z) = 0.28413 0.34777
#
# Static dielectric constant tensor:
#      x y z
#    x 4.112250 0.000000 -1.092640 
#    y 0.000000 4.082770 0.000000 
#    z -1.092640 0.000000 7.088270 
# 
# 
# High freq. dielectric constant tensor:
#      x y z
#    x 1.820430 0.000000 -0.009990 
#    y 0.000000 1.830880 0.000000 
#    z -0.009990 0.000000 1.853250 
# 
# From -- ./inp_files/13527.got.cif
#   From: 2010.06.25/outbox.cif.g09.slc.cpg/sg13_7_cif.got.tgz:13527.got - 2010.06.28 04:50:58.
