data_PCOD8119211
_publ_section_title
;
Structure prediction by ZEFSAII (Michael W. Deem and Ramdas Pophale) SiO2 
 PCOD8119211
Probable space group: P 2/C
;
_chemical_formula_sum "Si O2"
_cell_formula_units_Z 22
_cell_length_a 22.161512
_cell_length_b 8.653244
_cell_length_c 14.496153
_cell_angle_alpha 90.000000
_cell_angle_beta 159.426637
_cell_angle_gamma 90.000000
_cell_volume 976.879080
_symmetry_space_group_name_H-M "P 2/C"
_symmetry_group_IT_number 13
_symmetry_cell_setting 'monoclinic'
loop_
_space_group_symop_operation_xyz
x,y,z
-x,y,1/2-z
-x,-y,-z
x,-y,1/2+z
loop_
_atom_site_type_symbol
_atom_site_label
_atom_site_fract_x
_atom_site_fract_y
_atom_site_fract_z
Si Si1 0.000000 0.820957 0.250000
Si Si2 0.930929 0.939851 0.498272
Si Si3 0.127101 0.364305 0.294304
Si Si4 0.695334 0.395135 0.333084
Si Si5 0.787277 0.529634 0.767975
Si Si6 0.400106 0.236736 0.019476
O O1 0.148744 0.717168 0.420132
O O2 0.074109 0.919737 0.439210
O O3 0.053639 0.804259 0.716614
O O4 0.731659 0.888955 0.208313
O O5 0.000000 0.000000 0.500000
O O6 0.269123 0.435885 0.567934
O O7 0.201992 0.342389 0.297356
O O8 0.973903 0.489501 0.075468
O O9 0.670767 0.417754 0.187530
O O10 0.525654 0.305010 0.121590
O O11 0.711790 0.381796 0.605457
O O12 0.500000 0.165469 0.250000
#
# Coordination Sequence:
#
# PCOD8119211 Si02
#       6
#     2   4   4   4   4   4
#     4  12  26  42  70  98 134 190 232 274 360 418
#     4  11  26  45  68 100 143 186 223 277 356 433
#     4  10  21  39  70  96 129 176 234 277 336 413
#     4  12  22  42  71  98 132 176 234 294 335 405
#     4  10  20  37  66 101 123 168 223 286 338 391
#     4  11  23  41  69  99 139 171 228 292 347 397
#
# _framework density 22.520700999999999
#
# number of rings (size 3 to 8) (size 9 to 14) (size 15 to 20)
#    0.000    1.091    3.636    2.727    7.636    0.727 
#    0.000    0.000    8.000    0.000    0.000    0.000 
#    0.000    0.000    0.000    0.000    0.000    0.000 
#
# Total GULP energy -272724.093565 kJ/mol
# GULP energy per Si atom -12396.549708 kJ/mol
# Density = 2.246944 g / cm^3
# Si number density = 22.520701 Si / 1000 Ang^3
#
#
#
# Elastic Constant Matrix: (Units=GPa)
#
#
# Indices 1 2 3 4 5 6 
#
# 1 118.5015 22.0605 29.6379 0.0000 -1.5339 0.0000
# 2 22.0605 88.6868 45.5156 0.0000 -4.3528 0.0000
# 3 29.6379 45.5156 104.5730 0.0000 4.1767 0.0000
# 4 0.0000 0.0000 0.0000 43.8523 0.0000 -4.8965
# 5 -1.5339 -4.3528 4.1767 0.0000 32.1865 0.0000
# 6 0.0000 0.0000 0.0000 -4.8965 0.0000 33.9495
#
#
#
# Elastic Compliance Matrix: (Units=1/GPa)
#
#
# Indices 1 2 3 4 5 6 
#
# 1 0.009194 -0.001173 -0.002117 0.000000 0.000554 0.000000
# 2 -0.001173 0.014924 -0.006274 0.000000 0.002776 0.000000
# 3 -0.002117 -0.006274 0.012999 0.000000 -0.002636 0.000000
# 4 0.000000 0.000000 0.000000 0.023177 0.000000 0.003343
# 5 0.000554 0.002776 -0.002636 0.000000 0.031813 0.000000
# 6 0.000000 0.000000 0.000000 0.003343 0.000000 0.029938
#
#
# Mechanical properties :
#
#
# Convention : Reuss Voigt Hill
#
# Bulk Modulus (GPa) = 55.59375 56.24325 55.91850
# Shear Modulus (GPa) = 33.97472 36.30081 35.13776
#
# Velocity S-wave (km/s) = 3.88828 4.01919 3.95428
# Velocity P-wave (km/s) = 6.70056 6.82398 6.76255
#
# Compressibility (1/GPa) = 0.01798763
#
# Stress axis : x y z
#
# Youngs Moduli (GPa) = 108.76885 67.00801 76.93030
#
# Poissons Ratio (x) = 0.07861 0.16288
# Poissons Ratio (y) = 0.12760 0.48265
# Poissons Ratio (z) = 0.23029 0.42040
#
# Static dielectric constant tensor:
#      x y z
#    x 5.206660 0.000000 -0.160590 
#    y 0.000000 3.952760 0.000000 
#    z -0.160590 0.000000 4.237800 
# 
# 
# High freq. dielectric constant tensor:
#      x y z
#    x 1.898720 0.000000 -0.000120 
#    y 0.000000 1.870100 0.000000 
#    z -0.000120 0.000000 1.883940 
# 
# From -- ./inp_files/58750.got.cif
#   From: 2010.06.25/outbox.cif.g09.slc.cpg/sg13_30_cif.got.tgz:58750.got - 2010.06.28 04:50:58.
