data_PCOD8119239
_publ_section_title
;
Structure prediction by ZEFSAII (Michael W. Deem and Ramdas Pophale) SiO2 
 PCOD8119239
Probable space group: P 2/C
;
_chemical_formula_sum "Si O2"
_cell_formula_units_Z 24
_cell_length_a 21.962570
_cell_length_b 11.347847
_cell_length_c 22.348222
_cell_angle_alpha 90.000000
_cell_angle_beta 12.659884
_cell_angle_gamma 90.000000
_cell_volume 1220.694785
_symmetry_space_group_name_H-M "P 2/C"
_symmetry_group_IT_number 13
_symmetry_cell_setting 'monoclinic'
loop_
_space_group_symop_operation_xyz
x,y,z
-x,y,1/2-z
-x,-y,-z
x,-y,1/2+z
loop_
_atom_site_type_symbol
_atom_site_label
_atom_site_fract_x
_atom_site_fract_y
_atom_site_fract_z
Si Si1 0.000000 0.081372 0.750000
Si Si2 0.391241 0.257125 0.535663
Si Si3 0.216742 0.500231 0.238719
Si Si4 0.263369 0.877043 0.359016
Si Si5 0.500000 0.927381 0.250000
Si Si6 0.846339 0.145386 0.026069
Si Si7 0.715101 0.753222 0.848957
O O1 0.914961 0.158836 0.889516
O O2 0.274010 0.004622 0.504063
O O3 0.227861 0.382861 0.686625
O O4 0.584849 0.240811 0.407917
O O5 0.137119 0.164720 0.782153
O O6 0.601759 0.237856 0.278005
O O7 0.192091 0.380683 0.223166
O O8 0.000000 0.500000 0.500000
O O9 0.500000 0.500000 0.000000
O O10 0.316691 0.851207 0.378627
O O11 0.980480 0.834728 0.601042
O O12 0.271062 0.017664 0.342650
O O13 0.500378 0.803686 0.100913
#
# Coordination Sequence:
#
# PCOD8119239 Si02
#       7
#     2   4   4   4   2   4   4
#     4  10  20  38  58  78 110 154 198 226 264 342
#     4  11  22  36  57  85 117 151 186 233 285 336
#     4  10  20  38  58  78 110 155 198 222 260 338
#     4  11  22  36  57  85 115 147 184 230 283 336
#     4  10  20  38  58  78 110 154 196 224 266 342
#     4  11  22  36  57  85 115 149 187 233 286 337
#     4  11  22  36  57  85 115 148 184 230 282 334
#
# _framework density 19.660934000000001
#
# number of rings (size 3 to 8) (size 9 to 14) (size 15 to 20)
#    0.000    1.333    0.000   10.000    0.000    4.000 
#    0.000    0.000    0.000    4.000    0.000    2.333 
#    0.000    0.000    0.000    0.000    0.000    0.000 
#
# Total GULP energy -297344.944739 kJ/mol
# GULP energy per Si atom -12389.372697 kJ/mol
# Density = 1.961619 g / cm^3
# Si number density = 19.660934 Si / 1000 Ang^3
#
#
#
# Elastic Constant Matrix: (Units=GPa)
#
#
# Indices 1 2 3 4 5 6 
#
# 1 83.0820 58.7340 36.9642 0.0000 10.5750 0.0000
# 2 58.7340 114.9082 56.8350 0.0000 18.0118 0.0000
# 3 36.9642 56.8350 151.6944 0.0000 18.2732 0.0000
# 4 0.0000 0.0000 0.0000 36.8269 0.0000 9.0547
# 5 10.5750 18.0118 18.2732 0.0000 42.5793 0.0000
# 6 0.0000 0.0000 0.0000 9.0547 0.0000 7.7160
#
#
#
# Elastic Compliance Matrix: (Units=1/GPa)
#
#
# Indices 1 2 3 4 5 6 
#
# 1 0.019034 -0.009081 -0.001190 0.000000 -0.000375 0.000000
# 2 -0.009081 0.015379 -0.003203 0.000000 -0.002876 0.000000
# 3 -0.001190 -0.003203 0.008313 0.000000 -0.001917 0.000000
# 4 0.000000 0.000000 0.000000 0.038166 0.000000 -0.044787
# 5 -0.000375 -0.002876 -0.001917 0.000000 0.025618 0.000000
# 6 0.000000 0.000000 0.000000 -0.044787 0.000000 0.182157
#
#
# Mechanical properties :
#
#
# Convention : Reuss Voigt Hill
#
# Bulk Modulus (GPa) = 63.38307 72.75012 68.06660
# Shear Modulus (GPa) = 15.58239 30.56786 23.07512
#
# Velocity S-wave (km/s) = 2.81829 3.94731 3.42958
# Velocity P-wave (km/s) = 6.54969 7.60643 7.09775
#
# Compressibility (1/GPa) = 0.01577708
#
# Stress axis : x y z
#
# Youngs Moduli (GPa) = 52.53887 65.02243 120.29031
#
# Poissons Ratio (x) = 0.59048 0.14320
# Poissons Ratio (y) = 0.47712 0.38527
# Poissons Ratio (z) = 0.06254 0.20826
#
# Static dielectric constant tensor:
#      x y z
#    x 3.520540 0.000000 -0.085210 
#    y 0.000000 2.866430 0.000000 
#    z -0.085210 0.000000 3.836780 
# 
# 
# High freq. dielectric constant tensor:
#      x y z
#    x 1.746390 0.000000 -0.006090 
#    y 0.000000 1.750560 0.000000 
#    z -0.006090 0.000000 1.801170 
# 
# From -- ./inp_files/89036.got.cif
#   From: 2010.06.25/outbox.cif.g09.slc.cpg/sg13_45_cif.got.tgz:89036.got - 2010.06.28 04:50:58.
