data_PCOD8119680
_publ_section_title
;
Structure prediction by ZEFSAII (Michael W. Deem and Ramdas Pophale) SiO2 
 PCOD8119680
Probable space group: P 2/C
;
_chemical_formula_sum "Si O2"
_cell_formula_units_Z 26
_cell_length_a 15.865835
_cell_length_b 8.451892
_cell_length_c 9.216986
_cell_angle_alpha 90.000000
_cell_angle_beta 88.780654
_cell_angle_gamma 90.000000
_cell_volume 1235.684063
_symmetry_space_group_name_H-M "P 2/C"
_symmetry_group_IT_number 13
_symmetry_cell_setting 'monoclinic'
loop_
_space_group_symop_operation_xyz
x,y,z
-x,y,1/2-z
-x,-y,-z
x,-y,1/2+z
loop_
_atom_site_type_symbol
_atom_site_label
_atom_site_fract_x
_atom_site_fract_y
_atom_site_fract_z
Si Si1 0.605805 0.872499 0.485717
Si Si2 0.020284 0.655050 0.586024
Si Si3 0.253506 0.886527 0.449216
Si Si4 0.257593 0.684392 0.169192
Si Si5 0.138001 0.167929 0.460497
Si Si6 0.500000 0.052717 0.250000
Si Si7 0.800067 0.329452 0.322785
O O1 0.659641 0.720096 0.432227
O O2 0.546080 0.834710 0.627726
O O3 0.668476 0.997271 0.555826
O O4 0.558762 0.938454 0.345370
O O5 0.963840 0.807043 0.536514
O O6 0.000000 0.610768 0.750000
O O7 0.000000 0.500000 0.500000
O O8 0.119718 0.686398 0.570491
O O9 0.267416 0.752333 0.329393
O O10 0.260334 0.803103 0.606589
O O11 0.165885 0.986678 0.430388
O O12 0.244647 0.497967 0.174279
O O13 0.174983 0.773212 0.111485
O O14 0.177112 0.287326 0.341143
#
# Coordination Sequence:
#
# PCOD8119680 Si02
#       7
#     4   4   4   4   4   2   4
#     4  10  21  39  66  97 125 165 210 251 309 383
#     4  10  21  37  57  85 123 170 213 256 311 374
#     4  11  23  39  61  96 121 164 216 263 309 382
#     4  11  21  37  61  93 124 165 208 262 311 381
#     4  10  21  38  59  86 125 163 221 262 302 368
#     4  10  20  40  68  96 126 170 206 252 312 386
#     4  11  23  38  62  87 127 167 211 263 328 366
#
# _framework density 21.040977999999999
#
# number of rings (size 3 to 8) (size 9 to 14) (size 15 to 20)
#    0.000    1.538    3.077    2.769    4.308    0.615 
#    0.000    1.538    0.000    5.538    0.000    0.000 
#    0.000    0.000    0.000    0.000    0.000    0.000 
#
# Total GULP energy -322217.466169 kJ/mol
# GULP energy per Si atom -12392.979468 kJ/mol
# Density = 2.099309 g / cm^3
# Si number density = 21.040978 Si / 1000 Ang^3
#
#
#
# Elastic Constant Matrix: (Units=GPa)
#
#
# Indices 1 2 3 4 5 6 
#
# 1 71.9129 33.8386 15.7247 0.0000 2.8426 0.0000
# 2 33.8386 113.6410 15.0052 0.0000 -8.8029 0.0000
# 3 15.7247 15.0052 68.3203 0.0000 5.3027 0.0000
# 4 0.0000 0.0000 0.0000 29.5702 0.0000 3.8326
# 5 2.8426 -8.8029 5.3027 0.0000 30.7215 0.0000
# 6 0.0000 0.0000 0.0000 3.8326 0.0000 20.7619
#
#
#
# Elastic Compliance Matrix: (Units=1/GPa)
#
#
# Indices 1 2 3 4 5 6 
#
# 1 0.016870 -0.004872 -0.002618 0.000000 -0.002505 0.000000
# 2 -0.004872 0.010747 -0.001534 0.000000 0.003795 0.000000
# 3 -0.002618 -0.001534 0.015803 0.000000 -0.002925 0.000000
# 4 0.000000 0.000000 0.000000 0.034647 0.000000 -0.006396
# 5 -0.002505 0.003795 -0.002925 0.000000 0.034374 0.000000
# 6 0.000000 0.000000 0.000000 -0.006396 0.000000 0.049346
#
#
# Mechanical properties :
#
#
# Convention : Reuss Voigt Hill
#
# Bulk Modulus (GPa) = 39.41247 42.55682 40.98464
# Shear Modulus (GPa) = 26.55462 28.83111 27.69286
#
# Velocity S-wave (km/s) = 3.55638 3.70569 3.63180
# Velocity P-wave (km/s) = 5.96957 6.21121 6.09158
#
# Compressibility (1/GPa) = 0.02537268
#
# Stress axis : x y z
#
# Youngs Moduli (GPa) = 59.27835 93.05212 63.27742
#
# Poissons Ratio (x) = 0.45330 0.16569
# Poissons Ratio (y) = 0.28878 0.09704
# Poissons Ratio (z) = 0.15521 0.14270
#
# Static dielectric constant tensor:
#      x y z
#    x 3.788890 0.000000 1.029500 
#    y 0.000000 3.658300 0.000000 
#    z 1.029500 0.000000 1.671290 
# 
# 
# High freq. dielectric constant tensor:
#      x y z
#    x 1.819890 0.000000 0.002250 
#    y 0.000000 1.799990 0.000000 
#    z 0.002250 0.000000 1.841850 
# 
# From -- ./inp_files/21162.got.cif
#   From: 2010.06.25/outbox.cif.g09.slc.cpg/sg13_11_cif.got.tgz:21162.got - 2010.06.28 04:50:58.
