data_PCOD8119321
_publ_section_title
;
Structure prediction by ZEFSAII (Michael W. Deem and Ramdas Pophale) SiO2 
 PCOD8119321
Probable space group: P 2/C
;
_chemical_formula_sum "Si O2"
_cell_formula_units_Z 28
_cell_length_a 12.353943
_cell_length_b 12.731506
_cell_length_c 8.159570
_cell_angle_alpha 90.000000
_cell_angle_beta 72.481099
_cell_angle_gamma 90.000000
_cell_volume 1223.846495
_symmetry_space_group_name_H-M "P 2/C"
_symmetry_group_IT_number 13
_symmetry_cell_setting 'monoclinic'
loop_
_space_group_symop_operation_xyz
x,y,z
-x,y,1/2-z
-x,-y,-z
x,-y,1/2+z
loop_
_atom_site_type_symbol
_atom_site_label
_atom_site_fract_x
_atom_site_fract_y
_atom_site_fract_z
Si Si1 0.624662 0.339434 0.746925
Si Si2 0.627400 0.961428 0.471498
Si Si3 0.618800 0.258054 0.118070
Si Si4 0.839946 0.348060 0.165852
Si Si5 0.038893 0.245909 0.912871
Si Si6 0.738312 0.136717 0.606550
Si Si7 0.168147 0.435267 0.964924
O O1 0.500000 0.369817 0.750000
O O2 0.672597 0.246193 0.609124
O O3 0.702278 0.439076 0.662959
O O4 0.633208 0.310588 0.933566
O O5 0.626492 0.868924 0.607637
O O6 0.680600 0.914911 0.287185
O O7 0.500000 0.000000 0.500000
O O8 0.710939 0.058252 0.471960
O O9 0.500000 0.293129 0.250000
O O10 0.716585 0.300229 0.192306
O O11 0.850055 0.389482 0.345671
O O12 0.931814 0.256476 0.085370
O O13 0.872849 0.444665 0.029489
O O14 0.000000 0.211293 0.750000
O O15 0.126628 0.156954 0.938748
O O16 0.102106 0.358000 0.871091
#
# Coordination Sequence:
#
# PCOD8119321 Si02
#       7
#     4   4   4   4   4   4   4
#     4  10  20  38  61  93 132 168 210 270 330 388
#     4  11  21  39  66  97 131 171 215 265 324 393
#     4  11  23  39  63  96 131 171 217 272 328 395
#     4  12  24  43  65  93 127 168 217 271 331 394
#     4  11  23  44  65  89 126 169 217 272 324 383
#     4  10  22  38  63  95 128 170 217 265 322 387
#     4  11  24  41  67  95 123 169 219 267 325 402
#
# _framework density 22.878685999999998
#
# number of rings (size 3 to 8) (size 9 to 14) (size 15 to 20)
#    0.000    1.143    0.000    9.000    0.000    4.000 
#    0.000    7.143    0.000    1.714    0.000    1.000 
#    0.000    0.000    0.000    0.000    0.000    0.000 
#
# Total GULP energy -347167.047216 kJ/mol
# GULP energy per Si atom -12398.823115 kJ/mol
# Density = 2.282661 g / cm^3
# Si number density = 22.878686 Si / 1000 Ang^3
#
#
#
# Elastic Constant Matrix: (Units=GPa)
#
#
# Indices 1 2 3 4 5 6 
#
# 1 143.8078 32.8418 26.2401 0.0000 -16.9963 0.0000
# 2 32.8418 70.2878 15.2984 0.0000 2.0775 0.0000
# 3 26.2401 15.2984 82.5371 0.0000 -13.1748 0.0000
# 4 0.0000 0.0000 0.0000 32.1766 0.0000 -1.4567
# 5 -16.9963 2.0775 -13.1748 0.0000 40.2179 0.0000
# 6 0.0000 0.0000 0.0000 -1.4567 0.0000 37.7870
#
#
#
# Elastic Compliance Matrix: (Units=1/GPa)
#
#
# Indices 1 2 3 4 5 6 
#
# 1 0.008463 -0.003731 -0.001475 0.000000 0.003286 0.000000
# 2 -0.003731 0.016588 -0.002403 0.000000 -0.003221 0.000000
# 3 -0.001475 -0.002403 0.013665 0.000000 0.003977 0.000000
# 4 0.000000 0.000000 0.000000 0.031133 0.000000 0.001200
# 5 0.003286 -0.003221 0.003977 0.000000 0.027723 0.000000
# 6 0.000000 0.000000 0.000000 0.001200 0.000000 0.026510
#
#
# Mechanical properties :
#
#
# Convention : Reuss Voigt Hill
#
# Bulk Modulus (GPa) = 42.55209 49.48815 46.02012
# Shear Modulus (GPa) = 33.98321 36.85315 35.41818
#
# Velocity S-wave (km/s) = 3.85823 4.01784 3.93884
# Velocity P-wave (km/s) = 6.20381 6.57280 6.39097
#
# Compressibility (1/GPa) = 0.02350061
#
# Stress axis : x y z
#
# Youngs Moduli (GPa) = 118.15950 60.28285 73.18078
#
# Poissons Ratio (x) = 0.22489 0.10791
# Poissons Ratio (y) = 0.44080 0.17584
# Poissons Ratio (z) = 0.17423 0.14485
#
# Static dielectric constant tensor:
#      x y z
#    x 4.236280 0.000000 -0.097810 
#    y 0.000000 3.638290 0.000000 
#    z -0.097810 0.000000 4.060900 
# 
# 
# High freq. dielectric constant tensor:
#      x y z
#    x 1.913720 0.000000 -0.006310 
#    y 0.000000 1.892060 0.000000 
#    z -0.006310 0.000000 1.906890 
# 
# From -- ./inp_files/16461.got.cif
#   From: 2010.06.25/outbox.cif.g09.slc.cpg/sg13_9_cif.got.tgz:16461.got - 2010.06.28 04:50:58.
