data_PCOD8119890
_publ_section_title
;
Structure prediction by ZEFSAII (Michael W. Deem and Ramdas Pophale) SiO2 
 PCOD8119890
Probable space group: P 2/C
;
_chemical_formula_sum "Si O2"
_cell_formula_units_Z 14
_cell_length_a 7.507106
_cell_length_b 18.045208
_cell_length_c 5.220232
_cell_angle_alpha 90.000000
_cell_angle_beta 64.831950
_cell_angle_gamma 90.000000
_cell_volume 640.034963
_symmetry_space_group_name_H-M "P 2/C"
_symmetry_group_IT_number 13
_symmetry_cell_setting 'monoclinic'
loop_
_space_group_symop_operation_xyz
x,y,z
-x,y,1/2-z
-x,-y,-z
x,-y,1/2+z
loop_
_atom_site_type_symbol
_atom_site_label
_atom_site_fract_x
_atom_site_fract_y
_atom_site_fract_z
Si Si1 0.628538 0.821398 0.421156
Si Si2 0.000000 0.549826 0.250000
Si Si3 0.369052 0.344519 0.577464
Si Si4 0.782625 0.030102 0.696457
O O1 0.500000 0.828728 0.250000
O O2 0.720319 0.738891 0.371696
O O3 0.794595 0.884728 0.286711
O O4 0.500000 0.836879 0.750000
O O5 0.190771 0.599770 0.164562
O O6 0.000000 0.500000 0.500000
O O7 0.500000 0.359578 0.750000
O O8 0.500000 0.358059 0.250000
O O9 0.674134 0.018976 0.487444
O O10 0.000000 0.000000 0.500000
#
# Coordination Sequence:
#
# PCOD8119890 Si02
#       4
#     4   2   4   4
#     4  10  21  38  60  84 115 159 208 256 309 369
#     4  12  26  42  68 104 132 166 210 254 318 392
#     4  10  23  44  67  94 130 171 213 262 316 375
#     4  10  21  35  52  80 114 151 197 247 306 359
#
# _framework density 21.873805000000001
#
# number of rings (size 3 to 8) (size 9 to 14) (size 15 to 20)
#    0.000    1.714    0.000    3.429    0.000    9.143 
#    0.000    8.571    0.000    0.000    0.000    0.000 
#    0.000    0.000    0.000    0.000    0.000    0.000 
#
# Total GULP energy -173461.980168 kJ/mol
# GULP energy per Si atom -12390.141441 kJ/mol
# Density = 2.182402 g / cm^3
# Si number density = 21.873805 Si / 1000 Ang^3
#
#
#
# Elastic Constant Matrix: (Units=GPa)
#
#
# Indices 1 2 3 4 5 6 
#
# 1 101.5560 85.8057 79.3867 0.0000 16.6345 0.0000
# 2 85.8057 215.5123 106.9410 0.0000 -10.4773 0.0000
# 3 79.3867 106.9410 185.5951 0.0000 45.1988 0.0000
# 4 0.0000 0.0000 0.0000 57.8028 0.0000 -3.8876
# 5 16.6345 -10.4773 45.1988 0.0000 41.4447 0.0000
# 6 0.0000 0.0000 0.0000 -3.8876 0.0000 40.7830
#
#
#
# Elastic Compliance Matrix: (Units=1/GPa)
#
#
# Indices 1 2 3 4 5 6 
#
# 1 0.018169 -0.006078 -0.002885 0.000000 -0.005682 0.000000
# 2 -0.006078 0.011119 -0.006924 0.000000 0.012802 0.000000
# 3 -0.002885 -0.006924 0.014646 0.000000 -0.016565 0.000000
# 4 0.000000 0.000000 0.000000 0.017412 0.000000 0.001660
# 5 -0.005682 0.012802 -0.016565 0.000000 0.047711 0.000000
# 6 0.000000 0.000000 0.000000 0.001660 0.000000 0.024678
#
#
# Mechanical properties :
#
#
# Convention : Reuss Voigt Hill
#
# Bulk Modulus (GPa) = 82.25324 116.32557 99.28941
# Shear Modulus (GPa) = 29.48754 43.37476 36.43115
#
# Velocity S-wave (km/s) = 3.67560 4.45787 4.08550
# Velocity P-wave (km/s) = 7.46314 8.93267 8.23077
#
# Compressibility (1/GPa) = 0.01215758
#
# Stress axis : x y z
#
# Youngs Moduli (GPa) = 55.04019 89.94017 68.27652
#
# Poissons Ratio (x) = 0.54668 0.19700
# Poissons Ratio (y) = 0.33455 0.47277
# Poissons Ratio (z) = 0.15881 0.62278
#
# Static dielectric constant tensor:
#      x y z
#    x 3.332830 0.000000 -0.144440 
#    y 0.000000 6.342760 0.000000 
#    z -0.144440 0.000000 3.605370 
# 
# 
# High freq. dielectric constant tensor:
#      x y z
#    x 1.857450 0.000000 0.029110 
#    y 0.000000 1.872420 0.000000 
#    z 0.029110 0.000000 1.885700 
# 
# From -- ./inp_files/1072.got.cif
#   From: 2010.06.25/outbox.cif.g09.slc.cpg/sg13_1_cif.got.tgz:1072.got - 2010.06.28 04:50:58.
