data_PCOD8119932
_publ_section_title
;
Structure prediction by ZEFSAII (Michael W. Deem and Ramdas Pophale) SiO2 
 PCOD8119932
Probable space group: P 2/C
;
_chemical_formula_sum "Si O2"
_cell_formula_units_Z 20
_cell_length_a 21.312638
_cell_length_b 6.567519
_cell_length_c 10.074981
_cell_angle_alpha 90.000000
_cell_angle_beta 36.242443
_cell_angle_gamma 90.000000
_cell_volume 833.718839
_symmetry_space_group_name_H-M "P 2/C"
_symmetry_group_IT_number 13
_symmetry_cell_setting 'monoclinic'
loop_
_space_group_symop_operation_xyz
x,y,z
-x,y,1/2-z
-x,-y,-z
x,-y,1/2+z
loop_
_atom_site_type_symbol
_atom_site_label
_atom_site_fract_x
_atom_site_fract_y
_atom_site_fract_z
Si Si1 0.767597 0.556110 0.868194
Si Si2 0.101785 0.860344 0.984897
Si Si3 0.097167 0.811540 0.310607
Si Si4 0.722274 0.061761 0.615340
Si Si5 0.624414 0.191510 0.049900
O O1 0.808365 0.686188 0.671208
O O2 0.862113 0.417171 0.764609
O O3 0.734402 0.709490 0.042179
O O4 0.670251 0.419922 0.983207
O O5 0.000000 0.818693 0.250000
O O6 0.030519 0.821529 0.968391
O O7 0.145924 0.085552 0.863801
O O8 0.160618 0.936661 0.072643
O O9 0.650891 0.931834 0.637692
O O10 0.667323 0.064637 0.850968
O O11 0.500000 0.216007 0.250000
#
# Coordination Sequence:
#
# PCOD8119932 Si02
#       5
#     4   4   4   4   4
#     4  10  23  39  62  98 127 172 220 274 323 394
#     4  10  21  35  61  91 127 173 214 264 325 395
#     4   9  21  39  57  89 133 167 217 265 326 391
#     4  10  24  42  69  95 134 174 221 277 334 398
#     4  11  25  45  70  98 133 176 224 281 338 392
#
# _framework density 23.988902
#
# number of rings (size 3 to 8) (size 9 to 14) (size 15 to 20)
#    0.000    2.000    0.000    1.200   11.200    4.000 
#    0.000    0.000    0.000    0.000    0.000    0.000 
#    0.000    0.000    0.000    0.000    0.000    0.000 
#
# Total GULP energy -247806.394034 kJ/mol
# GULP energy per Si atom -12390.319702 kJ/mol
# Density = 2.393430 g / cm^3
# Si number density = 23.988902 Si / 1000 Ang^3
#
#
#
# Elastic Constant Matrix: (Units=GPa)
#
#
# Indices 1 2 3 4 5 6 
#
# 1 87.9331 46.6437 47.3738 0.0000 -10.1073 0.0000
# 2 46.6437 150.1824 38.7414 0.0000 -7.7220 0.0000
# 3 47.3738 38.7414 110.5724 0.0000 1.5680 0.0000
# 4 0.0000 0.0000 0.0000 27.2398 0.0000 -1.9223
# 5 -10.1073 -7.7220 1.5680 0.0000 46.8047 0.0000
# 6 0.0000 0.0000 0.0000 -1.9223 0.0000 33.8355
#
#
#
# Elastic Compliance Matrix: (Units=1/GPa)
#
#
# Indices 1 2 3 4 5 6 
#
# 1 0.016865 -0.003512 -0.006042 0.000000 0.003265 0.000000
# 2 -0.003512 0.008131 -0.001353 0.000000 0.000628 0.000000
# 3 -0.006042 -0.001353 0.012134 0.000000 -0.001934 0.000000
# 4 0.000000 0.000000 0.000000 0.036859 0.000000 0.002094
# 5 0.003265 0.000628 -0.001934 0.000000 0.022239 0.000000
# 6 0.000000 0.000000 0.000000 0.002094 0.000000 0.029674
#
#
# Mechanical properties :
#
#
# Convention : Reuss Voigt Hill
#
# Bulk Modulus (GPa) = 65.28753 68.24507 66.76630
# Shear Modulus (GPa) = 32.71834 35.97128 34.34481
#
# Velocity S-wave (km/s) = 3.69710 3.87653 3.78788
# Velocity P-wave (km/s) = 6.74534 6.96757 6.85735
#
# Compressibility (1/GPa) = 0.01531686
#
# Stress axis : x y z
#
# Youngs Moduli (GPa) = 59.29355 122.99257 82.41377
#
# Poissons Ratio (x) = 0.43190 0.49792
# Poissons Ratio (y) = 0.20822 0.11152
# Poissons Ratio (z) = 0.35823 0.16642
#
# Static dielectric constant tensor:
#      x y z
#    x 9.801420 0.000000 0.163400 
#    y 0.000000 4.398810 0.000000 
#    z 0.163400 0.000000 4.387400 
# 
# 
# High freq. dielectric constant tensor:
#      x y z
#    x 1.981280 0.000000 0.008350 
#    y 0.000000 1.957880 0.000000 
#    z 0.008350 0.000000 1.953480 
# 
# From -- ./inp_files/35481.got.cif
#   From: 2010.06.25/outbox.cif.g09.slc.cpg/sg13_18_cif.got.tgz:35481.got - 2010.06.28 04:50:58.
