data_PCOD8119828
_publ_section_title
;
Structure prediction by ZEFSAII (Michael W. Deem and Ramdas Pophale) SiO2 
 PCOD8119828
Probable space group: P 2/C
;
_chemical_formula_sum "Si O2"
_cell_formula_units_Z 16
_cell_length_a 7.460010
_cell_length_b 6.821838
_cell_length_c 19.071533
_cell_angle_alpha 90.000000
_cell_angle_beta 124.667859
_cell_angle_gamma 90.000000
_cell_volume 798.257341
_symmetry_space_group_name_H-M "P 2/C"
_symmetry_group_IT_number 13
_symmetry_cell_setting 'monoclinic'
loop_
_space_group_symop_operation_xyz
x,y,z
-x,y,1/2-z
-x,-y,-z
x,-y,1/2+z
loop_
_atom_site_type_symbol
_atom_site_label
_atom_site_fract_x
_atom_site_fract_y
_atom_site_fract_z
Si Si1 0.000000 0.725492 0.250000
Si Si2 0.369057 0.800500 0.974326
Si Si3 0.500000 0.678710 0.750000
Si Si4 0.934922 0.101452 0.310953
Si Si5 0.444021 0.520605 0.378749
O O1 0.805546 0.588501 0.181396
O O2 0.923354 0.865006 0.297851
O O3 0.461665 0.666305 0.932862
O O4 0.112937 0.842631 0.908873
O O5 0.407880 0.696830 0.057891
O O6 0.500000 0.000000 0.000000
O O7 0.295093 0.819138 0.715173
O O8 0.460068 0.537669 0.675117
O O9 0.000000 0.198026 0.250000
#
# Coordination Sequence:
#
# PCOD8119828 Si02
#       5
#     2   4   2   4   4
#     4  10  20  44  68  98 132 196 210 278 342 410
#     4  11  21  44  67  99 135 184 218 282 342 398
#     4  12  24  42  68 110 128 182 234 280 330 412
#     4  10  21  42  70  90 143 177 219 274 348 393
#     4  11  23  38  73  97 135 176 235 270 339 404
#
# _framework density 20.043662999999999
#
# number of rings (size 3 to 8) (size 9 to 14) (size 15 to 20)
#    0.750    0.500    5.000    1.500    0.000    2.000 
#    0.000    1.250    0.000    0.000    0.000    0.000 
#    0.000    0.000    0.000    0.000    0.000    0.000 
#
# Total GULP energy -198400.403952 kJ/mol
# GULP energy per Si atom -12400.025247 kJ/mol
# Density = 1.999804 g / cm^3
# Si number density = 20.043663 Si / 1000 Ang^3
#
#
#
# Elastic Constant Matrix: (Units=GPa)
#
#
# Indices 1 2 3 4 5 6 
#
# 1 125.6452 54.7579 58.8745 0.0000 9.4584 0.0000
# 2 54.7579 131.9381 53.9166 0.0000 1.6134 0.0000
# 3 58.8745 53.9166 123.2541 0.0000 16.6539 0.0000
# 4 0.0000 0.0000 0.0000 39.2008 0.0000 6.1099
# 5 9.4584 1.6134 16.6539 0.0000 42.0188 0.0000
# 6 0.0000 0.0000 0.0000 6.1099 0.0000 32.5183
#
#
#
# Elastic Compliance Matrix: (Units=1/GPa)
#
#
# Indices 1 2 3 4 5 6 
#
# 1 0.011170 -0.003035 -0.003892 0.000000 -0.000855 0.000000
# 2 -0.003035 0.010123 -0.003189 0.000000 0.001558 0.000000
# 3 -0.003892 -0.003189 0.011868 0.000000 -0.003705 0.000000
# 4 0.000000 0.000000 0.000000 0.026279 0.000000 -0.004938
# 5 -0.000855 0.001558 -0.003705 0.000000 0.025400 0.000000
# 6 0.000000 0.000000 0.000000 -0.004938 0.000000 0.031680
#
#
# Mechanical properties :
#
#
# Convention : Reuss Voigt Hill
#
# Bulk Modulus (GPa) = 77.34857 79.54839 78.44848
# Shear Modulus (GPa) = 35.44533 36.96679 36.20606
#
# Velocity S-wave (km/s) = 4.20980 4.29921 4.25474
# Velocity P-wave (km/s) = 7.89327 8.02608 7.95995
#
# Compressibility (1/GPa) = 0.01292849
#
# Stress axis : x y z
#
# Youngs Moduli (GPa) = 89.52772 98.78487 84.25757
#
# Poissons Ratio (x) = 0.29978 0.32796
# Poissons Ratio (y) = 0.27169 0.26872
# Poissons Ratio (z) = 0.34848 0.31505
#
# Static dielectric constant tensor:
#      x y z
#    x 3.266020 0.000000 0.137570 
#    y 0.000000 3.793400 0.000000 
#    z 0.137570 0.000000 4.290790 
# 
# 
# High freq. dielectric constant tensor:
#      x y z
#    x 1.745880 0.000000 0.014130 
#    y 0.000000 1.800650 0.000000 
#    z 0.014130 0.000000 1.797820 
# 
# From -- ./inp_files/74727.got.cif
#   From: 2010.06.25/outbox.cif.g09.slc.cpg/sg13_38_cif.got.tgz:74727.got - 2010.06.28 04:50:58.
