data_PCOD8119581
_publ_section_title
;
Structure prediction by ZEFSAII (Michael W. Deem and Ramdas Pophale) SiO2 
 PCOD8119581
Probable space group: P 2/C
;
_chemical_formula_sum "Si O2"
_cell_formula_units_Z 28
_cell_length_a 28.037588
_cell_length_b 9.046585
_cell_length_c 9.723128
_cell_angle_alpha 90.000000
_cell_angle_beta 38.183555
_cell_angle_gamma 90.000000
_cell_volume 1524.573083
_symmetry_space_group_name_H-M "P 2/C"
_symmetry_group_IT_number 13
_symmetry_cell_setting 'monoclinic'
loop_
_space_group_symop_operation_xyz
x,y,z
-x,y,1/2-z
-x,-y,-z
x,-y,1/2+z
loop_
_atom_site_type_symbol
_atom_site_label
_atom_site_fract_x
_atom_site_fract_y
_atom_site_fract_z
Si Si1 0.960042 0.686569 0.973026
Si Si2 0.200975 0.854875 0.750352
Si Si3 0.338195 0.653656 0.444250
Si Si4 0.810029 0.145199 0.904043
Si Si5 0.672212 0.638267 0.714699
Si Si6 0.495381 0.637562 0.414576
Si Si7 0.061077 0.646550 0.001965
O O1 0.000000 0.763464 0.750000
O O2 0.030015 0.673029 0.920366
O O3 0.892063 0.781039 0.191129
O O4 0.924902 0.528120 0.008129
O O5 0.283935 0.788261 0.524806
O O6 0.140237 0.730709 0.845084
O O7 0.191124 0.999367 0.683190
O O8 0.195453 0.895964 0.923408
O O9 0.319543 0.601096 0.642266
O O10 0.323067 0.514485 0.379356
O O11 0.424951 0.725734 0.235355
O O12 0.740126 0.251569 0.014761
O O13 0.588048 0.717379 0.875256
O O14 0.500000 0.575885 0.250000
O O15 0.500000 0.500000 0.500000
O O16 0.000000 0.708302 0.250000
#
# Coordination Sequence:
#
# PCOD8119581 Si02
#       7
#     4   4   4   4   4   4   4
#     4  10  22  38  62  84 104 134 177 223 272 319
#     4  11  24  38  54  76 112 147 181 219 261 316
#     4   9  18  34  56  83 109 139 177 221 268 315
#     4  11  24  39  52  78 111 146 182 217 264 317
#     4   9  18  34  57  82 109 138 178 222 266 317
#     4   8  14  28  53  81 107 135 170 218 268 312
#     4  10  20  40  60  81 107 135 175 223 269 318
#
# _framework density 18.365797000000001
#
# number of rings (size 3 to 8) (size 9 to 14) (size 15 to 20)
#    0.000    2.286    1.429    0.857    2.000    2.286 
#    0.000    0.714    0.000    0.000    0.000    0.000 
#    0.000    0.000    0.000    0.000    0.000    0.000 
#
# Total GULP energy -346963.890927 kJ/mol
# GULP energy per Si atom -12391.567533 kJ/mol
# Density = 1.832400 g / cm^3
# Si number density = 18.365797 Si / 1000 Ang^3
#
#
#
# Elastic Constant Matrix: (Units=GPa)
#
#
# Indices 1 2 3 4 5 6 
#
# 1 82.7660 30.6900 30.8824 0.0000 -8.7694 0.0000
# 2 30.6900 58.4802 23.8876 0.0000 -4.4436 0.0000
# 3 30.8824 23.8876 81.9007 0.0000 -9.3671 0.0000
# 4 0.0000 0.0000 0.0000 15.3963 0.0000 6.0343
# 5 -8.7694 -4.4436 -9.3671 0.0000 33.1116 0.0000
# 6 0.0000 0.0000 0.0000 6.0343 0.0000 15.3600
#
#
#
# Elastic Compliance Matrix: (Units=1/GPa)
#
#
# Indices 1 2 3 4 5 6 
#
# 1 0.016298 -0.006784 -0.003904 0.000000 0.002302 0.000000
# 2 -0.006784 0.022271 -0.003928 0.000000 0.000081 0.000000
# 3 -0.003904 -0.003928 0.015139 0.000000 0.002722 0.000000
# 4 0.000000 0.000000 0.000000 0.076771 0.000000 -0.030160
# 5 0.002302 0.000081 0.002722 0.000000 0.031591 0.000000
# 6 0.000000 0.000000 0.000000 -0.030160 0.000000 0.076953
#
#
# Mechanical properties :
#
#
# Convention : Reuss Voigt Hill
#
# Bulk Modulus (GPa) = 40.85620 43.78521 42.32070
# Shear Modulus (GPa) = 18.08882 21.95270 20.02076
#
# Velocity S-wave (km/s) = 3.14175 3.46107 3.30526
# Velocity P-wave (km/s) = 5.95440 6.31382 6.13674
#
# Compressibility (1/GPa) = 0.02447609
#
# Stress axis : x y z
#
# Youngs Moduli (GPa) = 61.35666 44.90219 66.05475
#
# Poissons Ratio (x) = 0.30460 0.25786
# Poissons Ratio (y) = 0.41622 0.25949
# Poissons Ratio (z) = 0.23952 0.17639
#
# Static dielectric constant tensor:
#      x y z
#    x 3.759250 0.000000 -0.261470 
#    y 0.000000 3.166800 0.000000 
#    z -0.261470 0.000000 3.845850 
# 
# 
# High freq. dielectric constant tensor:
#      x y z
#    x 1.732120 0.000000 -0.005480 
#    y 0.000000 1.670700 0.000000 
#    z -0.005480 0.000000 1.730550 
# 
# From -- ./inp_files/24527.got.cif
#   From: 2010.06.25/outbox.cif.g09.slc.cpg/sg13_13_cif.got.tgz:24527.got - 2010.06.28 04:50:58.
