data_PCOD8119653
_publ_section_title
;
Structure prediction by ZEFSAII (Michael W. Deem and Ramdas Pophale) SiO2 
 PCOD8119653
Probable space group: P 2/C
;
_chemical_formula_sum "Si O2"
_cell_formula_units_Z 22
_cell_length_a 6.932651
_cell_length_b 10.667532
_cell_length_c 14.716776
_cell_angle_alpha 90.000000
_cell_angle_beta 87.001717
_cell_angle_gamma 90.000000
_cell_volume 1086.878655
_symmetry_space_group_name_H-M "P 2/C"
_symmetry_group_IT_number 13
_symmetry_cell_setting 'monoclinic'
loop_
_space_group_symop_operation_xyz
x,y,z
-x,y,1/2-z
-x,-y,-z
x,-y,1/2+z
loop_
_atom_site_type_symbol
_atom_site_label
_atom_site_fract_x
_atom_site_fract_y
_atom_site_fract_z
Si Si1 0.675770 0.362572 0.953229
Si Si2 0.494906 0.843026 0.580152
Si Si3 0.500000 0.311576 0.250000
Si Si4 0.668227 0.512686 0.127011
Si Si5 0.946124 0.735013 0.151417
Si Si6 0.795928 0.040801 0.541464
O O1 0.548393 0.429384 0.877724
O O2 0.860633 0.293569 0.908796
O O3 0.539847 0.260730 0.003674
O O4 0.741211 0.464908 0.026676
O O5 0.414851 0.777764 0.673466
O O6 0.323330 0.927599 0.546306
O O7 0.684415 0.928273 0.596426
O O8 0.663876 0.398694 0.199601
O O9 0.818768 0.610774 0.162772
O O10 0.818344 0.841993 0.107814
O O11 0.000000 0.782716 0.250000
O O12 0.000000 0.000000 0.500000
#
# Coordination Sequence:
#
# PCOD8119653 Si02
#       6
#     4   4   2   4   4   4
#     4  10  20  40  66  88 124 169 201 247 314 372
#     4  10  22  43  66  89 122 167 208 253 310 368
#     4  10  22  42  66  94 122 162 204 260 306 368
#     4  10  21  40  62  93 129 159 204 249 313 372
#     4  12  24  38  61  96 124 163 209 258 304 366
#     4  11  23  43  65  88 124 168 210 252 311 368
#
# _framework density 20.241451000000001
#
# number of rings (size 3 to 8) (size 9 to 14) (size 15 to 20)
#    0.000    1.455    3.636    1.636    0.000    1.455 
#    3.273    1.818    0.000    0.000    0.000    0.000 
#    0.000    0.000    0.000    0.000    0.000    0.000 
#
# Total GULP energy -272849.246747 kJ/mol
# GULP energy per Si atom -12402.238489 kJ/mol
# Density = 2.019538 g / cm^3
# Si number density = 20.241451 Si / 1000 Ang^3
#
#
#
# Elastic Constant Matrix: (Units=GPa)
#
#
# Indices 1 2 3 4 5 6 
#
# 1 89.3217 34.0980 41.6978 0.0000 2.0485 0.0000
# 2 34.0980 96.0917 37.1206 0.0000 2.7537 0.0000
# 3 41.6978 37.1206 101.1365 0.0000 1.8873 0.0000
# 4 0.0000 0.0000 0.0000 26.6701 0.0000 -7.5673
# 5 2.0485 2.7537 1.8873 0.0000 19.0888 0.0000
# 6 0.0000 0.0000 0.0000 -7.5673 0.0000 23.9146
#
#
#
# Elastic Compliance Matrix: (Units=1/GPa)
#
#
# Indices 1 2 3 4 5 6 
#
# 1 0.014746 -0.003345 -0.004840 0.000000 -0.000621 0.000000
# 2 -0.003345 0.012918 -0.003340 0.000000 -0.001174 0.000000
# 3 -0.004840 -0.003340 0.013115 0.000000 -0.000295 0.000000
# 4 0.000000 0.000000 0.000000 0.041194 0.000000 0.013035
# 5 -0.000621 -0.001174 -0.000295 0.000000 0.052652 0.000000
# 6 0.000000 0.000000 0.000000 0.013035 0.000000 0.045940
#
#
# Mechanical properties :
#
#
# Convention : Reuss Voigt Hill
#
# Bulk Modulus (GPa) = 56.40971 56.93142 56.67057
# Shear Modulus (GPa) = 23.86349 25.51027 24.68688
#
# Velocity S-wave (km/s) = 3.43730 3.55392 3.49609
# Velocity P-wave (km/s) = 6.60926 6.71027 6.65995
#
# Compressibility (1/GPa) = 0.01772744
#
# Stress axis : x y z
#
# Youngs Moduli (GPa) = 67.81346 77.41331 76.24977
#
# Poissons Ratio (x) = 0.25895 0.36908
# Poissons Ratio (y) = 0.22684 0.25469
# Poissons Ratio (z) = 0.32825 0.25858
#
# Static dielectric constant tensor:
#      x y z
#    x 3.504330 0.000000 0.085290 
#    y 0.000000 3.976560 0.000000 
#    z 0.085290 0.000000 3.663970 
# 
# 
# High freq. dielectric constant tensor:
#      x y z
#    x 1.777080 0.000000 0.003200 
#    y 0.000000 1.807840 0.000000 
#    z 0.003200 0.000000 1.786620 
# 
# From -- ./inp_files/43618.got.cif
#   From: 2010.06.25/outbox.cif.g09.slc.cpg/sg13_22_cif.got.tgz:43618.got - 2010.06.28 04:50:58.
