data_PCOD8119636
_publ_section_title
;
Structure prediction by ZEFSAII (Michael W. Deem and Ramdas Pophale) SiO2 
 PCOD8119636
Probable space group: P 2/C
;
_chemical_formula_sum "Si O2"
_cell_formula_units_Z 30
_cell_length_a 23.649150
_cell_length_b 10.834676
_cell_length_c 30.160701
_cell_angle_alpha 90.000000
_cell_angle_beta 168.978652
_cell_angle_gamma 90.000000
_cell_volume 1477.417980
_symmetry_space_group_name_H-M "P 2/C"
_symmetry_group_IT_number 13
_symmetry_cell_setting 'monoclinic'
loop_
_space_group_symop_operation_xyz
x,y,z
-x,y,1/2-z
-x,-y,-z
x,-y,1/2+z
loop_
_atom_site_type_symbol
_atom_site_label
_atom_site_fract_x
_atom_site_fract_y
_atom_site_fract_z
Si Si1 0.244818 0.169771 0.384346
Si Si2 0.845425 0.228991 0.517122
Si Si3 0.000000 0.383249 0.250000
Si Si4 0.809581 0.505246 0.014689
Si Si5 0.851323 0.741139 0.510702
Si Si6 0.192959 0.894098 0.357830
Si Si7 0.876156 0.863106 0.352349
Si Si8 0.139086 0.144758 0.148416
O O1 0.543915 0.178881 0.586499
O O2 0.234990 0.288259 0.409068
O O3 0.979010 0.163672 0.144711
O O4 0.244174 0.038398 0.409520
O O5 0.956423 0.360443 0.622397
O O6 0.001612 0.122427 0.666051
O O7 0.926644 0.216869 0.528471
O O8 0.500000 0.208390 0.250000
O O9 0.820267 0.467708 0.075693
O O10 0.981517 0.395448 0.121887
O O11 0.500000 0.515840 0.750000
O O12 0.978439 0.766305 0.559932
O O13 0.500000 0.744586 0.250000
O O14 0.513549 0.830226 0.595670
O O15 0.000000 0.835467 0.250000
O O16 0.957098 0.828441 0.464403
O O17 0.914218 0.008524 0.373517
#
# Coordination Sequence:
#
# PCOD8119636 Si02
#       8
#     4   4   2   4   4   4   4   4
#     4  10  21  36  62  90 122 150 207 250 317 369
#     4  11  23  41  61  85 128 165 208 255 311 374
#     4  10  20  40  64  92 116 166 204 268 314 364
#     4   9  22  40  63  88 123 165 220 259 305 366
#     4  10  21  37  61  88 119 159 207 256 308 362
#     4  11  22  37  61  90 124 160 202 252 313 381
#     4  10  22  38  58  88 127 159 196 259 311 377
#     4  10  22  38  59  91 126 160 204 252 316 372
#
# _framework density 20.305695
#
# number of rings (size 3 to 8) (size 9 to 14) (size 15 to 20)
#    0.000    1.867    0.667    2.400    6.533    5.333 
#    0.000    6.667    0.000    0.000    0.000    0.000 
#    0.000    0.000    0.000    0.000    0.000    0.000 
#
# Total GULP energy -371664.628443 kJ/mol
# GULP energy per Si atom -12388.820948 kJ/mol
# Density = 2.025948 g / cm^3
# Si number density = 20.305695 Si / 1000 Ang^3
#
#
#
# Elastic Constant Matrix: (Units=GPa)
#
#
# Indices 1 2 3 4 5 6 
#
# 1 126.3119 51.3558 44.0632 0.0000 13.9752 0.0000
# 2 51.3558 79.4730 29.9069 0.0000 0.7044 0.0000
# 3 44.0632 29.9069 107.3424 0.0000 8.1445 0.0000
# 4 0.0000 0.0000 0.0000 15.1534 0.0000 -2.9569
# 5 13.9752 0.7044 8.1445 0.0000 40.4840 0.0000
# 6 0.0000 0.0000 0.0000 -2.9569 0.0000 22.4593
#
#
#
# Elastic Compliance Matrix: (Units=1/GPa)
#
#
# Indices 1 2 3 4 5 6 
#
# 1 0.011984 -0.006659 -0.002802 0.000000 -0.003458 0.000000
# 2 -0.006659 0.017769 -0.002405 0.000000 0.002473 0.000000
# 3 -0.002802 -0.002405 0.011231 0.000000 -0.001250 0.000000
# 4 0.000000 0.000000 0.000000 0.067732 0.000000 0.008917
# 5 -0.003458 0.002473 -0.001250 0.000000 0.026103 0.000000
# 6 0.000000 0.000000 0.000000 0.008917 0.000000 0.045699
#
#
# Mechanical properties :
#
#
# Convention : Reuss Voigt Hill
#
# Bulk Modulus (GPa) = 57.96182 62.64215 60.30199
# Shear Modulus (GPa) = 23.80935 28.13942 25.97439
#
# Velocity S-wave (km/s) = 3.42796 3.72666 3.58043
# Velocity P-wave (km/s) = 6.65391 7.03092 6.84501
#
# Compressibility (1/GPa) = 0.01725274
#
# Stress axis : x y z
#
# Youngs Moduli (GPa) = 83.44176 56.27700 89.03948
#
# Poissons Ratio (x) = 0.37477 0.24947
# Poissons Ratio (y) = 0.55567 0.21412
# Poissons Ratio (z) = 0.23379 0.13533
#
# Static dielectric constant tensor:
#      x y z
#    x 3.689760 0.000000 -0.075570 
#    y 0.000000 3.866520 0.000000 
#    z -0.075570 0.000000 3.750880 
# 
# 
# High freq. dielectric constant tensor:
#      x y z
#    x 1.797600 0.000000 -0.009100 
#    y 0.000000 1.782410 0.000000 
#    z -0.009100 0.000000 1.794290 
# 
# From -- ./inp_files/97745.got.cif
#   From: 2010.06.25/outbox.cif.g09.slc.cpg/sg13_49_cif.got.tgz:97745.got - 2010.06.28 04:50:58.
