data_PCOD8119817
_publ_section_title
;
Structure prediction by ZEFSAII (Michael W. Deem and Ramdas Pophale) SiO2 
 PCOD8119817
Probable space group: P 2/C
;
_chemical_formula_sum "Si O2"
_cell_formula_units_Z 30
_cell_length_a 13.453956
_cell_length_b 8.566499
_cell_length_c 12.224970
_cell_angle_alpha 90.000000
_cell_angle_beta 71.877683
_cell_angle_gamma 90.000000
_cell_volume 1339.075784
_symmetry_space_group_name_H-M "P 2/C"
_symmetry_group_IT_number 13
_symmetry_cell_setting 'monoclinic'
loop_
_space_group_symop_operation_xyz
x,y,z
-x,y,1/2-z
-x,-y,-z
x,-y,1/2+z
loop_
_atom_site_type_symbol
_atom_site_label
_atom_site_fract_x
_atom_site_fract_y
_atom_site_fract_z
Si Si1 0.308140 0.668043 0.869119
Si Si2 0.176938 0.545795 0.557564
Si Si3 0.659397 0.078981 0.461258
Si Si4 0.323736 0.429302 0.689833
Si Si5 0.823144 0.109050 0.225430
Si Si6 0.769763 0.817818 0.124756
Si Si7 0.000000 0.670808 0.750000
Si Si8 0.543876 0.235596 0.001427
O O1 0.356238 0.528546 0.782709
O O2 0.265623 0.809406 0.814827
O O3 0.209741 0.607205 0.977498
O O4 0.409894 0.724292 0.897251
O O5 0.251498 0.541670 0.638872
O O6 0.181732 0.700631 0.481433
O O7 0.059385 0.552971 0.646302
O O8 0.771204 0.081621 0.362112
O O9 0.679119 0.092328 0.585808
O O10 0.581892 0.221452 0.452475
O O11 0.599586 0.923658 0.444384
O O12 0.267047 0.274395 0.754987
O O13 0.427592 0.375464 0.591351
O O14 0.924811 0.215936 0.205664
O O15 0.848711 0.947868 0.150451
#
# Coordination Sequence:
#
# PCOD8119817 Si02
#       8
#     4   4   4   4   4   4   2   4
#     4  10  21  42  68  96 134 176 222 273 337 404
#     4  10  23  43  66  96 133 172 225 277 333 405
#     4  11  22  42  64 103 139 170 226 281 323 404
#     4  10  20  43  67  99 136 180 221 270 337 402
#     4  12  24  43  68  97 136 174 227 286 331 397
#     4  11  22  42  70  94 138 179 216 281 334 390
#     4  12  24  44  72  94 130 178 220 292 342 392
#     4  10  22  39  68  99 137 181 219 269 338 398
#
# _framework density 22.403511999999999
#
# number of rings (size 3 to 8) (size 9 to 14) (size 15 to 20)
#    0.000    1.333    5.333    0.000    0.000    2.133 
#    0.000   15.333    0.000    0.000    0.000    0.000 
#    0.000    0.000    0.000    0.000    0.000    0.000 
#
# Total GULP energy -371715.313517 kJ/mol
# GULP energy per Si atom -12390.510451 kJ/mol
# Density = 2.235252 g / cm^3
# Si number density = 22.403512 Si / 1000 Ang^3
#
#
#
# Elastic Constant Matrix: (Units=GPa)
#
#
# Indices 1 2 3 4 5 6 
#
# 1 71.6504 13.6878 28.5560 0.0000 -0.0771 0.0000
# 2 13.6878 52.9216 18.4746 0.0000 3.6982 0.0000
# 3 28.5560 18.4746 90.1570 0.0000 5.6445 0.0000
# 4 0.0000 0.0000 0.0000 33.9118 0.0000 3.4194
# 5 -0.0771 3.6982 5.6445 0.0000 30.4128 0.0000
# 6 0.0000 0.0000 0.0000 3.4194 0.0000 40.8959
#
#
#
# Elastic Compliance Matrix: (Units=1/GPa)
#
#
# Indices 1 2 3 4 5 6 
#
# 1 0.016344 -0.002671 -0.004707 0.000000 0.001240 0.000000
# 2 -0.002671 0.020878 -0.003311 0.000000 -0.001931 0.000000
# 3 -0.004707 -0.003311 0.013392 0.000000 -0.002095 0.000000
# 4 0.000000 0.000000 0.000000 0.029739 0.000000 -0.002487
# 5 0.001240 -0.001931 -0.002095 0.000000 0.033508 0.000000
# 6 0.000000 0.000000 0.000000 -0.002487 0.000000 0.024660
#
#
# Mechanical properties :
#
#
# Convention : Reuss Voigt Hill
#
# Bulk Modulus (GPa) = 34.20477 37.35178 35.77827
# Shear Modulus (GPa) = 29.47337 31.31146 30.39241
#
# Velocity S-wave (km/s) = 3.63101 3.74252 3.68719
# Velocity P-wave (km/s) = 5.73409 5.94843 5.84224
#
# Compressibility (1/GPa) = 0.02923569
#
# Stress axis : x y z
#
# Youngs Moduli (GPa) = 61.18373 47.89839 74.66926
#
# Poissons Ratio (x) = 0.12792 0.35148
# Poissons Ratio (y) = 0.16341 0.24726
# Poissons Ratio (z) = 0.28800 0.15861
#
# Static dielectric constant tensor:
#      x y z
#    x 3.696050 0.000000 0.156550 
#    y 0.000000 4.328910 0.000000 
#    z 0.156550 0.000000 4.253940 
# 
# 
# High freq. dielectric constant tensor:
#      x y z
#    x 1.847320 0.000000 0.015580 
#    y 0.000000 1.899100 0.000000 
#    z 0.015580 0.000000 1.893330 
# 
# From -- ./inp_files/36426.got.cif
#   From: 2010.06.25/outbox.cif.g09.slc.cpg/sg13_19_cif.got.tgz:36426.got - 2010.06.28 04:50:58.
