data_PCOD8119050
_publ_section_title
;
Structure prediction by ZEFSAII (Michael W. Deem and Ramdas Pophale) SiO2 
 PCOD8119050
Probable space group: P 2/C
;
_chemical_formula_sum "Si O2"
_cell_formula_units_Z 30
_cell_length_a 23.354889
_cell_length_b 11.002881
_cell_length_c 28.891669
_cell_angle_alpha 90.000000
_cell_angle_beta 169.190024
_cell_angle_gamma 90.000000
_cell_volume 1392.449153
_symmetry_space_group_name_H-M "P 2/C"
_symmetry_group_IT_number 13
_symmetry_cell_setting 'monoclinic'
loop_
_space_group_symop_operation_xyz
x,y,z
-x,y,1/2-z
-x,-y,-z
x,-y,1/2+z
loop_
_atom_site_type_symbol
_atom_site_label
_atom_site_fract_x
_atom_site_fract_y
_atom_site_fract_z
Si Si1 0.000000 0.348033 0.750000
Si Si2 0.312920 0.915611 0.973287
Si Si3 0.839042 0.491453 0.539442
Si Si4 0.743784 0.840252 0.904506
Si Si5 0.818649 0.272857 0.211023
Si Si6 0.320234 0.696713 0.384023
Si Si7 0.509584 0.814887 0.895939
Si Si8 0.692824 0.873581 0.359363
O O1 0.204444 0.437269 0.943761
O O2 0.831686 0.254681 0.649650
O O3 0.527183 0.844758 0.179604
O O4 0.464950 0.040768 0.076140
O O5 0.271458 0.826431 0.898221
O O6 0.000000 0.952835 0.750000
O O7 0.961957 0.628645 0.638789
O O8 0.106576 0.419641 0.724529
O O9 0.500000 0.484620 0.250000
O O10 0.500000 0.791901 0.750000
O O11 0.669989 0.786230 0.794444
O O12 0.740992 0.983732 0.901281
O O13 0.086865 0.807180 0.189726
O O14 0.994417 0.201089 0.391414
O O15 0.514795 0.332009 0.992099
O O16 0.582287 0.744366 0.629451
O O17 0.500000 0.827098 0.250000
#
# Coordination Sequence:
#
# PCOD8119050 Si02
#       8
#     2   4   4   4   4   4   4   4
#     4  10  20  38  64  94 114 150 208 268 306 352
#     4  11  22  37  65  97 128 163 208 257 309 372
#     4  11  25  43  67  89 117 162 222 266 301 361
#     4  10  20  36  65  95 124 161 211 260 304 367
#     4  12  26  41  60  91 133 170 202 255 320 377
#     4  11  24  42  62  90 129 169 207 256 319 370
#     4  10  20  37  64  95 127 157 203 257 310 366
#     4  10  21  37  60  92 125 161 207 254 308 367
#
# _framework density 21.544771999999998
#
# number of rings (size 3 to 8) (size 9 to 14) (size 15 to 20)
#    0.000    1.333    2.000    4.400    2.800    3.200 
#    0.000    2.667    0.000    6.400    0.000    0.000 
#    0.000    0.000    0.000    0.000    0.000    0.000 
#
# Total GULP energy -371657.460215 kJ/mol
# GULP energy per Si atom -12388.582007 kJ/mol
# Density = 2.149574 g / cm^3
# Si number density = 21.544772 Si / 1000 Ang^3
#
#
#
# Elastic Constant Matrix: (Units=GPa)
#
#
# Indices 1 2 3 4 5 6 
#
# 1 70.3839 41.4132 36.0864 0.0000 -10.5630 0.0000
# 2 41.4132 72.2291 28.3083 0.0000 -12.1340 0.0000
# 3 36.0864 28.3083 82.0476 0.0000 -16.4037 0.0000
# 4 0.0000 0.0000 0.0000 11.6731 0.0000 -15.7969
# 5 -10.5630 -12.1340 -16.4037 0.0000 36.2597 0.0000
# 6 0.0000 0.0000 0.0000 -15.7969 0.0000 11.0123
#
#
#
# Elastic Compliance Matrix: (Units=1/GPa)
#
#
# Indices 1 2 3 4 5 6 
#
# 1 0.024343 -0.011260 -0.006769 0.000000 0.000261 0.000000
# 2 -0.011260 0.021551 -0.001866 0.000000 0.003088 0.000000
# 3 -0.006769 -0.001866 0.016810 0.000000 0.005009 0.000000
# 4 0.000000 0.000000 0.000000 -0.091015 0.000000 -0.130559
# 5 0.000261 0.003088 0.005009 0.000000 0.030954 0.000000
# 6 0.000000 0.000000 0.000000 -0.130559 0.000000 -0.096476
#
#
# Mechanical properties :
#
#
# Convention : Reuss Voigt Hill
#
# Bulk Modulus (GPa) = 43.64238 48.47515 46.05876
# Shear Modulus (GPa) = -107.75116 19.71252 -44.01932
#
# Velocity S-wave (km/s) = -7.07964 3.02811 -4.52503
# Velocity P-wave (km/s) = 6.82113 5.89699 2.42418
#
# Compressibility (1/GPa) = 0.02291351
#
# Stress axis : x y z
#
# Youngs Moduli (GPa) = 41.07912 46.40149 59.48669
#
# Poissons Ratio (x) = 0.52250 0.40269
# Poissons Ratio (y) = 0.46257 0.11098
# Poissons Ratio (z) = 0.27808 0.08657
#
# Static dielectric constant tensor:
#      x y z
#    x 4.368590 0.000000 -0.190910 
#    y 0.000000 3.814380 0.000000 
#    z -0.190910 0.000000 3.889330 
# 
# 
# High freq. dielectric constant tensor:
#      x y z
#    x 1.849750 0.000000 -0.017950 
#    y 0.000000 1.844800 0.000000 
#    z -0.017950 0.000000 1.833690 
# 
# From -- ./inp_files/97746.got.cif
#   From: 2010.06.25/outbox.cif.g09.slc.cpg/sg13_49_cif.got.tgz:97746.got - 2010.06.28 04:50:58.
