data_PCOD8119618
_publ_section_title
;
Structure prediction by ZEFSAII (Michael W. Deem and Ramdas Pophale) SiO2 
 PCOD8119618
Probable space group: P 2/C
;
_chemical_formula_sum "Si O2"
_cell_formula_units_Z 20
_cell_length_a 5.243574
_cell_length_b 7.492149
_cell_length_c 21.591385
_cell_angle_alpha 90.000000
_cell_angle_beta 79.640039
_cell_angle_gamma 90.000000
_cell_volume 834.402935
_symmetry_space_group_name_H-M "P 2/C"
_symmetry_group_IT_number 13
_symmetry_cell_setting 'monoclinic'
loop_
_space_group_symop_operation_xyz
x,y,z
-x,y,1/2-z
-x,-y,-z
x,-y,1/2+z
loop_
_atom_site_type_symbol
_atom_site_label
_atom_site_fract_x
_atom_site_fract_y
_atom_site_fract_z
Si Si1 0.269666 0.978076 0.212071
Si Si2 0.557627 0.155910 0.583439
Si Si3 0.375480 0.224721 0.461386
Si Si4 0.205507 0.494337 0.881993
Si Si5 0.726148 0.345964 0.347142
O O1 0.500000 0.947819 0.250000
O O2 0.221388 0.188646 0.203656
O O3 0.000000 0.896932 0.250000
O O4 0.346998 0.879229 0.145739
O O5 0.397682 0.247781 0.534193
O O6 0.785134 0.289764 0.595624
O O7 0.705690 0.977661 0.553995
O O8 0.172287 0.368081 0.441958
O O9 0.656643 0.260567 0.417482
O O10 0.479686 0.536305 0.835408
O O11 0.975516 0.526074 0.843190
#
# Coordination Sequence:
#
# PCOD8119618 Si02
#       5
#     4   4   4   4   4
#     4  11  24  44  65  91 127 177 225 274 328 391
#     4  10  20  41  67  99 133 166 219 270 315 401
#     4   8  20  40  63 102 132 175 200 263 341 385
#     4  10  20  40  63 101 129 165 209 266 328 388
#     4   9  21  40  64  92 127 167 213 259 330 389
#
# _framework density 23.969235999999999
#
# number of rings (size 3 to 8) (size 9 to 14) (size 15 to 20)
#    1.200    1.200    0.000    1.800    0.000    2.400 
#    7.200    7.000    0.000    0.000    0.000    0.000 
#    0.000    0.000    0.000    0.000    0.000    0.000 
#
# Total GULP energy -247857.207439 kJ/mol
# GULP energy per Si atom -12392.860372 kJ/mol
# Density = 2.391468 g / cm^3
# Si number density = 23.969236 Si / 1000 Ang^3
#
#
#
# Elastic Constant Matrix: (Units=GPa)
#
#
# Indices 1 2 3 4 5 6 
#
# 1 143.6791 14.2873 22.6567 0.0000 2.6365 0.0000
# 2 14.2873 77.6733 -21.2119 0.0000 -6.5856 0.0000
# 3 22.6567 -21.2119 79.3949 0.0000 -15.3298 0.0000
# 4 0.0000 0.0000 0.0000 19.6029 0.0000 4.0473
# 5 2.6365 -6.5856 -15.3298 0.0000 8.3676 0.0000
# 6 0.0000 0.0000 0.0000 4.0473 0.0000 16.1178
#
#
#
# Elastic Compliance Matrix: (Units=1/GPa)
#
#
# Indices 1 2 3 4 5 6 
#
# 1 0.009509 -0.006386 -0.009235 0.000000 -0.024942 0.000000
# 2 -0.006386 0.023932 0.018942 0.000000 0.055548 0.000000
# 3 -0.009235 0.018942 0.036721 0.000000 0.085092 0.000000
# 4 0.000000 0.000000 0.000000 0.053802 0.000000 -0.013510
# 5 -0.024942 0.055548 0.085092 0.000000 0.326975 0.000000
# 6 0.000000 0.000000 0.000000 -0.013510 0.000000 0.065436
#
#
# Mechanical properties :
#
#
# Convention : Reuss Voigt Hill
#
# Bulk Modulus (GPa) = 13.02053 36.91241 24.96647
# Shear Modulus (GPa) = 9.33994 27.81866 18.57930
#
# Velocity S-wave (km/s) = 1.97613 3.41045 2.78714
# Velocity P-wave (km/s) = 3.26355 5.56252 4.56028
#
# Compressibility (1/GPa) = 0.07680182
#
# Stress axis : x y z
#
# Youngs Moduli (GPa) = 105.16372 41.78592 27.23230
#
# Poissons Ratio (x) = 0.26684 0.25150
# Poissons Ratio (y) = 0.67157 -0.51582
# Poissons Ratio (z) = 0.97124 -0.79149
#
# Static dielectric constant tensor:
#      x y z
#    x 3.784080 0.000000 -0.000300 
#    y 0.000000 4.258320 0.000000 
#    z -0.000300 0.000000 4.072250 
# 
# 
# High freq. dielectric constant tensor:
#      x y z
#    x 1.926090 0.000000 -0.000500 
#    y 0.000000 1.951120 0.000000 
#    z -0.000500 0.000000 1.932280 
# 
# From -- ./inp_files/72797.got.cif
#   From: 2010.06.25/outbox.cif.g09.slc.cpg/sg13_37_cif.got.tgz:72797.got - 2010.06.28 04:50:58.
