data_PCOD8119371
_publ_section_title
;
Structure prediction by ZEFSAII (Michael W. Deem and Ramdas Pophale) SiO2 
 PCOD8119371
Probable space group: P 2/C
;
_chemical_formula_sum "Si O2"
_cell_formula_units_Z 20
_cell_length_a 12.652046
_cell_length_b 4.973082
_cell_length_c 29.068935
_cell_angle_alpha 90.000000
_cell_angle_beta 151.511267
_cell_angle_gamma 90.000000
_cell_volume 872.410887
_symmetry_space_group_name_H-M "P 2/C"
_symmetry_group_IT_number 13
_symmetry_cell_setting 'monoclinic'
loop_
_space_group_symop_operation_xyz
x,y,z
-x,y,1/2-z
-x,-y,-z
x,-y,1/2+z
loop_
_atom_site_type_symbol
_atom_site_label
_atom_site_fract_x
_atom_site_fract_y
_atom_site_fract_z
Si Si1 0.816665 0.230800 0.467035
Si Si2 0.249671 0.524209 0.653594
Si Si3 0.854460 0.239644 0.737874
Si Si4 0.949632 0.740559 0.832247
Si Si5 0.647740 0.723468 0.453159
O O1 0.787817 0.258380 0.401288
O O2 0.652028 0.435159 0.430007
O O3 0.072118 0.283910 0.579584
O O4 0.750549 0.930866 0.455665
O O5 0.500000 0.407598 0.750000
O O6 0.212438 0.675185 0.687509
O O7 0.908513 0.541854 0.773940
O O8 0.599095 0.207711 0.625854
O O9 0.000000 0.156921 0.750000
O O10 0.903737 0.044297 0.799320
O O11 0.206276 0.719225 0.944950
#
# Coordination Sequence:
#
# PCOD8119371 Si02
#       5
#     4   4   4   4   4
#     4  10  23  38  62  96 129 169 201 246 314 368
#     4  10  20  38  63  93 130 167 208 249 300 377
#     4  12  26  44  67  93 122 164 217 268 318 368
#     4  11  25  42  65  95 125 167 211 255 320 374
#     4  11  23  44  65  92 134 163 205 264 308 375
#
# _framework density 22.924975
#
# number of rings (size 3 to 8) (size 9 to 14) (size 15 to 20)
#    0.000    1.200    0.000    6.600    0.000   10.400 
#    0.000   12.000    0.000    0.000    0.000    0.000 
#    0.000    0.000    0.000    0.000    0.000    0.000 
#
# Total GULP energy -248139.189921 kJ/mol
# GULP energy per Si atom -12406.959496 kJ/mol
# Density = 2.287280 g / cm^3
# Si number density = 22.924975 Si / 1000 Ang^3
#
#
#
# Elastic Constant Matrix: (Units=GPa)
#
#
# Indices 1 2 3 4 5 6 
#
# 1 107.3253 4.2070 73.1090 0.0000 25.5887 0.0000
# 2 4.2070 62.3770 14.5466 0.0000 1.3431 0.0000
# 3 73.1090 14.5466 137.7616 0.0000 22.9842 0.0000
# 4 0.0000 0.0000 0.0000 24.8199 0.0000 -7.2273
# 5 25.5887 1.3431 22.9842 0.0000 32.3753 0.0000
# 6 0.0000 0.0000 0.0000 -7.2273 0.0000 17.7769
#
#
#
# Elastic Compliance Matrix: (Units=1/GPa)
#
#
# Indices 1 2 3 4 5 6 
#
# 1 0.016104 0.000796 -0.007375 0.000000 -0.007526 0.000000
# 2 0.000796 0.016487 -0.002205 0.000000 0.000253 0.000000
# 3 -0.007375 -0.002205 0.011817 0.000000 -0.002469 0.000000
# 4 0.000000 0.000000 0.000000 0.045700 0.000000 0.018580
# 5 -0.007526 0.000253 -0.002469 0.000000 0.038579 0.000000
# 6 0.000000 0.000000 0.000000 0.018580 0.000000 0.063806
#
#
# Mechanical properties :
#
#
# Convention : Reuss Voigt Hill
#
# Bulk Modulus (GPa) = 37.25827 54.57656 45.91741
# Shear Modulus (GPa) = 22.83010 29.36786 26.09898
#
# Velocity S-wave (km/s) = 3.15915 3.58305 3.37776
# Velocity P-wave (km/s) = 5.44008 6.40124 5.94014
#
# Compressibility (1/GPa) = 0.02683968
#
# Stress axis : x y z
#
# Youngs Moduli (GPa) = 62.09547 60.65486 84.62033
#
# Poissons Ratio (x) = -0.04826 0.62406
# Poissons Ratio (y) = -0.04941 0.18661
# Poissons Ratio (z) = 0.45794 0.13376
#
# Static dielectric constant tensor:
#      x y z
#    x 3.884410 0.000000 0.059060 
#    y 0.000000 3.942440 0.000000 
#    z 0.059060 0.000000 4.356370 
# 
# 
# High freq. dielectric constant tensor:
#      x y z
#    x 1.893350 0.000000 0.002360 
#    y 0.000000 1.903790 0.000000 
#    z 0.002360 0.000000 1.919580 
# 
# From -- ./inp_files/48709.got.cif
#   From: 2010.06.25/outbox.cif.g09.slc.cpg/sg13_25_cif.got.tgz:48709.got - 2010.06.28 04:50:58.
