data_PCOD8119720
_publ_section_title
;
Structure prediction by ZEFSAII (Michael W. Deem and Ramdas Pophale) SiO2 
 PCOD8119720
Probable space group: P 2/C
;
_chemical_formula_sum "Si O2"
_cell_formula_units_Z 28
_cell_length_a 21.625151
_cell_length_b 8.863439
_cell_length_c 14.486712
_cell_angle_alpha 90.000000
_cell_angle_beta 150.002534
_cell_angle_gamma 90.000000
_cell_volume 1388.250919
_symmetry_space_group_name_H-M "P 2/C"
_symmetry_group_IT_number 13
_symmetry_cell_setting 'monoclinic'
loop_
_space_group_symop_operation_xyz
x,y,z
-x,y,1/2-z
-x,-y,-z
x,-y,1/2+z
loop_
_atom_site_type_symbol
_atom_site_label
_atom_site_fract_x
_atom_site_fract_y
_atom_site_fract_z
Si Si1 0.888440 0.086086 0.900690
Si Si2 0.500000 0.722156 0.750000
Si Si3 0.014342 0.415186 0.422758
Si Si4 0.500000 0.224689 0.750000
Si Si5 0.143032 0.910946 0.946577
Si Si6 0.535724 0.516193 0.153289
Si Si7 0.698288 0.965598 0.002069
Si Si8 0.810174 0.418395 0.009882
O O1 0.764877 0.082939 0.681579
O O2 0.846365 0.004787 0.941395
O O3 0.939911 0.249820 0.992111
O O4 0.000000 0.000000 0.000000
O O5 0.533588 0.617713 0.881260
O O6 0.387711 0.827085 0.636862
O O7 0.882248 0.422681 0.200677
O O8 0.000000 0.500000 0.500000
O O9 0.113143 0.486996 0.478130
O O10 0.501459 0.325500 0.845590
O O11 0.377662 0.121042 0.586534
O O12 0.222086 0.756887 0.050820
O O13 0.000000 0.863241 0.750000
O O14 0.194048 0.021962 0.934900
O O15 0.682888 0.490816 0.354477
O O16 0.500000 0.500000 0.000000
#
# Coordination Sequence:
#
# PCOD8119720 Si02
#       8
#     4   2   4   2   4   4   4   4
#     4  11  22  38  65  98 123 164 212 259 326 399
#     4  10  28  44  60  98 130 170 222 280 314 372
#     4  10  22  38  65  93 126 167 205 262 338 386
#     4  10  24  44  70  88 126 186 218 262 334 392
#     4  11  19  40  65  93 128 167 204 261 327 398
#     4  11  25  44  66  92 127 175 230 267 320 382
#     4  11  23  43  66  95 134 167 215 274 329 390
#     4  10  20  41  64  90 126 168 216 260 319 398
#
# _framework density 20.169263999999998
#
# number of rings (size 3 to 8) (size 9 to 14) (size 15 to 20)
#    0.000    1.429    5.714    0.000    6.000    2.286 
#    2.571    2.857    0.000    0.000    0.000    0.000 
#    0.000    0.000    0.000    0.000    0.000    0.000 
#
# Total GULP energy -347028.696586 kJ/mol
# GULP energy per Si atom -12393.882021 kJ/mol
# Density = 2.012336 g / cm^3
# Si number density = 20.169264 Si / 1000 Ang^3
#
#
#
# Elastic Constant Matrix: (Units=GPa)
#
#
# Indices 1 2 3 4 5 6 
#
# 1 150.0922 50.4171 51.4950 0.0000 -24.3363 0.0000
# 2 50.4171 84.1013 36.4202 0.0000 -6.5856 0.0000
# 3 51.4950 36.4202 105.1514 0.0000 -13.3593 0.0000
# 4 0.0000 0.0000 0.0000 24.0486 0.0000 -1.6872
# 5 -24.3363 -6.5856 -13.3593 0.0000 44.1255 0.0000
# 6 0.0000 0.0000 0.0000 -1.6872 0.0000 31.5488
#
#
#
# Elastic Compliance Matrix: (Units=1/GPa)
#
#
# Indices 1 2 3 4 5 6 
#
# 1 0.009682 -0.004307 -0.002759 0.000000 0.003862 0.000000
# 2 -0.004307 0.015922 -0.003542 0.000000 -0.001071 0.000000
# 3 -0.002759 -0.003542 0.012301 0.000000 0.001674 0.000000
# 4 0.000000 0.000000 0.000000 0.041739 0.000000 0.002232
# 5 0.003862 -0.001071 0.001674 0.000000 0.025139 0.000000
# 6 0.000000 0.000000 0.000000 0.002232 0.000000 0.031816
#
#
# Mechanical properties :
#
#
# Convention : Reuss Voigt Hill
#
# Bulk Modulus (GPa) = 59.91853 68.44551 64.18202
# Shear Modulus (GPa) = 30.60379 33.34542 31.97461
#
# Velocity S-wave (km/s) = 3.89954 4.07046 3.98592
# Velocity P-wave (km/s) = 7.07443 7.49005 7.28520
#
# Compressibility (1/GPa) = 0.01668933
#
# Stress axis : x y z
#
# Youngs Moduli (GPa) = 103.28325 62.80529 81.29632
#
# Poissons Ratio (x) = 0.27050 0.22431
# Poissons Ratio (y) = 0.44484 0.28793
# Poissons Ratio (z) = 0.28497 0.22244
#
# Static dielectric constant tensor:
#      x y z
#    x 4.521840 0.000000 -0.448330 
#    y 0.000000 6.658950 0.000000 
#    z -0.448330 0.000000 4.068080 
# 
# 
# High freq. dielectric constant tensor:
#      x y z
#    x 1.810080 0.000000 -0.000170 
#    y 0.000000 1.768350 0.000000 
#    z -0.000170 0.000000 1.784140 
# 
# From -- ./inp_files/57558.got.cif
#   From: 2010.06.25/outbox.cif.g09.slc.cpg/sg13_29_cif.got.tgz:57558.got - 2010.06.28 04:50:58.
