data_PCOD8119024
_publ_section_title
;
Structure prediction by ZEFSAII (Michael W. Deem and Ramdas Pophale) SiO2 
 PCOD8119024
Probable space group: P 2/C
;
_chemical_formula_sum "Si O2"
_cell_formula_units_Z 32
_cell_length_a 14.309468
_cell_length_b 13.517361
_cell_length_c 18.041357
_cell_angle_alpha 90.000000
_cell_angle_beta 152.379029
_cell_angle_gamma 90.000000
_cell_volume 1617.882979
_symmetry_space_group_name_H-M "P 2/C"
_symmetry_group_IT_number 13
_symmetry_cell_setting 'monoclinic'
loop_
_space_group_symop_operation_xyz
x,y,z
-x,y,1/2-z
-x,-y,-z
x,-y,1/2+z
loop_
_atom_site_type_symbol
_atom_site_label
_atom_site_fract_x
_atom_site_fract_y
_atom_site_fract_z
Si Si1 0.546729 0.051803 0.200064
Si Si2 0.880658 0.217454 0.451987
Si Si3 0.687023 0.327376 0.436759
Si Si4 0.694424 0.861817 0.222707
Si Si5 0.051612 0.396418 0.500856
Si Si6 0.523664 0.684622 0.179510
Si Si7 0.829731 0.543467 0.571239
Si Si8 0.764493 0.170890 0.599879
O O1 0.500000 0.011287 0.250000
O O2 0.695139 0.146015 0.304280
O O3 0.637743 0.971050 0.208867
O O4 0.332103 0.084458 0.017380
O O5 0.869454 0.266220 0.526323
O O6 0.087040 0.157631 0.588558
O O7 0.884069 0.312125 0.398976
O O8 0.500000 0.310686 0.250000
O O9 0.726597 0.442837 0.471757
O O10 0.669482 0.276821 0.505686
O O11 0.524805 0.787996 0.136382
O O12 0.701222 0.849471 0.139516
O O13 0.265057 0.368803 0.687631
O O14 0.059963 0.403407 0.418733
O O15 0.000000 0.500000 0.500000
O O16 0.500000 0.704644 0.250000
O O17 0.344609 0.616193 0.021188
O O18 0.000000 0.519206 0.750000
O O19 0.000000 0.165596 0.750000
#
# Coordination Sequence:
#
# PCOD8119024 Si02
#       8
#     4   4   4   4   4   4   4   4
#     4  12  23  42  64  93 123 168 217 257 319 381
#     4  11  21  39  66  93 120 162 215 260 307 377
#     4  12  21  40  66  89 122 166 207 254 313 377
#     4  11  24  40  65  91 128 161 212 269 318 368
#     4  10  20  36  63  89 123 162 211 252 310 377
#     4   9  21  42  59  85 123 170 208 251 307 378
#     4  11  24  39  61  94 129 167 208 256 316 372
#     4  12  23  40  61  94 128 159 204 270 322 368
#
# _framework density 19.778932000000001
#
# number of rings (size 3 to 8) (size 9 to 14) (size 15 to 20)
#    0.000    1.000    5.000    2.625    0.000    1.000 
#    0.000    1.875    0.000    0.000    0.000    0.000 
#    0.000    0.000    0.000    0.000    0.000    0.000 
#
# Total GULP energy -396757.373775 kJ/mol
# GULP energy per Si atom -12398.667930 kJ/mol
# Density = 1.973391 g / cm^3
# Si number density = 19.778932 Si / 1000 Ang^3
#
#
#
# Elastic Constant Matrix: (Units=GPa)
#
#
# Indices 1 2 3 4 5 6 
#
# 1 101.7089 59.7457 36.7797 0.0000 -5.2349 0.0000
# 2 59.7457 125.5242 44.6432 0.0000 -1.4683 0.0000
# 3 36.7797 44.6432 97.7870 0.0000 -0.7237 0.0000
# 4 0.0000 0.0000 0.0000 19.6059 0.0000 4.9106
# 5 -5.2349 -1.4683 -0.7237 0.0000 27.9431 0.0000
# 6 0.0000 0.0000 0.0000 4.9106 0.0000 45.8046
#
#
#
# Elastic Compliance Matrix: (Units=1/GPa)
#
#
# Indices 1 2 3 4 5 6 
#
# 1 0.014367 -0.005844 -0.002719 0.000000 0.002314 0.000000
# 2 -0.005844 0.011893 -0.003235 0.000000 -0.000554 0.000000
# 3 -0.002719 -0.003235 0.012723 0.000000 -0.000350 0.000000
# 4 0.000000 0.000000 0.000000 0.052412 0.000000 -0.005619
# 5 0.002314 -0.000554 -0.000350 0.000000 0.036182 0.000000
# 6 0.000000 0.000000 0.000000 -0.005619 0.000000 0.022434
#
#
# Mechanical properties :
#
#
# Convention : Reuss Voigt Hill
#
# Bulk Modulus (GPa) = 64.99156 67.48414 66.23785
# Shear Modulus (GPa) = 27.97400 30.92748 29.45074
#
# Velocity S-wave (km/s) = 3.76484 3.95860 3.86294
# Velocity P-wave (km/s) = 7.19924 7.42208 7.31151
#
# Compressibility (1/GPa) = 0.01538661
#
# Stress axis : x y z
#
# Youngs Moduli (GPa) = 69.60248 84.08638 78.59656
#
# Poissons Ratio (x) = 0.49144 0.21366
# Poissons Ratio (y) = 0.40679 0.25428
# Poissons Ratio (z) = 0.18921 0.27204
#
# Static dielectric constant tensor:
#      x y z
#    x 3.848720 0.000000 0.123970 
#    y 0.000000 3.655790 0.000000 
#    z 0.123970 0.000000 3.532560 
# 
# 
# High freq. dielectric constant tensor:
#      x y z
#    x 1.777720 0.000000 0.007450 
#    y 0.000000 1.777320 0.000000 
#    z 0.007450 0.000000 1.763510 
# 
# From -- ./inp_files/68681.got.cif
#   From: 2010.06.25/outbox.cif.g09.slc.cpg/sg13_35_cif.got.tgz:68681.got - 2010.06.28 04:50:58.
