data_PCOD8119272
_publ_section_title
;
Structure prediction by ZEFSAII (Michael W. Deem and Ramdas Pophale) SiO2 
 PCOD8119272
Probable space group: P 2/C
;
_chemical_formula_sum "Si O2"
_cell_formula_units_Z 26
_cell_length_a 10.634756
_cell_length_b 7.506615
_cell_length_c 19.580383
_cell_angle_alpha 90.000000
_cell_angle_beta 130.379733
_cell_angle_gamma 90.000000
_cell_volume 1190.735507
_symmetry_space_group_name_H-M "P 2/C"
_symmetry_group_IT_number 13
_symmetry_cell_setting 'monoclinic'
loop_
_space_group_symop_operation_xyz
x,y,z
-x,y,1/2-z
-x,-y,-z
x,-y,1/2+z
loop_
_atom_site_type_symbol
_atom_site_label
_atom_site_fract_x
_atom_site_fract_y
_atom_site_fract_z
Si Si1 0.426558 0.049828 0.868230
Si Si2 0.319536 0.431022 0.057285
Si Si3 0.529328 0.724204 0.520580
Si Si4 0.203376 0.130535 0.194401
Si Si5 0.862667 0.733237 0.568467
Si Si6 0.753083 0.032166 0.434156
Si Si7 0.500000 0.626860 0.750000
O O1 0.431401 0.231830 0.914820
O O2 0.248510 0.009540 0.771196
O O3 0.569648 0.053655 0.860819
O O4 0.496186 0.890227 0.938892
O O5 0.242511 0.237786 0.040369
O O6 0.420526 0.490217 0.161013
O O7 0.441094 0.440977 0.031431
O O8 0.168423 0.568118 0.994078
O O9 0.727762 0.711443 0.580985
O O10 0.161061 0.022339 0.110055
O O11 0.362708 0.252713 0.238324
O O12 0.049782 0.257532 0.163089
O O13 0.848764 0.920039 0.524265
#
# Coordination Sequence:
#
# PCOD8119272 Si02
#       7
#     4   4   4   4   4   4   2
#     4   9  16  33  61  85 108 164 201 228 303 366
#     4  10  20  41  60  81 122 161 199 250 303 366
#     4   9  18  35  58  84 116 157 200 241 299 364
#     4  11  18  36  60  88 122 158 197 259 299 355
#     4  11  23  33  61  94 115 156 205 247 301 363
#     4   9  19  37  59  83 118 160 196 244 305 355
#     4  10  20  38  60  82 120 164 196 246 316 350
#
# _framework density 21.835243999999999
#
# number of rings (size 3 to 8) (size 9 to 14) (size 15 to 20)
#    0.000    2.154    4.615    1.846    0.000    3.077 
#    5.538    0.000    0.000    0.000    0.000    0.000 
#    0.000    0.000    0.000    0.000    0.000    0.000 
#
# Total GULP energy -322115.580523 kJ/mol
# GULP energy per Si atom -12389.060789 kJ/mol
# Density = 2.178555 g / cm^3
# Si number density = 21.835244 Si / 1000 Ang^3
#
#
#
# Elastic Constant Matrix: (Units=GPa)
#
#
# Indices 1 2 3 4 5 6 
#
# 1 97.5540 31.0192 58.6497 0.0000 5.8945 0.0000
# 2 31.0192 67.0796 36.7588 0.0000 9.4203 0.0000
# 3 58.6497 36.7588 89.2295 0.0000 14.9988 0.0000
# 4 0.0000 0.0000 0.0000 26.6525 0.0000 -0.1185
# 5 5.8945 9.4203 14.9988 0.0000 31.4472 0.0000
# 6 0.0000 0.0000 0.0000 -0.1185 0.0000 17.7958
#
#
#
# Elastic Compliance Matrix: (Units=1/GPa)
#
#
# Indices 1 2 3 4 5 6 
#
# 1 0.017413 -0.002466 -0.010878 0.000000 0.002663 0.000000
# 2 -0.002466 0.019739 -0.006082 0.000000 -0.002550 0.000000
# 3 -0.010878 -0.006082 0.021975 0.000000 -0.006620 0.000000
# 4 0.000000 0.000000 0.000000 0.037521 0.000000 0.000250
# 5 0.002663 -0.002550 -0.006620 0.000000 0.035222 0.000000
# 6 0.000000 0.000000 0.000000 0.000250 0.000000 0.056195
#
#
# Mechanical properties :
#
#
# Convention : Reuss Voigt Hill
#
# Bulk Modulus (GPa) = 49.31793 56.30204 52.80999
# Shear Modulus (GPa) = 21.39724 23.67479 22.53601
#
# Velocity S-wave (km/s) = 3.13380 3.29636 3.21611
# Velocity P-wave (km/s) = 5.97743 6.35051 6.16679
#
# Compressibility (1/GPa) = 0.02027660
#
# Stress axis : x y z
#
# Youngs Moduli (GPa) = 57.42695 50.66125 45.50566
#
# Poissons Ratio (x) = 0.12491 0.49499
# Poissons Ratio (y) = 0.14159 0.27679
# Poissons Ratio (z) = 0.62466 0.30814
#
# Static dielectric constant tensor:
#      x y z
#    x 4.205900 0.000000 -0.236520 
#    y 0.000000 3.850640 0.000000 
#    z -0.236520 0.000000 3.947510 
# 
# 
# High freq. dielectric constant tensor:
#      x y z
#    x 1.863060 0.000000 -0.010490 
#    y 0.000000 1.840430 0.000000 
#    z -0.010490 0.000000 1.839110 
# 
# From -- ./inp_files/78339.got.cif
#   From: 2010.06.25/outbox.cif.g09.slc.cpg/sg13_40_cif.got.tgz:78339.got - 2010.06.28 04:50:58.
