data_PCOD8119806
_publ_section_title
;
Structure prediction by ZEFSAII (Michael W. Deem and Ramdas Pophale) SiO2 
 PCOD8119806
Probable space group: P 2/C
;
_chemical_formula_sum "Si O2"
_cell_formula_units_Z 20
_cell_length_a 6.600423
_cell_length_b 15.189544
_cell_length_c 10.023920
_cell_angle_alpha 90.000000
_cell_angle_beta 99.580700
_cell_angle_gamma 90.000000
_cell_volume 990.955117
_symmetry_space_group_name_H-M "P 2/C"
_symmetry_group_IT_number 13
_symmetry_cell_setting 'monoclinic'
loop_
_space_group_symop_operation_xyz
x,y,z
-x,y,1/2-z
-x,-y,-z
x,-y,1/2+z
loop_
_atom_site_type_symbol
_atom_site_label
_atom_site_fract_x
_atom_site_fract_y
_atom_site_fract_z
Si Si1 0.574665 0.068015 0.116655
Si Si2 0.831509 0.554225 0.613676
Si Si3 0.275085 0.226887 0.080944
Si Si4 0.000000 0.877726 0.750000
Si Si5 0.500000 0.372716 0.250000
Si Si6 0.940836 0.634702 0.090439
O O1 0.500000 0.031999 0.250000
O O2 0.473907 0.164578 0.075406
O O3 0.822809 0.068229 0.151868
O O4 0.500000 0.000000 0.000000
O O5 0.604403 0.569632 0.646606
O O6 0.815037 0.455776 0.549872
O O7 0.000000 0.560574 0.750000
O O8 0.874589 0.625635 0.499094
O O9 0.101966 0.175761 0.142341
O O10 0.322773 0.311338 0.174028
O O11 0.181071 0.272207 0.938494
O O12 0.000000 0.635695 0.250000
#
# Coordination Sequence:
#
# PCOD8119806 Si02
#       6
#     4   4   4   2   2   4
#     4  10  23  43  65  97 123 156 207 254 322 389
#     4  10  21  39  62  83 125 170 217 267 310 376
#     4  11  21  38  63  92 121 162 219 251 308 390
#     4  10  20  42  72  88 120 170 200 260 304 380
#     4  12  20  36  68  92 110 174 230 254 300 374
#     4  10  22  41  56  90 131 166 208 269 327 360
#
# _framework density 20.182548000000001
#
# number of rings (size 3 to 8) (size 9 to 14) (size 15 to 20)
#    0.000    1.600    5.000    1.200    0.000    4.000 
#    5.400    0.000    0.000    0.000    0.000    0.000 
#    0.000    0.000    0.000    0.000    0.000    0.000 
#
# Total GULP energy -247764.712959 kJ/mol
# GULP energy per Si atom -12388.235648 kJ/mol
# Density = 2.013661 g / cm^3
# Si number density = 20.182548 Si / 1000 Ang^3
#
#
#
# Elastic Constant Matrix: (Units=GPa)
#
#
# Indices 1 2 3 4 5 6 
#
# 1 138.9729 46.4071 46.0730 0.0000 -1.5189 0.0000
# 2 46.4071 92.0333 46.5402 0.0000 7.8657 0.0000
# 3 46.0730 46.5402 116.0905 0.0000 -4.5635 0.0000
# 4 0.0000 0.0000 0.0000 40.6325 0.0000 13.4920
# 5 -1.5189 7.8657 -4.5635 0.0000 30.4809 0.0000
# 6 0.0000 0.0000 0.0000 13.4920 0.0000 22.6570
#
#
#
# Elastic Compliance Matrix: (Units=1/GPa)
#
#
# Indices 1 2 3 4 5 6 
#
# 1 0.009120 -0.003613 -0.002129 0.000000 0.001068 0.000000
# 2 -0.003613 0.015662 -0.005040 0.000000 -0.004976 0.000000
# 3 -0.002129 -0.005040 0.011595 0.000000 0.002931 0.000000
# 4 0.000000 0.000000 0.000000 0.030677 0.000000 -0.018268
# 5 0.001068 -0.004976 0.002931 0.000000 0.034584 0.000000
# 6 0.000000 0.000000 0.000000 -0.018268 0.000000 0.055015
#
#
# Mechanical properties :
#
#
# Convention : Reuss Voigt Hill
#
# Bulk Modulus (GPa) = 67.51630 69.45970 68.48800
# Shear Modulus (GPa) = 27.29961 32.62582 29.96271
#
# Velocity S-wave (km/s) = 3.68181 4.02498 3.85721
# Velocity P-wave (km/s) = 7.18329 7.48940 7.33794
#
# Compressibility (1/GPa) = 0.01481124
#
# Stress axis : x y z
#
# Youngs Moduli (GPa) = 109.65318 63.84977 86.24649
#
# Poissons Ratio (x) = 0.23071 0.18360
# Poissons Ratio (y) = 0.39621 0.43471
# Poissons Ratio (z) = 0.23343 0.32182
#
# Static dielectric constant tensor:
#      x y z
#    x 3.793850 0.000000 0.195570 
#    y 0.000000 3.687640 0.000000 
#    z 0.195570 0.000000 4.919450 
# 
# 
# High freq. dielectric constant tensor:
#      x y z
#    x 1.785510 0.000000 -0.001450 
#    y 0.000000 1.775590 0.000000 
#    z -0.001450 0.000000 1.785920 
# 
# From -- ./inp_files/26098.got.cif
#   From: 2010.06.25/outbox.cif.g09.slc.cpg/sg13_14_cif.got.tgz:26098.got - 2010.06.28 04:50:58.
