data_PCOD8119275
_publ_section_title
;
Structure prediction by ZEFSAII (Michael W. Deem and Ramdas Pophale) SiO2 
 PCOD8119275
Probable space group: P 2/C
;
_chemical_formula_sum "Si O2"
_cell_formula_units_Z 30
_cell_length_a 21.306583
_cell_length_b 14.027056
_cell_length_c 8.754733
_cell_angle_alpha 90.000000
_cell_angle_beta 141.282681
_cell_angle_gamma 90.000000
_cell_volume 1636.574011
_symmetry_space_group_name_H-M "P 2/C"
_symmetry_group_IT_number 13
_symmetry_cell_setting 'monoclinic'
loop_
_space_group_symop_operation_xyz
x,y,z
-x,y,1/2-z
-x,-y,-z
x,-y,1/2+z
loop_
_atom_site_type_symbol
_atom_site_label
_atom_site_fract_x
_atom_site_fract_y
_atom_site_fract_z
Si Si1 0.122651 0.424859 0.754395
Si Si2 0.399601 0.629993 0.496324
Si Si3 0.816878 0.608889 0.802193
Si Si4 0.943509 0.298798 0.326382
Si Si5 0.208150 0.726295 0.228835
Si Si6 0.085182 0.878470 0.126813
Si Si7 0.000000 0.033392 0.750000
Si Si8 0.599598 0.429851 0.852633
O O1 0.162961 0.527705 0.785747
O O2 0.206443 0.348267 0.863559
O O3 0.013536 0.393354 0.482096
O O4 0.120660 0.421273 0.932549
O O5 0.312625 0.710835 0.337718
O O6 0.381294 0.541276 0.575929
O O7 0.412327 0.588033 0.350603
O O8 0.500000 0.681466 0.750000
O O9 0.863525 0.703964 0.814284
O O10 0.698119 0.625026 0.602538
O O11 0.000067 0.199391 0.436969
O O12 0.886556 0.303001 0.057117
O O13 0.191542 0.831595 0.272816
O O14 0.077569 0.905007 0.292604
O O15 0.068837 0.971342 0.993056
O O16 0.500000 0.391848 0.750000
#
# Coordination Sequence:
#
# PCOD8119275 Si02
#       8
#     4   4   4   4   4   4   2   4
#     4  11  23  33  50  71 108 152 193 223 263 324
#     4  11  22  37  56  74 103 147 193 243 281 315
#     4  12  22  35  51  74 106 156 193 231 273 314
#     4  11  22  37  50  79 113 147 179 227 267 320
#     4  11  21  38  55  79 111 144 183 233 277 316
#     4  10  21  37  59  84 116 141 175 216 267 337
#     4  10  20  38  60  84 112 146 174 206 268 346
#     4  11  22  36  53  72 102 146 206 243 275 310
#
# _framework density 18.330977000000001
#
# number of rings (size 3 to 8) (size 9 to 14) (size 15 to 20)
#    0.000    1.067    4.000    5.200    5.600    1.067 
#    0.000    0.000    0.000    0.000    0.000    0.933 
#    0.000    0.000    0.000    0.000    0.000    0.000 
#
# Total GULP energy -371752.591617 kJ/mol
# GULP energy per Si atom -12391.753054 kJ/mol
# Density = 1.828925 g / cm^3
# Si number density = 18.330977 Si / 1000 Ang^3
#
#
#
# Elastic Constant Matrix: (Units=GPa)
#
#
# Indices 1 2 3 4 5 6 
#
# 1 132.6246 47.6261 46.9169 0.0000 -3.5094 0.0000
# 2 47.6261 42.8920 25.5356 0.0000 2.1757 0.0000
# 3 46.9169 25.5356 85.3121 0.0000 0.5349 0.0000
# 4 0.0000 0.0000 0.0000 14.6685 0.0000 -2.6972
# 5 -3.5094 2.1757 0.5349 0.0000 42.7583 0.0000
# 6 0.0000 0.0000 0.0000 -2.6972 0.0000 35.0287
#
#
#
# Elastic Compliance Matrix: (Units=1/GPa)
#
#
# Indices 1 2 3 4 5 6 
#
# 1 0.013503 -0.012968 -0.003555 0.000000 0.001813 0.000000
# 2 -0.012968 0.040902 -0.005091 0.000000 -0.003082 0.000000
# 3 -0.003555 -0.005091 0.015202 0.000000 -0.000223 0.000000
# 4 0.000000 0.000000 0.000000 0.069153 0.000000 0.005325
# 5 0.001813 -0.003082 -0.000223 0.000000 0.023696 0.000000
# 6 0.000000 0.000000 0.000000 0.005325 0.000000 0.028958
#
#
# Mechanical properties :
#
#
# Convention : Reuss Voigt Hill
#
# Bulk Modulus (GPa) = 37.91296 55.66509 46.78903
# Shear Modulus (GPa) = 20.53929 27.87443 24.20686
#
# Velocity S-wave (km/s) = 3.35097 3.90374 3.63787
# Velocity P-wave (km/s) = 5.97490 7.12401 6.57461
#
# Compressibility (1/GPa) = 0.02637620
#
# Stress axis : x y z
#
# Youngs Moduli (GPa) = 74.05851 24.44886 65.77936
#
# Poissons Ratio (x) = 0.31706 0.23388
# Poissons Ratio (y) = 0.96042 0.33491
# Poissons Ratio (z) = 0.26331 0.12448
#
# Static dielectric constant tensor:
#      x y z
#    x 3.870460 0.000000 0.064820 
#    y 0.000000 3.182330 0.000000 
#    z 0.064820 0.000000 3.398970 
# 
# 
# High freq. dielectric constant tensor:
#      x y z
#    x 1.734590 0.000000 -0.014430 
#    y 0.000000 1.662550 0.000000 
#    z -0.014430 0.000000 1.700040 
# 
# From -- ./inp_files/23508.got.cif
#   From: 2010.06.25/outbox.cif.g09.slc.cpg/sg13_12_cif.got.tgz:23508.got - 2010.06.28 04:50:58.
