data_PCOD8119965
_publ_section_title
;
Structure prediction by ZEFSAII (Michael W. Deem and Ramdas Pophale) SiO2 
 PCOD8119965
Probable space group: P 2/C
;
_chemical_formula_sum "Si O2"
_cell_formula_units_Z 20
_cell_length_a 8.915517
_cell_length_b 22.165615
_cell_length_c 5.075895
_cell_angle_alpha 90.000000
_cell_angle_beta 70.837501
_cell_angle_gamma 90.000000
_cell_volume 947.508124
_symmetry_space_group_name_H-M "P 2/C"
_symmetry_group_IT_number 13
_symmetry_cell_setting 'monoclinic'
loop_
_space_group_symop_operation_xyz
x,y,z
-x,y,1/2-z
-x,-y,-z
x,-y,1/2+z
loop_
_atom_site_type_symbol
_atom_site_label
_atom_site_fract_x
_atom_site_fract_y
_atom_site_fract_z
Si Si1 0.606646 0.347577 0.442356
Si Si2 0.183327 0.767882 0.658713
Si Si3 0.817615 0.155247 0.843264
Si Si4 0.185358 0.537444 0.644420
Si Si5 0.315609 0.968710 0.904454
O O1 0.500000 0.334699 0.250000
O O2 0.707428 0.289024 0.460782
O O3 0.724205 0.402654 0.321490
O O4 0.500000 0.365322 0.750000
O O5 0.224075 0.820044 0.422699
O O6 0.000000 0.747860 0.750000
O O7 0.219284 0.791798 0.929397
O O8 0.000000 0.134363 0.750000
O O9 0.708822 0.099099 0.983214
O O10 0.232436 0.514100 0.327995
O O11 0.000000 0.552935 0.750000
O O12 0.500000 0.981180 0.750000
O O13 0.238433 0.985552 0.666443
#
# Coordination Sequence:
#
# PCOD8119965 Si02
#       5
#     4   4   4   4   4
#     4  12  25  39  60  91 122 153 194 243 294 342
#     4  10  22  41  60  82 116 154 194 238 289 348
#     4  10  21  37  60  85 109 147 195 241 285 334
#     4  10  22  41  64  88 118 160 201 236 286 348
#     4  10  21  36  54  80 114 150 185 227 286 349
#
# _framework density 21.107997000000001
#
# number of rings (size 3 to 8) (size 9 to 14) (size 15 to 20)
#    0.000    1.600    0.000    4.200    0.000    5.600 
#    0.000    8.000    0.000    0.000    0.000    0.000 
#    0.000    0.000    0.000    0.000    0.000    0.000 
#
# Total GULP energy -248038.668488 kJ/mol
# GULP energy per Si atom -12401.933424 kJ/mol
# Density = 2.105995 g / cm^3
# Si number density = 21.107997 Si / 1000 Ang^3
#
#
#
# Elastic Constant Matrix: (Units=GPa)
#
#
# Indices 1 2 3 4 5 6 
#
# 1 63.4655 38.8094 35.8047 0.0000 14.1977 0.0000
# 2 38.8094 100.1469 29.4306 0.0000 -9.3629 0.0000
# 3 35.8047 29.4306 117.6280 0.0000 15.6055 0.0000
# 4 0.0000 0.0000 0.0000 32.0862 0.0000 -6.0857
# 5 14.1977 -9.3629 15.6055 0.0000 22.7681 0.0000
# 6 0.0000 0.0000 0.0000 -6.0857 0.0000 20.3431
#
#
#
# Elastic Compliance Matrix: (Units=1/GPa)
#
#
# Indices 1 2 3 4 5 6 
#
# 1 0.030343 -0.012928 -0.003065 0.000000 -0.022137 0.000000
# 2 -0.012928 0.017373 -0.002672 0.000000 0.017037 0.000000
# 3 -0.003065 -0.002672 0.010995 0.000000 -0.006724 0.000000
# 4 0.000000 0.000000 0.000000 0.033041 0.000000 0.009884
# 5 -0.022137 0.017037 -0.006724 0.000000 0.069340 0.000000
# 6 0.000000 0.000000 0.000000 0.009884 0.000000 0.052114
#
#
# Mechanical properties :
#
#
# Convention : Reuss Voigt Hill
#
# Bulk Modulus (GPa) = 46.76783 54.36997 50.56890
# Shear Modulus (GPa) = 19.40532 26.85253 23.12893
#
# Velocity S-wave (km/s) = 3.03534 3.57059 3.31379
# Velocity P-wave (km/s) = 5.87273 6.54314 6.21698
#
# Compressibility (1/GPa) = 0.02138222
#
# Stress axis : x y z
#
# Youngs Moduli (GPa) = 32.95648 57.56010 90.95208
#
# Poissons Ratio (x) = 0.74411 0.27875
# Poissons Ratio (y) = 0.42605 0.24303
# Poissons Ratio (z) = 0.10100 0.15380
#
# Static dielectric constant tensor:
#      x y z
#    x 3.794230 0.000000 0.154650 
#    y 0.000000 3.537770 0.000000 
#    z 0.154650 0.000000 4.139050 
# 
# 
# High freq. dielectric constant tensor:
#      x y z
#    x 1.818490 0.000000 0.009140 
#    y 0.000000 1.824650 0.000000 
#    z 0.009140 0.000000 1.849690 
# 
# From -- ./inp_files/1971.got.cif
#   From: 2010.06.25/outbox.cif.g09.slc.cpg/sg13_1_cif.got.tgz:1971.got - 2010.06.28 04:50:58.
