data_PCOD8119180
_publ_section_title
;
Structure prediction by ZEFSAII (Michael W. Deem and Ramdas Pophale) SiO2 
 PCOD8119180
Probable space group: P 2/C
;
_chemical_formula_sum "Si O2"
_cell_formula_units_Z 28
_cell_length_a 26.198360
_cell_length_b 9.000401
_cell_length_c 9.144984
_cell_angle_alpha 90.000000
_cell_angle_beta 40.398672
_cell_angle_gamma 90.000000
_cell_volume 1397.534198
_symmetry_space_group_name_H-M "P 2/C"
_symmetry_group_IT_number 13
_symmetry_cell_setting 'monoclinic'
loop_
_space_group_symop_operation_xyz
x,y,z
-x,y,1/2-z
-x,-y,-z
x,-y,1/2+z
loop_
_atom_site_type_symbol
_atom_site_label
_atom_site_fract_x
_atom_site_fract_y
_atom_site_fract_z
Si Si1 0.433179 0.135534 0.000654
Si Si2 0.176989 0.149415 0.011089
Si Si3 0.994094 0.148867 0.098117
Si Si4 0.539919 0.806163 0.526275
Si Si5 0.163695 0.168885 0.695512
Si Si6 0.710177 0.346658 0.240516
Si Si7 0.305374 0.351281 0.888392
O O1 0.351620 0.215532 0.148720
O O2 0.420649 0.959703 0.002267
O O3 0.500000 0.202014 0.750000
O O4 0.463047 0.162245 0.098124
O O5 0.091646 0.226254 0.238334
O O6 0.177050 0.983661 0.077001
O O7 0.189995 0.143882 0.807113
O O8 0.245427 0.245866 0.933232
O O9 0.000000 0.096105 0.250000
O O10 0.074150 0.236896 0.882303
O O11 0.000000 0.000000 0.000000
O O12 0.606966 0.715937 0.296558
O O13 0.500000 0.719141 0.750000
O O14 0.210527 0.298385 0.512990
O O15 0.724798 0.375098 0.380668
O O16 0.682690 0.496691 0.224048
#
# Coordination Sequence:
#
# PCOD8119180 Si02
#       7
#     4   4   4   4   4   4   4
#     4  10  21  43  63  89 116 151 192 245 294 352
#     4  10  20  37  63  91 123 155 197 243 294 349
#     4   8  16  32  57  90 120 150 191 240 292 346
#     4  10  23  39  67  90 117 148 195 241 299 355
#     4  10  20  37  63  92 121 157 195 244 294 350
#     4  12  26  41  60  83 123 159 204 245 297 353
#     4  12  26  42  57  87 120 162 201 246 296 354
#
# _framework density 20.035288999999999
#
# number of rings (size 3 to 8) (size 9 to 14) (size 15 to 20)
#    0.000    1.714    1.429    2.571    4.000    2.286 
#    0.000    0.714    0.000    0.000    0.000    0.000 
#    0.000    0.000    0.000    0.000    0.000    0.000 
#
# Total GULP energy -346940.287715 kJ/mol
# GULP energy per Si atom -12390.724561 kJ/mol
# Density = 1.998969 g / cm^3
# Si number density = 20.035289 Si / 1000 Ang^3
#
#
#
# Elastic Constant Matrix: (Units=GPa)
#
#
# Indices 1 2 3 4 5 6 
#
# 1 82.0562 14.7939 36.4819 0.0000 9.6863 0.0000
# 2 14.7939 51.6804 20.0308 0.0000 1.4922 0.0000
# 3 36.4819 20.0308 126.0334 0.0000 10.3045 0.0000
# 4 0.0000 0.0000 0.0000 22.7429 0.0000 8.7261
# 5 9.6863 1.4922 10.3045 0.0000 38.3915 0.0000
# 6 0.0000 0.0000 0.0000 8.7261 0.0000 17.7775
#
#
#
# Elastic Compliance Matrix: (Units=1/GPa)
#
#
# Indices 1 2 3 4 5 6 
#
# 1 0.014573 -0.002711 -0.003574 0.000000 -0.002612 0.000000
# 2 -0.002711 0.021124 -0.002619 0.000000 0.000566 0.000000
# 3 -0.003574 -0.002619 0.009512 0.000000 -0.001550 0.000000
# 4 0.000000 0.000000 0.000000 0.054172 0.000000 -0.026590
# 5 -0.002612 0.000566 -0.001550 0.000000 0.027100 0.000000
# 6 0.000000 0.000000 0.000000 -0.026590 0.000000 0.069303
#
#
# Mechanical properties :
#
#
# Convention : Reuss Voigt Hill
#
# Bulk Modulus (GPa) = 36.49415 44.70924 40.60169
# Shear Modulus (GPa) = 22.44916 28.34659 25.39788
#
# Velocity S-wave (km/s) = 3.35099 3.76551 3.56428
# Velocity P-wave (km/s) = 5.76426 6.42410 6.10310
#
# Compressibility (1/GPa) = 0.02740166
#
# Stress axis : x y z
#
# Youngs Moduli (GPa) = 68.62098 47.33845 105.13234
#
# Poissons Ratio (x) = 0.12833 0.37573
# Poissons Ratio (y) = 0.18603 0.27533
# Poissons Ratio (z) = 0.24524 0.12398
#
# Static dielectric constant tensor:
#      x y z
#    x 4.290790 0.000000 -0.698740 
#    y 0.000000 3.325460 0.000000 
#    z -0.698740 0.000000 4.925820 
# 
# 
# High freq. dielectric constant tensor:
#      x y z
#    x 1.794520 0.000000 0.003390 
#    y 0.000000 1.744260 0.000000 
#    z 0.003390 0.000000 1.807330 
# 
# From -- ./inp_files/24520.got.cif
#   From: 2010.06.25/outbox.cif.g09.slc.cpg/sg13_13_cif.got.tgz:24520.got - 2010.06.28 04:50:58.
