data_PCOD8119788
_publ_section_title
;
Structure prediction by ZEFSAII (Michael W. Deem and Ramdas Pophale) SiO2 
 PCOD8119788
Probable space group: P 2/C
;
_chemical_formula_sum "Si O2"
_cell_formula_units_Z 32
_cell_length_a 26.044627
_cell_length_b 8.672284
_cell_length_c 14.066231
_cell_angle_alpha 90.000000
_cell_angle_beta 28.777496
_cell_angle_gamma 90.000000
_cell_volume 1529.480664
_symmetry_space_group_name_H-M "P 2/C"
_symmetry_group_IT_number 13
_symmetry_cell_setting 'monoclinic'
loop_
_space_group_symop_operation_xyz
x,y,z
-x,y,1/2-z
-x,-y,-z
x,-y,1/2+z
loop_
_atom_site_type_symbol
_atom_site_label
_atom_site_fract_x
_atom_site_fract_y
_atom_site_fract_z
Si Si1 0.621809 0.795207 0.657654
Si Si2 0.739433 0.986876 0.109027
Si Si3 0.116384 0.767629 0.018856
Si Si4 0.618387 0.215800 0.947445
Si Si5 0.125388 0.297956 0.153517
Si Si6 0.996181 0.821188 0.485079
Si Si7 0.182143 0.599947 0.168917
Si Si8 0.807607 0.441491 0.632254
O O1 0.666917 0.929407 0.649887
O O2 0.624736 0.850327 0.543796
O O3 0.695873 0.645633 0.544191
O O4 0.503466 0.744942 0.881934
O O5 0.659403 0.924146 0.317811
O O6 0.827630 0.091948 0.017936
O O7 0.797492 0.848675 0.959109
O O8 0.100889 0.800039 0.931472
O O9 0.000000 0.737146 0.250000
O O10 0.190243 0.616201 0.910979
O O11 0.688534 0.370751 0.818181
O O12 0.021066 0.262853 0.385052
O O13 0.174409 0.454006 0.114746
O O14 0.111509 0.334129 0.062903
O O15 0.104790 0.744875 0.265523
O O16 0.000000 0.000000 0.500000
O O17 0.151758 0.556425 0.326005
#
# Coordination Sequence:
#
# PCOD8119788 Si02
#       8
#     4   4   4   4   4   4   4   4
#     4  10  20  42  68  91 131 167 218 274 337 380
#     4  11  24  41  64  96 132 172 216 268 330 397
#     4  12  25  42  61  96 135 175 215 269 324 391
#     4   9  22  41  66  96 124 172 220 275 328 387
#     4  11  23  41  62  94 130 171 215 266 322 391
#     4  12  26  40  63  93 134 172 220 265 332 394
#     4  11  23  42  64  95 125 175 215 275 321 396
#     4  10  23  40  66  92 129 166 224 264 325 390
#
# _framework density 20.922135000000001
#
# number of rings (size 3 to 8) (size 9 to 14) (size 15 to 20)
#    0.000    1.250    1.250    4.500    8.750    0.000 
#    0.000    6.875    0.000    3.000    0.000    0.000 
#    0.000    0.000    0.000    0.000    0.000    0.000 
#
# Total GULP energy -396660.630994 kJ/mol
# GULP energy per Si atom -12395.644719 kJ/mol
# Density = 2.087452 g / cm^3
# Si number density = 20.922135 Si / 1000 Ang^3
#
#
#
# Elastic Constant Matrix: (Units=GPa)
#
#
# Indices 1 2 3 4 5 6 
#
# 1 89.9965 48.9489 41.2534 0.0000 1.6548 0.0000
# 2 48.9489 144.8344 53.8800 0.0000 -5.7002 0.0000
# 3 41.2534 53.8800 118.4803 0.0000 -2.4471 0.0000
# 4 0.0000 0.0000 0.0000 31.6110 0.0000 5.6510
# 5 1.6548 -5.7002 -2.4471 0.0000 30.5718 0.0000
# 6 0.0000 0.0000 0.0000 5.6510 0.0000 33.3498
#
#
#
# Elastic Compliance Matrix: (Units=1/GPa)
#
#
# Indices 1 2 3 4 5 6 
#
# 1 0.014789 -0.003778 -0.003468 0.000000 -0.001783 0.000000
# 2 -0.003778 0.009323 -0.002889 0.000000 0.001712 0.000000
# 3 -0.003468 -0.002889 0.010972 0.000000 0.000527 0.000000
# 4 0.000000 0.000000 0.000000 0.032623 0.000000 -0.005528
# 5 -0.001783 0.001712 0.000527 0.000000 0.033168 0.000000
# 6 0.000000 0.000000 0.000000 -0.005528 0.000000 0.030922
#
#
# Mechanical properties :
#
#
# Convention : Reuss Voigt Hill
#
# Bulk Modulus (GPa) = 67.50186 71.27510 69.38848
# Shear Modulus (GPa) = 31.84596 33.05510 32.45053
#
# Velocity S-wave (km/s) = 3.90567 3.97912 3.94256
# Velocity P-wave (km/s) = 7.25757 7.43317 7.34590
#
# Compressibility (1/GPa) = 0.01481441
#
# Stress axis : x y z
#
# Youngs Moduli (GPa) = 67.61811 107.25639 91.13724
#
# Poissons Ratio (x) = 0.40523 0.31606
# Poissons Ratio (y) = 0.25547 0.26330
# Poissons Ratio (z) = 0.23450 0.30987
#
# Static dielectric constant tensor:
#      x y z
#    x 3.395550 0.000000 -0.995090 
#    y 0.000000 3.754180 0.000000 
#    z -0.995090 0.000000 1.479530 
# 
# 
# High freq. dielectric constant tensor:
#      x y z
#    x 1.828750 0.000000 0.023400 
#    y 0.000000 1.819990 0.000000 
#    z 0.023400 0.000000 1.820590 
# 
# From -- ./inp_files/58682.got.cif
#   From: 2010.06.25/outbox.cif.g09.slc.cpg/sg13_30_cif.got.tgz:58682.got - 2010.06.28 04:50:58.
