data_PCOD8119267
_publ_section_title
;
Structure prediction by ZEFSAII (Michael W. Deem and Ramdas Pophale) SiO2 
 PCOD8119267
Probable space group: P 2/C
;
_chemical_formula_sum "Si O2"
_cell_formula_units_Z 24
_cell_length_a 11.500053
_cell_length_b 11.015658
_cell_length_c 9.743755
_cell_angle_alpha 90.000000
_cell_angle_beta 89.705250
_cell_angle_gamma 90.000000
_cell_volume 1234.328892
_symmetry_space_group_name_H-M "P 2/C"
_symmetry_group_IT_number 13
_symmetry_cell_setting 'monoclinic'
loop_
_space_group_symop_operation_xyz
x,y,z
-x,y,1/2-z
-x,-y,-z
x,-y,1/2+z
loop_
_atom_site_type_symbol
_atom_site_label
_atom_site_fract_x
_atom_site_fract_y
_atom_site_fract_z
Si Si1 0.135636 0.754110 0.287425
Si Si2 0.747069 0.134992 0.968584
Si Si3 0.915627 0.505237 0.628207
Si Si4 0.130352 0.243119 0.296830
Si Si5 0.743488 0.145691 0.456954
Si Si6 0.505030 0.122495 0.084448
O O1 0.215622 0.776323 0.154960
O O2 0.156535 0.617823 0.345611
O O3 0.180983 0.843137 0.405542
O O4 0.000000 0.776646 0.250000
O O5 0.742258 0.996639 0.914550
O O6 0.841750 0.141192 0.089809
O O7 0.625410 0.184780 0.034785
O O8 0.837700 0.627284 0.629424
O O9 0.000000 0.530898 0.750000
O O10 0.000000 0.500000 0.500000
O O11 0.206134 0.229560 0.161354
O O12 0.000000 0.223410 0.250000
O O13 0.609868 0.193765 0.468361
O O14 0.500000 0.103720 0.250000
O O15 0.500000 0.000000 0.000000
#
# Coordination Sequence:
#
# PCOD8119267 Si02
#       6
#     4   4   4   4   4   4
#     4  11  23  38  58  90 123 154 198 244 295 355
#     4  11  23  37  59  87 123 155 193 246 296 353
#     4  10  20  38  60  81 114 159 208 238 275 354
#     4  11  21  36  60  86 117 158 194 241 304 351
#     4  11  23  37  59  87 121 157 195 241 301 354
#     4  10  22  40  62  85 115 161 211 241 279 354
#
# _framework density 19.443763000000001
#
# number of rings (size 3 to 8) (size 9 to 14) (size 15 to 20)
#    0.000    1.333    1.667    6.000    7.000    4.000 
#    0.000    0.000    0.000    6.000    0.000    0.000 
#    0.000    0.000    0.000    0.000    0.000    0.000 
#
# Total GULP energy -297343.341267 kJ/mol
# GULP energy per Si atom -12389.305886 kJ/mol
# Density = 1.939951 g / cm^3
# Si number density = 19.443763 Si / 1000 Ang^3
#
#
#
# Elastic Constant Matrix: (Units=GPa)
#
#
# Indices 1 2 3 4 5 6 
#
# 1 121.6420 62.1637 61.5461 0.0000 -20.1542 0.0000
# 2 62.1637 65.0952 33.7140 0.0000 -11.9689 0.0000
# 3 61.5461 33.7140 149.5685 0.0000 -22.3254 0.0000
# 4 0.0000 0.0000 0.0000 28.5349 0.0000 -6.5017
# 5 -20.1542 -11.9689 -22.3254 0.0000 42.7110 0.0000
# 6 0.0000 0.0000 0.0000 -6.5017 0.0000 4.1358
#
#
#
# Elastic Compliance Matrix: (Units=1/GPa)
#
#
# Indices 1 2 3 4 5 6 
#
# 1 0.018158 -0.014959 -0.003739 0.000000 0.002422 0.000000
# 2 -0.014959 0.030093 -0.000458 0.000000 0.001135 0.000000
# 3 -0.003739 -0.000458 0.008726 0.000000 0.002669 0.000000
# 4 0.000000 0.000000 0.000000 0.054604 0.000000 0.085841
# 5 0.002422 0.001135 0.002669 0.000000 0.026269 0.000000
# 6 0.000000 0.000000 0.000000 0.085841 0.000000 0.376740
#
#
# Mechanical properties :
#
#
# Convention : Reuss Voigt Hill
#
# Bulk Modulus (GPa) = 53.57386 72.35035 62.96210
# Shear Modulus (GPa) = 8.94255 27.00179 17.97217
#
# Velocity S-wave (km/s) = 2.14690 3.73059 3.04355
# Velocity P-wave (km/s) = 5.81022 7.47310 6.69350
#
# Compressibility (1/GPa) = 0.01866582
#
# Stress axis : x y z
#
# Youngs Moduli (GPa) = 55.07113 33.22979 114.60077
#
# Poissons Ratio (x) = 0.49708 0.42844
# Poissons Ratio (y) = 0.82381 0.05254
# Poissons Ratio (z) = 0.20589 0.01523
#
# Static dielectric constant tensor:
#      x y z
#    x -12.228880 0.000000 -3.213600 
#    y 0.000000 5.764580 0.000000 
#    z -3.213600 0.000000 3.133320 
# 
# 
# High freq. dielectric constant tensor:
#      x y z
#    x 1.752900 0.000000 -0.002490 
#    y 0.000000 1.734360 0.000000 
#    z -0.002490 0.000000 1.780410 
# 
# From -- ./inp_files/15882.got.cif
#   From: 2010.06.25/outbox.cif.g09.slc.cpg/sg13_8_cif.got.tgz:15882.got - 2010.06.28 04:50:58.
