data_PCOD8119039
_publ_section_title
;
Structure prediction by ZEFSAII (Michael W. Deem and Ramdas Pophale) SiO2 
 PCOD8119039
Probable space group: P 2/C
;
_chemical_formula_sum "Si O2"
_cell_formula_units_Z 22
_cell_length_a 11.576550
_cell_length_b 15.569611
_cell_length_c 8.942630
_cell_angle_alpha 90.000000
_cell_angle_beta 41.349860
_cell_angle_gamma 90.000000
_cell_volume 1064.871057
_symmetry_space_group_name_H-M "P 2/C"
_symmetry_group_IT_number 13
_symmetry_cell_setting 'monoclinic'
loop_
_space_group_symop_operation_xyz
x,y,z
-x,y,1/2-z
-x,-y,-z
x,-y,1/2+z
loop_
_atom_site_type_symbol
_atom_site_label
_atom_site_fract_x
_atom_site_fract_y
_atom_site_fract_z
Si Si1 0.000000 0.493327 0.750000
Si Si2 0.206339 0.079029 0.697448
Si Si3 0.440165 0.621924 0.141007
Si Si4 0.767361 0.536765 0.724612
Si Si5 0.500958 0.183071 0.922702
Si Si6 0.179772 0.101484 0.376629
O O1 0.864743 0.552444 0.787677
O O2 0.105573 0.432852 0.532432
O O3 0.372959 0.119605 0.613447
O O4 0.236867 0.081489 0.490284
O O5 0.200488 0.980276 0.750046
O O6 0.026296 0.127606 0.921881
O O7 0.500000 0.600022 0.250000
O O8 0.269751 0.566177 0.263014
O O9 0.415552 0.722530 0.138536
O O10 0.593212 0.591587 0.880332
O O11 0.500000 0.157819 0.750000
O O12 0.304791 0.175576 0.183882
#
# Coordination Sequence:
#
# PCOD8119039 Si02
#       6
#     2   4   4   4   4   4
#     4  10  20  36  64  90 108 144 198 246 288 340
#     4  10  21  40  63  88 117 153 196 243 290 347
#     4  10  21  40  58  80 117 159 191 235 286 353
#     4  10  20  40  60  86 114 150 198 236 290 344
#     4  11  23  39  58  87 119 162 193 237 294 349
#     4  10  21  40  63  88 117 153 196 243 290 347
#
# _framework density 20.659777999999999
#
# number of rings (size 3 to 8) (size 9 to 14) (size 15 to 20)
#    0.000    1.818    1.818    2.182    0.000    2.182 
#   13.091    0.000    0.000    0.000    0.000    0.000 
#    0.000    0.000    0.000    0.000    0.000    0.000 
#
# Total GULP energy -272701.726740 kJ/mol
# GULP energy per Si atom -12395.533034 kJ/mol
# Density = 2.061276 g / cm^3
# Si number density = 20.659778 Si / 1000 Ang^3
#
#
#
# Elastic Constant Matrix: (Units=GPa)
#
#
# Indices 1 2 3 4 5 6 
#
# 1 85.9110 12.6382 34.3832 0.0000 7.5083 0.0000
# 2 12.6382 45.3617 15.1424 0.0000 1.3006 0.0000
# 3 34.3832 15.1424 117.8549 0.0000 7.2703 0.0000
# 4 0.0000 0.0000 0.0000 17.9198 0.0000 2.0638
# 5 7.5083 1.3006 7.2703 0.0000 37.2168 0.0000
# 6 0.0000 0.0000 0.0000 2.0638 0.0000 17.9392
#
#
#
# Elastic Compliance Matrix: (Units=1/GPa)
#
#
# Indices 1 2 3 4 5 6 
#
# 1 0.013595 -0.002558 -0.003516 0.000000 -0.001967 0.000000
# 2 -0.002558 0.023516 -0.002284 0.000000 0.000140 0.000000
# 3 -0.003516 -0.002284 0.009875 0.000000 -0.001140 0.000000
# 4 0.000000 0.000000 0.000000 0.056554 0.000000 -0.006506
# 5 -0.001967 0.000140 -0.001140 0.000000 0.027484 0.000000
# 6 0.000000 0.000000 0.000000 -0.006506 0.000000 0.056492
#
#
# Mechanical properties :
#
#
# Convention : Reuss Voigt Hill
#
# Bulk Modulus (GPa) = 33.03583 41.49503 37.26543
# Shear Modulus (GPa) = 23.32939 27.07942 25.20441
#
# Velocity S-wave (km/s) = 3.36403 3.62433 3.49660
# Velocity P-wave (km/s) = 5.57800 6.13538 5.86332
#
# Compressibility (1/GPa) = 0.03027016
#
# Stress axis : x y z
#
# Youngs Moduli (GPa) = 73.55431 42.52429 101.26944
#
# Poissons Ratio (x) = 0.10876 0.35611
# Poissons Ratio (y) = 0.18812 0.23129
# Poissons Ratio (z) = 0.25865 0.09712
#
# Static dielectric constant tensor:
#      x y z
#    x 3.851990 0.000000 -0.055300 
#    y 0.000000 3.323540 0.000000 
#    z -0.055300 0.000000 4.096910 
# 
# 
# High freq. dielectric constant tensor:
#      x y z
#    x 1.817700 0.000000 -0.000680 
#    y 0.000000 1.761530 0.000000 
#    z -0.000680 0.000000 1.835480 
# 
# From -- ./inp_files/16228.got.cif
#   From: 2010.06.25/outbox.cif.g09.slc.cpg/sg13_9_cif.got.tgz:16228.got - 2010.06.28 04:50:58.
