data_PCOD8119564
_publ_section_title
;
Structure prediction by ZEFSAII (Michael W. Deem and Ramdas Pophale) SiO2 
 PCOD8119564
Probable space group: P 2/C
;
_chemical_formula_sum "Si O2"
_cell_formula_units_Z 20
_cell_length_a 8.352014
_cell_length_b 9.188728
_cell_length_c 12.902696
_cell_angle_alpha 90.000000
_cell_angle_beta 98.892645
_cell_angle_gamma 90.000000
_cell_volume 978.306871
_symmetry_space_group_name_H-M "P 2/C"
_symmetry_group_IT_number 13
_symmetry_cell_setting 'monoclinic'
loop_
_space_group_symop_operation_xyz
x,y,z
-x,y,1/2-z
-x,-y,-z
x,-y,1/2+z
loop_
_atom_site_type_symbol
_atom_site_label
_atom_site_fract_x
_atom_site_fract_y
_atom_site_fract_z
Si Si1 0.310200 0.951433 0.226005
Si Si2 0.829143 0.772792 0.691991
Si Si3 0.847567 0.794154 0.468006
Si Si4 0.318969 0.540902 0.949124
Si Si5 0.123487 0.273100 0.848454
O O1 0.500000 0.955390 0.250000
O O2 0.272239 0.898239 0.106740
O O3 0.237057 0.846023 0.305957
O O4 0.241889 0.113852 0.233262
O O5 0.865368 0.855903 0.586388
O O6 0.698056 0.643379 0.656119
O O7 0.000000 0.707870 0.750000
O O8 0.771306 0.628750 0.466430
O O9 0.021203 0.798604 0.430454
O O10 0.231053 0.392351 0.914519
O O11 0.500000 0.500000 0.000000
O O12 0.000000 0.338849 0.750000
#
# Coordination Sequence:
#
# PCOD8119564 Si02
#       5
#     4   4   4   4   4
#     4  11  23  41  62  95 130 168 215 272 330 368
#     4  10  23  42  64  93 129 172 219 260 311 395
#     4   9  22  40  67  92 123 174 212 262 320 382
#     4  10  21  41  62  96 126 163 210 269 324 371
#     4  10  20  39  69  89 126 170 214 260 321 397
#
# _framework density 20.443483000000001
#
# number of rings (size 3 to 8) (size 9 to 14) (size 15 to 20)
#    1.200    0.800    0.000    4.200    0.000    4.000 
#    3.600    1.000    0.000    0.000    0.000    0.000 
#    0.000    0.000    0.000    0.000    0.000    0.000 
#
# Total GULP energy -247810.042298 kJ/mol
# GULP energy per Si atom -12390.502115 kJ/mol
# Density = 2.039695 g / cm^3
# Si number density = 20.443483 Si / 1000 Ang^3
#
#
#
# Elastic Constant Matrix: (Units=GPa)
#
#
# Indices 1 2 3 4 5 6 
#
# 1 126.8659 33.0573 29.2347 0.0000 28.6632 0.0000
# 2 33.0573 67.9169 8.5117 0.0000 25.1505 0.0000
# 3 29.2347 8.5117 71.1536 0.0000 18.7435 0.0000
# 4 0.0000 0.0000 0.0000 28.0127 0.0000 -7.8523
# 5 28.6632 25.1505 18.7435 0.0000 40.6722 0.0000
# 6 0.0000 0.0000 0.0000 -7.8523 0.0000 16.8375
#
#
#
# Elastic Compliance Matrix: (Units=1/GPa)
#
#
# Indices 1 2 3 4 5 6 
#
# 1 0.010248 -0.003164 -0.002783 0.000000 -0.003983 0.000000
# 2 -0.003164 0.020129 0.001802 0.000000 -0.011048 0.000000
# 3 -0.002783 0.001802 0.016798 0.000000 -0.006895 0.000000
# 4 0.000000 0.000000 0.000000 0.041067 0.000000 0.019152
# 5 -0.003983 -0.011048 -0.006895 0.000000 0.037403 0.000000
# 6 0.000000 0.000000 0.000000 0.019152 0.000000 0.068323
#
#
# Mechanical properties :
#
#
# Convention : Reuss Voigt Hill
#
# Bulk Modulus (GPa) = 25.71614 45.28266 35.49940
# Shear Modulus (GPa) = 23.23214 30.11334 26.67274
#
# Velocity S-wave (km/s) = 3.37472 3.84214 3.61599
# Velocity P-wave (km/s) = 5.27176 6.47155 5.90222
#
# Compressibility (1/GPa) = 0.03888609
#
# Stress axis : x y z
#
# Youngs Moduli (GPa) = 97.57975 49.67859 59.53063
#
# Poissons Ratio (x) = 0.15720 0.16566
# Poissons Ratio (y) = 0.30877 -0.10730
# Poissons Ratio (z) = 0.27155 -0.08954
#
# Static dielectric constant tensor:
#      x y z
#    x 3.645180 0.000000 0.111560 
#    y 0.000000 3.558990 0.000000 
#    z 0.111560 0.000000 3.909400 
# 
# 
# High freq. dielectric constant tensor:
#      x y z
#    x 1.795620 0.000000 0.011540 
#    y 0.000000 1.791890 0.000000 
#    z 0.011540 0.000000 1.800510 
# 
# From -- ./inp_files/45926.got.cif
#   From: 2010.06.25/outbox.cif.g09.slc.cpg/sg13_23_cif.got.tgz:45926.got - 2010.06.28 04:50:58.
