data_PCOD8119975
_publ_section_title
;
Structure prediction by ZEFSAII (Michael W. Deem and Ramdas Pophale) SiO2 
 PCOD8119975
Probable space group: P 2/C
;
_chemical_formula_sum "Si O2"
_cell_formula_units_Z 28
_cell_length_a 8.049354
_cell_length_b 31.507136
_cell_length_c 5.349826
_cell_angle_alpha 90.000000
_cell_angle_beta 116.065559
_cell_angle_gamma 90.000000
_cell_volume 1218.784939
_symmetry_space_group_name_H-M "P 2/C"
_symmetry_group_IT_number 13
_symmetry_cell_setting 'monoclinic'
loop_
_space_group_symop_operation_xyz
x,y,z
-x,y,1/2-z
-x,-y,-z
x,-y,1/2+z
loop_
_atom_site_type_symbol
_atom_site_label
_atom_site_fract_x
_atom_site_fract_y
_atom_site_fract_z
Si Si1 0.811876 0.328859 0.245360
Si Si2 0.000000 0.386314 0.750000
Si Si3 0.000000 0.472799 0.250000
Si Si4 0.709919 0.411753 0.930052
Si Si5 0.780111 0.885773 0.095491
Si Si6 0.709258 0.017911 0.445671
Si Si7 0.392544 0.243902 0.424151
Si Si8 0.784622 0.842476 0.602297
O O1 0.858627 0.355144 0.519542
O O2 0.695351 0.287492 0.231721
O O3 0.000000 0.311982 0.250000
O O4 0.701982 0.362129 0.998196
O O5 0.857200 0.416431 0.800630
O O6 0.000000 0.500000 0.500000
O O7 0.184825 0.443702 0.313323
O O8 0.500000 0.427674 0.750000
O O9 0.697810 0.862395 0.289284
O O10 0.000000 0.881801 0.250000
O O11 0.718535 0.934228 0.047081
O O12 0.696319 0.864255 0.790009
O O13 0.500000 0.002958 0.250000
O O14 0.804839 0.990400 0.735902
O O15 0.500000 0.226881 0.250000
O O16 0.247484 0.207851 0.408219
O O17 0.500000 0.254448 0.750000
O O18 0.000000 0.851884 0.750000
#
# Coordination Sequence:
#
# PCOD8119975 Si02
#       8
#     4   2   2   4   4   4   4   4
#     4  10  23  42  69  99 138 184 229 285 353 410
#     4  10  21  44  70 106 142 190 236 296 358 431
#     4  12  27  50  74 108 154 190 248 304 356 439
#     4  11  24  45  74 105 145 191 244 297 363 429
#     4  10  21  38  63  87 114 162 216 258 318 390
#     4  10  21  36  55  85 120 153 195 255 323 385
#     4  12  27  42  63 101 137 169 225 281 330 401
#     4  10  22  43  62  85 124 172 213 260 322 395
#
# _framework density 22.973697999999999
#
# number of rings (size 3 to 8) (size 9 to 14) (size 15 to 20)
#    0.000    1.429    2.143    3.000    6.000    2.857 
#    3.857    0.000    0.000    0.000    0.000    0.000 
#    0.000    0.000    0.000    0.000    0.000    0.000 
#
# Total GULP energy -346904.137514 kJ/mol
# GULP energy per Si atom -12389.433483 kJ/mol
# Density = 2.292141 g / cm^3
# Si number density = 22.973698 Si / 1000 Ang^3
#
#
#
# Elastic Constant Matrix: (Units=GPa)
#
#
# Indices 1 2 3 4 5 6 
#
# 1 75.2211 37.3287 57.8689 0.0000 -8.3926 0.0000
# 2 37.3287 135.7011 40.9565 0.0000 -10.1084 0.0000
# 3 57.8689 40.9565 141.5601 0.0000 -27.5409 0.0000
# 4 0.0000 0.0000 0.0000 -4.4769 0.0000 33.5626
# 5 -8.3926 -10.1084 -27.5409 0.0000 38.9144 0.0000
# 6 0.0000 0.0000 0.0000 33.5626 0.0000 -15.7261
#
#
#
# Elastic Compliance Matrix: (Units=1/GPa)
#
#
# Indices 1 2 3 4 5 6 
#
# 1 0.020906 -0.003510 -0.007922 0.000000 -0.002009 0.000000
# 2 -0.003510 0.008672 -0.000908 0.000000 0.000853 0.000000
# 3 -0.007922 -0.000908 0.011814 0.000000 0.006416 0.000000
# 4 0.000000 0.000000 0.000000 0.014892 0.000000 0.031781
# 5 -0.002009 0.000853 0.006416 0.000000 0.030027 0.000000
# 6 0.000000 0.000000 0.000000 0.031781 0.000000 0.004239
#
#
# Mechanical properties :
#
#
# Convention : Reuss Voigt Hill
#
# Bulk Modulus (GPa) = 59.83619 69.42115 64.62867
# Shear Modulus (GPa) = 41.39082 18.16416 29.77749
#
# Velocity S-wave (km/s) = 4.24920 2.81490 3.60412
# Velocity P-wave (km/s) = 7.08353 6.39126 6.74628
#
# Compressibility (1/GPa) = 0.01671229
#
# Stress axis : x y z
#
# Youngs Moduli (GPa) = 47.83331 115.31006 84.64782
#
# Poissons Ratio (x) = 0.40469 0.67056
# Poissons Ratio (y) = 0.16788 0.07690
# Poissons Ratio (z) = 0.37892 0.10475
#
# Static dielectric constant tensor:
#      x y z
#    x 3.962260 0.000000 -0.299910 
#    y 0.000000 3.999870 0.000000 
#    z -0.299910 0.000000 4.650280 
# 
# 
# High freq. dielectric constant tensor:
#      x y z
#    x 1.893070 0.000000 -0.010380 
#    y 0.000000 1.911540 0.000000 
#    z -0.010380 0.000000 1.923420 
# 
# From -- ./inp_files/2758.got.cif
#   From: 2010.06.25/outbox.cif.g09.slc.cpg/sg13_2_cif.got.tgz:2758.got - 2010.06.28 04:50:58.
