data_PCOD8119200
_publ_section_title
;
Structure prediction by ZEFSAII (Michael W. Deem and Ramdas Pophale) SiO2 
 PCOD8119200
Probable space group: P 2/C
;
_chemical_formula_sum "Si O2"
_cell_formula_units_Z 24
_cell_length_a 9.461334
_cell_length_b 7.663807
_cell_length_c 19.369131
_cell_angle_alpha 90.000000
_cell_angle_beta 131.611581
_cell_angle_gamma 90.000000
_cell_volume 1050.058437
_symmetry_space_group_name_H-M "P 2/C"
_symmetry_group_IT_number 13
_symmetry_cell_setting 'monoclinic'
loop_
_space_group_symop_operation_xyz
x,y,z
-x,y,1/2-z
-x,-y,-z
x,-y,1/2+z
loop_
_atom_site_type_symbol
_atom_site_label
_atom_site_fract_x
_atom_site_fract_y
_atom_site_fract_z
Si Si1 0.875315 0.242754 0.145544
Si Si2 0.868015 0.851724 0.893438
Si Si3 0.630475 0.542508 0.850747
Si Si4 0.531468 0.673065 0.967966
Si Si5 0.921842 0.654696 0.152391
Si Si6 0.862838 0.228333 0.903325
O O1 0.650059 0.197940 0.080903
O O2 0.887687 0.450132 0.145623
O O3 0.000000 0.172493 0.250000
O O4 0.958846 0.149182 0.104922
O O5 0.725331 0.693880 0.834291
O O6 0.760757 0.040253 0.857979
O O7 0.943467 0.816850 0.994948
O O8 0.500000 0.454884 0.750000
O O9 0.539890 0.625676 0.889379
O O10 0.755952 0.375102 0.914510
O O11 0.500000 0.500000 0.000000
O O12 0.729132 0.752005 0.062702
O O13 0.000000 0.731289 0.250000
O O14 0.091750 0.684809 0.154789
#
# Coordination Sequence:
#
# PCOD8119200 Si02
#       6
#     4   4   4   4   4   4
#     4  10  20  38  65  94 125 172 217 271 332 393
#     4  11  23  42  68  92 133 172 218 271 332 397
#     4  12  24  41  70  96 131 178 217 279 331 389
#     4  10  21  36  64  96 127 168 223 269 328 393
#     4  10  20  37  64  92 131 171 221 270 326 395
#     4  11  23  41  66  96 126 176 223 265 333 399
#
# _framework density 22.855869999999999
#
# number of rings (size 3 to 8) (size 9 to 14) (size 15 to 20)
#    0.000    1.333    3.333    3.500    4.667    1.333 
#    0.000    0.833    7.333    0.000    0.000    0.000 
#    0.000    0.000    0.000    0.000    0.000    0.000 
#
# Total GULP energy -297374.186551 kJ/mol
# GULP energy per Si atom -12390.591106 kJ/mol
# Density = 2.280385 g / cm^3
# Si number density = 22.855870 Si / 1000 Ang^3
#
#
#
# Elastic Constant Matrix: (Units=GPa)
#
#
# Indices 1 2 3 4 5 6 
#
# 1 116.5576 27.2125 25.7005 0.0000 -16.4585 0.0000
# 2 27.2125 80.3715 -0.3693 0.0000 10.8295 0.0000
# 3 25.7005 -0.3693 110.8594 0.0000 -16.5538 0.0000
# 4 0.0000 0.0000 0.0000 6.6198 0.0000 -7.2910
# 5 -16.4585 10.8295 -16.5538 0.0000 36.4233 0.0000
# 6 0.0000 0.0000 0.0000 -7.2910 0.0000 10.9028
#
#
#
# Elastic Compliance Matrix: (Units=1/GPa)
#
#
# Indices 1 2 3 4 5 6 
#
# 1 0.010733 -0.004366 -0.001700 0.000000 0.005375 0.000000
# 2 -0.004366 0.014771 0.000119 0.000000 -0.006311 0.000000
# 3 -0.001700 0.000119 0.009972 0.000000 0.003728 0.000000
# 4 0.000000 0.000000 0.000000 0.573340 0.000000 0.383406
# 5 0.005375 -0.006311 0.003728 0.000000 0.033455 0.000000
# 6 0.000000 0.000000 0.000000 0.383406 0.000000 0.348112
#
#
# Mechanical properties :
#
#
# Convention : Reuss Voigt Hill
#
# Bulk Modulus (GPa) = 42.40578 45.87511 44.14045
# Shear Modulus (GPa) = 4.94983 27.80553 16.37768
#
# Velocity S-wave (km/s) = 1.47322 3.49171 2.67977
# Velocity P-wave (km/s) = 4.63548 6.03084 5.37860
#
# Compressibility (1/GPa) = 0.02358169
#
# Stress axis : x y z
#
# Youngs Moduli (GPa) = 93.17393 67.69881 100.28401
#
# Poissons Ratio (x) = 0.29557 0.17049
# Poissons Ratio (y) = 0.40679 -0.01194
# Poissons Ratio (z) = 0.15840 -0.00806
#
# Static dielectric constant tensor:
#      x y z
#    x 4.374690 0.000000 0.250890 
#    y 0.000000 4.020560 0.000000 
#    z 0.250890 0.000000 4.546540 
# 
# 
# High freq. dielectric constant tensor:
#      x y z
#    x 1.900960 0.000000 -0.011680 
#    y 0.000000 1.878310 0.000000 
#    z -0.011680 0.000000 1.903350 
# 
# From -- ./inp_files/75760.got.cif
#   From: 2010.06.25/outbox.cif.g09.slc.cpg/sg13_38_cif.got.tgz:75760.got - 2010.06.28 04:50:58.
