data_PCOD8119210
_publ_section_title
;
Structure prediction by ZEFSAII (Michael W. Deem and Ramdas Pophale) SiO2 
 PCOD8119210
Probable space group: P 2/C
;
_chemical_formula_sum "Si O2"
_cell_formula_units_Z 26
_cell_length_a 14.248197
_cell_length_b 11.547362
_cell_length_c 12.543292
_cell_angle_alpha 90.000000
_cell_angle_beta 32.731539
_cell_angle_gamma 90.000000
_cell_volume 1115.869404
_symmetry_space_group_name_H-M "P 2/C"
_symmetry_group_IT_number 13
_symmetry_cell_setting 'monoclinic'
loop_
_space_group_symop_operation_xyz
x,y,z
-x,y,1/2-z
-x,-y,-z
x,-y,1/2+z
loop_
_atom_site_type_symbol
_atom_site_label
_atom_site_fract_x
_atom_site_fract_y
_atom_site_fract_z
Si Si1 0.726725 0.068811 0.133470
Si Si2 0.030201 0.894526 0.844982
Si Si3 0.351386 0.955912 0.039082
Si Si4 0.322900 0.494434 0.732161
Si Si5 0.897229 0.283821 0.055286
Si Si6 0.743718 0.708746 0.343121
Si Si7 0.500000 0.590865 0.750000
O O1 0.557506 0.013924 0.355872
O O2 0.749788 0.203266 0.143085
O O3 0.694381 0.069025 0.039833
O O4 0.893856 0.994330 0.009014
O O5 0.012732 0.776367 0.927333
O O6 0.000000 0.865328 0.750000
O O7 0.225029 0.938723 0.692034
O O8 0.309173 0.837735 0.142094
O O9 0.500000 0.500000 0.500000
O O10 0.189203 0.595807 0.825792
O O11 0.250066 0.369401 0.770786
O O12 0.364441 0.508189 0.817747
O O13 0.051953 0.296827 0.819264
O O14 0.613828 0.667610 0.560147
#
# Coordination Sequence:
#
# PCOD8119210 Si02
#       7
#     4   4   4   4   4   4   2
#     4  10  20  37  65  97 128 176 231 273 324 391
#     4  10  23  43  61  94 141 179 226 274 333 398
#     4  10  20  38  65  95 133 178 220 274 331 388
#     4  10  23  44  65  95 129 168 223 274 331 402
#     4  12  23  40  65  96 133 173 226 281 330 397
#     4  11  22  40  68  99 130 170 228 273 333 397
#     4  10  22  44  68  94 130 170 216 280 328 398
#
# _framework density 23.300217
#
# number of rings (size 3 to 8) (size 9 to 14) (size 15 to 20)
#    0.000    1.538    1.538    4.615    0.000    2.462 
#   11.077    0.000    0.000    0.000    0.000    0.000 
#    0.000    0.000    0.000    0.000    0.000    0.000 
#
# Total GULP energy -322295.561246 kJ/mol
# GULP energy per Si atom -12395.983125 kJ/mol
# Density = 2.324719 g / cm^3
# Si number density = 23.300217 Si / 1000 Ang^3
#
#
#
# Elastic Constant Matrix: (Units=GPa)
#
#
# Indices 1 2 3 4 5 6 
#
# 1 57.8272 30.6267 32.0744 0.0000 -16.5158 0.0000
# 2 30.6267 107.5492 42.6029 0.0000 -3.9706 0.0000
# 3 32.0744 42.6029 149.3163 0.0000 -22.1621 0.0000
# 4 0.0000 0.0000 0.0000 40.0555 0.0000 -4.5517
# 5 -16.5158 -3.9706 -22.1621 0.0000 39.9805 0.0000
# 6 0.0000 0.0000 0.0000 -4.5517 0.0000 22.7993
#
#
#
# Elastic Compliance Matrix: (Units=1/GPa)
#
#
# Indices 1 2 3 4 5 6 
#
# 1 0.023819 -0.005559 -0.002345 0.000000 0.007988 0.000000
# 2 -0.005559 0.011797 -0.002548 0.000000 -0.002538 0.000000
# 3 -0.002345 -0.002548 0.008441 0.000000 0.003457 0.000000
# 4 0.000000 0.000000 0.000000 0.025545 0.000000 0.005100
# 5 0.007988 -0.002538 0.003457 0.000000 0.029976 0.000000
# 6 0.000000 0.000000 0.000000 0.005100 0.000000 0.044879
#
#
# Mechanical properties :
#
#
# Convention : Reuss Voigt Hill
#
# Bulk Modulus (GPa) = 43.19207 58.36674 50.77941
# Shear Modulus (GPa) = 28.88842 34.52633 31.70737
#
# Velocity S-wave (km/s) = 3.52495 3.85360 3.69293
# Velocity P-wave (km/s) = 5.92828 6.70108 6.32649
#
# Compressibility (1/GPa) = 0.02315240
#
# Stress axis : x y z
#
# Youngs Moduli (GPa) = 41.98310 84.76770 118.46743
#
# Poissons Ratio (x) = 0.47124 0.27779
# Poissons Ratio (y) = 0.23339 0.30190
# Poissons Ratio (z) = 0.09844 0.21602
#
# Static dielectric constant tensor:
#      x y z
#    x 4.978180 0.000000 -0.342190 
#    y 0.000000 4.522320 0.000000 
#    z -0.342190 0.000000 4.822210 
# 
# 
# High freq. dielectric constant tensor:
#      x y z
#    x 1.931720 0.000000 -0.007030 
#    y 0.000000 1.904660 0.000000 
#    z -0.007030 0.000000 1.945690 
# 
# From -- ./inp_files/53661.got.cif
#   From: 2010.06.25/outbox.cif.g09.slc.cpg/sg13_27_cif.got.tgz:53661.got - 2010.06.28 04:50:58.
