data_PCOD8119846
_publ_section_title
;
Structure prediction by ZEFSAII (Michael W. Deem and Ramdas Pophale) SiO2 
 PCOD8119846
Probable space group: P 2/C
;
_chemical_formula_sum "Si O2"
_cell_formula_units_Z 28
_cell_length_a 22.472031
_cell_length_b 10.402096
_cell_length_c 10.969614
_cell_angle_alpha 90.000000
_cell_angle_beta 32.178462
_cell_angle_gamma 90.000000
_cell_volume 1365.593879
_symmetry_space_group_name_H-M "P 2/C"
_symmetry_group_IT_number 13
_symmetry_cell_setting 'monoclinic'
loop_
_space_group_symop_operation_xyz
x,y,z
-x,y,1/2-z
-x,-y,-z
x,-y,1/2+z
loop_
_atom_site_type_symbol
_atom_site_label
_atom_site_fract_x
_atom_site_fract_y
_atom_site_fract_z
Si Si1 0.245692 0.008367 0.312821
Si Si2 0.555416 0.649136 0.822440
Si Si3 0.214145 0.317754 0.669080
Si Si4 0.318043 0.736663 0.220512
Si Si5 0.878677 0.941283 0.223309
Si Si6 0.302932 0.576984 0.475228
Si Si7 0.602869 0.248723 0.492688
O O1 0.161393 0.013734 0.573740
O O2 0.327783 0.890229 0.200585
O O3 0.190074 0.991172 0.275447
O O4 0.317983 0.135482 0.186968
O O5 0.660790 0.731275 0.587362
O O6 0.582527 0.497196 0.761194
O O7 0.436077 0.678915 0.966547
O O8 0.541311 0.685945 0.987153
O O9 0.216097 0.311200 0.812246
O O10 0.122983 0.217049 0.774209
O O11 0.201630 0.469105 0.652121
O O12 0.279232 0.688694 0.420169
O O13 0.000000 0.000000 0.000000
O O14 0.319858 0.643443 0.576499
O O15 0.500000 0.194469 0.750000
#
# Coordination Sequence:
#
# PCOD8119846 Si02
#       7
#     4   4   4   4   4   4   4
#     4  11  25  42  61  95 125 164 218 262 330 391
#     4  10  21  33  55  85 130 167 215 242 299 377
#     4   9  22  34  58  88 120 156 214 261 306 372
#     4  11  20  34  56  85 127 172 200 253 304 376
#     4  11  23  45  68  89 117 162 216 282 337 385
#     4  10  21  34  56  88 129 172 212 250 301 373
#     4  12  23  36  57  91 134 180 209 251 308 394
#
# _framework density 20.503899000000001
#
# number of rings (size 3 to 8) (size 9 to 14) (size 15 to 20)
#    0.857    0.571    2.857    3.000    2.000    2.857 
#    0.000    0.000    0.000    3.429    0.000   12.000 
#    0.000    0.000    0.000    0.000    0.000    0.000 
#
# Total GULP energy -346884.711569 kJ/mol
# GULP energy per Si atom -12388.739699 kJ/mol
# Density = 2.045723 g / cm^3
# Si number density = 20.503899 Si / 1000 Ang^3
#
#
#
# Elastic Constant Matrix: (Units=GPa)
#
#
# Indices 1 2 3 4 5 6 
#
# 1 65.9488 34.1764 19.2024 0.0000 9.0612 0.0000
# 2 34.1764 136.4168 36.3493 0.0000 -6.6948 0.0000
# 3 19.2024 36.3493 74.6276 0.0000 7.4293 0.0000
# 4 0.0000 0.0000 0.0000 31.9307 0.0000 2.2885
# 5 9.0612 -6.6948 7.4293 0.0000 27.2407 0.0000
# 6 0.0000 0.0000 0.0000 2.2885 0.0000 30.9960
#
#
#
# Elastic Compliance Matrix: (Units=1/GPa)
#
#
# Indices 1 2 3 4 5 6 
#
# 1 0.019071 -0.004590 -0.001981 0.000000 -0.006931 0.000000
# 2 -0.004590 0.009823 -0.004107 0.000000 0.005061 0.000000
# 3 -0.001981 -0.004107 0.016390 0.000000 -0.004820 0.000000
# 4 0.000000 0.000000 0.000000 0.031484 0.000000 -0.002325
# 5 -0.006931 0.005061 -0.004820 0.000000 0.041574 0.000000
# 6 0.000000 0.000000 0.000000 -0.002325 0.000000 0.032434
#
#
# Mechanical properties :
#
#
# Convention : Reuss Voigt Hill
#
# Bulk Modulus (GPa) = 41.79418 50.71659 46.25539
# Shear Modulus (GPa) = 27.76070 30.51782 29.13926
#
# Velocity S-wave (km/s) = 3.68356 3.86215 3.77391
# Velocity P-wave (km/s) = 6.20639 6.68409 6.44967
#
# Compressibility (1/GPa) = 0.02392678
#
# Stress axis : x y z
#
# Youngs Moduli (GPa) = 52.43476 101.79896 61.01187
#
# Poissons Ratio (x) = 0.46727 0.12089
# Poissons Ratio (y) = 0.24068 0.25060
# Poissons Ratio (z) = 0.10390 0.41813
#
# Static dielectric constant tensor:
#      x y z
#    x 3.782890 0.000000 0.336430 
#    y 0.000000 3.754170 0.000000 
#    z 0.336430 0.000000 3.400470 
# 
# 
# High freq. dielectric constant tensor:
#      x y z
#    x 1.803380 0.000000 0.037150 
#    y 0.000000 1.807790 0.000000 
#    z 0.037150 0.000000 1.767400 
# 
# From -- ./inp_files/41763.got.cif
#   From: 2010.06.25/outbox.cif.g09.slc.cpg/sg13_21_cif.got.tgz:41763.got - 2010.06.28 04:50:58.
