data_PCOD8119793
_publ_section_title
;
Structure prediction by ZEFSAII (Michael W. Deem and Ramdas Pophale) SiO2 
 PCOD8119793
Probable space group: P 2/C
;
_chemical_formula_sum "Si O2"
_cell_formula_units_Z 26
_cell_length_a 9.377160
_cell_length_b 7.624725
_cell_length_c 25.054139
_cell_angle_alpha 90.000000
_cell_angle_beta 139.232014
_cell_angle_gamma 90.000000
_cell_volume 1169.732436
_symmetry_space_group_name_H-M "P 2/C"
_symmetry_group_IT_number 13
_symmetry_cell_setting 'monoclinic'
loop_
_space_group_symop_operation_xyz
x,y,z
-x,y,1/2-z
-x,-y,-z
x,-y,1/2+z
loop_
_atom_site_type_symbol
_atom_site_label
_atom_site_fract_x
_atom_site_fract_y
_atom_site_fract_z
Si Si1 0.010109 0.523764 0.839277
Si Si2 0.123401 0.434295 0.586371
Si Si3 0.934838 0.969080 0.421017
Si Si4 0.500000 0.923929 0.250000
Si Si5 0.783289 0.871659 0.590076
Si Si6 0.355017 0.774641 0.411760
Si Si7 0.409999 0.344173 0.811443
O O1 0.943542 0.551506 0.882272
O O2 0.801722 0.468812 0.744849
O O3 0.085650 0.717520 0.842423
O O4 0.200414 0.382242 0.886519
O O5 0.060127 0.238714 0.585508
O O6 0.380164 0.455191 0.647212
O O7 0.000000 0.500000 0.500000
O O8 0.688051 0.035299 0.334434
O O9 0.000000 0.000000 0.500000
O O10 0.110612 0.066491 0.435180
O O11 0.632298 0.806681 0.244322
O O12 0.546549 0.791017 0.509441
O O13 0.772043 0.038851 0.626268
O O14 0.453499 0.739871 0.381350
#
# Coordination Sequence:
#
# PCOD8119793 Si02
#       7
#     4   4   4   2   4   4   4
#     4  12  22  44  70  97 140 178 232 289 353 423
#     4  11  22  41  71  99 133 181 229 290 357 416
#     4  11  21  41  65 101 139 180 232 288 351 421
#     4  10  20  42  68  94 142 182 226 292 360 412
#     4  11  24  43  70 103 136 183 242 288 348 430
#     4  11  24  44  70  98 143 186 230 294 357 421
#     4  11  21  43  69  97 138 187 224 290 365 413
#
# _framework density 22.227304
#
# number of rings (size 3 to 8) (size 9 to 14) (size 15 to 20)
#    0.000    0.923    4.615    4.615    0.000    0.000 
#    5.538    6.154    0.000    0.000    0.000    0.000 
#    0.000    0.000    0.000    0.000    0.000    0.000 
#
# Total GULP energy -322393.331223 kJ/mol
# GULP energy per Si atom -12399.743509 kJ/mol
# Density = 2.217671 g / cm^3
# Si number density = 22.227304 Si / 1000 Ang^3
#
#
#
# Elastic Constant Matrix: (Units=GPa)
#
#
# Indices 1 2 3 4 5 6 
#
# 1 91.5587 28.7747 21.3803 0.0000 7.2310 0.0000
# 2 28.7747 103.4407 18.0165 0.0000 20.0314 0.0000
# 3 21.3803 18.0165 108.3577 0.0000 10.9652 0.0000
# 4 0.0000 0.0000 0.0000 34.9865 0.0000 2.1605
# 5 7.2310 20.0314 10.9652 0.0000 42.9362 0.0000
# 6 0.0000 0.0000 0.0000 2.1605 0.0000 24.0039
#
#
#
# Elastic Compliance Matrix: (Units=1/GPa)
#
#
# Indices 1 2 3 4 5 6 
#
# 1 0.012345 -0.003071 -0.001909 0.000000 -0.000159 0.000000
# 2 -0.003071 0.011573 -0.000846 0.000000 -0.004666 0.000000
# 3 -0.001909 -0.000846 0.009930 0.000000 -0.001820 0.000000
# 4 0.000000 0.000000 0.000000 0.028742 0.000000 -0.002587
# 5 -0.000159 -0.004666 -0.001820 0.000000 0.025959 0.000000
# 6 0.000000 0.000000 0.000000 -0.002587 0.000000 0.041893
#
#
# Mechanical properties :
#
#
# Convention : Reuss Voigt Hill
#
# Bulk Modulus (GPa) = 45.05363 48.85557 46.95460
# Shear Modulus (GPa) = 33.44642 36.06436 34.75539
#
# Velocity S-wave (km/s) = 3.88331 4.03243 3.95857
# Velocity P-wave (km/s) = 6.35770 6.61123 6.48570
#
# Compressibility (1/GPa) = 0.02219577
#
# Stress axis : x y z
#
# Youngs Moduli (GPa) = 81.00150 86.41150 100.70252
#
# Poissons Ratio (x) = 0.26536 0.19227
# Poissons Ratio (y) = 0.24875 0.08520
# Poissons Ratio (z) = 0.15465 0.07311
#
# Static dielectric constant tensor:
#      x y z
#    x 4.065420 0.000000 0.076140 
#    y 0.000000 4.169530 0.000000 
#    z 0.076140 0.000000 5.132300 
# 
# 
# High freq. dielectric constant tensor:
#      x y z
#    x 1.882480 0.000000 0.006540 
#    y 0.000000 1.861360 0.000000 
#    z 0.006540 0.000000 1.881850 
# 
# From -- ./inp_files/91328.got.cif
#   From: 2010.06.25/outbox.cif.g09.slc.cpg/sg13_46_cif.got.tgz:91328.got - 2010.06.28 04:50:58.
