data_PCOD8119152
_publ_section_title
;
Structure prediction by ZEFSAII (Michael W. Deem and Ramdas Pophale) SiO2 
 PCOD8119152
Probable space group: P 2/C
;
_chemical_formula_sum "Si O2"
_cell_formula_units_Z 24
_cell_length_a 8.352535
_cell_length_b 13.127778
_cell_length_c 19.051602
_cell_angle_alpha 90.000000
_cell_angle_beta 30.643310
_cell_angle_gamma 90.000000
_cell_volume 1064.752739
_symmetry_space_group_name_H-M "P 2/C"
_symmetry_group_IT_number 13
_symmetry_cell_setting 'monoclinic'
loop_
_space_group_symop_operation_xyz
x,y,z
-x,y,1/2-z
-x,-y,-z
x,-y,1/2+z
loop_
_atom_site_type_symbol
_atom_site_label
_atom_site_fract_x
_atom_site_fract_y
_atom_site_fract_z
Si Si1 0.435205 0.431186 0.454995
Si Si2 0.694599 0.209316 0.324319
Si Si3 0.816376 0.581159 0.252240
Si Si4 0.048923 0.111569 0.559049
Si Si5 0.710494 0.807286 0.311795
Si Si6 0.969088 0.873929 0.930450
O O1 0.500000 0.500000 0.500000
O O2 0.618595 0.324061 0.378597
O O3 0.534146 0.498858 0.349025
O O4 0.058281 0.408529 0.595553
O O5 0.398214 0.138009 0.454991
O O6 0.000000 0.168241 0.250000
O O7 0.784368 0.192792 0.208201
O O8 0.666255 0.686674 0.333445
O O9 0.000000 0.535126 0.250000
O O10 0.780104 0.166116 0.705252
O O11 0.015136 0.157336 0.493876
O O12 0.965155 0.993575 0.599541
O O13 0.386885 0.854884 0.460949
O O14 0.000000 0.846796 0.250000
#
# Coordination Sequence:
#
# PCOD8119152 Si02
#       6
#     4   4   4   4   4   4
#     4  10  20  37  61  98 132 169 209 271 335 403
#     4  12  24  39  68 103 131 169 227 287 324 385
#     4   9  19  33  59  90 129 160 203 263 330 392
#     4  11  24  47  61  92 136 181 229 264 338 408
#     4  11  22  39  66  98 129 166 221 280 332 387
#     4  11  26  41  68  90 132 190 219 270 337 406
#
# _framework density 22.540443
#
# number of rings (size 3 to 8) (size 9 to 14) (size 15 to 20)
#    0.000    1.333    1.667    4.500    7.000    6.667 
#    0.000    0.000    0.000    6.000    0.000    0.000 
#    0.000    0.000    0.000    0.000    0.000    0.000 
#
# Total GULP energy -297382.680010 kJ/mol
# GULP energy per Si atom -12390.945000 kJ/mol
# Density = 2.248914 g / cm^3
# Si number density = 22.540443 Si / 1000 Ang^3
#
#
#
# Elastic Constant Matrix: (Units=GPa)
#
#
# Indices 1 2 3 4 5 6 
#
# 1 38.5489 22.4334 2.6995 0.0000 0.7682 0.0000
# 2 22.4334 73.3130 35.2997 0.0000 13.6001 0.0000
# 3 2.6995 35.2997 132.6523 0.0000 2.9276 0.0000
# 4 0.0000 0.0000 0.0000 41.3952 0.0000 12.5971
# 5 0.7682 13.6001 2.9276 0.0000 32.0242 0.0000
# 6 0.0000 0.0000 0.0000 12.5971 0.0000 4.9828
#
#
#
# Elastic Compliance Matrix: (Units=1/GPa)
#
#
# Indices 1 2 3 4 5 6 
#
# 1 0.032611 -0.011891 0.002411 0.000000 0.004047 0.000000
# 2 -0.011891 0.021349 -0.005256 0.000000 -0.008301 0.000000
# 3 0.002411 -0.005256 0.008858 0.000000 0.001365 0.000000
# 4 0.000000 0.000000 0.000000 0.104728 0.000000 -0.264763
# 5 0.004047 -0.008301 0.001365 0.000000 0.034530 0.000000
# 6 0.000000 0.000000 0.000000 -0.264763 0.000000 0.870039
#
#
# Mechanical properties :
#
#
# Convention : Reuss Voigt Hill
#
# Bulk Modulus (GPa) = 29.98710 40.59772 35.29241
# Shear Modulus (GPa) = 4.49357 27.95255 16.22306
#
# Velocity S-wave (km/s) = 1.41347 3.52534 2.68569
# Velocity P-wave (km/s) = 3.99955 5.88394 5.03077
#
# Compressibility (1/GPa) = 0.03334768
#
# Stress axis : x y z
#
# Youngs Moduli (GPa) = 30.66420 46.84011 112.89250
#
# Poissons Ratio (x) = 0.55696 -0.27221
# Poissons Ratio (y) = 0.36462 0.59336
# Poissons Ratio (z) = -0.07394 0.24619
#
# Static dielectric constant tensor:
#      x y z
#    x 3.790570 0.000000 -0.164490 
#    y 0.000000 3.955290 0.000000 
#    z -0.164490 0.000000 5.089760 
# 
# 
# High freq. dielectric constant tensor:
#      x y z
#    x 1.838730 0.000000 -0.006530 
#    y 0.000000 1.887370 0.000000 
#    z -0.006530 0.000000 1.924000 
# 
# From -- ./inp_files/64592.got.cif
#   From: 2010.06.25/outbox.cif.g09.slc.cpg/sg13_33_cif.got.tgz:64592.got - 2010.06.28 04:50:58.
