data_PCOD8119776
_publ_section_title
;
Structure prediction by ZEFSAII (Michael W. Deem and Ramdas Pophale) SiO2 
 PCOD8119776
Probable space group: P 2/C
;
_chemical_formula_sum "Si O2"
_cell_formula_units_Z 28
_cell_length_a 20.695579
_cell_length_b 11.019312
_cell_length_c 9.003464
_cell_angle_alpha 90.000000
_cell_angle_beta 41.651043
_cell_angle_gamma 90.000000
_cell_volume 1364.573375
_symmetry_space_group_name_H-M "P 2/C"
_symmetry_group_IT_number 13
_symmetry_cell_setting 'monoclinic'
loop_
_space_group_symop_operation_xyz
x,y,z
-x,y,1/2-z
-x,-y,-z
x,-y,1/2+z
loop_
_atom_site_type_symbol
_atom_site_label
_atom_site_fract_x
_atom_site_fract_y
_atom_site_fract_z
Si Si1 0.406799 0.637657 0.162469
Si Si2 0.798874 0.621027 0.098087
Si Si3 0.439791 0.095441 0.504052
Si Si4 0.000000 0.243685 0.750000
Si Si5 0.900613 0.038845 0.748155
Si Si6 0.500000 0.487876 0.750000
Si Si7 0.096032 0.432461 0.377432
Si Si8 0.780260 0.102329 0.685738
O O1 0.304050 0.584538 0.290764
O O2 0.425667 0.781195 0.120766
O O3 0.419875 0.601377 0.313771
O O4 0.477928 0.573884 0.925359
O O5 0.829687 0.525764 0.172056
O O6 0.787644 0.753242 0.188352
O O7 0.869527 0.623316 0.836477
O O8 0.328810 0.052174 0.659833
O O9 0.500000 0.000000 0.500000
O O10 0.500000 0.118103 0.250000
O O11 0.923387 0.165418 0.788455
O O12 0.072318 0.322579 0.526639
O O13 0.810571 0.050166 0.792026
O O14 0.000000 0.000000 0.500000
O O15 0.862686 0.938997 0.928299
O O16 0.000000 0.500000 0.500000
#
# Coordination Sequence:
#
# PCOD8119776 Si02
#       8
#     4   4   4   2   4   2   4   4
#     4  10  22  41  67  94 124 166 207 268 321 385
#     4  11  24  41  63  94 128 162 215 260 315 378
#     4  11  24  45  66  96 132 168 219 273 331 388
#     4  12  24  40  66  94 130 172 218 258 328 378
#     4  12  23  44  66  94 130 170 218 269 322 388
#     4  10  20  42  66  92 126 158 212 250 332 382
#     4  12  23  42  63  93 132 173 211 257 318 381
#     4  11  25  43  67  96 128 173 217 269 326 385
#
# _framework density 20.519234000000001
#
# number of rings (size 3 to 8) (size 9 to 14) (size 15 to 20)
#    0.000    0.857    3.571    3.429    1.000    1.143 
#    0.000    2.857    0.000    0.000    0.000    0.000 
#    0.000    0.000    0.000    0.000    0.000    0.000 
#
# Total GULP energy -347044.944891 kJ/mol
# GULP energy per Si atom -12394.462318 kJ/mol
# Density = 2.047253 g / cm^3
# Si number density = 20.519234 Si / 1000 Ang^3
#
#
#
# Elastic Constant Matrix: (Units=GPa)
#
#
# Indices 1 2 3 4 5 6 
#
# 1 155.0566 49.7874 8.8296 0.0000 -14.1225 0.0000
# 2 49.7874 80.7348 4.1397 0.0000 -8.6771 0.0000
# 3 8.8296 4.1397 63.9821 0.0000 -10.6119 0.0000
# 4 0.0000 0.0000 0.0000 29.6742 0.0000 -6.8623
# 5 -14.1225 -8.6771 -10.6119 0.0000 37.8268 0.0000
# 6 0.0000 0.0000 0.0000 -6.8623 0.0000 28.9580
#
#
#
# Elastic Compliance Matrix: (Units=1/GPa)
#
#
# Indices 1 2 3 4 5 6 
#
# 1 0.008195 -0.004833 -0.000519 0.000000 0.001805 0.000000
# 2 -0.004833 0.015557 -0.000049 0.000000 0.001750 0.000000
# 3 -0.000519 -0.000049 0.016435 0.000000 0.004406 0.000000
# 4 0.000000 0.000000 0.000000 0.035653 0.000000 0.008449
# 5 0.001805 0.001750 0.004406 0.000000 0.028748 0.000000
# 6 0.000000 0.000000 0.000000 0.008449 0.000000 0.036535
#
#
# Mechanical properties :
#
#
# Convention : Reuss Voigt Hill
#
# Bulk Modulus (GPa) = 34.03097 47.25410 40.64254
# Shear Modulus (GPa) = 30.91753 35.09292 33.00523
#
# Velocity S-wave (km/s) = 3.88591 4.14000 4.01496
# Velocity P-wave (km/s) = 6.06256 6.77731 6.42987
#
# Compressibility (1/GPa) = 0.02938500
#
# Stress axis : x y z
#
# Youngs Moduli (GPa) = 122.02411 64.27821 60.84626
#
# Poissons Ratio (x) = 0.31066 0.03157
# Poissons Ratio (y) = 0.58976 0.00300
# Poissons Ratio (z) = 0.06330 0.00317
#
# Static dielectric constant tensor:
#      x y z
#    x 4.248590 0.000000 0.040310 
#    y 0.000000 3.691690 0.000000 
#    z 0.040310 0.000000 3.694460 
# 
# 
# High freq. dielectric constant tensor:
#      x y z
#    x 1.822330 0.000000 0.002320 
#    y 0.000000 1.806910 0.000000 
#    z 0.002320 0.000000 1.803750 
# 
# From -- ./inp_files/18873.got.cif
#   From: 2010.06.25/outbox.cif.g09.slc.cpg/sg13_10_cif.got.tgz:18873.got - 2010.06.28 04:50:58.
