data_PCOD8119376
_publ_section_title
;
Structure prediction by ZEFSAII (Michael W. Deem and Ramdas Pophale) SiO2 
 PCOD8119376
Probable space group: P 2/C
;
_chemical_formula_sum "Si O2"
_cell_formula_units_Z 28
_cell_length_a 10.130479
_cell_length_b 10.756574
_cell_length_c 21.343608
_cell_angle_alpha 90.000000
_cell_angle_beta 33.242258
_cell_angle_gamma 90.000000
_cell_volume 1274.955858
_symmetry_space_group_name_H-M "P 2/C"
_symmetry_group_IT_number 13
_symmetry_cell_setting 'monoclinic'
loop_
_space_group_symop_operation_xyz
x,y,z
-x,y,1/2-z
-x,-y,-z
x,-y,1/2+z
loop_
_atom_site_type_symbol
_atom_site_label
_atom_site_fract_x
_atom_site_fract_y
_atom_site_fract_z
Si Si1 0.423271 0.489619 0.659076
Si Si2 0.742159 0.098152 0.820386
Si Si3 0.100574 0.319724 0.344514
Si Si4 0.737176 0.176027 0.326910
Si Si5 0.573816 0.313209 0.504234
Si Si6 0.879353 0.625261 0.526219
Si Si7 0.300569 0.748957 0.282473
O O1 0.173394 0.551853 0.779800
O O2 0.428798 0.438662 0.583854
O O3 0.635805 0.589218 0.586626
O O4 0.442142 0.365222 0.693423
O O5 0.771073 0.142152 0.737069
O O6 0.000000 0.104106 0.750000
O O7 0.619341 0.960928 0.875615
O O8 0.564583 0.187671 0.926600
O O9 0.245028 0.209819 0.253019
O O10 0.179925 0.305163 0.385072
O O11 0.815070 0.311994 0.450009
O O12 0.614052 0.293792 0.413293
O O13 0.000000 0.161824 0.250000
O O14 0.000000 0.500000 0.500000
O O15 0.051679 0.707553 0.414295
O O16 0.500000 0.805457 0.250000
#
# Coordination Sequence:
#
# PCOD8119376 Si02
#       7
#     4   4   4   4   4   4   4
#     4  11  20  34  59  90 119 158 201 255 305 375
#     4  10  22  41  64  89 121 161 214 265 312 361
#     4  11  21  36  58  90 122 158 202 249 311 367
#     4   9  21  40  60  84 118 161 205 257 309 369
#     4  10  20  38  64  85 115 161 204 249 312 372
#     4  12  19  34  59  85 125 162 200 245 314 367
#     4  11  20  36  61  92 119 160 212 251 304 371
#
# _framework density 21.961545999999998
#
# number of rings (size 3 to 8) (size 9 to 14) (size 15 to 20)
#    0.000    1.429    4.286    1.714    0.000    1.714 
#    0.000   12.143    0.000    0.000    0.000    0.000 
#    0.000    0.000    0.000    0.000    0.000    0.000 
#
# Total GULP energy -346935.909227 kJ/mol
# GULP energy per Si atom -12390.568187 kJ/mol
# Density = 2.191156 g / cm^3
# Si number density = 21.961546 Si / 1000 Ang^3
#
#
#
# Elastic Constant Matrix: (Units=GPa)
#
#
# Indices 1 2 3 4 5 6 
#
# 1 87.6747 27.9409 31.6624 0.0000 11.5921 0.0000
# 2 27.9409 61.1005 27.0162 0.0000 -5.3723 0.0000
# 3 31.6624 27.0162 104.2664 0.0000 16.2573 0.0000
# 4 0.0000 0.0000 0.0000 23.9823 0.0000 0.3253
# 5 11.5921 -5.3723 16.2573 0.0000 36.3125 0.0000
# 6 0.0000 0.0000 0.0000 0.3253 0.0000 12.1835
#
#
#
# Elastic Compliance Matrix: (Units=1/GPa)
#
#
# Indices 1 2 3 4 5 6 
#
# 1 0.014783 -0.006222 -0.002147 0.000000 -0.004678 0.000000
# 2 -0.006222 0.022081 -0.005000 0.000000 0.007492 0.000000
# 3 -0.002147 -0.005000 0.012414 0.000000 -0.005612 0.000000
# 4 0.000000 0.000000 0.000000 0.041713 0.000000 -0.001114
# 5 -0.004678 0.007492 -0.005612 0.000000 0.032653 0.000000
# 6 0.000000 0.000000 0.000000 -0.001114 0.000000 0.082108
#
#
# Mechanical properties :
#
#
# Convention : Reuss Voigt Hill
#
# Bulk Modulus (GPa) = 44.36848 47.36452 45.86650
# Shear Modulus (GPa) = 20.83311 25.59047 23.21179
#
# Velocity S-wave (km/s) = 3.08331 3.41726 3.25457
# Velocity P-wave (km/s) = 5.73780 6.09788 5.92058
#
# Compressibility (1/GPa) = 0.02253852
#
# Stress axis : x y z
#
# Youngs Moduli (GPa) = 67.64666 45.28730 80.55741
#
# Poissons Ratio (x) = 0.28177 0.17300
# Poissons Ratio (y) = 0.42089 0.40280
# Poissons Ratio (z) = 0.14527 0.22644
#
# Static dielectric constant tensor:
#      x y z
#    x 9.472420 0.000000 0.973980 
#    y 0.000000 3.994480 0.000000 
#    z 0.973980 0.000000 4.406560 
# 
# 
# High freq. dielectric constant tensor:
#      x y z
#    x 1.850760 0.000000 0.016670 
#    y 0.000000 1.849230 0.000000 
#    z 0.016670 0.000000 1.880670 
# 
# From -- ./inp_files/86518.got.cif
#   From: 2010.06.25/outbox.cif.g09.slc.cpg/sg13_44_cif.got.tgz:86518.got - 2010.06.28 04:50:58.
