data_PCOD8119240
_publ_section_title
;
Structure prediction by ZEFSAII (Michael W. Deem and Ramdas Pophale) SiO2 
 PCOD8119240
Probable space group: P 2/C
;
_chemical_formula_sum "Si O2"
_cell_formula_units_Z 22
_cell_length_a 8.811801
_cell_length_b 16.205485
_cell_length_c 7.864268
_cell_angle_alpha 90.000000
_cell_angle_beta 98.479797
_cell_angle_gamma 90.000000
_cell_volume 1110.736735
_symmetry_space_group_name_H-M "P 2/C"
_symmetry_group_IT_number 13
_symmetry_cell_setting 'monoclinic'
loop_
_space_group_symop_operation_xyz
x,y,z
-x,y,1/2-z
-x,-y,-z
x,-y,1/2+z
loop_
_atom_site_type_symbol
_atom_site_label
_atom_site_fract_x
_atom_site_fract_y
_atom_site_fract_z
Si Si1 0.776546 0.942501 0.451589
Si Si2 0.320129 0.104558 0.204046
Si Si3 0.000000 0.140599 0.750000
Si Si4 0.111663 0.394641 0.911360
Si Si5 0.719892 0.762246 0.049306
Si Si6 0.000000 0.550088 0.750000
Si Si7 0.500000 0.843897 0.250000
O O1 0.776490 0.910296 0.642644
O O2 0.637014 0.901810 0.328239
O O3 0.938038 0.918462 0.391254
O O4 0.748123 0.041209 0.448325
O O5 0.500000 0.086911 0.250000
O O6 0.288519 0.198533 0.140710
O O7 0.864581 0.199530 0.668039
O O8 0.262987 0.337466 0.949287
O O9 0.136936 0.488843 0.845967
O O10 0.000000 0.352785 0.750000
O O11 0.048504 0.395020 0.096408
O O12 0.558152 0.784249 0.109738
#
# Coordination Sequence:
#
# PCOD8119240 Si02
#       7
#     4   4   2   4   4   2   2
#     4  11  22  38  59  76 115 154 215 241 295 341
#     4  12  23  38  58  82 109 164 206 246 283 359
#     4  10  23  38  55  88 112 154 184 262 307 332
#     4   9  17  36  60  93 117 149 185 234 285 368
#     4  11  22  37  59  85 122 144 196 239 308 335
#     4   8  17  34  65  90 120 150 186 218 301 372
#     4  10  20  38  58  78 112 170 190 244 278 358
#
# _framework density 19.806673
#
# number of rings (size 3 to 8) (size 9 to 14) (size 15 to 20)
#    0.545    1.091    3.636    2.727    0.000    5.091 
#    0.000    0.000    0.000    1.091    0.000    0.000 
#    0.000    0.000    0.000    0.000    0.000    0.000 
#
# Total GULP energy -272551.979452 kJ/mol
# GULP energy per Si atom -12388.726339 kJ/mol
# Density = 1.976159 g / cm^3
# Si number density = 19.806673 Si / 1000 Ang^3
#
#
#
# Elastic Constant Matrix: (Units=GPa)
#
#
# Indices 1 2 3 4 5 6 
#
# 1 66.0857 18.7130 16.9014 0.0000 -18.0367 0.0000
# 2 18.7130 80.3475 21.1507 0.0000 -9.3406 0.0000
# 3 16.9014 21.1507 117.4164 0.0000 -29.7816 0.0000
# 4 0.0000 0.0000 0.0000 11.0337 0.0000 0.3236
# 5 -18.0367 -9.3406 -29.7816 0.0000 25.6915 0.0000
# 6 0.0000 0.0000 0.0000 0.3236 0.0000 14.3418
#
#
#
# Elastic Compliance Matrix: (Units=1/GPa)
#
#
# Indices 1 2 3 4 5 6 
#
# 1 0.019564 -0.003272 0.001353 0.000000 0.014114 0.000000
# 2 -0.003272 0.013763 -0.001872 0.000000 0.000537 0.000000
# 3 0.001353 -0.001872 0.012362 0.000000 0.014600 0.000000
# 4 0.000000 0.000000 0.000000 0.090691 0.000000 -0.002046
# 5 0.014114 0.000537 0.014600 0.000000 0.065951 0.000000
# 6 0.000000 0.000000 0.000000 -0.002046 0.000000 0.069772
#
#
# Mechanical properties :
#
#
# Convention : Reuss Voigt Hill
#
# Bulk Modulus (GPa) = 26.24123 41.93108 34.08615
# Shear Modulus (GPa) = 17.10049 24.01904 20.55976
#
# Velocity S-wave (km/s) = 2.94150 3.48612 3.22533
# Velocity P-wave (km/s) = 4.98137 6.11721 5.57827
#
# Compressibility (1/GPa) = 0.03810797
#
# Stress axis : x y z
#
# Youngs Moduli (GPa) = 51.11310 72.65758 80.89159
#
# Poissons Ratio (x) = 0.23773 -0.10946
# Poissons Ratio (y) = 0.16724 0.15144
# Poissons Ratio (z) = -0.06916 0.13602
#
# Static dielectric constant tensor:
#      x y z
#    x 3.549340 0.000000 -0.170300 
#    y 0.000000 3.535110 0.000000 
#    z -0.170300 0.000000 3.739450 
# 
# 
# High freq. dielectric constant tensor:
#      x y z
#    x 1.746010 0.000000 -0.008140 
#    y 0.000000 1.756240 0.000000 
#    z -0.008140 0.000000 1.783970 
# 
# From -- ./inp_files/12273.got.cif
#   From: 2010.06.25/outbox.cif.g09.slc.cpg/sg13_7_cif.got.tgz:12273.got - 2010.06.28 04:50:58.
