data_PCOD8119852
_publ_section_title
;
Structure prediction by ZEFSAII (Michael W. Deem and Ramdas Pophale) SiO2 
 PCOD8119852
Probable space group: P 2/C
;
_chemical_formula_sum "Si O2"
_cell_formula_units_Z 32
_cell_length_a 13.746522
_cell_length_b 11.303998
_cell_length_c 15.169978
_cell_angle_alpha 90.000000
_cell_angle_beta 41.849628
_cell_angle_gamma 90.000000
_cell_volume 1572.720423
_symmetry_space_group_name_H-M "P 2/C"
_symmetry_group_IT_number 13
_symmetry_cell_setting 'monoclinic'
loop_
_space_group_symop_operation_xyz
x,y,z
-x,y,1/2-z
-x,-y,-z
x,-y,1/2+z
loop_
_atom_site_type_symbol
_atom_site_label
_atom_site_fract_x
_atom_site_fract_y
_atom_site_fract_z
Si Si1 0.446079 0.365425 0.528161
Si Si2 0.131346 0.131892 0.959427
Si Si3 0.144781 0.135205 0.479420
Si Si4 0.990200 0.324693 0.156806
Si Si5 0.836865 0.329249 0.889100
Si Si6 0.606579 0.720904 0.249304
Si Si7 0.716260 0.303219 0.242780
Si Si8 0.792769 0.492214 0.567592
O O1 0.500000 0.500000 0.500000
O O2 0.277367 0.337395 0.615311
O O3 0.471954 0.307417 0.605777
O O4 0.549132 0.303776 0.385915
O O5 0.269738 0.183235 0.815145
O O6 0.172498 0.003710 0.970192
O O7 0.008805 0.145026 0.967113
O O8 0.088486 0.208128 0.074327
O O9 0.147495 0.201023 0.572756
O O10 0.269656 0.195442 0.335256
O O11 0.822867 0.287894 0.254047
O O12 0.000000 0.369114 0.250000
O O13 0.050182 0.427202 0.049746
O O14 0.000000 0.366122 0.750000
O O15 0.766685 0.425692 0.000918
O O16 0.500000 0.779874 0.250000
O O17 0.665772 0.603469 0.160985
O O18 0.778779 0.426404 0.162543
#
# Coordination Sequence:
#
# PCOD8119852 Si02
#       8
#     4   4   4   4   4   4   4   4
#     4  12  25  39  61  93 132 162 203 263 324 383
#     4   9  20  41  65  89 115 167 204 259 308 365
#     4   9  20  43  67  86 122 158 211 255 314 368
#     4  10  21  33  59  89 120 158 209 252 295 367
#     4  11  24  39  63  95 122 164 208 260 312 381
#     4  11  23  39  59  85 123 165 204 246 315 384
#     4  10  22  38  58  88 121 161 200 251 313 371
#     4  10  21  35  58  83 122 159 202 243 307 373
#
# _framework density 20.346910000000001
#
# number of rings (size 3 to 8) (size 9 to 14) (size 15 to 20)
#    0.000    1.750    1.250    2.250    7.000    4.000 
#    2.250    1.875    0.000    0.000    0.000    0.000 
#    0.000    0.000    0.000    0.000    0.000    0.000 
#
# Total GULP energy -396564.962091 kJ/mol
# GULP energy per Si atom -12392.655065 kJ/mol
# Density = 2.030060 g / cm^3
# Si number density = 20.346910 Si / 1000 Ang^3
#
#
#
# Elastic Constant Matrix: (Units=GPa)
#
#
# Indices 1 2 3 4 5 6 
#
# 1 82.2194 16.3373 37.4563 0.0000 -1.0830 0.0000
# 2 16.3373 118.0405 38.5307 0.0000 -0.8074 0.0000
# 3 37.4563 38.5307 120.9696 0.0000 -4.8057 0.0000
# 4 0.0000 0.0000 0.0000 17.7097 0.0000 1.1167
# 5 -1.0830 -0.8074 -4.8057 0.0000 29.0412 0.0000
# 6 0.0000 0.0000 0.0000 1.1167 0.0000 24.8504
#
#
#
# Elastic Compliance Matrix: (Units=1/GPa)
#
#
# Indices 1 2 3 4 5 6 
#
# 1 0.014198 -0.000590 -0.004215 0.000000 -0.000185 0.000000
# 2 -0.000590 0.009481 -0.002846 0.000000 -0.000229 0.000000
# 3 -0.004215 -0.002846 0.010538 0.000000 0.001508 0.000000
# 4 0.000000 0.000000 0.000000 0.056627 0.000000 -0.002545
# 5 -0.000185 -0.000229 0.001508 0.000000 0.034670 0.000000
# 6 0.000000 0.000000 0.000000 -0.002545 0.000000 0.040355
#
#
# Mechanical properties :
#
#
# Convention : Reuss Voigt Hill
#
# Bulk Modulus (GPa) = 52.87330 56.20868 54.54099
# Shear Modulus (GPa) = 26.66996 29.58060 28.12528
#
# Velocity S-wave (km/s) = 3.62437 3.81703 3.72195
# Velocity P-wave (km/s) = 6.59978 6.86377 6.73307
#
# Compressibility (1/GPa) = 0.01891314
#
# Stress axis : x y z
#
# Youngs Moduli (GPa) = 70.43321 105.47595 94.89274
#
# Poissons Ratio (x) = 0.06226 0.40002
# Poissons Ratio (y) = 0.04158 0.27008
# Poissons Ratio (z) = 0.29691 0.30020
#
# Static dielectric constant tensor:
#      x y z
#    x 3.515180 0.000000 -0.055930 
#    y 0.000000 3.726240 0.000000 
#    z -0.055930 0.000000 3.781610 
# 
# 
# High freq. dielectric constant tensor:
#      x y z
#    x 1.784620 0.000000 -0.001310 
#    y 0.000000 1.782670 0.000000 
#    z -0.001310 0.000000 1.798850 
# 
# From -- ./inp_files/53690.got.cif
#   From: 2010.06.25/outbox.cif.g09.slc.cpg/sg13_27_cif.got.tgz:53690.got - 2010.06.28 04:50:58.
