data_PCOD8119760
_publ_section_title
;
Structure prediction by ZEFSAII (Michael W. Deem and Ramdas Pophale) SiO2 
 PCOD8119760
Probable space group: P 2/C
;
_chemical_formula_sum "Si O2"
_cell_formula_units_Z 28
_cell_length_a 6.381891
_cell_length_b 16.385079
_cell_length_c 17.105445
_cell_angle_alpha 90.000000
_cell_angle_beta 131.434016
_cell_angle_gamma 90.000000
_cell_volume 1341.005082
_symmetry_space_group_name_H-M "P 2/C"
_symmetry_group_IT_number 13
_symmetry_cell_setting 'monoclinic'
loop_
_space_group_symop_operation_xyz
x,y,z
-x,y,1/2-z
-x,-y,-z
x,-y,1/2+z
loop_
_atom_site_type_symbol
_atom_site_label
_atom_site_fract_x
_atom_site_fract_y
_atom_site_fract_z
Si Si1 0.675001 0.579967 0.371858
Si Si2 0.419155 0.031012 0.564387
Si Si3 0.194704 0.835598 0.363818
Si Si4 0.767465 0.723546 0.865881
Si Si5 0.307731 0.418927 0.039061
Si Si6 0.378251 0.306792 0.501485
Si Si7 0.112490 0.879801 0.514095
O O1 0.500000 0.587895 0.250000
O O2 0.570364 0.504985 0.400341
O O3 0.641096 0.662709 0.413565
O O4 0.998429 0.568358 0.426674
O O5 0.673906 0.088713 0.654041
O O6 0.153686 0.091673 0.502066
O O7 0.500000 0.000000 0.500000
O O8 0.352335 0.947606 0.594533
O O9 0.421428 0.771230 0.451255
O O10 0.043549 0.872422 0.403877
O O11 0.000000 0.792826 0.250000
O O12 0.500000 0.748940 0.750000
O O13 0.705828 0.636484 0.887807
O O14 0.784917 0.791467 0.936568
O O15 0.066294 0.718364 0.894307
O O16 0.512019 0.380194 0.025503
#
# Coordination Sequence:
#
# PCOD8119760 Si02
#       7
#     4   4   4   4   4   4   4
#     4  10  23  40  65  93 127 168 212 263 323 386
#     4   9  20  41  63  86 127 167 208 268 319 370
#     4  11  23  38  63  96 130 170 212 256 327 391
#     4  11  23  41  65  92 123 172 218 268 329 377
#     4  10  22  43  61  92 131 162 214 269 318 384
#     4  11  23  40  64  92 131 167 213 271 316 388
#     4  10  20  42  62  88 131 164 214 276 310 379
#
# _framework density 20.879860000000001
#
# number of rings (size 3 to 8) (size 9 to 14) (size 15 to 20)
#    0.000    1.714    2.857    0.857    2.000    1.143 
#    7.714    1.429    0.000    0.000    0.000    0.000 
#    0.000    0.000    0.000    0.000    0.000    0.000 
#
# Total GULP energy -346927.672260 kJ/mol
# GULP energy per Si atom -12390.274009 kJ/mol
# Density = 2.083234 g / cm^3
# Si number density = 20.879860 Si / 1000 Ang^3
#
#
#
# Elastic Constant Matrix: (Units=GPa)
#
#
# Indices 1 2 3 4 5 6 
#
# 1 117.3684 29.4666 50.2292 0.0000 5.0203 0.0000
# 2 29.4666 80.6198 16.3333 0.0000 1.1321 0.0000
# 3 50.2292 16.3333 92.0965 0.0000 5.6677 0.0000
# 4 0.0000 0.0000 0.0000 16.8624 0.0000 -5.6409
# 5 5.0203 1.1321 5.6677 0.0000 18.7802 0.0000
# 6 0.0000 0.0000 0.0000 -5.6409 0.0000 47.5084
#
#
#
# Elastic Compliance Matrix: (Units=1/GPa)
#
#
# Indices 1 2 3 4 5 6 
#
# 1 0.011857 -0.003134 -0.005836 0.000000 -0.001219 0.000000
# 2 -0.003134 0.013695 -0.000734 0.000000 0.000234 0.000000
# 3 -0.005836 -0.000734 0.014339 0.000000 -0.002723 0.000000
# 4 0.000000 0.000000 0.000000 0.061756 0.000000 0.007333
# 5 -0.001219 0.000234 -0.002723 0.000000 0.054381 0.000000
# 6 0.000000 0.000000 0.000000 0.007333 0.000000 0.021920
#
#
# Mechanical properties :
#
#
# Convention : Reuss Voigt Hill
#
# Bulk Modulus (GPa) = 48.82143 53.57144 51.19643
# Shear Modulus (GPa) = 24.48791 29.56725 27.02758
#
# Velocity S-wave (km/s) = 3.42833 3.76715 3.60173
# Velocity P-wave (km/s) = 6.25333 6.68091 6.47065
#
# Compressibility (1/GPa) = 0.02048281
#
# Stress axis : x y z
#
# Youngs Moduli (GPa) = 84.34065 73.02028 69.74151
#
# Poissons Ratio (x) = 0.22886 0.40699
# Poissons Ratio (y) = 0.26434 0.05117
# Poissons Ratio (z) = 0.49219 0.05358
#
# Static dielectric constant tensor:
#      x y z
#    x 4.107950 0.000000 0.151370 
#    y 0.000000 4.129680 0.000000 
#    z 0.151370 0.000000 3.377700 
# 
# 
# High freq. dielectric constant tensor:
#      x y z
#    x 1.828600 0.000000 0.000610 
#    y 0.000000 1.840750 0.000000 
#    z 0.000610 0.000000 1.776390 
# 
# From -- ./inp_files/44523.got.cif
#   From: 2010.06.25/outbox.cif.g09.slc.cpg/sg13_23_cif.got.tgz:44523.got - 2010.06.28 04:50:58.
