data_PCOD8119507
_publ_section_title
;
Structure prediction by ZEFSAII (Michael W. Deem and Ramdas Pophale) SiO2 
 PCOD8119507
Probable space group: P 2/C
;
_chemical_formula_sum "Si O2"
_cell_formula_units_Z 30
_cell_length_a 12.120006
_cell_length_b 8.621728
_cell_length_c 16.970884
_cell_angle_alpha 90.000000
_cell_angle_beta 117.595821
_cell_angle_gamma 90.000000
_cell_volume 1571.634941
_symmetry_space_group_name_H-M "P 2/C"
_symmetry_group_IT_number 13
_symmetry_cell_setting 'monoclinic'
loop_
_space_group_symop_operation_xyz
x,y,z
-x,y,1/2-z
-x,-y,-z
x,-y,1/2+z
loop_
_atom_site_type_symbol
_atom_site_label
_atom_site_fract_x
_atom_site_fract_y
_atom_site_fract_z
Si Si1 0.025360 0.161378 0.967104
Si Si2 0.209464 0.325225 0.665266
Si Si3 0.130254 0.675560 0.646591
Si Si4 0.363632 0.108745 0.212299
Si Si5 0.347684 0.160365 0.582232
Si Si6 0.794630 0.016851 0.588916
Si Si7 0.368537 0.848680 0.338332
Si Si8 0.000000 0.165646 0.250000
O O1 0.905559 0.206043 0.876060
O O2 0.141009 0.140763 0.947321
O O3 0.050136 0.290085 0.041930
O O4 0.000000 0.000000 0.000000
O O5 0.154978 0.494570 0.658459
O O6 0.290057 0.305173 0.611632
O O7 0.293853 0.286334 0.768710
O O8 0.262536 0.758274 0.683084
O O9 0.054023 0.727111 0.698419
O O10 0.500000 0.186929 0.250000
O O11 0.339102 0.994910 0.131334
O O12 0.358401 0.010691 0.289995
O O13 0.267921 0.127897 0.477578
O O14 0.488507 0.204632 0.606151
O O15 0.891856 0.945804 0.682600
O O16 0.688989 0.120857 0.595204
#
# Coordination Sequence:
#
# PCOD8119507 Si02
#       8
#     4   4   4   4   4   4   4   2
#     4  12  21  39  63  88 116 158 206 245 292 357
#     4  11  23  39  60  86 124 160 190 245 302 369
#     4  12  23  39  59  89 126 156 200 239 310 368
#     4   9  18  36  60  83 112 153 206 248 287 349
#     4  10  20  39  63  87 114 157 208 249 291 351
#     4  12  21  36  66  88 120 150 206 258 296 345
#     4  10  21  38  61  90 116 154 203 253 299 344
#     4  12  24  36  60  92 124 162 192 260 306 350
#
# _framework density 19.088401999999999
#
# number of rings (size 3 to 8) (size 9 to 14) (size 15 to 20)
#    0.000    1.067    5.333    3.600    0.000    2.133 
#    0.000    0.000    0.000    1.600    0.000    0.000 
#    0.000    0.000    0.000    0.000    0.000    0.000 
#
# Total GULP energy -372080.330676 kJ/mol
# GULP energy per Si atom -12402.677689 kJ/mol
# Density = 1.904496 g / cm^3
# Si number density = 19.088402 Si / 1000 Ang^3
#
#
#
# Elastic Constant Matrix: (Units=GPa)
#
#
# Indices 1 2 3 4 5 6 
#
# 1 143.6278 33.9869 37.9214 0.0000 -7.3223 0.0000
# 2 33.9869 72.6081 12.0027 0.0000 -1.6298 0.0000
# 3 37.9214 12.0027 87.4233 0.0000 1.9234 0.0000
# 4 0.0000 0.0000 0.0000 20.4067 0.0000 2.8856
# 5 -7.3223 -1.6298 1.9234 0.0000 38.8746 0.0000
# 6 0.0000 0.0000 0.0000 2.8856 0.0000 24.2801
#
#
#
# Elastic Compliance Matrix: (Units=1/GPa)
#
#
# Indices 1 2 3 4 5 6 
#
# 1 0.008764 -0.003510 -0.003357 0.000000 0.001670 0.000000
# 2 -0.003510 0.015517 -0.000608 0.000000 0.000019 0.000000
# 3 -0.003357 -0.000608 0.013007 0.000000 -0.001301 0.000000
# 4 0.000000 0.000000 0.000000 0.049841 0.000000 -0.005923
# 5 0.001670 0.000019 -0.001301 0.000000 0.026103 0.000000
# 6 0.000000 0.000000 0.000000 -0.005923 0.000000 0.041890
#
#
# Mechanical properties :
#
#
# Convention : Reuss Voigt Hill
#
# Bulk Modulus (GPa) = 44.76685 52.38681 48.57683
# Shear Modulus (GPa) = 28.16619 31.36216 29.76418
#
# Velocity S-wave (km/s) = 3.84548 4.05779 3.95306
# Velocity P-wave (km/s) = 6.57421 7.03264 6.80729
#
# Compressibility (1/GPa) = 0.02233796
#
# Stress axis : x y z
#
# Youngs Moduli (GPa) = 114.09814 64.44711 76.88356
#
# Poissons Ratio (x) = 0.22622 0.25806
# Poissons Ratio (y) = 0.40050 0.04676
# Poissons Ratio (z) = 0.38297 0.03920
#
# Static dielectric constant tensor:
#      x y z
#    x 4.590470 0.000000 -2.729170 
#    y 0.000000 3.127250 0.000000 
#    z -2.729170 0.000000 13.889490 
# 
# 
# High freq. dielectric constant tensor:
#      x y z
#    x 1.763180 0.000000 0.009360 
#    y 0.000000 1.705350 0.000000 
#    z 0.009360 0.000000 1.750640 
# 
# From -- ./inp_files/66329.got.cif
#   From: 2010.06.25/outbox.cif.g09.slc.cpg/sg13_34_cif.got.tgz:66329.got - 2010.06.28 04:50:58.
