data_PCOD8119090
_publ_section_title
;
Structure prediction by ZEFSAII (Michael W. Deem and Ramdas Pophale) SiO2 
 PCOD8119090
Probable space group: P 2/C
;
_chemical_formula_sum "Si O2"
_cell_formula_units_Z 32
_cell_length_a 21.279457
_cell_length_b 14.396335
_cell_length_c 15.672428
_cell_angle_alpha 90.000000
_cell_angle_beta 19.765744
_cell_angle_gamma 90.000000
_cell_volume 1623.643530
_symmetry_space_group_name_H-M "P 2/C"
_symmetry_group_IT_number 13
_symmetry_cell_setting 'monoclinic'
loop_
_space_group_symop_operation_xyz
x,y,z
-x,y,1/2-z
-x,-y,-z
x,-y,1/2+z
loop_
_atom_site_type_symbol
_atom_site_label
_atom_site_fract_x
_atom_site_fract_y
_atom_site_fract_z
Si Si1 0.844838 0.034137 0.875165
Si Si2 0.799185 0.647496 0.203626
Si Si3 0.790915 0.611106 0.026328
Si Si4 0.703850 0.877574 0.949535
Si Si5 0.455275 0.489755 0.900177
Si Si6 0.454999 0.980493 0.962340
Si Si7 0.314362 0.821210 0.041719
Si Si8 0.789976 0.327379 0.342867
O O1 0.841080 0.125735 0.818532
O O2 0.000000 0.044069 0.750000
O O3 0.857820 0.935615 0.808308
O O4 0.640877 0.026193 0.172086
O O5 0.760004 0.670638 0.153132
O O6 0.681760 0.556300 0.374287
O O7 0.756360 0.725802 0.327845
O O8 0.017022 0.624913 0.931181
O O9 0.647557 0.524059 0.206665
O O10 0.756040 0.676169 0.988560
O O11 0.000000 0.570251 0.750000
O O12 0.789683 0.779156 0.813345
O O13 0.500000 0.863286 0.250000
O O14 0.676992 0.935555 0.897613
O O15 0.500000 0.532846 0.750000
O O16 0.367011 0.387246 0.002956
O O17 0.350266 0.884011 0.079404
O O18 0.500000 0.000000 0.000000
O O19 0.500000 0.801323 0.750000
#
# Coordination Sequence:
#
# PCOD8119090 Si02
#       8
#     4   4   4   4   4   4   4   4
#     4   9  19  35  55  77 107 142 181 230 275 320
#     4  11  21  35  57  81 109 147 184 218 271 335
#     4   9  20  36  55  82 111 139 180 232 276 319
#     4   9  18  34  53  76 107 144 179 220 280 334
#     4  10  20  37  59  80 109 147 180 225 277 325
#     4   9  19  34  54  77 105 142 183 226 276 329
#     4   9  20  38  54  76 111 149 186 226 271 329
#     4  10  21  35  54  83 114 140 178 231 277 323
#
# _framework density 19.708760000000002
#
# number of rings (size 3 to 8) (size 9 to 14) (size 15 to 20)
#    0.000    2.500    0.000    3.750    0.000    6.500 
#    0.000    3.750    0.000    9.000    0.000    0.000 
#    0.000    0.000    0.000    0.000    0.000    0.000 
#
# Total GULP energy -396452.394344 kJ/mol
# GULP energy per Si atom -12389.137323 kJ/mol
# Density = 1.966390 g / cm^3
# Si number density = 19.708760 Si / 1000 Ang^3
#
#
#
# Elastic Constant Matrix: (Units=GPa)
#
#
# Indices 1 2 3 4 5 6 
#
# 1 122.1897 49.0478 33.8608 0.0000 -8.7790 0.0000
# 2 49.0478 108.2529 39.9540 0.0000 -0.4304 0.0000
# 3 33.8608 39.9540 75.0776 0.0000 -6.0522 0.0000
# 4 0.0000 0.0000 0.0000 28.8236 0.0000 0.0289
# 5 -8.7790 -0.4304 -6.0522 0.0000 33.7575 0.0000
# 6 0.0000 0.0000 0.0000 0.0289 0.0000 16.2424
#
#
#
# Elastic Compliance Matrix: (Units=1/GPa)
#
#
# Indices 1 2 3 4 5 6 
#
# 1 0.010598 -0.003852 -0.002548 0.000000 0.002250 0.000000
# 2 -0.003852 0.012927 -0.005286 0.000000 -0.001785 0.000000
# 3 -0.002548 -0.005286 0.017476 0.000000 0.002403 0.000000
# 4 0.000000 0.000000 0.000000 0.034694 0.000000 -0.000062
# 5 0.002250 -0.001785 0.002403 0.000000 0.030616 0.000000
# 6 0.000000 0.000000 0.000000 -0.000062 0.000000 0.061567
#
#
# Mechanical properties :
#
#
# Convention : Reuss Voigt Hill
#
# Bulk Modulus (GPa) = 56.72907 61.24949 58.98928
# Shear Modulus (GPa) = 25.36436 27.94186 26.65311
#
# Velocity S-wave (km/s) = 3.59131 3.76937 3.68142
# Velocity P-wave (km/s) = 6.78549 7.07736 6.93296
#
# Compressibility (1/GPa) = 0.01762765
#
# Stress axis : x y z
#
# Youngs Moduli (GPa) = 94.35514 77.35844 57.22296
#
# Poissons Ratio (x) = 0.29802 0.14583
# Poissons Ratio (y) = 0.36349 0.30246
# Poissons Ratio (z) = 0.24046 0.40889
#
# Static dielectric constant tensor:
#      x y z
#    x 3.527820 0.000000 -0.089370 
#    y 0.000000 3.361500 0.000000 
#    z -0.089370 0.000000 3.603900 
# 
# 
# High freq. dielectric constant tensor:
#      x y z
#    x 1.768290 0.000000 -0.003470 
#    y 0.000000 1.748540 0.000000 
#    z -0.003470 0.000000 1.771960 
# 
# From -- ./inp_files/57835.got.cif
#   From: 2010.06.25/outbox.cif.g09.slc.cpg/sg13_29_cif.got.tgz:57835.got - 2010.06.28 04:50:58.
