data_PCOD8119959
_publ_section_title
;
Structure prediction by ZEFSAII (Michael W. Deem and Ramdas Pophale) SiO2 
 PCOD8119959
Probable space group: P 2/C
;
_chemical_formula_sum "Si O2"
_cell_formula_units_Z 30
_cell_length_a 22.688056
_cell_length_b 12.404819
_cell_length_c 8.936615
_cell_angle_alpha 90.000000
_cell_angle_beta 140.328341
_cell_angle_gamma 90.000000
_cell_volume 1605.627913
_symmetry_space_group_name_H-M "P 2/C"
_symmetry_group_IT_number 13
_symmetry_cell_setting 'monoclinic'
loop_
_space_group_symop_operation_xyz
x,y,z
-x,y,1/2-z
-x,-y,-z
x,-y,1/2+z
loop_
_atom_site_type_symbol
_atom_site_label
_atom_site_fract_x
_atom_site_fract_y
_atom_site_fract_z
Si Si1 0.714061 0.674669 0.865355
Si Si2 0.114957 0.398779 0.625472
Si Si3 0.413063 0.872380 0.874791
Si Si4 0.386102 0.911321 0.166382
Si Si5 0.246462 0.731496 0.897083
Si Si6 0.374958 0.556098 0.257205
Si Si7 0.908011 0.624277 0.766113
Si Si8 0.500000 0.484932 0.250000
O O1 0.640496 0.764085 0.775198
O O2 0.748317 0.701140 0.766152
O O3 0.661872 0.562145 0.775768
O O4 0.803931 0.674352 0.146990
O O5 0.121218 0.521730 0.691511
O O6 0.125141 0.397582 0.467158
O O7 0.016740 0.350641 0.485765
O O8 0.374915 0.965112 0.691580
O O9 0.393661 0.909798 0.004093
O O10 0.524177 0.857602 0.077447
O O11 0.294463 0.844530 0.031168
O O12 0.141463 0.728453 0.754088
O O13 0.292751 0.639022 0.088454
O O14 0.431957 0.561374 0.213418
O O15 0.442075 0.590742 0.524604
#
# Coordination Sequence:
#
# PCOD8119959 Si02
#       8
#     4   4   4   4   4   4   4   2
#     4  11  22  35  56  80 111 143 181 224 271 325
#     4  10  21  36  54  79 111 144 180 223 271 327
#     4   9  20  38  56  78 107 144 184 225 268 314
#     4   9  20  38  56  78 107 144 184 225 268 314
#     4  11  22  35  56  80 111 143 181 224 271 325
#     4  11  22  36  47  78 108 146 183 214 265 322
#     4  10  21  36  54  79 111 144 180 223 271 327
#     4  10  24  34  48  66 116 150 178 216 260 324
#
# _framework density 18.684280000000001
#
# number of rings (size 3 to 8) (size 9 to 14) (size 15 to 20)
#    0.000    1.867    2.667    0.800    5.600    2.667 
#    0.000    0.000    0.000    0.800    0.000    0.000 
#    0.000    0.000    0.000    0.000    0.000    0.000 
#
# Total GULP energy -371946.853229 kJ/mol
# GULP energy per Si atom -12398.228441 kJ/mol
# Density = 1.864175 g / cm^3
# Si number density = 18.684280 Si / 1000 Ang^3
#
#
#
# Elastic Constant Matrix: (Units=GPa)
#
#
# Indices 1 2 3 4 5 6 
#
# 1 75.3410 7.9992 16.1245 0.0000 7.3498 0.0000
# 2 7.9992 48.5917 13.2082 0.0000 4.0244 0.0000
# 3 16.1245 13.2082 87.2888 0.0000 2.6388 0.0000
# 4 0.0000 0.0000 0.0000 28.2944 0.0000 3.1353
# 5 7.3498 4.0244 2.6388 0.0000 26.0909 0.0000
# 6 0.0000 0.0000 0.0000 3.1353 0.0000 25.9766
#
#
#
# Elastic Compliance Matrix: (Units=1/GPa)
#
#
# Indices 1 2 3 4 5 6 
#
# 1 0.014267 -0.001425 -0.002312 0.000000 -0.003565 0.000000
# 2 -0.001425 0.021840 -0.002961 0.000000 -0.002668 0.000000
# 3 -0.002312 -0.002961 0.012336 0.000000 -0.000140 0.000000
# 4 0.000000 0.000000 0.000000 0.035822 0.000000 -0.004324
# 5 -0.003565 -0.002668 -0.000140 0.000000 0.039757 0.000000
# 6 0.000000 0.000000 0.000000 -0.004324 0.000000 0.039018
#
#
# Mechanical properties :
#
#
# Convention : Reuss Voigt Hill
#
# Bulk Modulus (GPa) = 28.53327 31.76504 30.14916
# Shear Modulus (GPa) = 26.57910 27.66502 27.12206
#
# Velocity S-wave (km/s) = 3.77575 3.85211 3.81412
# Velocity P-wave (km/s) = 5.85771 6.06818 5.96387
#
# Compressibility (1/GPa) = 0.03504680
#
# Stress axis : x y z
#
# Youngs Moduli (GPa) = 70.09222 45.78752 81.06639
#
# Poissons Ratio (x) = 0.06524 0.18743
# Poissons Ratio (y) = 0.09987 0.24003
# Poissons Ratio (z) = 0.16206 0.13557
#
# Static dielectric constant tensor:
#      x y z
#    x 3.599600 0.000000 0.104780 
#    y 0.000000 3.123570 0.000000 
#    z 0.104780 0.000000 3.688550 
# 
# 
# High freq. dielectric constant tensor:
#      x y z
#    x 1.733600 0.000000 -0.002960 
#    y 0.000000 1.682840 0.000000 
#    z -0.002960 0.000000 1.736880 
# 
# From -- ./inp_files/24155.got.cif
#   From: 2010.06.25/outbox.cif.g09.slc.cpg/sg13_13_cif.got.tgz:24155.got - 2010.06.28 04:50:58.
