data_PCOD8119268
_publ_section_title
;
Structure prediction by ZEFSAII (Michael W. Deem and Ramdas Pophale) SiO2 
 PCOD8119268
Probable space group: P 2/C
;
_chemical_formula_sum "Si O2"
_cell_formula_units_Z 24
_cell_length_a 10.126153
_cell_length_b 7.924231
_cell_length_c 15.546530
_cell_angle_alpha 90.000000
_cell_angle_beta 103.219823
_cell_angle_gamma 90.000000
_cell_volume 1214.425747
_symmetry_space_group_name_H-M "P 2/C"
_symmetry_group_IT_number 13
_symmetry_cell_setting 'monoclinic'
loop_
_space_group_symop_operation_xyz
x,y,z
-x,y,1/2-z
-x,-y,-z
x,-y,1/2+z
loop_
_atom_site_type_symbol
_atom_site_label
_atom_site_fract_x
_atom_site_fract_y
_atom_site_fract_z
Si Si1 0.042306 0.061043 0.912200
Si Si2 0.874495 0.377423 0.488475
Si Si3 0.788298 0.888280 0.837315
Si Si4 0.458076 0.897454 0.147018
Si Si5 0.295038 0.114954 0.364105
Si Si6 0.624349 0.611568 0.492614
O O1 0.163581 0.953328 0.892067
O O2 0.091044 0.254635 0.925625
O O3 0.905356 0.030245 0.836213
O O4 0.000000 0.000000 0.000000
O O5 0.850496 0.270457 0.397622
O O6 0.743987 0.486984 0.486549
O O7 0.000000 0.500000 0.500000
O O8 0.734439 0.827378 0.737479
O O9 0.665592 0.969057 0.873770
O O10 0.500000 0.850064 0.250000
O O11 0.410336 0.727713 0.094000
O O12 0.585213 0.976490 0.115004
O O13 0.339686 0.282037 0.418526
O O14 0.500000 0.500000 0.500000
#
# Coordination Sequence:
#
# PCOD8119268 Si02
#       6
#     4   4   4   4   4   4
#     4  10  20  38  60  82 111 150 194 232 276 340
#     4  11  22  37  58  85 118 151 184 236 296 341
#     4  10  21  40  62  82 112 156 199 237 278 339
#     4  10  22  40  62  84 113 155 199 235 276 340
#     4  11  22  39  61  85 113 154 200 237 278 340
#     4  12  23  36  58  88 121 150 184 239 296 342
#
# _framework density 19.762426000000001
#
# number of rings (size 3 to 8) (size 9 to 14) (size 15 to 20)
#    0.000    1.333    0.000    8.000    0.000    1.333 
#    0.000    3.333    0.000    0.000    0.000    0.000 
#    0.000    0.000    0.000    0.000    0.000    0.000 
#
# Total GULP energy -297614.392504 kJ/mol
# GULP energy per Si atom -12400.599688 kJ/mol
# Density = 1.971745 g / cm^3
# Si number density = 19.762426 Si / 1000 Ang^3
#
#
#
# Elastic Constant Matrix: (Units=GPa)
#
#
# Indices 1 2 3 4 5 6 
#
# 1 170.6343 60.5041 45.0787 0.0000 -0.6580 0.0000
# 2 60.5041 124.2611 64.8722 0.0000 9.6726 0.0000
# 3 45.0787 64.8722 93.0145 0.0000 11.3470 0.0000
# 4 0.0000 0.0000 0.0000 23.3269 0.0000 6.5575
# 5 -0.6580 9.6726 11.3470 0.0000 33.7894 0.0000
# 6 0.0000 0.0000 0.0000 6.5575 0.0000 50.4297
#
#
#
# Elastic Compliance Matrix: (Units=1/GPa)
#
#
# Indices 1 2 3 4 5 6 
#
# 1 0.007317 -0.002726 -0.001833 0.000000 0.001538 0.000000
# 2 -0.002726 0.013686 -0.008071 0.000000 -0.001261 0.000000
# 3 -0.001833 -0.008071 0.017716 0.000000 -0.003675 0.000000
# 4 0.000000 0.000000 0.000000 0.044496 0.000000 -0.005786
# 5 0.001538 -0.001261 -0.003675 0.000000 0.031220 0.000000
# 6 0.000000 0.000000 0.000000 -0.005786 0.000000 0.020582
#
#
# Mechanical properties :
#
#
# Convention : Reuss Voigt Hill
#
# Bulk Modulus (GPa) = 74.28587 80.97999 77.63293
# Shear Modulus (GPa) = 30.34673 36.00618 33.17645
#
# Velocity S-wave (km/s) = 3.92290 4.27306 4.10172
# Velocity P-wave (km/s) = 7.62823 8.08771 7.86133
#
# Compressibility (1/GPa) = 0.01346151
#
# Stress axis : x y z
#
# Youngs Moduli (GPa) = 136.66630 73.06618 56.44500
#
# Poissons Ratio (x) = 0.19915 0.10345
# Poissons Ratio (y) = 0.37251 0.45554
# Poissons Ratio (z) = 0.25049 0.58969
#
# Static dielectric constant tensor:
#      x y z
#    x 4.086820 0.000000 0.251210 
#    y 0.000000 3.776910 0.000000 
#    z 0.251210 0.000000 3.728860 
# 
# 
# High freq. dielectric constant tensor:
#      x y z
#    x 1.800400 0.000000 0.008960 
#    y 0.000000 1.765360 0.000000 
#    z 0.008960 0.000000 1.771250 
# 
# From -- ./inp_files/46207.got.cif
#   From: 2010.06.25/outbox.cif.g09.slc.cpg/sg13_24_cif.got.tgz:46207.got - 2010.06.28 04:50:58.
