data_PCOD8119414
_publ_section_title
;
Structure prediction by ZEFSAII (Michael W. Deem and Ramdas Pophale) SiO2 
 PCOD8119414
Probable space group: P 2/C
;
_chemical_formula_sum "Si O2"
_cell_formula_units_Z 24
_cell_length_a 19.428354
_cell_length_b 6.087893
_cell_length_c 14.164119
_cell_angle_alpha 90.000000
_cell_angle_beta 44.541427
_cell_angle_gamma 90.000000
_cell_volume 1175.096939
_symmetry_space_group_name_H-M "P 2/C"
_symmetry_group_IT_number 13
_symmetry_cell_setting 'monoclinic'
loop_
_space_group_symop_operation_xyz
x,y,z
-x,y,1/2-z
-x,-y,-z
x,-y,1/2+z
loop_
_atom_site_type_symbol
_atom_site_label
_atom_site_fract_x
_atom_site_fract_y
_atom_site_fract_z
Si Si1 0.246524 0.201871 0.966326
Si Si2 0.380110 0.940887 0.718123
Si Si3 0.440465 0.698316 0.010132
Si Si4 0.758519 0.462414 0.873361
Si Si5 0.111716 0.182028 0.611641
Si Si6 0.783861 0.586756 0.646129
O O1 0.252983 0.379757 0.877316
O O2 0.336859 0.033648 0.859206
O O3 0.254185 0.306527 0.061388
O O4 0.143631 0.069703 0.065034
O O5 0.484851 0.826565 0.632120
O O6 0.303724 0.760770 0.752848
O O7 0.393141 0.139221 0.632462
O O8 0.352145 0.617878 0.031795
O O9 0.500000 0.500000 0.000000
O O10 0.820428 0.290624 0.874247
O O11 0.815310 0.503639 0.719146
O O12 0.124459 0.306958 0.499051
O O13 0.000000 0.195372 0.750000
#
# Coordination Sequence:
#
# PCOD8119414 Si02
#       6
#     4   4   4   4   4   4
#     4  10  22  41  63  92 133 165 213 272 315 383
#     4  10  20  38  65  92 133 171 209 264 312 371
#     4  11  21  37  66  95 130 171 215 259 310 382
#     4  11  23  40  69  93 127 175 214 260 326 384
#     4  10  25  44  65  96 125 162 215 274 331 388
#     4  10  21  43  67  92 132 168 211 266 322 385
#
# _framework density 20.423848
#
# number of rings (size 3 to 8) (size 9 to 14) (size 15 to 20)
#    0.000    1.667    3.333    0.000    2.333    3.333 
#    0.000   21.667    0.000    0.000    0.000    0.000 
#    0.000    0.000    0.000    0.000    0.000    0.000 
#
# Total GULP energy -297505.125032 kJ/mol
# GULP energy per Si atom -12396.046876 kJ/mol
# Density = 2.037736 g / cm^3
# Si number density = 20.423848 Si / 1000 Ang^3
#
#
#
# Elastic Constant Matrix: (Units=GPa)
#
#
# Indices 1 2 3 4 5 6 
#
# 1 82.1627 39.5475 49.8080 0.0000 0.4411 0.0000
# 2 39.5475 109.9236 51.1801 0.0000 -3.9816 0.0000
# 3 49.8080 51.1801 150.9357 0.0000 -7.9167 0.0000
# 4 0.0000 0.0000 0.0000 35.4033 0.0000 5.2103
# 5 0.4411 -3.9816 -7.9167 0.0000 43.1281 0.0000
# 6 0.0000 0.0000 0.0000 5.2103 0.0000 25.0280
#
#
#
# Elastic Compliance Matrix: (Units=1/GPa)
#
#
# Indices 1 2 3 4 5 6 
#
# 1 0.016691 -0.004104 -0.004185 0.000000 -0.001318 0.000000
# 2 -0.004104 0.011816 -0.002618 0.000000 0.000652 0.000000
# 3 -0.004185 -0.002618 0.008970 0.000000 0.001448 0.000000
# 4 0.000000 0.000000 0.000000 0.029139 0.000000 -0.006066
# 5 -0.001318 0.000652 0.001448 0.000000 0.023526 0.000000
# 6 0.000000 0.000000 0.000000 -0.006066 0.000000 0.041218
#
#
# Mechanical properties :
#
#
# Convention : Reuss Voigt Hill
#
# Bulk Modulus (GPa) = 63.84816 69.34369 66.59593
# Shear Modulus (GPa) = 31.56649 34.21099 32.88874
#
# Velocity S-wave (km/s) = 3.93564 4.09718 4.01722
# Velocity P-wave (km/s) = 7.20984 7.51056 7.36174
#
# Compressibility (1/GPa) = 0.01566216
#
# Stress axis : x y z
#
# Youngs Moduli (GPa) = 59.91404 84.62830 111.47965
#
# Poissons Ratio (x) = 0.34730 0.46658
# Poissons Ratio (y) = 0.24588 0.29189
# Poissons Ratio (z) = 0.25076 0.22158
#
# Static dielectric constant tensor:
#      x y z
#    x 3.292310 0.000000 0.084180 
#    y 0.000000 4.111310 0.000000 
#    z 0.084180 0.000000 3.947860 
# 
# 
# High freq. dielectric constant tensor:
#      x y z
#    x 1.757570 0.000000 0.007080 
#    y 0.000000 1.822990 0.000000 
#    z 0.007080 0.000000 1.816220 
# 
# From -- ./inp_files/52255.got.cif
#   From: 2010.06.25/outbox.cif.g09.slc.cpg/sg13_27_cif.got.tgz:52255.got - 2010.06.28 04:50:58.
