data_PCOD8119463
_publ_section_title
;
Structure prediction by ZEFSAII (Michael W. Deem and Ramdas Pophale) SiO2 
 PCOD8119463
Probable space group: P 2/C
;
_chemical_formula_sum "Si O2"
_cell_formula_units_Z 28
_cell_length_a 20.363856
_cell_length_b 13.723458
_cell_length_c 9.468021
_cell_angle_alpha 90.000000
_cell_angle_beta 35.166886
_cell_angle_gamma 90.000000
_cell_volume 1523.965286
_symmetry_space_group_name_H-M "P 2/C"
_symmetry_group_IT_number 13
_symmetry_cell_setting 'monoclinic'
loop_
_space_group_symop_operation_xyz
x,y,z
-x,y,1/2-z
-x,-y,-z
x,-y,1/2+z
loop_
_atom_site_type_symbol
_atom_site_label
_atom_site_fract_x
_atom_site_fract_y
_atom_site_fract_z
Si Si1 0.095562 0.588266 0.190052
Si Si2 0.694293 0.725532 0.739156
Si Si3 0.277704 0.729393 0.488264
Si Si4 0.482869 0.405014 0.620235
Si Si5 0.635677 0.905231 0.671027
Si Si6 0.944501 0.370578 0.210483
Si Si7 0.631731 0.096046 0.849434
O O1 0.116068 0.472420 0.138716
O O2 0.000000 0.625445 0.250000
O O3 0.052884 0.611152 0.421123
O O4 0.212055 0.643571 0.954002
O O5 0.708492 0.816439 0.608655
O O6 0.700362 0.764436 0.889642
O O7 0.571853 0.678825 0.922508
O O8 0.356637 0.636413 0.315801
O O9 0.146420 0.699673 0.702389
O O10 0.302300 0.813751 0.333619
O O11 0.500000 0.438281 0.750000
O O12 0.500000 0.500000 0.500000
O O13 0.666550 0.916632 0.451959
O O14 0.671266 0.001776 0.692677
O O15 0.502427 0.885242 0.929098
O O16 0.000000 0.319773 0.250000
#
# Coordination Sequence:
#
# PCOD8119463 Si02
#       7
#     4   4   4   4   4   4   4
#     4  10  20  39  57  81 113 154 202 238 279 328
#     4  11  21  36  59  83 116 153 189 235 288 341
#     4  11  21  37  57  84 117 150 190 237 287 343
#     4  10  22  36  52  81 118 153 184 228 290 342
#     4  10  21  37  59  87 114 151 186 235 286 346
#     4  10  22  37  59  83 112 154 201 244 277 328
#     4  10  21  37  59  86 117 146 191 233 285 347
#
# _framework density 18.373121999999999
#
# number of rings (size 3 to 8) (size 9 to 14) (size 15 to 20)
#    0.000    1.714    2.857    1.714    2.000    2.286 
#    0.000    0.000    0.000    1.714    0.000    0.000 
#    0.000    0.000    0.000    0.000    0.000    0.000 
#
# Total GULP energy -347271.498301 kJ/mol
# GULP energy per Si atom -12402.553511 kJ/mol
# Density = 1.833130 g / cm^3
# Si number density = 18.373122 Si / 1000 Ang^3
#
#
#
# Elastic Constant Matrix: (Units=GPa)
#
#
# Indices 1 2 3 4 5 6 
#
# 1 99.0372 41.6109 26.8183 0.0000 17.5941 0.0000
# 2 41.6109 83.4937 25.4811 0.0000 20.5798 0.0000
# 3 26.8183 25.4811 64.1506 0.0000 14.5614 0.0000
# 4 0.0000 0.0000 0.0000 25.2489 0.0000 4.4516
# 5 17.5941 20.5798 14.5614 0.0000 31.9771 0.0000
# 6 0.0000 0.0000 0.0000 4.4516 0.0000 24.2048
#
#
#
# Elastic Compliance Matrix: (Units=1/GPa)
#
#
# Indices 1 2 3 4 5 6 
#
# 1 0.013571 -0.005165 -0.002991 0.000000 -0.002781 0.000000
# 2 -0.005165 0.017178 -0.003122 0.000000 -0.006792 0.000000
# 3 -0.002991 -0.003122 0.019238 0.000000 -0.005105 0.000000
# 4 0.000000 0.000000 0.000000 0.040933 0.000000 -0.007528
# 5 -0.002781 -0.006792 -0.005105 0.000000 0.039498 0.000000
# 6 0.000000 0.000000 0.000000 -0.007528 0.000000 0.042699
#
#
# Mechanical properties :
#
#
# Convention : Reuss Voigt Hill
#
# Bulk Modulus (GPa) = 36.45569 48.27801 42.36685
# Shear Modulus (GPa) = 24.41204 26.47091 25.44147
#
# Velocity S-wave (km/s) = 3.64906 3.79983 3.72521
# Velocity P-wave (km/s) = 6.13508 6.75167 6.45074
#
# Compressibility (1/GPa) = 0.02743056
#
# Stress axis : x y z
#
# Youngs Moduli (GPa) = 73.68469 58.21344 51.98169
#
# Poissons Ratio (x) = 0.30070 0.15545
# Poissons Ratio (y) = 0.38062 0.16230
# Poissons Ratio (z) = 0.22036 0.18176
#
# Static dielectric constant tensor:
#      x y z
#    x 3.469660 0.000000 0.169880 
#    y 0.000000 3.217640 0.000000 
#    z 0.169880 0.000000 3.311460 
# 
# 
# High freq. dielectric constant tensor:
#      x y z
#    x 1.718910 0.000000 0.016960 
#    y 0.000000 1.700810 0.000000 
#    z 0.016960 0.000000 1.704490 
# 
# From -- ./inp_files/21945.got.cif
#   From: 2010.06.25/outbox.cif.g09.slc.cpg/sg13_11_cif.got.tgz:21945.got - 2010.06.28 04:50:58.
