data_PCOD8119688
_publ_section_title
;
Structure prediction by ZEFSAII (Michael W. Deem and Ramdas Pophale) SiO2 
 PCOD8119688
Probable space group: P 2/C
;
_chemical_formula_sum "Si O2"
_cell_formula_units_Z 24
_cell_length_a 9.968715
_cell_length_b 17.600354
_cell_length_c 9.656273
_cell_angle_alpha 90.000000
_cell_angle_beta 136.929924
_cell_angle_gamma 90.000000
_cell_volume 1156.970692
_symmetry_space_group_name_H-M "P 2/C"
_symmetry_group_IT_number 13
_symmetry_cell_setting 'monoclinic'
loop_
_space_group_symop_operation_xyz
x,y,z
-x,y,1/2-z
-x,-y,-z
x,-y,1/2+z
loop_
_atom_site_type_symbol
_atom_site_label
_atom_site_fract_x
_atom_site_fract_y
_atom_site_fract_z
Si Si1 0.477665 0.575928 0.893867
Si Si2 0.041089 0.424931 0.119116
Si Si3 0.853462 0.666843 0.257177
Si Si4 0.633883 0.925357 0.218873
Si Si5 0.980943 0.161908 0.888673
Si Si6 0.368000 0.902337 0.782811
O O1 0.500000 0.554139 0.750000
O O2 0.260640 0.606855 0.762023
O O3 0.500000 0.500000 0.000000
O O4 0.632366 0.641963 0.050646
O O5 0.000000 0.438558 0.250000
O O6 0.000000 0.500000 0.000000
O O7 0.896636 0.362811 0.944588
O O8 0.887212 0.756205 0.290318
O O9 0.000000 0.632197 0.250000
O O10 0.500000 0.922833 0.250000
O O11 0.839641 0.882500 0.387308
O O12 0.696548 0.011467 0.227360
O O13 0.509535 0.877050 0.013078
O O14 0.000000 0.122681 0.750000
O O15 0.190294 0.157247 0.125261
O O16 0.500000 0.903488 0.750000
#
# Coordination Sequence:
#
# PCOD8119688 Si02
#       6
#     4   4   4   4   4   4
#     4  12  24  41  71  96 125 170 215 272 327 382
#     4  12  24  43  69  98 130 164 217 272 323 390
#     4  11  25  45  63  96 132 173 223 266 325 401
#     4  10  22  40  64 100 130 164 218 281 321 382
#     4  11  23  42  66  92 130 178 220 263 327 406
#     4  10  20  40  69  94 128 171 222 268 326 386
#
# _framework density 20.743828000000001
#
# number of rings (size 3 to 8) (size 9 to 14) (size 15 to 20)
#    0.000    1.000    5.000    2.000    0.000    2.000 
#    6.000    0.000    0.000    0.000    0.000    0.000 
#    0.000    0.000    0.000    0.000    0.000    0.000 
#
# Total GULP energy -297431.430449 kJ/mol
# GULP energy per Si atom -12392.976269 kJ/mol
# Density = 2.069661 g / cm^3
# Si number density = 20.743828 Si / 1000 Ang^3
#
#
#
# Elastic Constant Matrix: (Units=GPa)
#
#
# Indices 1 2 3 4 5 6 
#
# 1 105.4442 31.8428 45.3800 0.0000 1.3290 0.0000
# 2 31.8428 77.5666 35.5576 0.0000 11.5722 0.0000
# 3 45.3800 35.5576 129.5331 0.0000 7.3505 0.0000
# 4 0.0000 0.0000 0.0000 34.7471 0.0000 7.1585
# 5 1.3290 11.5722 7.3505 0.0000 49.8221 0.0000
# 6 0.0000 0.0000 0.0000 7.1585 0.0000 29.6864
#
#
#
# Elastic Compliance Matrix: (Units=1/GPa)
#
#
# Indices 1 2 3 4 5 6 
#
# 1 0.011951 -0.003556 -0.003267 0.000000 0.000989 0.000000
# 2 -0.003556 0.016219 -0.003023 0.000000 -0.003226 0.000000
# 3 -0.003267 -0.003023 0.009731 0.000000 -0.000646 0.000000
# 4 0.000000 0.000000 0.000000 0.030284 0.000000 -0.007303
# 5 0.000989 -0.003226 -0.000646 0.000000 0.020890 0.000000
# 6 0.000000 0.000000 0.000000 -0.007303 0.000000 0.035446
#
#
# Mechanical properties :
#
#
# Convention : Reuss Voigt Hill
#
# Bulk Modulus (GPa) = 54.91854 59.78940 57.35397
# Shear Modulus (GPa) = 33.27038 36.16871 34.71954
#
# Velocity S-wave (km/s) = 4.00918 4.18016 4.09556
# Velocity P-wave (km/s) = 6.92557 7.22382 7.07627
#
# Compressibility (1/GPa) = 0.01820879
#
# Stress axis : x y z
#
# Youngs Moduli (GPa) = 83.67438 61.65475 102.76315
#
# Poissons Ratio (x) = 0.21926 0.33571
# Poissons Ratio (y) = 0.29756 0.31069
# Poissons Ratio (z) = 0.27335 0.18640
#
# Static dielectric constant tensor:
#      x y z
#    x 4.184900 0.000000 -0.136410 
#    y 0.000000 3.706480 0.000000 
#    z -0.136410 0.000000 4.218660 
# 
# 
# High freq. dielectric constant tensor:
#      x y z
#    x 1.816630 0.000000 0.003740 
#    y 0.000000 1.788580 0.000000 
#    z 0.003740 0.000000 1.826680 
# 
# From -- ./inp_files/13514.got.cif
#   From: 2010.06.25/outbox.cif.g09.slc.cpg/sg13_7_cif.got.tgz:13514.got - 2010.06.28 04:50:58.
