data_PCOD8119898
_publ_section_title
;
Structure prediction by ZEFSAII (Michael W. Deem and Ramdas Pophale) SiO2 
 PCOD8119898
Probable space group: P 2/C
;
_chemical_formula_sum "Si O2"
_cell_formula_units_Z 32
_cell_length_a 24.196058
_cell_length_b 8.653378
_cell_length_c 9.873835
_cell_angle_alpha 90.000000
_cell_angle_beta 52.776036
_cell_angle_gamma 90.000000
_cell_volume 1646.191349
_symmetry_space_group_name_H-M "P 2/C"
_symmetry_group_IT_number 13
_symmetry_cell_setting 'monoclinic'
loop_
_space_group_symop_operation_xyz
x,y,z
-x,y,1/2-z
-x,-y,-z
x,-y,1/2+z
loop_
_atom_site_type_symbol
_atom_site_label
_atom_site_fract_x
_atom_site_fract_y
_atom_site_fract_z
Si Si1 0.550934 0.664829 0.785876
Si Si2 0.306753 0.600693 0.029645
Si Si3 0.193248 0.100693 0.970355
Si Si4 0.820242 0.177664 0.813307
Si Si5 0.050934 0.835171 0.785876
Si Si6 0.470328 0.300029 0.657012
Si Si7 0.320242 0.322336 0.813306
Si Si8 0.029672 0.800029 0.342988
O O1 0.500000 0.737457 0.750000
O O2 0.630563 0.700359 0.629627
O O3 0.540008 0.482056 0.809780
O O4 0.529389 0.741066 0.959778
O O5 0.235318 0.686859 0.108638
O O6 0.320730 0.582099 0.170468
O O7 0.302667 0.433580 0.965511
O O8 0.130563 0.200358 0.129627
O O9 0.197334 0.933580 0.034489
O O10 0.179270 0.082099 0.829531
O O11 0.264682 0.186859 0.891362
O O12 0.894459 0.262708 0.726473
O O13 0.000000 0.762544 0.750000
O O14 0.040008 0.017944 0.809782
O O15 0.029389 0.758933 0.959778
O O16 0.500000 0.223749 0.750000
O O17 0.394459 0.237292 0.726472
O O18 0.000000 0.723750 0.250000
#
# Coordination Sequence:
#
# PCOD8119898 Si02
#       8
#     4   4   4   4   4   4   4   4
#     4   9  15  28  48  74  97 129 167 213 258 289
#     4  10  21  35  54  77 107 136 172 211 257 307
#     4  10  21  35  54  77 107 136 172 211 257 307
#     4  10  21  36  52  78 107 138 169 212 257 306
#     4   9  15  28  48  74  97 129 167 213 258 289
#     4   9  17  28  48  75 101 127 168 216 253 295
#     4  10  21  36  52  78 107 138 169 212 257 306
#     4   9  17  28  48  75 101 127 168 216 253 295
#
# _framework density 19.43881
#
# number of rings (size 3 to 8) (size 9 to 14) (size 15 to 20)
#    0.000    2.500    2.500    0.000   10.500    1.000 
#    0.000    0.000    0.000    3.000    0.000    0.000 
#    0.000    0.000    0.000    0.000    0.000    0.000 
#
# Total GULP energy -396615.167595 kJ/mol
# GULP energy per Si atom -12394.223987 kJ/mol
# Density = 1.939457 g / cm^3
# Si number density = 19.438810 Si / 1000 Ang^3
#
#
#
# Elastic Constant Matrix: (Units=GPa)
#
#
# Indices 1 2 3 4 5 6 
#
# 1 135.3896 5.6638 44.4532 0.0000 -2.0556 0.0000
# 2 5.6638 10.1011 3.9549 0.0000 -1.4053 0.0000
# 3 44.4532 3.9549 111.9600 0.0000 1.3016 0.0000
# 4 0.0000 0.0000 0.0000 16.0434 0.0000 -3.8661
# 5 -2.0556 -1.4053 1.3016 0.0000 36.9539 0.0000
# 6 0.0000 0.0000 0.0000 -3.8661 0.0000 17.7753
#
#
#
# Elastic Compliance Matrix: (Units=1/GPa)
#
#
# Indices 1 2 3 4 5 6 
#
# 1 0.008624 -0.003476 -0.003307 0.000000 0.000464 0.000000
# 2 -0.003476 0.102367 -0.002280 0.000000 0.003780 0.000000
# 3 -0.003307 -0.002280 0.010333 0.000000 -0.000635 0.000000
# 4 0.000000 0.000000 0.000000 0.065778 0.000000 0.014307
# 5 0.000464 0.003780 -0.000635 0.000000 0.027253 0.000000
# 6 0.000000 0.000000 0.000000 0.014307 0.000000 0.059369
#
#
# Mechanical properties :
#
#
# Convention : Reuss Voigt Hill
#
# Bulk Modulus (GPa) = 9.69013 40.62163 25.15588
# Shear Modulus (GPa) = 15.32570 27.71312 21.51941
#
# Velocity S-wave (km/s) = 2.81091 3.77989 3.33082
# Velocity P-wave (km/s) = 3.94090 6.32397 5.26893
#
# Compressibility (1/GPa) = 0.10319783
#
# Stress axis : x y z
#
# Youngs Moduli (GPa) = 115.95119 9.76879 96.78083
#
# Poissons Ratio (x) = 0.03396 0.32004
# Poissons Ratio (y) = 0.40310 0.22063
# Poissons Ratio (z) = 0.38343 0.02227
#
# Static dielectric constant tensor:
#      x y z
#    x 3.976310 0.000000 0.035030 
#    y 0.000000 2.691110 0.000000 
#    z 0.035030 0.000000 3.942400 
# 
# 
# High freq. dielectric constant tensor:
#      x y z
#    x 1.779730 0.000000 0.000200 
#    y 0.000000 1.669410 0.000000 
#    z 0.000200 0.000000 1.778880 
# 
# From -- ./inp_files/23953.got.cif
#   From: 2010.06.25/outbox.cif.g09.slc.cpg/sg13_12_cif.got.tgz:23953.got - 2010.06.28 04:50:58.
