data_PCOD8119265
_publ_section_title
;
Structure prediction by ZEFSAII (Michael W. Deem and Ramdas Pophale) SiO2 
 PCOD8119265
Probable space group: P 2/C
;
_chemical_formula_sum "Si O2"
_cell_formula_units_Z 26
_cell_length_a 9.569436
_cell_length_b 15.537067
_cell_length_c 14.264269
_cell_angle_alpha 90.000000
_cell_angle_beta 138.440938
_cell_angle_gamma 90.000000
_cell_volume 1406.938002
_symmetry_space_group_name_H-M "P 2/C"
_symmetry_group_IT_number 13
_symmetry_cell_setting 'monoclinic'
loop_
_space_group_symop_operation_xyz
x,y,z
-x,y,1/2-z
-x,-y,-z
x,-y,1/2+z
loop_
_atom_site_type_symbol
_atom_site_label
_atom_site_fract_x
_atom_site_fract_y
_atom_site_fract_z
Si Si1 0.361811 0.801039 0.339572
Si Si2 0.000000 0.497947 0.750000
Si Si3 0.157872 0.213783 0.411607
Si Si4 0.222320 0.395029 0.521555
Si Si5 0.115719 0.030430 0.467308
Si Si6 0.704870 0.393774 0.732440
Si Si7 0.000000 0.900528 0.250000
Si Si8 0.500000 0.914692 0.250000
O O1 0.600733 0.803462 0.501494
O O2 0.274513 0.707268 0.273903
O O3 0.348413 0.853606 0.235391
O O4 0.204716 0.842672 0.335518
O O5 0.187276 0.440228 0.801799
O O6 0.925566 0.554304 0.624445
O O7 0.171293 0.293348 0.490004
O O8 0.059747 0.128696 0.410552
O O9 0.000000 0.240940 0.250000
O O10 0.459818 0.418415 0.611529
O O11 0.186847 0.419671 0.613336
O O12 0.365200 0.025485 0.613324
O O13 0.000000 0.000000 0.500000
O O14 0.056120 0.962626 0.361261
#
# Coordination Sequence:
#
# PCOD8119265 Si02
#       8
#     4   2   4   4   4   4   2   2
#     4  10  21  37  59  84 112 156 192 234 286 350
#     4  12  21  35  60  92 114 142 188 243 281 332
#     4  10  20  38  60  83 112 153 199 233 279 347
#     4  10  21  38  60  84 112 154 189 228 281 348
#     4  11  22  36  56  86 116 147 190 242 286 329
#     4  10  21  38  58  84 116 148 189 232 286 335
#     4  12  23  35  58  88 118 146 194 243 293 334
#     4  10  20  38  60  80 114 158 198 228 282 352
#
# _framework density 18.479846999999999
#
# number of rings (size 3 to 8) (size 9 to 14) (size 15 to 20)
#    0.000    1.538    3.077    4.154    0.000    3.692 
#    0.000    0.000    0.000    0.000    0.000    0.000 
#    0.000    0.000    0.000    0.000    0.000    0.000 
#
# Total GULP energy -322253.473954 kJ/mol
# GULP energy per Si atom -12394.364383 kJ/mol
# Density = 1.843779 g / cm^3
# Si number density = 18.479847 Si / 1000 Ang^3
#
#
#
# Elastic Constant Matrix: (Units=GPa)
#
#
# Indices 1 2 3 4 5 6 
#
# 1 98.6938 46.7423 19.5432 0.0000 -3.3820 0.0000
# 2 46.7423 80.9120 31.2299 0.0000 3.3939 0.0000
# 3 19.5432 31.2299 103.7727 0.0000 -9.6249 0.0000
# 4 0.0000 0.0000 0.0000 20.6796 0.0000 4.0672
# 5 -3.3820 3.3939 -9.6249 0.0000 23.8673 0.0000
# 6 0.0000 0.0000 0.0000 4.0672 0.0000 91.6604
#
#
#
# Elastic Compliance Matrix: (Units=1/GPa)
#
#
# Indices 1 2 3 4 5 6 
#
# 1 0.014189 -0.008395 0.000157 0.000000 0.003268 0.000000
# 2 -0.008395 0.019295 -0.004769 0.000000 -0.005856 0.000000
# 3 0.000157 -0.004769 0.011539 0.000000 0.005354 0.000000
# 4 0.000000 0.000000 0.000000 0.048783 0.000000 -0.002165
# 5 0.003268 -0.005856 0.005354 0.000000 0.045353 0.000000
# 6 0.000000 0.000000 0.000000 -0.002165 0.000000 0.011006
#
#
# Mechanical properties :
#
#
# Convention : Reuss Voigt Hill
#
# Bulk Modulus (GPa) = 52.60448 53.15658 52.88053
# Shear Modulus (GPa) = 27.39526 39.63234 33.51380
#
# Velocity S-wave (km/s) = 3.85442 4.63603 4.26318
# Velocity P-wave (km/s) = 6.95244 7.58183 7.27395
#
# Compressibility (1/GPa) = 0.01900979
#
# Stress axis : x y z
#
# Youngs Moduli (GPa) = 70.47732 51.82694 86.66586
#
# Poissons Ratio (x) = 0.43507 -0.01363
# Poissons Ratio (y) = 0.59163 0.41331
# Poissons Ratio (z) = -0.01108 0.24716
#
# Static dielectric constant tensor:
#      x y z
#    x 3.349620 0.000000 -0.021360 
#    y 0.000000 3.334640 0.000000 
#    z -0.021360 0.000000 3.430330 
# 
# 
# High freq. dielectric constant tensor:
#      x y z
#    x 1.704680 0.000000 -0.005760 
#    y 0.000000 1.720940 0.000000 
#    z -0.005760 0.000000 1.726540 
# 
# From -- ./inp_files/47854.got.cif
#   From: 2010.06.25/outbox.cif.g09.slc.cpg/sg13_24_cif.got.tgz:47854.got - 2010.06.28 04:50:58.
