data_PCOD8119595
_publ_section_title
;
Structure prediction by ZEFSAII (Michael W. Deem and Ramdas Pophale) SiO2 
 PCOD8119595
Probable space group: P 2/C
;
_chemical_formula_sum "Si O2"
_cell_formula_units_Z 18
_cell_length_a 20.117925
_cell_length_b 8.394035
_cell_length_c 12.683161
_cell_angle_alpha 90.000000
_cell_angle_beta 156.278743
_cell_angle_gamma 90.000000
_cell_volume 861.624353
_symmetry_space_group_name_H-M "P 2/C"
_symmetry_group_IT_number 13
_symmetry_cell_setting 'monoclinic'
loop_
_space_group_symop_operation_xyz
x,y,z
-x,y,1/2-z
-x,-y,-z
x,-y,1/2+z
loop_
_atom_site_type_symbol
_atom_site_label
_atom_site_fract_x
_atom_site_fract_y
_atom_site_fract_z
Si Si1 0.141658 0.088854 0.115246
Si Si2 0.337928 0.705931 0.740684
Si Si3 0.184933 0.792903 0.296562
Si Si4 0.000000 0.855852 0.750000
Si Si5 0.282772 0.354859 0.725444
O O1 0.275777 0.161190 0.231905
O O2 0.233670 0.975559 0.334085
O O3 0.015445 0.220552 0.979016
O O4 0.014951 0.967318 0.873281
O O5 0.282100 0.746700 0.542280
O O6 0.261436 0.538708 0.665097
O O7 0.534112 0.706545 0.031867
O O8 0.236935 0.667979 0.281694
O O9 0.837656 0.745610 0.525164
#
# Coordination Sequence:
#
# PCOD8119595 Si02
#       5
#     4   4   4   2   4
#     4  10  21  40  67  96 126 164 216 255 327 379
#     4  11  22  45  65  93 131 172 205 277 315 377
#     4  10  21  41  66  95 126 165 214 263 312 390
#     4  10  20  40  60  98 124 166 206 268 306 392
#     4  10  25  40  66  95 130 165 221 254 328 379
#
# _framework density 20.890775000000001
#
# number of rings (size 3 to 8) (size 9 to 14) (size 15 to 20)
#    0.000    1.778    2.222    0.667    3.111    4.444 
#   12.000    0.000    0.000    0.000    0.000    0.000 
#    0.000    0.000    0.000    0.000    0.000    0.000 
#
# Total GULP energy -223134.156840 kJ/mol
# GULP energy per Si atom -12396.342047 kJ/mol
# Density = 2.084323 g / cm^3
# Si number density = 20.890775 Si / 1000 Ang^3
#
#
#
# Elastic Constant Matrix: (Units=GPa)
#
#
# Indices 1 2 3 4 5 6 
#
# 1 134.1522 71.8584 50.0582 0.0000 3.2655 0.0000
# 2 71.8584 116.8725 67.2524 0.0000 -1.8465 0.0000
# 3 50.0582 67.2524 92.9968 0.0000 3.2334 0.0000
# 4 0.0000 0.0000 0.0000 30.3311 0.0000 5.2964
# 5 3.2655 -1.8465 3.2334 0.0000 20.4401 0.0000
# 6 0.0000 0.0000 0.0000 5.2964 0.0000 42.8976
#
#
#
# Elastic Compliance Matrix: (Units=1/GPa)
#
#
# Indices 1 2 3 4 5 6 
#
# 1 0.011378 -0.006075 -0.001658 0.000000 -0.002104 0.000000
# 2 -0.006075 0.018085 -0.009954 0.000000 0.004179 0.000000
# 3 -0.001658 -0.009954 0.018971 0.000000 -0.003635 0.000000
# 4 0.000000 0.000000 0.000000 0.033696 0.000000 -0.004160
# 5 -0.002104 0.004179 -0.003635 0.000000 0.050212 0.000000
# 6 0.000000 0.000000 0.000000 -0.004160 0.000000 0.023825
#
#
# Mechanical properties :
#
#
# Convention : Reuss Voigt Hill
#
# Bulk Modulus (GPa) = 76.57209 80.26219 78.41714
# Shear Modulus (GPa) = 25.52387 29.05726 27.29057
#
# Velocity S-wave (km/s) = 3.49918 3.73354 3.61826
# Velocity P-wave (km/s) = 7.28415 7.55573 7.42118
#
# Compressibility (1/GPa) = 0.01305959
#
# Stress axis : x y z
#
# Youngs Moduli (GPa) = 87.88738 55.29343 52.71302
#
# Poissons Ratio (x) = 0.33589 0.08742
# Poissons Ratio (y) = 0.53390 0.52471
# Poissons Ratio (z) = 0.14575 0.55040
#
# Static dielectric constant tensor:
#      x y z
#    x 3.904290 0.000000 -0.050610 
#    y 0.000000 3.884750 0.000000 
#    z -0.050610 0.000000 3.762640 
# 
# 
# High freq. dielectric constant tensor:
#      x y z
#    x 1.833660 0.000000 0.002520 
#    y 0.000000 1.816450 0.000000 
#    z 0.002520 0.000000 1.808740 
# 
# From -- ./inp_files/32443.got.cif
#   From: 2010.06.25/outbox.cif.g09.slc.cpg/sg13_17_cif.got.tgz:32443.got - 2010.06.28 04:50:58.
