data_PCOD8119406
_publ_section_title
;
Structure prediction by ZEFSAII (Michael W. Deem and Ramdas Pophale) SiO2 
 PCOD8119406
Probable space group: P 2/C
;
_chemical_formula_sum "Si O2"
_cell_formula_units_Z 16
_cell_length_a 15.688576
_cell_length_b 10.617922
_cell_length_c 17.476603
_cell_angle_alpha 90.000000
_cell_angle_beta 163.822702
_cell_angle_gamma 90.000000
_cell_volume 811.106162
_symmetry_space_group_name_H-M "P 2/C"
_symmetry_group_IT_number 13
_symmetry_cell_setting 'monoclinic'
loop_
_space_group_symop_operation_xyz
x,y,z
-x,y,1/2-z
-x,-y,-z
x,-y,1/2+z
loop_
_atom_site_type_symbol
_atom_site_label
_atom_site_fract_x
_atom_site_fract_y
_atom_site_fract_z
Si Si1 0.500000 0.925828 0.250000
Si Si2 0.852737 0.657062 0.316921
Si Si3 0.000000 0.764109 0.750000
Si Si4 0.854251 0.378811 0.275208
Si Si5 0.829626 0.162582 0.523298
O O1 0.686041 0.844714 0.473447
O O2 0.748943 0.019950 0.423664
O O3 0.946973 0.526031 0.357648
O O4 0.022052 0.686636 0.541950
O O5 0.943768 0.770278 0.339914
O O6 0.500243 0.650906 0.033018
O O7 0.995262 0.677778 0.670762
O O8 0.000000 0.154881 0.750000
O O9 0.500000 0.235094 0.250000
#
# Coordination Sequence:
#
# PCOD8119406 Si02
#       5
#     2   4   2   4   4
#     4  10  22  40  58  88 122 158 210 246 266 370
#     4  10  21  42  59  93 119 147 206 248 298 342
#     4  12  22  42  60  86 124 166 192 232 324 346
#     4  10  23  38  62  88 125 152 190 256 294 368
#     4  10  20  38  65  84 117 160 199 254 284 341
#
# _framework density 19.726147000000001
#
# number of rings (size 3 to 8) (size 9 to 14) (size 15 to 20)
#    0.750    1.000    1.250    3.000    1.750    0.000 
#    2.250    7.500    0.000    0.000    0.000    0.000 
#    0.000    0.000    0.000    0.000    0.000    0.000 
#
# Total GULP energy -198293.952333 kJ/mol
# GULP energy per Si atom -12393.372021 kJ/mol
# Density = 1.968125 g / cm^3
# Si number density = 19.726147 Si / 1000 Ang^3
#
#
#
# Elastic Constant Matrix: (Units=GPa)
#
#
# Indices 1 2 3 4 5 6 
#
# 1 211.6749 66.7871 122.0167 0.0000 -32.4624 0.0000
# 2 66.7871 96.3040 22.8160 0.0000 -4.0683 0.0000
# 3 122.0167 22.8160 172.2736 0.0000 -45.8494 0.0000
# 4 0.0000 0.0000 0.0000 33.7931 0.0000 4.4596
# 5 -32.4624 -4.0683 -45.8494 0.0000 37.2891 0.0000
# 6 0.0000 0.0000 0.0000 4.4596 0.0000 14.7796
#
#
#
# Elastic Compliance Matrix: (Units=1/GPa)
#
#
# Indices 1 2 3 4 5 6 
#
# 1 0.010232 -0.005563 -0.006393 0.000000 0.000440 0.000000
# 2 -0.005563 0.013763 0.001825 0.000000 -0.001097 0.000000
# 3 -0.006393 0.001825 0.012877 0.000000 0.010466 0.000000
# 4 0.000000 0.000000 0.000000 0.030819 0.000000 -0.009299
# 5 0.000440 -0.001097 0.010466 0.000000 0.039949 0.000000
# 6 0.000000 0.000000 0.000000 -0.009299 0.000000 0.070467
#
#
# Mechanical properties :
#
#
# Convention : Reuss Voigt Hill
#
# Bulk Modulus (GPa) = 60.20504 100.38802 80.29653
# Shear Modulus (GPa) = 24.52116 35.08121 29.80118
#
# Velocity S-wave (km/s) = 3.52956 4.22170 3.89105
# Velocity P-wave (km/s) = 6.87001 8.64667 7.80903
#
# Compressibility (1/GPa) = 0.01660991
#
# Stress axis : x y z
#
# Youngs Moduli (GPa) = 97.73057 72.65955 77.65947
#
# Poissons Ratio (x) = 0.40419 0.49651
# Poissons Ratio (y) = 0.54365 -0.14175
# Poissons Ratio (z) = 0.62483 -0.13263
#
# Static dielectric constant tensor:
#      x y z
#    x 3.333660 0.000000 -0.197050 
#    y 0.000000 3.641940 0.000000 
#    z -0.197050 0.000000 3.793430 
# 
# 
# High freq. dielectric constant tensor:
#      x y z
#    x 1.751220 0.000000 -0.022330 
#    y 0.000000 1.763740 0.000000 
#    z -0.022330 0.000000 1.790440 
# 
# From -- ./inp_files/43258.got.cif
#   From: 2010.06.25/outbox.cif.g09.slc.cpg/sg13_22_cif.got.tgz:43258.got - 2010.06.28 04:50:58.
