data_PCOD8119489
_publ_section_title
;
Structure prediction by ZEFSAII (Michael W. Deem and Ramdas Pophale) SiO2 
 PCOD8119489
Probable space group: P 2/C
;
_chemical_formula_sum "Si O2"
_cell_formula_units_Z 32
_cell_length_a 29.733245
_cell_length_b 11.539859
_cell_length_c 9.378377
_cell_angle_alpha 90.000000
_cell_angle_beta 29.091745
_cell_angle_gamma 90.000000
_cell_volume 1564.566134
_symmetry_space_group_name_H-M "P 2/C"
_symmetry_group_IT_number 13
_symmetry_cell_setting 'monoclinic'
loop_
_space_group_symop_operation_xyz
x,y,z
-x,y,1/2-z
-x,-y,-z
x,-y,1/2+z
loop_
_atom_site_type_symbol
_atom_site_label
_atom_site_fract_x
_atom_site_fract_y
_atom_site_fract_z
Si Si1 0.417524 0.777553 0.391228
Si Si2 0.753987 0.412264 0.478148
Si Si3 0.408803 0.772207 0.092968
Si Si4 0.904809 0.808067 0.342336
Si Si5 0.809720 0.966956 0.112201
Si Si6 0.683986 0.013823 0.221228
Si Si7 0.765254 0.634081 0.628816
Si Si8 0.883170 0.765482 0.722631
O O1 0.500000 0.714533 0.250000
O O2 0.446368 0.797932 0.147861
O O3 0.396916 0.890602 0.548434
O O4 0.330392 0.697475 0.618881
O O5 0.657731 0.339566 0.749222
O O6 0.754550 0.542901 0.532002
O O7 0.782653 0.424973 0.233841
O O8 0.832344 0.357903 0.366117
O O9 0.353419 0.886143 0.201964
O O10 0.500000 0.749606 0.750000
O O11 0.846914 0.730779 0.389004
O O12 0.861082 0.805291 0.622382
O O13 0.896499 0.946322 0.339487
O O14 0.007921 0.758797 0.050147
O O15 0.772672 0.953752 0.376067
O O16 0.721050 0.019654 0.279390
O O17 0.837843 0.844049 0.969569
#
# Coordination Sequence:
#
# PCOD8119489 Si02
#       8
#     4   4   4   4   4   4   4   4
#     4  11  25  41  61  90 121 157 198 247 298 353
#     4  10  22  42  62  86 117 159 200 248 299 350
#     4  11  24  41  61  89 123 157 196 244 301 358
#     4  10  20  39  61  89 124 159 196 248 297 352
#     4  12  20  38  63  90 124 163 197 238 297 358
#     4  12  22  38  64  89 125 161 196 241 296 357
#     4  10  22  42  63  84 120 156 200 251 299 349
#     4  10  21  37  63  90 121 161 199 241 302 352
#
# _framework density 20.452953000000001
#
# number of rings (size 3 to 8) (size 9 to 14) (size 15 to 20)
#    0.000    1.250    5.000    1.500    1.750    4.000 
#    0.000    2.500    0.000    0.000    0.000    0.000 
#    0.000    0.000    0.000    0.000    0.000    0.000 
#
# Total GULP energy -396436.135498 kJ/mol
# GULP energy per Si atom -12388.629234 kJ/mol
# Density = 2.040640 g / cm^3
# Si number density = 20.452953 Si / 1000 Ang^3
#
#
#
# Elastic Constant Matrix: (Units=GPa)
#
#
# Indices 1 2 3 4 5 6 
#
# 1 90.9600 22.5783 18.3112 0.0000 -14.6092 0.0000
# 2 22.5783 47.5480 0.0288 0.0000 12.2386 0.0000
# 3 18.3112 0.0288 73.5593 0.0000 -4.2527 0.0000
# 4 0.0000 0.0000 0.0000 -1.1970 0.0000 11.5354
# 5 -14.6092 12.2386 -4.2527 0.0000 26.7743 0.0000
# 6 0.0000 0.0000 0.0000 11.5354 0.0000 25.6095
#
#
#
# Elastic Compliance Matrix: (Units=1/GPa)
#
#
# Indices 1 2 3 4 5 6 
#
# 1 0.016764 -0.011532 -0.003366 0.000000 0.013884 0.000000
# 2 -0.011532 0.031799 0.001669 0.000000 -0.020562 0.000000
# 3 -0.003366 0.001669 0.014414 0.000000 -0.000310 0.000000
# 4 0.000000 0.000000 0.000000 -0.156424 0.000000 0.070459
# 5 0.013884 -0.020562 -0.000310 0.000000 0.054275 0.000000
# 6 0.000000 0.000000 0.000000 0.070459 0.000000 0.007311
#
#
# Mechanical properties :
#
#
# Convention : Reuss Voigt Hill
#
# Bulk Modulus (GPa) = 27.38233 32.65597 30.01915
# Shear Modulus (GPa) = 738.72171 21.64729 380.18450
#
# Velocity S-wave (km/s) = 19.02538 3.25683 13.64866
# Velocity P-wave (km/s) = 22.27189 5.49032 16.22006
#
# Compressibility (1/GPa) = 0.03651991
#
# Stress axis : x y z
#
# Youngs Moduli (GPa) = 59.65251 31.44757 69.37816
#
# Poissons Ratio (x) = 0.36265 0.23352
# Poissons Ratio (y) = 0.68790 -0.11582
# Poissons Ratio (z) = 0.20078 -0.05250
#
# Static dielectric constant tensor:
#      x y z
#    x 4.006610 0.000000 -0.043710 
#    y 0.000000 3.615300 0.000000 
#    z -0.043710 0.000000 3.809430 
# 
# 
# High freq. dielectric constant tensor:
#      x y z
#    x 1.808870 0.000000 -0.006000 
#    y 0.000000 1.788770 0.000000 
#    z -0.006000 0.000000 1.793130 
# 
# From -- ./inp_files/24945.got.cif
#   From: 2010.06.25/outbox.cif.g09.slc.cpg/sg13_13_cif.got.tgz:24945.got - 2010.06.28 04:50:58.
