data_PCOD8119449
_publ_section_title
;
Structure prediction by ZEFSAII (Michael W. Deem and Ramdas Pophale) SiO2 
 PCOD8119449
Probable space group: P 2/C
;
_chemical_formula_sum "Si O2"
_cell_formula_units_Z 26
_cell_length_a 19.664330
_cell_length_b 9.294926
_cell_length_c 8.805737
_cell_angle_alpha 90.000000
_cell_angle_beta 128.967123
_cell_angle_gamma 90.000000
_cell_volume 1251.396908
_symmetry_space_group_name_H-M "P 2/C"
_symmetry_group_IT_number 13
_symmetry_cell_setting 'monoclinic'
loop_
_space_group_symop_operation_xyz
x,y,z
-x,y,1/2-z
-x,-y,-z
x,-y,1/2+z
loop_
_atom_site_type_symbol
_atom_site_label
_atom_site_fract_x
_atom_site_fract_y
_atom_site_fract_z
Si Si1 0.737482 0.375693 0.304298
Si Si2 0.778265 0.662537 0.209733
Si Si3 0.500000 0.975095 0.750000
Si Si4 0.386766 0.131698 0.354431
Si Si5 0.222406 0.063767 0.627561
Si Si6 0.860663 0.170070 0.298556
Si Si7 0.979774 0.649435 0.548514
O O1 0.730348 0.540425 0.241929
O O2 0.768906 0.370211 0.520835
O O3 0.643574 0.296154 0.160048
O O4 0.807747 0.303587 0.292759
O O5 0.736497 0.814846 0.202393
O O6 0.879513 0.687750 0.387643
O O7 0.545121 0.873033 0.688613
O O8 0.429294 0.077250 0.570065
O O9 0.301908 0.038501 0.190045
O O10 0.178362 0.137532 0.421348
O O11 0.147999 0.969937 0.607713
O O12 0.961626 0.219042 0.434017
O O13 0.000000 0.624859 0.750000
O O14 0.000000 0.500000 0.500000
#
# Coordination Sequence:
#
# PCOD8119449 Si02
#       7
#     4   4   2   4   4   4   4
#     4  11  23  40  64  93 122 174 216 264 314 394
#     4  12  23  39  64  89 127 173 221 268 323 368
#     4  10  20  38  70 102 126 158 198 262 330 396
#     4  10  21  40  67  96 128 161 205 257 326 393
#     4  11  22  41  64  94 130 170 215 269 318 393
#     4  11  23  41  62  89 128 169 224 266 330 362
#     4  12  24  42  61  89 127 174 223 280 313 369
#
# _framework density 20.776782000000001
#
# number of rings (size 3 to 8) (size 9 to 14) (size 15 to 20)
#    0.000    0.923    3.077    6.462    0.000    0.615 
#    0.000    0.000    0.000   15.692    0.000    0.000 
#    0.000    0.000    0.000    0.000    0.000    0.000 
#
# Total GULP energy -322469.957789 kJ/mol
# GULP energy per Si atom -12402.690684 kJ/mol
# Density = 2.072949 g / cm^3
# Si number density = 20.776782 Si / 1000 Ang^3
#
#
#
# Elastic Constant Matrix: (Units=GPa)
#
#
# Indices 1 2 3 4 5 6 
#
# 1 99.6573 48.3194 33.8277 0.0000 -6.8518 0.0000
# 2 48.3194 123.2742 18.4912 0.0000 -1.4654 0.0000
# 3 33.8277 18.4912 91.8357 0.0000 -7.9182 0.0000
# 4 0.0000 0.0000 0.0000 34.6373 0.0000 13.9342
# 5 -6.8518 -1.4654 -7.9182 0.0000 40.2894 0.0000
# 6 0.0000 0.0000 0.0000 13.9342 0.0000 80.3516
#
#
#
# Elastic Compliance Matrix: (Units=1/GPa)
#
#
# Indices 1 2 3 4 5 6 
#
# 1 0.013815 -0.004798 -0.004003 0.000000 0.001388 0.000000
# 2 -0.004798 0.010031 -0.000296 0.000000 -0.000509 0.000000
# 3 -0.004003 -0.000296 0.012577 0.000000 0.001780 0.000000
# 4 0.000000 0.000000 0.000000 0.031036 0.000000 -0.005382
# 5 0.001388 -0.000509 0.001780 0.000000 0.025388 0.000000
# 6 0.000000 0.000000 0.000000 -0.005382 0.000000 0.013379
#
#
# Mechanical properties :
#
#
# Convention : Reuss Voigt Hill
#
# Bulk Modulus (GPa) = 54.86059 57.33820 56.09939
# Shear Modulus (GPa) = 38.31545 45.33091 41.82318
#
# Velocity S-wave (km/s) = 4.29901 4.67605 4.49149
# Velocity P-wave (km/s) = 7.14871 7.53731 7.34558
#
# Compressibility (1/GPa) = 0.01822802
#
# Stress axis : x y z
#
# Youngs Moduli (GPa) = 72.38519 99.69021 79.51236
#
# Poissons Ratio (x) = 0.47832 0.31829
# Poissons Ratio (y) = 0.34731 0.02356
# Poissons Ratio (z) = 0.28976 0.02954
#
# Static dielectric constant tensor:
#      x y z
#    x 4.007890 0.000000 -0.083870 
#    y 0.000000 4.122530 0.000000 
#    z -0.083870 0.000000 3.729080 
# 
# 
# High freq. dielectric constant tensor:
#      x y z
#    x 1.818210 0.000000 -0.020490 
#    y 0.000000 1.817090 0.000000 
#    z -0.020490 0.000000 1.813630 
# 
# From -- ./inp_files/21203.got.cif
#   From: 2010.06.25/outbox.cif.g09.slc.cpg/sg13_11_cif.got.tgz:21203.got - 2010.06.28 04:50:58.
