data_PCOD8119628
_publ_section_title
;
Structure prediction by ZEFSAII (Michael W. Deem and Ramdas Pophale) SiO2 
 PCOD8119628
Probable space group: P 2/C
;
_chemical_formula_sum "Si O2"
_cell_formula_units_Z 18
_cell_length_a 15.383902
_cell_length_b 10.495123
_cell_length_c 12.295500
_cell_angle_alpha 90.000000
_cell_angle_beta 26.241326
_cell_angle_gamma 90.000000
_cell_volume 877.753797
_symmetry_space_group_name_H-M "P 2/C"
_symmetry_group_IT_number 13
_symmetry_cell_setting 'monoclinic'
loop_
_space_group_symop_operation_xyz
x,y,z
-x,y,1/2-z
-x,-y,-z
x,-y,1/2+z
loop_
_atom_site_type_symbol
_atom_site_label
_atom_site_fract_x
_atom_site_fract_y
_atom_site_fract_z
Si Si1 0.671459 0.298086 0.979856
Si Si2 0.685333 0.031297 0.866007
Si Si3 0.000000 0.415769 0.750000
Si Si4 0.031783 0.859974 0.839062
Si Si5 0.122083 0.590092 0.438328
O O1 0.638095 0.148177 0.999902
O O2 0.879782 0.323621 0.804713
O O3 0.680322 0.366907 0.849883
O O4 0.500000 0.352405 0.250000
O O5 0.862471 0.063334 0.588440
O O6 0.753364 0.909744 0.862294
O O7 0.500000 0.000000 0.000000
O O8 0.843860 0.507876 0.989711
O O9 0.000000 0.891052 0.750000
O O10 0.015154 0.710576 0.880894
O O11 0.000000 0.500000 0.500000
#
# Coordination Sequence:
#
# PCOD8119628 Si02
#       5
#     4   4   2   4   4
#     4  10  23  37  60  92 118 158 200 246 307 357
#     4  10  24  39  58  92 125 156 200 250 300 363
#     4  10  20  40  64  84 124 158 204 250 294 356
#     4  10  21  39  65  88 117 163 200 243 305 356
#     4   9  19  39  63  88 117 159 200 246 297 355
#
# _framework density 20.506888
#
# number of rings (size 3 to 8) (size 9 to 14) (size 15 to 20)
#    0.000    2.222    1.111    0.000    4.667    6.222 
#    0.000    6.667    0.000    0.000    0.000    0.000 
#    0.000    0.000    0.000    0.000    0.000    0.000 
#
# Total GULP energy -223034.658735 kJ/mol
# GULP energy per Si atom -12390.814374 kJ/mol
# Density = 2.046021 g / cm^3
# Si number density = 20.506888 Si / 1000 Ang^3
#
#
#
# Elastic Constant Matrix: (Units=GPa)
#
#
# Indices 1 2 3 4 5 6 
#
# 1 127.5567 53.2211 33.3090 0.0000 -6.6394 0.0000
# 2 53.2211 104.3856 15.3662 0.0000 -9.0294 0.0000
# 3 33.3090 15.3662 81.2767 0.0000 7.3967 0.0000
# 4 0.0000 0.0000 0.0000 7.3746 0.0000 0.2654
# 5 -6.6394 -9.0294 7.3967 0.0000 37.8417 0.0000
# 6 0.0000 0.0000 0.0000 0.2654 0.0000 33.0905
#
#
#
# Elastic Compliance Matrix: (Units=1/GPa)
#
#
# Indices 1 2 3 4 5 6 
#
# 1 0.010922 -0.004900 -0.003683 0.000000 0.001467 0.000000
# 2 -0.004900 0.012344 -0.000525 0.000000 0.002189 0.000000
# 3 -0.003683 -0.000525 0.014236 0.000000 -0.003554 0.000000
# 4 0.000000 0.000000 0.000000 0.135640 0.000000 -0.001088
# 5 0.001467 0.002189 -0.003554 0.000000 0.027900 0.000000
# 6 0.000000 0.000000 0.000000 -0.001088 0.000000 0.030229
#
#
# Mechanical properties :
#
#
# Convention : Reuss Voigt Hill
#
# Bulk Modulus (GPa) = 51.84954 57.44573 54.64764
# Shear Modulus (GPa) = 19.53760 29.74952 24.64356
#
# Velocity S-wave (km/s) = 3.08999 3.81295 3.47035
# Velocity P-wave (km/s) = 6.17005 6.88901 6.53942
#
# Compressibility (1/GPa) = 0.01928658
#
# Stress axis : x y z
#
# Youngs Moduli (GPa) = 91.55750 81.00776 70.24505
#
# Poissons Ratio (x) = 0.39690 0.25874
# Poissons Ratio (y) = 0.44859 0.03689
# Poissons Ratio (z) = 0.33724 0.04254
#
# Static dielectric constant tensor:
#      x y z
#    x 3.992930 0.000000 0.561470 
#    y 0.000000 4.007960 0.000000 
#    z 0.561470 0.000000 3.959770 
# 
# 
# High freq. dielectric constant tensor:
#      x y z
#    x 1.798210 0.000000 0.033480 
#    y 0.000000 1.808470 0.000000 
#    z 0.033480 0.000000 1.791060 
# 
# From -- ./inp_files/25794.got.cif
#   From: 2010.06.25/outbox.cif.g09.slc.cpg/sg13_13_cif.got.tgz:25794.got - 2010.06.28 04:50:58.
