data_PCOD8119308
_publ_section_title
;
Structure prediction by ZEFSAII (Michael W. Deem and Ramdas Pophale) SiO2 
 PCOD8119308
Probable space group: P 2/C
;
_chemical_formula_sum "Si O2"
_cell_formula_units_Z 28
_cell_length_a 16.544909
_cell_length_b 16.469036
_cell_length_c 9.856965
_cell_angle_alpha 90.000000
_cell_angle_beta 30.951137
_cell_angle_gamma 90.000000
_cell_volume 1381.332114
_symmetry_space_group_name_H-M "P 2/C"
_symmetry_group_IT_number 13
_symmetry_cell_setting 'monoclinic'
loop_
_space_group_symop_operation_xyz
x,y,z
-x,y,1/2-z
-x,-y,-z
x,-y,1/2+z
loop_
_atom_site_type_symbol
_atom_site_label
_atom_site_fract_x
_atom_site_fract_y
_atom_site_fract_z
Si Si1 0.613071 0.990957 0.714176
Si Si2 0.190544 0.247559 0.758367
Si Si3 0.818908 0.563744 0.837625
Si Si4 0.675760 0.164287 0.687861
Si Si5 0.188085 0.427007 0.849574
Si Si6 0.324033 0.179465 0.303141
Si Si7 0.174594 0.740241 0.764794
O O1 0.500000 0.975857 0.750000
O O2 0.724160 0.912900 0.582839
O O3 0.709406 0.075362 0.572557
O O4 0.500000 0.000000 0.000000
O O5 0.215630 0.179704 0.838248
O O6 0.238389 0.336231 0.740484
O O7 0.303293 0.232547 0.467929
O O8 0.007803 0.241830 0.990452
O O9 0.742222 0.491246 0.859273
O O10 0.787869 0.644559 0.793514
O O11 0.002895 0.558215 0.604602
O O12 0.742885 0.559904 0.097795
O O13 0.717379 0.225763 0.509682
O O14 0.498645 0.180034 0.991859
O O15 0.210659 0.217806 0.355283
#
# Coordination Sequence:
#
# PCOD8119308 Si02
#       7
#     4   4   4   4   4   4   4
#     4  10  20  38  61  86 113 152 208 246 275 344
#     4  11  22  38  59  90 125 151 191 251 303 343
#     4   9  18  33  56  84 114 153 200 238 281 346
#     4  11  21  40  64  84 113 161 202 242 290 356
#     4   9  18  33  56  84 114 154 198 239 282 345
#     4  11  23  38  60  88 117 157 201 243 290 353
#     4  11  22  38  59  90 123 153 193 247 301 348
#
# _framework density 20.270287
#
# number of rings (size 3 to 8) (size 9 to 14) (size 15 to 20)
#    0.000    1.714    1.429    5.143    2.000    0.000 
#    0.000    4.286    0.000    5.143    0.000    0.000 
#    0.000    0.000    0.000    0.000    0.000    0.000 
#
# Total GULP energy -346980.291981 kJ/mol
# GULP energy per Si atom -12392.153285 kJ/mol
# Density = 2.022415 g / cm^3
# Si number density = 20.270287 Si / 1000 Ang^3
#
#
#
# Elastic Constant Matrix: (Units=GPa)
#
#
# Indices 1 2 3 4 5 6 
#
# 1 127.5706 80.8754 11.3198 0.0000 30.4531 0.0000
# 2 80.8754 133.4844 41.6433 0.0000 3.5924 0.0000
# 3 11.3198 41.6433 46.8177 0.0000 20.6500 0.0000
# 4 0.0000 0.0000 0.0000 30.0028 0.0000 4.4639
# 5 30.4531 3.5924 20.6500 0.0000 26.9567 0.0000
# 6 0.0000 0.0000 0.0000 4.4639 0.0000 29.5900
#
#
#
# Elastic Compliance Matrix: (Units=1/GPa)
#
#
# Indices 1 2 3 4 5 6 
#
# 1 -0.085203 0.092964 -0.149639 0.000000 0.198495 0.000000
# 2 0.092964 -0.089557 0.148371 0.000000 -0.206745 0.000000
# 3 -0.149639 0.148371 -0.211856 0.000000 0.311566 0.000000
# 4 0.000000 0.000000 0.000000 0.034095 0.000000 -0.005144
# 5 0.198495 -0.206745 0.311566 0.000000 -0.398266 0.000000
# 6 0.000000 0.000000 0.000000 -0.005144 0.000000 0.034571
#
#
# Mechanical properties :
#
#
# Convention : Reuss Voigt Hill
#
# Bulk Modulus (GPa) = -4.92068 63.94997 29.51465
# Shear Modulus (GPa) = -5.16878 28.91218 11.87170
#
# Velocity S-wave (km/s) = -1.59858 3.78078 2.42269
# Velocity P-wave (km/s) = 2.41663 7.11872 4.73477
#
# Compressibility (1/GPa) = -0.20322408
#
# Stress axis : x y z
#
# Youngs Moduli (GPa) = -11.73669 -11.16612 -4.72019
#
# Poissons Ratio (x) = 1.03804 -0.70633
# Poissons Ratio (y) = 1.09109 0.70034
# Poissons Ratio (z) = -1.75627 1.65673
#
# Static dielectric constant tensor:
#      x y z
#    x -4.725430 0.000000 -0.363910 
#    y 0.000000 38.296550 0.000000 
#    z -0.363910 0.000000 3.475640 
# 
# 
# High freq. dielectric constant tensor:
#      x y z
#    x 1.791350 0.000000 0.032890 
#    y 0.000000 1.805660 0.000000 
#    z 0.032890 0.000000 1.770440 
# 
# From -- ./inp_files/20078.got.cif
#   From: 2010.06.25/outbox.cif.g09.slc.cpg/sg13_11_cif.got.tgz:20078.got - 2010.06.28 04:50:58.
