data_PCOD8119244
_publ_section_title
;
Structure prediction by ZEFSAII (Michael W. Deem and Ramdas Pophale) SiO2 
 PCOD8119244
Probable space group: P 2/C
;
_chemical_formula_sum "Si O2"
_cell_formula_units_Z 22
_cell_length_a 11.635355
_cell_length_b 10.129870
_cell_length_c 13.099127
_cell_angle_alpha 90.000000
_cell_angle_beta 49.710094
_cell_angle_gamma 90.000000
_cell_volume 1177.677696
_symmetry_space_group_name_H-M "P 2/C"
_symmetry_group_IT_number 13
_symmetry_cell_setting 'monoclinic'
loop_
_space_group_symop_operation_xyz
x,y,z
-x,y,1/2-z
-x,-y,-z
x,-y,1/2+z
loop_
_atom_site_type_symbol
_atom_site_label
_atom_site_fract_x
_atom_site_fract_y
_atom_site_fract_z
Si Si1 0.042946 0.080228 0.614734
Si Si2 0.833205 0.664102 0.391348
Si Si3 0.832744 0.463204 0.565494
Si Si4 0.600267 0.413042 0.865990
Si Si5 0.500000 0.229944 0.750000
Si Si6 0.181221 0.158394 0.917905
O O1 0.166793 0.197880 0.545436
O O2 0.000000 0.033616 0.750000
O O3 0.891251 0.139282 0.651475
O O4 0.099734 0.945734 0.535204
O O5 0.784310 0.545650 0.493974
O O6 0.710791 0.675940 0.371775
O O7 0.000000 0.639702 0.250000
O O8 0.711732 0.494759 0.725385
O O9 0.835646 0.308897 0.534710
O O10 0.000000 0.500000 0.500000
O O11 0.493456 0.322159 0.855809
O O12 0.500000 0.500000 0.000000
O O13 0.359381 0.131123 0.819231
#
# Coordination Sequence:
#
# PCOD8119244 Si02
#       6
#     4   4   4   4   2   4
#     4  10  20  38  58  84 112 150 197 242 284 339
#     4  11  20  36  62  86 114 154 198 242 294 347
#     4  11  19  37  61  89 114 151 196 243 287 343
#     4  11  22  37  57  88 123 153 189 245 301 349
#     4  10  20  40  56  80 120 158 186 230 306 350
#     4  10  21  37  59  82 116 151 190 238 291 345
#
# _framework density 18.680833
#
# number of rings (size 3 to 8) (size 9 to 14) (size 15 to 20)
#    0.000    1.455    3.636    5.455    0.000    0.727 
#    3.273    5.455    0.000    0.000    0.000    0.000 
#    0.000    0.000    0.000    0.000    0.000    0.000 
#
# Total GULP energy -272587.872237 kJ/mol
# GULP energy per Si atom -12390.357829 kJ/mol
# Density = 1.863831 g / cm^3
# Si number density = 18.680833 Si / 1000 Ang^3
#
#
#
# Elastic Constant Matrix: (Units=GPa)
#
#
# Indices 1 2 3 4 5 6 
#
# 1 138.1570 33.2444 36.6615 0.0000 6.4692 0.0000
# 2 33.2444 82.4083 42.0174 0.0000 0.8867 0.0000
# 3 36.6615 42.0174 95.0522 0.0000 1.1492 0.0000
# 4 0.0000 0.0000 0.0000 11.2698 0.0000 -16.4971
# 5 6.4692 0.8867 1.1492 0.0000 35.6800 0.0000
# 6 0.0000 0.0000 0.0000 -16.4971 0.0000 14.0945
#
#
#
# Elastic Compliance Matrix: (Units=1/GPa)
#
#
# Indices 1 2 3 4 5 6 
#
# 1 0.008440 -0.002244 -0.002246 0.000000 -0.001402 0.000000
# 2 -0.002244 0.016263 -0.006326 0.000000 0.000207 0.000000
# 3 -0.002246 -0.006326 0.014182 0.000000 0.000108 0.000000
# 4 0.000000 0.000000 0.000000 -0.124389 0.000000 -0.145592
# 5 -0.001402 0.000207 0.000108 0.000000 0.028273 0.000000
# 6 0.000000 0.000000 0.000000 -0.145592 0.000000 -0.099460
#
#
# Mechanical properties :
#
#
# Convention : Reuss Voigt Hill
#
# Bulk Modulus (GPa) = 57.96405 59.94046 58.95225
# Shear Modulus (GPa) = -38.66732 25.78848 -6.43942
#
# Velocity S-wave (km/s) = -4.55454 3.71951 -1.85864
# Velocity P-wave (km/s) = 1.85405 7.11355 5.19808
#
# Compressibility (1/GPa) = 0.01725207
#
# Stress axis : x y z
#
# Youngs Moduli (GPa) = 118.48462 61.48815 70.51226
#
# Poissons Ratio (x) = 0.13800 0.15838
# Poissons Ratio (y) = 0.26593 0.44606
# Poissons Ratio (z) = 0.26614 0.38897
#
# Static dielectric constant tensor:
#      x y z
#    x 4.006240 0.000000 -0.073400 
#    y 0.000000 3.367360 0.000000 
#    z -0.073400 0.000000 3.622470 
# 
# 
# High freq. dielectric constant tensor:
#      x y z
#    x 1.754010 0.000000 0.010160 
#    y 0.000000 1.711370 0.000000 
#    z 0.010160 0.000000 1.713030 
# 
# From -- ./inp_files/33084.got.cif
#   From: 2010.06.25/outbox.cif.g09.slc.cpg/sg13_17_cif.got.tgz:33084.got - 2010.06.28 04:50:58.
