data_PCOD8119502
_publ_section_title
;
Structure prediction by ZEFSAII (Michael W. Deem and Ramdas Pophale) SiO2 
 PCOD8119502
Probable space group: P 2/C
;
_chemical_formula_sum "Si O2"
_cell_formula_units_Z 18
_cell_length_a 17.858086
_cell_length_b 6.188240
_cell_length_c 8.756596
_cell_angle_alpha 90.000000
_cell_angle_beta 128.312056
_cell_angle_gamma 90.000000
_cell_volume 759.295987
_symmetry_space_group_name_H-M "P 2/C"
_symmetry_group_IT_number 13
_symmetry_cell_setting 'monoclinic'
loop_
_space_group_symop_operation_xyz
x,y,z
-x,y,1/2-z
-x,-y,-z
x,-y,1/2+z
loop_
_atom_site_type_symbol
_atom_site_label
_atom_site_fract_x
_atom_site_fract_y
_atom_site_fract_z
Si Si1 0.067688 0.409251 0.456571
Si Si2 0.500000 0.370353 0.250000
Si Si3 0.340937 0.298504 0.521197
Si Si4 0.809324 0.352088 0.622059
Si Si5 0.355569 0.087450 0.231485
O O1 0.145757 0.276664 0.656084
O O2 0.114805 0.605255 0.417886
O O3 0.000000 0.273906 0.250000
O O4 0.000000 0.500000 0.500000
O O5 0.580938 0.522454 0.425736
O O6 0.452753 0.217150 0.317602
O O7 0.239955 0.414210 0.414490
O O8 0.334969 0.116197 0.383364
O O9 0.368212 0.167224 0.710236
O O10 0.734295 0.171729 0.479476
#
# Coordination Sequence:
#
# PCOD8119502 Si02
#       5
#     4   2   4   4   4
#     4   9  18  35  66  94 116 161 205 247 306 365
#     4  10  24  42  64  88 122 160 212 252 302 350
#     4  11  24  39  62  91 125 164 204 251 302 360
#     4  10  20  39  62  91 126 162 203 249 304 361
#     4  11  24  39  62  91 125 163 205 252 300 362
#
# _framework density 23.70617
#
# number of rings (size 3 to 8) (size 9 to 14) (size 15 to 20)
#    0.000    1.778    2.222    1.333    3.111    5.333 
#    0.000    0.000    0.000   26.667    0.000    0.000 
#    0.000    0.000    0.000    0.000    0.000    0.000 
#
# Total GULP energy -223034.328155 kJ/mol
# GULP energy per Si atom -12390.796009 kJ/mol
# Density = 2.365221 g / cm^3
# Si number density = 23.706170 Si / 1000 Ang^3
#
#
#
# Elastic Constant Matrix: (Units=GPa)
#
#
# Indices 1 2 3 4 5 6 
#
# 1 121.0702 26.2133 31.9141 0.0000 0.1145 0.0000
# 2 26.2133 63.7133 0.1735 0.0000 2.1651 0.0000
# 3 31.9141 0.1735 91.1189 0.0000 -1.0537 0.0000
# 4 0.0000 0.0000 0.0000 21.4203 0.0000 -7.0096
# 5 0.1145 2.1651 -1.0537 0.0000 33.6614 0.0000
# 6 0.0000 0.0000 0.0000 -7.0096 0.0000 12.4519
#
#
#
# Elastic Compliance Matrix: (Units=1/GPa)
#
#
# Indices 1 2 3 4 5 6 
#
# 1 0.010085 -0.004144 -0.003523 0.000000 0.000122 0.000000
# 2 -0.004144 0.017433 0.001406 0.000000 -0.001063 0.000000
# 3 -0.003523 0.001406 0.012209 0.000000 0.000304 0.000000
# 4 0.000000 0.000000 0.000000 0.057227 0.000000 0.032215
# 5 0.000122 -0.001063 0.000304 0.000000 0.029785 0.000000
# 6 0.000000 0.000000 0.000000 0.032215 0.000000 0.098444
#
#
# Mechanical properties :
#
#
# Convention : Reuss Voigt Hill
#
# Bulk Modulus (GPa) = 36.75771 43.61157 40.18464
# Shear Modulus (GPa) = 20.26141 28.01348 24.13745
#
# Velocity S-wave (km/s) = 2.92668 3.44131 3.19437
# Velocity P-wave (km/s) = 5.19228 5.85037 5.53112
#
# Compressibility (1/GPa) = 0.02720518
#
# Stress axis : x y z
#
# Youngs Moduli (GPa) = 99.15253 57.36396 81.90373
#
# Poissons Ratio (x) = 0.23771 0.28855
# Poissons Ratio (y) = 0.41089 -0.11515
# Poissons Ratio (z) = 0.34932 -0.08065
#
# Static dielectric constant tensor:
#      x y z
#    x 4.527340 0.000000 0.242850 
#    y 0.000000 3.748450 0.000000 
#    z 0.242850 0.000000 5.035100 
# 
# 
# High freq. dielectric constant tensor:
#      x y z
#    x 1.960840 0.000000 0.002320 
#    y 0.000000 1.887880 0.000000 
#    z 0.002320 0.000000 1.954520 
# 
# From -- ./inp_files/20276.got.cif
#   From: 2010.06.25/outbox.cif.g09.slc.cpg/sg13_11_cif.got.tgz:20276.got - 2010.06.28 04:50:58.
