data_PCOD8119845
_publ_section_title
;
Structure prediction by ZEFSAII (Michael W. Deem and Ramdas Pophale) SiO2 
 PCOD8119845
Probable space group: P 2/C
;
_chemical_formula_sum "Si O2"
_cell_formula_units_Z 24
_cell_length_a 15.181226
_cell_length_b 12.249033
_cell_length_c 10.430687
_cell_angle_alpha 90.000000
_cell_angle_beta 142.898604
_cell_angle_gamma 90.000000
_cell_volume 1170.045198
_symmetry_space_group_name_H-M "P 2/C"
_symmetry_group_IT_number 13
_symmetry_cell_setting 'monoclinic'
loop_
_space_group_symop_operation_xyz
x,y,z
-x,y,1/2-z
-x,-y,-z
x,-y,1/2+z
loop_
_atom_site_type_symbol
_atom_site_label
_atom_site_fract_x
_atom_site_fract_y
_atom_site_fract_z
Si Si1 0.853648 0.393876 0.905542
Si Si2 0.676732 0.270097 0.105353
Si Si3 0.834871 0.816569 0.554024
Si Si4 0.545916 0.914873 0.160504
Si Si5 0.590154 0.492919 0.474413
Si Si6 0.909273 0.369717 0.526538
O O1 0.724985 0.410110 0.651801
O O2 0.001839 0.366106 0.003080
O O3 0.824936 0.298081 0.970483
O O4 0.865259 0.504712 0.003248
O O5 0.780411 0.198700 0.135229
O O6 0.764789 0.295287 0.339506
O O7 0.529255 0.201923 0.959748
O O8 0.641049 0.385217 0.996082
O O9 0.721935 0.900565 0.355529
O O10 0.000000 0.863989 0.750000
O O11 0.500000 0.954703 0.250000
O O12 0.500000 0.000000 0.000000
O O13 0.500000 0.444817 0.250000
O O14 0.500000 0.500000 0.500000
O O15 0.000000 0.320829 0.750000
#
# Coordination Sequence:
#
# PCOD8119845 Si02
#       6
#     4   4   4   4   4   4
#     4  10  21  33  56  83 123 164 200 239 284 345
#     4  10  21  39  62  82 120 160 202 243 297 365
#     4  11  20  40  66  90 114 158 201 237 296 367
#     4  10  23  46  68  90 115 152 197 256 314 366
#     4  11  22  34  52  85 121 167 206 241 282 346
#     4  10  21  33  52  88 126 162 199 243 286 336
#
# _framework density 20.512027
#
# number of rings (size 3 to 8) (size 9 to 14) (size 15 to 20)
#    0.000    1.667    1.667    4.000    9.333    0.000 
#    3.000    5.000    0.000    0.000    0.000    0.000 
#    0.000    0.000    0.000    0.000    0.000    0.000 
#
# Total GULP energy -297568.920251 kJ/mol
# GULP energy per Si atom -12398.705010 kJ/mol
# Density = 2.046534 g / cm^3
# Si number density = 20.512027 Si / 1000 Ang^3
#
#
#
# Elastic Constant Matrix: (Units=GPa)
#
#
# Indices 1 2 3 4 5 6 
#
# 1 58.7236 21.7730 36.8409 0.0000 6.5628 0.0000
# 2 21.7730 60.9744 43.4871 0.0000 1.4240 0.0000
# 3 36.8409 43.4871 180.4948 0.0000 3.8787 0.0000
# 4 0.0000 0.0000 0.0000 33.0067 0.0000 -1.9692
# 5 6.5628 1.4240 3.8787 0.0000 41.8186 0.0000
# 6 0.0000 0.0000 0.0000 -1.9692 0.0000 18.0609
#
#
#
# Elastic Compliance Matrix: (Units=1/GPa)
#
#
# Indices 1 2 3 4 5 6 
#
# 1 0.021211 -0.005389 -0.002969 0.000000 -0.002870 0.000000
# 2 -0.005389 0.021175 -0.004012 0.000000 0.000497 0.000000
# 3 -0.002969 -0.004012 0.007114 0.000000 -0.000057 0.000000
# 4 0.000000 0.000000 0.000000 0.030495 0.000000 0.003325
# 5 -0.002870 0.000497 -0.000057 0.000000 0.024352 0.000000
# 6 0.000000 0.000000 0.000000 0.003325 0.000000 0.055731
#
#
# Mechanical properties :
#
#
# Convention : Reuss Voigt Hill
#
# Bulk Modulus (GPa) = 40.39102 56.04385 48.21744
# Shear Modulus (GPa) = 25.89714 31.78337 28.84025
#
# Velocity S-wave (km/s) = 3.55707 3.94064 3.75376
# Velocity P-wave (km/s) = 6.05016 6.93445 6.50734
#
# Compressibility (1/GPa) = 0.02475798
#
# Stress axis : x y z
#
# Youngs Moduli (GPa) = 47.14622 47.22600 140.56194
#
# Poissons Ratio (x) = 0.25452 0.41735
# Poissons Ratio (y) = 0.25409 0.56398
# Poissons Ratio (z) = 0.13999 0.18949
#
# Static dielectric constant tensor:
#      x y z
#    x 3.548480 0.000000 0.279730 
#    y 0.000000 3.312470 0.000000 
#    z 0.279730 0.000000 4.190370 
# 
# 
# High freq. dielectric constant tensor:
#      x y z
#    x 1.792600 0.000000 0.011360 
#    y 0.000000 1.750410 0.000000 
#    z 0.011360 0.000000 1.828180 
# 
# From -- ./inp_files/39242.got.cif
#   From: 2010.06.25/outbox.cif.g09.slc.cpg/sg13_20_cif.got.tgz:39242.got - 2010.06.28 04:50:58.
