data_PCOD8119222
_publ_section_title
;
Structure prediction by ZEFSAII (Michael W. Deem and Ramdas Pophale) SiO2 
 PCOD8119222
Probable space group: P 2/C
;
_chemical_formula_sum "Si O2"
_cell_formula_units_Z 30
_cell_length_a 19.859269
_cell_length_b 7.703158
_cell_length_c 9.177781
_cell_angle_alpha 90.000000
_cell_angle_beta 100.021717
_cell_angle_gamma 90.000000
_cell_volume 1382.586003
_symmetry_space_group_name_H-M "P 2/C"
_symmetry_group_IT_number 13
_symmetry_cell_setting 'monoclinic'
loop_
_space_group_symop_operation_xyz
x,y,z
-x,y,1/2-z
-x,-y,-z
x,-y,1/2+z
loop_
_atom_site_type_symbol
_atom_site_label
_atom_site_fract_x
_atom_site_fract_y
_atom_site_fract_z
Si Si1 0.500000 0.484462 0.250000
Si Si2 0.030972 0.763228 0.919842
Si Si3 0.683439 0.861979 0.451413
Si Si4 0.407417 0.575537 0.963394
Si Si5 0.055586 0.615692 0.392431
Si Si6 0.336189 0.215664 0.883768
Si Si7 0.186879 0.222935 0.869340
Si Si8 0.831585 0.937566 0.434615
O O1 0.543035 0.602859 0.379021
O O2 0.552587 0.371394 0.170600
O O3 0.059287 0.571630 0.969137
O O4 0.094575 0.887049 0.973466
O O5 0.000000 0.800006 0.750000
O O6 0.966038 0.775951 0.007364
O O7 0.656075 0.705423 0.542746
O O8 0.651780 0.847054 0.277278
O O9 0.765862 0.836264 0.479223
O O10 0.659595 0.047632 0.509025
O O11 0.387529 0.370238 0.947169
O O12 0.128869 0.632472 0.342382
O O13 0.000000 0.604181 0.250000
O O14 0.261124 0.303706 0.870624
O O15 0.170134 0.077702 0.740097
O O16 0.181490 0.136829 0.027113
#
# Coordination Sequence:
#
# PCOD8119222 Si02
#       8
#     2   4   4   4   4   4   4   4
#     4  10  24  42  70  98 140 162 220 256 296 388
#     4  10  22  36  54  80 114 153 204 249 307 369
#     4  10  23  42  67  96 131 169 218 262 315 379
#     4  11  22  46  68  99 133 176 205 262 314 367
#     4  10  20  38  54  77 113 156 197 255 302 365
#     4  10  23  42  66  98 130 169 218 263 315 378
#     4  10  22  39  59  85 117 152 204 257 304 363
#     4  10  22  40  57  86 117 153 203 257 301 368
#
# _framework density 21.698471000000001
#
# number of rings (size 3 to 8) (size 9 to 14) (size 15 to 20)
#    0.000    1.867    2.667    0.000    5.600    1.067 
#    0.000    4.000    0.000    0.000    0.000    0.000 
#    0.000    0.000    0.000    0.000    0.000    0.000 
#
# Total GULP energy -371663.560844 kJ/mol
# GULP energy per Si atom -12388.785361 kJ/mol
# Density = 2.164908 g / cm^3
# Si number density = 21.698471 Si / 1000 Ang^3
#
#
#
# Elastic Constant Matrix: (Units=GPa)
#
#
# Indices 1 2 3 4 5 6 
#
# 1 101.2440 35.0024 27.7046 0.0000 -12.5043 0.0000
# 2 35.0024 71.4699 22.4413 0.0000 -5.4116 0.0000
# 3 27.7046 22.4413 81.8777 0.0000 -10.8129 0.0000
# 4 0.0000 0.0000 0.0000 3.8763 0.0000 -15.1375
# 5 -12.5043 -5.4116 -10.8129 0.0000 37.0765 0.0000
# 6 0.0000 0.0000 0.0000 -15.1375 0.0000 20.5518
#
#
#
# Elastic Compliance Matrix: (Units=1/GPa)
#
#
# Indices 1 2 3 4 5 6 
#
# 1 0.012715 -0.005231 -0.002499 0.000000 0.002796 0.000000
# 2 -0.005231 0.017501 -0.003040 0.000000 -0.000096 0.000000
# 3 -0.002499 -0.003040 0.014272 0.000000 0.002876 0.000000
# 4 0.000000 0.000000 0.000000 -0.137489 0.000000 -0.101268
# 5 0.002796 -0.000096 0.002876 0.000000 0.028739 0.000000
# 6 0.000000 0.000000 0.000000 -0.101268 0.000000 -0.025932
#
#
# Mechanical properties :
#
#
# Convention : Reuss Voigt Hill
#
# Bulk Modulus (GPa) = 43.57605 47.20982 45.39294
# Shear Modulus (GPa) = -81.95841 23.59713 -29.18064
#
# Velocity S-wave (km/s) = -6.15252 3.30131 -3.67116
# Velocity P-wave (km/s) = 5.50865 6.02793 1.73071
#
# Compressibility (1/GPa) = 0.02294839
#
# Stress axis : x y z
#
# Youngs Moduli (GPa) = 78.64920 57.14065 70.06777
#
# Poissons Ratio (x) = 0.29888 0.17513
# Poissons Ratio (y) = 0.41138 0.21297
# Poissons Ratio (z) = 0.19658 0.17368
#
# Static dielectric constant tensor:
#      x y z
#    x 4.172200 0.000000 -0.230500 
#    y 0.000000 3.775410 0.000000 
#    z -0.230500 0.000000 3.985740 
# 
# 
# High freq. dielectric constant tensor:
#      x y z
#    x 1.868560 0.000000 -0.014690 
#    y 0.000000 1.815040 0.000000 
#    z -0.014690 0.000000 1.860530 
# 
# From -- ./inp_files/22792.got.cif
#   From: 2010.06.25/outbox.cif.g09.slc.cpg/sg13_12_cif.got.tgz:22792.got - 2010.06.28 04:50:58.
