data_PCOD8119855
_publ_section_title
;
Structure prediction by ZEFSAII (Michael W. Deem and Ramdas Pophale) SiO2 
 PCOD8119855
Probable space group: P 2/C
;
_chemical_formula_sum "Si O2"
_cell_formula_units_Z 32
_cell_length_a 14.420604
_cell_length_b 8.576839
_cell_length_c 28.819308
_cell_angle_alpha 90.000000
_cell_angle_beta 150.262703
_cell_angle_gamma 90.000000
_cell_volume 1768.059804
_symmetry_space_group_name_H-M "P 2/C"
_symmetry_group_IT_number 13
_symmetry_cell_setting 'monoclinic'
loop_
_space_group_symop_operation_xyz
x,y,z
-x,y,1/2-z
-x,-y,-z
x,-y,1/2+z
loop_
_atom_site_type_symbol
_atom_site_label
_atom_site_fract_x
_atom_site_fract_y
_atom_site_fract_z
Si Si1 0.766077 0.694391 0.827353
Si Si2 0.589244 0.366575 0.905059
Si Si3 0.360857 0.547143 0.479677
Si Si4 0.652139 0.671981 0.880739
Si Si5 0.897864 0.849285 0.572144
Si Si6 0.180640 0.204798 0.955517
Si Si7 0.180891 0.584682 0.211886
Si Si8 0.988055 0.373938 0.192812
O O1 0.763455 0.695607 0.881625
O O2 0.562146 0.728363 0.717282
O O3 0.834364 0.523145 0.840658
O O4 0.910167 0.828659 0.873363
O O5 0.663195 0.489535 0.899194
O O6 0.375729 0.320112 0.799552
O O7 0.588423 0.442712 0.954831
O O8 0.726164 0.217718 0.966377
O O9 0.500000 0.500000 0.500000
O O10 0.340278 0.727116 0.489176
O O11 0.160943 0.511495 0.371369
O O12 0.751153 0.777115 0.962197
O O13 0.918752 0.765483 0.630480
O O14 0.854379 0.024373 0.567888
O O15 0.986389 0.293963 0.863069
O O16 0.171447 0.460826 0.251355
O O17 0.000000 0.306781 0.250000
#
# Coordination Sequence:
#
# PCOD8119855 Si02
#       8
#     4   4   4   4   4   4   4   4
#     4   9  18  34  56  78 100 134 179 222 260 305
#     4   9  18  33  52  74 100 133 176 220 255 302
#     4   9  17  32  53  72  93 128 175 217 252 298
#     4   9  18  34  56  78 100 135 182 220 256 309
#     4  10  21  34  49  77 113 140 167 211 271 327
#     4  10  21  34  50  77 110 138 167 211 268 323
#     4   9  18  33  53  74  97 132 178 220 256 303
#     4   9  17  32  52  72  96 130 173 215 255 303
#
# _framework density 18.098935000000001
#
# number of rings (size 3 to 8) (size 9 to 14) (size 15 to 20)
#    0.000    2.750    0.000    3.000    0.000    4.500 
#    0.000    6.250    0.000    3.000    0.000    0.000 
#    0.000    0.000    0.000    0.000    0.000    0.000 
#
# Total GULP energy -396496.119631 kJ/mol
# GULP energy per Si atom -12390.503738 kJ/mol
# Density = 1.805774 g / cm^3
# Si number density = 18.098935 Si / 1000 Ang^3
#
#
#
# Elastic Constant Matrix: (Units=GPa)
#
#
# Indices 1 2 3 4 5 6 
#
# 1 127.9829 47.6905 41.6184 0.0000 -4.9936 0.0000
# 2 47.6905 103.6502 37.8620 0.0000 5.6527 0.0000
# 3 41.6184 37.8620 83.6212 0.0000 -2.5985 0.0000
# 4 0.0000 0.0000 0.0000 14.8736 0.0000 3.4675
# 5 -4.9936 5.6527 -2.5985 0.0000 29.0559 0.0000
# 6 0.0000 0.0000 0.0000 3.4675 0.0000 16.8949
#
#
#
# Elastic Compliance Matrix: (Units=1/GPa)
#
#
# Indices 1 2 3 4 5 6 
#
# 1 0.010374 -0.003632 -0.003451 0.000000 0.002181 0.000000
# 2 -0.003632 0.013050 -0.004211 0.000000 -0.003540 0.000000
# 3 -0.003451 -0.004211 0.015634 0.000000 0.001624 0.000000
# 4 0.000000 0.000000 0.000000 0.070612 0.000000 -0.014492
# 5 0.002181 -0.003540 0.001624 0.000000 0.035625 0.000000
# 6 0.000000 0.000000 0.000000 -0.014492 0.000000 0.062164
#
#
# Mechanical properties :
#
#
# Convention : Reuss Voigt Hill
#
# Bulk Modulus (GPa) = 60.71749 63.28845 62.00297
# Shear Modulus (GPa) = 21.22813 24.70379 22.96596
#
# Velocity S-wave (km/s) = 3.42847 3.69851 3.56604
# Velocity P-wave (km/s) = 7.02089 7.29949 7.16155
#
# Compressibility (1/GPa) = 0.01646972
#
# Stress axis : x y z
#
# Youngs Moduli (GPa) = 96.39374 76.62756 63.96455
#
# Poissons Ratio (x) = 0.27827 0.22075
# Poissons Ratio (y) = 0.35005 0.26938
# Poissons Ratio (z) = 0.33267 0.32271
#
# Static dielectric constant tensor:
#      x y z
#    x 2.588890 0.000000 -0.399950 
#    y 0.000000 2.991710 0.000000 
#    z -0.399950 0.000000 3.313400 
# 
# 
# High freq. dielectric constant tensor:
#      x y z
#    x 1.703960 0.000000 0.003190 
#    y 0.000000 1.663890 0.000000 
#    z 0.003190 0.000000 1.712620 
# 
# From -- ./inp_files/96960.got.cif
#   From: 2010.06.25/outbox.cif.g09.slc.cpg/sg13_49_cif.got.tgz:96960.got - 2010.06.28 04:50:58.
