data_PCOD8119755
_publ_section_title
;
Structure prediction by ZEFSAII (Michael W. Deem and Ramdas Pophale) SiO2 
 PCOD8119755
Probable space group: P 2/C
;
_chemical_formula_sum "Si O2"
_cell_formula_units_Z 20
_cell_length_a 10.142367
_cell_length_b 4.886534
_cell_length_c 19.836735
_cell_angle_alpha 90.000000
_cell_angle_beta 112.143765
_cell_angle_gamma 90.000000
_cell_volume 910.614228
_symmetry_space_group_name_H-M "P 2/C"
_symmetry_group_IT_number 13
_symmetry_cell_setting 'monoclinic'
loop_
_space_group_symop_operation_xyz
x,y,z
-x,y,1/2-z
-x,-y,-z
x,-y,1/2+z
loop_
_atom_site_type_symbol
_atom_site_label
_atom_site_fract_x
_atom_site_fract_y
_atom_site_fract_z
Si Si1 0.817622 0.215280 0.952470
Si Si2 0.155840 0.263271 0.804909
Si Si3 0.411237 0.506144 0.675305
Si Si4 0.309311 0.237893 0.280200
Si Si5 0.113854 0.721370 0.450979
O O1 0.670311 0.304567 0.890025
O O2 0.944747 0.218910 0.922295
O O3 0.855930 0.409919 0.022723
O O4 0.799869 0.911823 0.979355
O O5 0.190053 0.575351 0.793040
O O6 0.168645 0.220358 0.887121
O O7 0.000000 0.182841 0.750000
O O8 0.271879 0.074342 0.789693
O O9 0.500000 0.331221 0.750000
O O10 0.531812 0.689090 0.660048
O O11 0.305428 0.709292 0.697693
#
# Coordination Sequence:
#
# PCOD8119755 Si02
#       5
#     4   4   4   4   4
#     4  10  20  42  58  90 117 158 200 247 287 358
#     4  12  22  39  59  88 123 154 197 250 300 356
#     4   8  21  42  65  85 119 160 205 244 288 358
#     4   9  23  37  60  89 113 154 208 235 301 346
#     4  10  23  35  63  87 121 154 199 243 306 341
#
# _framework density 21.963197000000001
#
# number of rings (size 3 to 8) (size 9 to 14) (size 15 to 20)
#    1.200    0.800    0.000    3.000    0.000   11.200 
#    0.000    6.000    0.000    0.000    0.000    0.000 
#    0.000    0.000    0.000    0.000    0.000    0.000 
#
# Total GULP energy -247912.646747 kJ/mol
# GULP energy per Si atom -12395.632337 kJ/mol
# Density = 2.191321 g / cm^3
# Si number density = 21.963197 Si / 1000 Ang^3
#
#
#
# Elastic Constant Matrix: (Units=GPa)
#
#
# Indices 1 2 3 4 5 6 
#
# 1 92.2456 10.9119 32.4008 0.0000 -5.8197 0.0000
# 2 10.9119 60.1130 -3.8737 0.0000 -6.9596 0.0000
# 3 32.4008 -3.8737 62.2349 0.0000 -3.7882 0.0000
# 4 0.0000 0.0000 0.0000 14.3103 0.0000 -3.9870
# 5 -5.8197 -6.9596 -3.7882 0.0000 32.5308 0.0000
# 6 0.0000 0.0000 0.0000 -3.9870 0.0000 25.5183
#
#
#
# Elastic Compliance Matrix: (Units=1/GPa)
#
#
# Indices 1 2 3 4 5 6 
#
# 1 0.013809 -0.002861 -0.007306 0.000000 0.001008 0.000000
# 2 -0.002861 0.017754 0.002814 0.000000 0.003614 0.000000
# 3 -0.007306 0.002814 0.020147 0.000000 0.001641 0.000000
# 4 0.000000 0.000000 0.000000 0.073060 0.000000 0.011415
# 5 0.001008 0.003614 0.001641 0.000000 0.031885 0.000000
# 6 0.000000 0.000000 0.000000 0.011415 0.000000 0.040971
#
#
# Mechanical properties :
#
#
# Convention : Reuss Voigt Hill
#
# Bulk Modulus (GPa) = 27.02287 32.60795 29.81541
# Shear Modulus (GPa) = 22.25532 26.14886 24.20209
#
# Velocity S-wave (km/s) = 3.18669 3.45422 3.32315
# Velocity P-wave (km/s) = 5.08630 5.54866 5.32250
#
# Compressibility (1/GPa) = 0.03700569
#
# Stress axis : x y z
#
# Youngs Moduli (GPa) = 72.41790 56.32397 49.63563
#
# Poissons Ratio (x) = 0.16113 0.36263
# Poissons Ratio (y) = 0.20717 -0.13970
# Poissons Ratio (z) = 0.52907 -0.15852
#
# Static dielectric constant tensor:
#      x y z
#    x 3.877350 0.000000 -0.050900 
#    y 0.000000 3.738480 0.000000 
#    z -0.050900 0.000000 3.543520 
# 
# 
# High freq. dielectric constant tensor:
#      x y z
#    x 1.862580 0.000000 -0.001820 
#    y 0.000000 1.862110 0.000000 
#    z -0.001820 0.000000 1.838910 
# 
# From -- ./inp_files/74623.got.cif
#   From: 2010.06.25/outbox.cif.g09.slc.cpg/sg13_38_cif.got.tgz:74623.got - 2010.06.28 04:50:58.
