data_PCOD8119249
_publ_section_title
;
Structure prediction by ZEFSAII (Michael W. Deem and Ramdas Pophale) SiO2 
 PCOD8119249
Probable space group: P 2/C
;
_chemical_formula_sum "Si O2"
_cell_formula_units_Z 30
_cell_length_a 15.549998
_cell_length_b 10.928763
_cell_length_c 28.117971
_cell_angle_alpha 90.000000
_cell_angle_beta 19.180192
_cell_angle_gamma 90.000000
_cell_volume 1569.906418
_symmetry_space_group_name_H-M "P 2/C"
_symmetry_group_IT_number 13
_symmetry_cell_setting 'monoclinic'
loop_
_space_group_symop_operation_xyz
x,y,z
-x,y,1/2-z
-x,-y,-z
x,-y,1/2+z
loop_
_atom_site_type_symbol
_atom_site_label
_atom_site_fract_x
_atom_site_fract_y
_atom_site_fract_z
Si Si1 0.000000 0.830304 0.750000
Si Si2 0.525449 0.857978 0.624404
Si Si3 0.728986 0.015053 0.667753
Si Si4 0.451707 0.618312 0.936957
Si Si5 0.899329 0.171600 0.658104
Si Si6 0.464717 0.752356 0.028879
Si Si7 0.316348 0.005369 0.648322
Si Si8 0.865518 0.595137 0.227789
O O1 0.234824 0.740710 0.609149
O O2 0.093592 0.914441 0.745188
O O3 0.311724 0.901784 0.774569
O O4 0.490087 0.712329 0.636097
O O5 0.806420 0.878071 0.502043
O O6 0.511819 0.930827 0.581113
O O7 0.500000 0.030949 0.750000
O O8 0.000000 0.000000 0.500000
O O9 0.733177 0.136350 0.698434
O O10 0.683066 0.520655 0.814614
O O11 0.455517 0.702436 0.981021
O O12 0.164431 0.555019 0.083438
O O13 0.802313 0.112589 0.757570
O O14 0.875285 0.318499 0.676108
O O15 0.433035 0.903929 0.044824
O O16 0.254267 0.674244 0.166877
#
# Coordination Sequence:
#
# PCOD8119249 Si02
#       8
#     2   4   4   4   4   4   4   4
#     4  12  22  30  54  82 122 152 210 242 290 356
#     4  10  20  38  58  87 121 154 188 235 306 353
#     4  11  21  39  66  97 123 148 179 229 298 375
#     4  11  23  41  59  80 113 164 202 256 287 338
#     4   9  20  38  60  85 119 151 188 238 295 347
#     4  11  23  35  54  82 115 162 204 256 290 337
#     4  10  21  33  52  85 120 158 196 244 292 352
#     4  10  24  40  60  78 115 157 212 247 289 335
#
# _framework density 19.109418999999999
#
# number of rings (size 3 to 8) (size 9 to 14) (size 15 to 20)
#    0.000    1.600    2.667    2.000    7.467    0.000 
#    2.400    0.000    0.000    1.600    0.000    0.000 
#    0.000    0.000    0.000    0.000    0.000    0.000 
#
# Total GULP energy -371709.435022 kJ/mol
# GULP energy per Si atom -12390.314501 kJ/mol
# Density = 1.906593 g / cm^3
# Si number density = 19.109419 Si / 1000 Ang^3
#
#
#
# Elastic Constant Matrix: (Units=GPa)
#
#
# Indices 1 2 3 4 5 6 
#
# 1 116.3858 46.5922 45.5291 0.0000 -16.2603 0.0000
# 2 46.5922 103.9841 54.8076 0.0000 -8.9788 0.0000
# 3 45.5291 54.8076 113.4123 0.0000 -22.6792 0.0000
# 4 0.0000 0.0000 0.0000 31.6353 0.0000 -10.7722
# 5 -16.2603 -8.9788 -22.6792 0.0000 24.8733 0.0000
# 6 0.0000 0.0000 0.0000 -10.7722 0.0000 16.5818
#
#
#
# Elastic Compliance Matrix: (Units=1/GPa)
#
#
# Indices 1 2 3 4 5 6 
#
# 1 0.011452 -0.003746 -0.001908 0.000000 0.004394 0.000000
# 2 -0.003746 0.014161 -0.005879 0.000000 -0.002698 0.000000
# 3 -0.001908 -0.005879 0.014371 0.000000 0.009734 0.000000
# 4 0.000000 0.000000 0.000000 0.040589 0.000000 0.026368
# 5 0.004394 -0.002698 0.009734 0.000000 0.050978 0.000000
# 6 0.000000 0.000000 0.000000 0.026368 0.000000 0.077437
#
#
# Mechanical properties :
#
#
# Convention : Reuss Voigt Hill
#
# Bulk Modulus (GPa) = 59.11105 69.73779 64.42442
# Shear Modulus (GPa) = 21.03544 27.07497 24.05520
#
# Velocity S-wave (km/s) = 3.32141 3.76818 3.55183
# Velocity P-wave (km/s) = 6.76085 7.45019 7.11388
#
# Compressibility (1/GPa) = 0.01691731
#
# Stress axis : x y z
#
# Youngs Moduli (GPa) = 87.31910 70.61559 69.58416
#
# Poissons Ratio (x) = 0.26453 0.13280
# Poissons Ratio (y) = 0.32711 0.40909
# Poissons Ratio (z) = 0.16664 0.41516
#
# Static dielectric constant tensor:
#      x y z
#    x 3.397120 0.000000 -0.025980 
#    y 0.000000 3.524340 0.000000 
#    z -0.025980 0.000000 3.637270 
# 
# 
# High freq. dielectric constant tensor:
#      x y z
#    x 1.727690 0.000000 -0.012140 
#    y 0.000000 1.737650 0.000000 
#    z -0.012140 0.000000 1.750680 
# 
# From -- ./inp_files/92940.got.cif
#   From: 2010.06.25/outbox.cif.g09.slc.cpg/sg13_47_cif.got.tgz:92940.got - 2010.06.28 04:50:58.
