data_PCOD8119666
_publ_section_title
;
Structure prediction by ZEFSAII (Michael W. Deem and Ramdas Pophale) SiO2 
 PCOD8119666
Probable space group: P 2/C
;
_chemical_formula_sum "Si O2"
_cell_formula_units_Z 20
_cell_length_a 12.995583
_cell_length_b 8.296313
_cell_length_c 8.790223
_cell_angle_alpha 90.000000
_cell_angle_beta 87.161903
_cell_angle_gamma 90.000000
_cell_volume 946.559180
_symmetry_space_group_name_H-M "P 2/C"
_symmetry_group_IT_number 13
_symmetry_cell_setting 'monoclinic'
loop_
_space_group_symop_operation_xyz
x,y,z
-x,y,1/2-z
-x,-y,-z
x,-y,1/2+z
loop_
_atom_site_type_symbol
_atom_site_label
_atom_site_fract_x
_atom_site_fract_y
_atom_site_fract_z
Si Si1 0.795800 0.872781 0.124915
Si Si2 0.386696 0.297534 0.721816
Si Si3 0.691240 0.403439 0.084633
Si Si4 0.801270 0.820355 0.789802
Si Si5 0.892202 0.585616 0.990215
O O1 0.695389 0.841902 0.234744
O O2 0.850390 0.035155 0.184870
O O3 0.759769 0.895071 0.951963
O O4 0.875560 0.720607 0.125270
O O5 0.500000 0.230872 0.750000
O O6 0.381152 0.342092 0.544999
O O7 0.365686 0.451109 0.829253
O O8 0.707529 0.259049 0.203590
O O9 0.801255 0.454801 0.004902
O O10 0.884577 0.679072 0.826499
O O11 0.000000 0.500000 0.000000
#
# Coordination Sequence:
#
# PCOD8119666 Si02
#       5
#     4   4   4   4   4
#     4   9  21  40  63  94 133 167 217 266 335 378
#     4  11  21  38  62  95 131 175 224 270 326 390
#     4  11  20  39  62  93 132 169 221 279 316 386
#     4  10  20  40  67  91 134 170 211 276 335 375
#     4   9  21  39  67  93 125 173 225 258 333 393
#
# _framework density 21.129159999999999
#
# number of rings (size 3 to 8) (size 9 to 14) (size 15 to 20)
#    1.200    0.800    2.000    1.800    0.000    0.800 
#    0.000    6.000    4.400    0.000    0.000    0.000 
#    0.000    0.000    0.000    0.000    0.000    0.000 
#
# Total GULP energy -247843.284328 kJ/mol
# GULP energy per Si atom -12392.164216 kJ/mol
# Density = 2.108107 g / cm^3
# Si number density = 21.129160 Si / 1000 Ang^3
#
#
#
# Elastic Constant Matrix: (Units=GPa)
#
#
# Indices 1 2 3 4 5 6 
#
# 1 105.4259 33.7235 32.0030 0.0000 6.7647 0.0000
# 2 33.7235 88.9066 37.0283 0.0000 7.0618 0.0000
# 3 32.0030 37.0283 114.1690 0.0000 24.6754 0.0000
# 4 0.0000 0.0000 0.0000 52.7541 0.0000 10.1457
# 5 6.7647 7.0618 24.6754 0.0000 28.4279 0.0000
# 6 0.0000 0.0000 0.0000 10.1457 0.0000 18.8933
#
#
#
# Elastic Compliance Matrix: (Units=1/GPa)
#
#
# Indices 1 2 3 4 5 6 
#
# 1 0.011190 -0.003398 -0.002021 0.000000 -0.000065 0.000000
# 2 -0.003398 0.014043 -0.003721 0.000000 0.000550 0.000000
# 3 -0.002021 -0.003721 0.012590 0.000000 -0.009523 0.000000
# 4 0.000000 0.000000 0.000000 0.021139 0.000000 -0.011352
# 5 -0.000065 0.000550 -0.009523 0.000000 0.043322 0.000000
# 6 0.000000 0.000000 0.000000 -0.011352 0.000000 0.059025
#
#
# Mechanical properties :
#
#
# Convention : Reuss Voigt Hill
#
# Bulk Modulus (GPa) = 51.16577 57.11233 54.13905
# Shear Modulus (GPa) = 26.86707 33.73151 30.29929
#
# Velocity S-wave (km/s) = 3.56977 3.99989 3.79093
# Velocity P-wave (km/s) = 6.42334 6.95851 6.69627
#
# Compressibility (1/GPa) = 0.01954432
#
# Stress axis : x y z
#
# Youngs Moduli (GPa) = 89.36764 71.21213 79.42558
#
# Poissons Ratio (x) = 0.24196 0.16049
# Poissons Ratio (y) = 0.30364 0.29553
# Poissons Ratio (z) = 0.18058 0.26497
#
# Static dielectric constant tensor:
#      x y z
#    x 3.389910 0.000000 0.102690 
#    y 0.000000 3.882870 0.000000 
#    z 0.102690 0.000000 3.905550 
# 
# 
# High freq. dielectric constant tensor:
#      x y z
#    x 1.784950 0.000000 0.012880 
#    y 0.000000 1.829050 0.000000 
#    z 0.012880 0.000000 1.837290 
# 
# From -- ./inp_files/14827.got.cif
#   From: 2010.06.25/outbox.cif.g09.slc.cpg/sg13_8_cif.got.tgz:14827.got - 2010.06.28 04:50:58.
