data_PCOD8119759
_publ_section_title
;
Structure prediction by ZEFSAII (Michael W. Deem and Ramdas Pophale) SiO2 
 PCOD8119759
Probable space group: P 2/C
;
_chemical_formula_sum "Si O2"
_cell_formula_units_Z 22
_cell_length_a 8.652782
_cell_length_b 10.679699
_cell_length_c 14.022929
_cell_angle_alpha 90.000000
_cell_angle_beta 51.274571
_cell_angle_gamma 90.000000
_cell_volume 1010.958204
_symmetry_space_group_name_H-M "P 2/C"
_symmetry_group_IT_number 13
_symmetry_cell_setting 'monoclinic'
loop_
_space_group_symop_operation_xyz
x,y,z
-x,y,1/2-z
-x,-y,-z
x,-y,1/2+z
loop_
_atom_site_type_symbol
_atom_site_label
_atom_site_fract_x
_atom_site_fract_y
_atom_site_fract_z
Si Si1 0.703589 0.505096 0.305643
Si Si2 0.112011 0.663205 0.929176
Si Si3 0.955056 0.946784 0.368461
Si Si4 0.736459 0.545101 0.007334
Si Si5 0.724856 0.056932 0.129528
Si Si6 0.000000 0.707670 0.250000
O O1 0.776091 0.410347 0.198051
O O2 0.482795 0.549977 0.364599
O O3 0.721426 0.433887 0.399954
O O4 0.834334 0.628705 0.260266
O O5 0.179156 0.805745 0.899667
O O6 0.874914 0.652229 0.001357
O O7 0.167770 0.592362 0.006796
O O8 0.762824 0.990891 0.505069
O O9 0.913585 0.799447 0.365774
O O10 0.000000 0.018248 0.250000
O O11 0.156455 0.961560 0.350238
O O12 0.500000 0.057078 0.250000
#
# Coordination Sequence:
#
# PCOD8119759 Si02
#       6
#     4   4   4   4   4   2
#     4  11  20  38  59  90 124 164 204 247 320 372
#     4  11  22  39  60  94 128 161 201 265 311 376
#     4   9  24  45  65  89 123 169 213 263 314 363
#     4  10  22  34  59  93 123 163 201 247 317 384
#     4  11  23  44  68  93 126 164 217 265 314 373
#     4  10  20  42  62  86 130 168 202 270 300 390
#
# _framework density 21.761534000000001
#
# number of rings (size 3 to 8) (size 9 to 14) (size 15 to 20)
#    0.545    1.091    1.818    2.727    2.545    3.636 
#    6.545    0.000    0.000    0.000    0.000    0.000 
#    0.000    0.000    0.000    0.000    0.000    0.000 
#
# Total GULP energy -272567.237003 kJ/mol
# GULP energy per Si atom -12389.419864 kJ/mol
# Density = 2.171200 g / cm^3
# Si number density = 21.761534 Si / 1000 Ang^3
#
#
#
# Elastic Constant Matrix: (Units=GPa)
#
#
# Indices 1 2 3 4 5 6 
#
# 1 96.1191 -4.3785 68.5463 0.0000 -22.8868 0.0000
# 2 -4.3785 28.1359 25.9424 0.0000 5.9809 0.0000
# 3 68.5463 25.9424 136.5149 0.0000 -5.5047 0.0000
# 4 0.0000 0.0000 0.0000 17.0826 0.0000 -9.0644
# 5 -22.8868 5.9809 -5.5047 0.0000 41.8196 0.0000
# 6 0.0000 0.0000 0.0000 -9.0644 0.0000 11.4194
#
#
#
# Elastic Compliance Matrix: (Units=1/GPa)
#
#
# Indices 1 2 3 4 5 6 
#
# 1 0.023224 0.014772 -0.014116 0.000000 0.008739 0.000000
# 2 0.014772 0.054811 -0.017918 0.000000 -0.002113 0.000000
# 3 -0.014116 -0.017918 0.017704 0.000000 -0.002832 0.000000
# 4 0.000000 0.000000 0.000000 0.101137 0.000000 0.080279
# 5 0.008739 -0.002113 -0.002832 0.000000 0.028624 0.000000
# 6 0.000000 0.000000 0.000000 0.080279 0.000000 0.151293
#
#
# Mechanical properties :
#
#
# Convention : Reuss Voigt Hill
#
# Bulk Modulus (GPa) = 16.33602 48.99892 32.66747
# Shear Modulus (GPa) = 11.58149 25.44165 18.51157
#
# Velocity S-wave (km/s) = 2.30945 3.42294 2.91976
# Velocity P-wave (km/s) = 3.82551 6.17958 5.13915
#
# Compressibility (1/GPa) = 0.06121441
#
# Stress axis : x y z
#
# Youngs Moduli (GPa) = 43.05842 18.24447 56.48457
#
# Poissons Ratio (x) = -0.26951 0.79734
# Poissons Ratio (y) = -0.63605 1.01211
# Poissons Ratio (z) = 0.60781 0.32691
#
# Static dielectric constant tensor:
#      x y z
#    x 4.009050 0.000000 0.117730 
#    y 0.000000 3.626090 0.000000 
#    z 0.117730 0.000000 4.564310 
# 
# 
# High freq. dielectric constant tensor:
#      x y z
#    x 1.850200 0.000000 0.010700 
#    y 0.000000 1.824490 0.000000 
#    z 0.010700 0.000000 1.887680 
# 
# From -- ./inp_files/46332.got.cif
#   From: 2010.06.25/outbox.cif.g09.slc.cpg/sg13_24_cif.got.tgz:46332.got - 2010.06.28 04:50:58.
