data_PCOD8119517
_publ_section_title
;
Structure prediction by ZEFSAII (Michael W. Deem and Ramdas Pophale) SiO2 
 PCOD8119517
Probable space group: P 2/C
;
_chemical_formula_sum "Si O2"
_cell_formula_units_Z 16
_cell_length_a 5.613775
_cell_length_b 4.876473
_cell_length_c 28.372838
_cell_angle_alpha 90.000000
_cell_angle_beta 128.773230
_cell_angle_gamma 90.000000
_cell_volume 605.553482
_symmetry_space_group_name_H-M "P 2/C"
_symmetry_group_IT_number 13
_symmetry_cell_setting 'monoclinic'
loop_
_space_group_symop_operation_xyz
x,y,z
-x,y,1/2-z
-x,-y,-z
x,-y,1/2+z
loop_
_atom_site_type_symbol
_atom_site_label
_atom_site_fract_x
_atom_site_fract_y
_atom_site_fract_z
Si Si1 0.406245 0.502433 0.597443
Si Si2 0.728250 0.411132 0.821027
Si Si3 0.814365 0.198778 0.010032
Si Si4 0.140194 0.083051 0.381053
O O1 0.457291 0.342054 0.653347
O O2 0.469910 0.311866 0.558236
O O3 0.597083 0.785969 0.619467
O O4 0.040870 0.553227 0.551864
O O5 0.500000 0.376279 0.750000
O O6 0.841734 0.723653 0.840061
O O7 0.023914 0.215168 0.849139
O O8 0.713075 0.067177 0.047664
O O9 0.000000 0.000000 0.000000
#
# Coordination Sequence:
#
# PCOD8119517 Si02
#       4
#     4   4   4   4
#     4  10  23  40  63  98 132 173 221 274 346 415
#     4  11  25  45  64  93 134 175 231 290 334 402
#     4  10  20  39  63  97 138 166 213 286 339 412
#     4  11  24  41  69  96 128 180 223 275 354 412
#
# _framework density 26.422108999999999
#
# number of rings (size 3 to 8) (size 9 to 14) (size 15 to 20)
#    0.000    1.500    2.500    1.500    3.500    2.000 
#    0.000    2.500    0.000    0.000    0.000    0.000 
#    0.000    0.000    0.000    0.000    0.000    0.000 
#
# Total GULP energy -198349.014736 kJ/mol
# GULP energy per Si atom -12396.813421 kJ/mol
# Density = 2.636197 g / cm^3
# Si number density = 26.422109 Si / 1000 Ang^3
#
#
#
# Elastic Constant Matrix: (Units=GPa)
#
#
# Indices 1 2 3 4 5 6 
#
# 1 70.7073 4.1064 46.0833 0.0003 -18.1956 0.0001
# 2 4.1064 82.5636 34.2010 0.0003 -14.0115 0.0002
# 3 46.0833 34.2010 232.3112 0.0024 -16.4210 0.0025
# 4 0.0003 0.0003 0.0024 37.5484 0.0002 3.2842
# 5 -18.1956 -14.0115 -16.4210 0.0002 39.2985 0.0003
# 6 0.0001 0.0002 0.0025 3.2842 0.0003 51.1470
#
#
#
# Elastic Compliance Matrix: (Units=1/GPa)
#
#
# Indices 1 2 3 4 5 6 
#
# 1 0.018178 0.001773 -0.003326 0.000000 0.007659 0.000000
# 2 0.001773 0.013686 -0.002023 0.000000 0.004855 0.000000
# 3 -0.003326 -0.002023 0.005258 0.000000 -0.000064 0.000000
# 4 0.000000 0.000000 0.000000 0.026783 0.000000 -0.001720
# 5 0.007659 0.004855 -0.000064 0.000000 0.030697 0.000000
# 6 0.000000 0.000000 0.000000 -0.001720 0.000000 0.019662
#
#
# Mechanical properties :
#
#
# Convention : Reuss Voigt Hill
#
# Bulk Modulus (GPa) = 33.36640 61.59595 47.48117
# Shear Modulus (GPa) = 38.05033 45.67820 41.86427
#
# Velocity S-wave (km/s) = 3.79897 4.16238 3.98482
# Velocity P-wave (km/s) = 5.64788 6.81641 6.25947
#
# Compressibility (1/GPa) = 0.02997027
#
# Stress axis : x y z
#
# Youngs Moduli (GPa) = 55.01039 73.06843 190.19988
#
# Poissons Ratio (x) = -0.12958 0.63255
# Poissons Ratio (y) = -0.09755 0.38486
# Poissons Ratio (z) = 0.18295 0.14785
#
# Static dielectric constant tensor:
#      x y z
#    x 4.769250 0.000000 -0.133590 
#    y 0.000000 4.892890 0.000000 
#    z -0.133590 0.000000 5.060060 
# 
# 
# High freq. dielectric constant tensor:
#      x y z
#    x 2.061850 0.000000 0.002860 
#    y 0.000000 2.068130 0.000000 
#    z 0.002860 0.000000 2.056460 
# 
# From -- ./inp_files/72582.got.cif
#   From: 2010.06.25/outbox.cif.g09.slc.cpg/sg13_37_cif.got.tgz:72582.got - 2010.06.28 04:50:58.
