data_PCOD8119691
_publ_section_title
;
Structure prediction by ZEFSAII (Michael W. Deem and Ramdas Pophale) SiO2 
 PCOD8119691
Probable space group: P 2/C
;
_chemical_formula_sum "Si O2"
_cell_formula_units_Z 30
_cell_length_a 14.266017
_cell_length_b 19.588504
_cell_length_c 11.026736
_cell_angle_alpha 90.000000
_cell_angle_beta 151.932596
_cell_angle_gamma 90.000000
_cell_volume 1449.839079
_symmetry_space_group_name_H-M "P 2/C"
_symmetry_group_IT_number 13
_symmetry_cell_setting 'monoclinic'
loop_
_space_group_symop_operation_xyz
x,y,z
-x,y,1/2-z
-x,-y,-z
x,-y,1/2+z
loop_
_atom_site_type_symbol
_atom_site_label
_atom_site_fract_x
_atom_site_fract_y
_atom_site_fract_z
Si Si1 0.211036 0.536221 0.739237
Si Si2 0.268892 0.018028 0.735710
Si Si3 0.000000 0.898513 0.750000
Si Si4 0.494762 0.585763 0.608014
Si Si5 0.023023 0.905791 0.135492
Si Si6 0.624407 0.296737 0.705316
Si Si7 0.220608 0.322303 0.366368
Si Si8 0.942359 0.791792 0.485679
O O1 0.284480 0.567330 0.693053
O O2 0.204317 0.597746 0.825703
O O3 0.000000 0.500000 0.500000
O O4 0.373061 0.484024 0.973337
O O5 0.182204 0.054338 0.511770
O O6 0.225772 0.065059 0.804713
O O7 0.159151 0.946195 0.634523
O O8 0.500000 0.000000 0.000000
O O9 0.052274 0.846167 0.700615
O O10 0.500000 0.615252 0.750000
O O11 0.382839 0.642472 0.400484
O O12 0.000000 0.918165 0.250000
O O13 0.024622 0.824735 0.109377
O O14 0.409571 0.285910 0.519178
O O15 0.778476 0.316391 0.987728
O O16 0.707478 0.224785 0.744139
O O17 0.035410 0.283193 0.096709
#
# Coordination Sequence:
#
# PCOD8119691 Si02
#       8
#     4   4   2   4   4   4   4   4
#     4  10  22  38  63  92 119 167 214 263 331 384
#     4  10  22  43  71  96 132 175 213 267 336 387
#     4  10  20  40  70  98 130 162 220 272 310 396
#     4  10  23  40  59  90 133 161 209 272 327 390
#     4  10  23  44  61  97 137 165 217 271 322 402
#     4  10  21  40  62  88 121 169 210 267 325 380
#     4  10  21  38  64  91 121 159 222 266 318 390
#     4  11  21  40  65  90 127 167 212 269 318 374
#
# _framework density 20.691951
#
# number of rings (size 3 to 8) (size 9 to 14) (size 15 to 20)
#    0.000    1.867    2.000    0.800    5.600    3.200 
#    4.800    0.000    0.000    0.000    0.000    0.000 
#    0.000    0.000    0.000    0.000    0.000    0.000 
#
# Total GULP energy -371667.163730 kJ/mol
# GULP energy per Si atom -12388.905458 kJ/mol
# Density = 2.064485 g / cm^3
# Si number density = 20.691951 Si / 1000 Ang^3
#
#
#
# Elastic Constant Matrix: (Units=GPa)
#
#
# Indices 1 2 3 4 5 6 
#
# 1 111.7881 51.6111 44.6994 0.0000 -7.2090 0.0000
# 2 51.6111 118.8472 41.2068 0.0000 1.3843 0.0000
# 3 44.6994 41.2068 87.8062 0.0000 11.8651 0.0000
# 4 0.0000 0.0000 0.0000 28.6945 0.0000 1.7343
# 5 -7.2090 1.3843 11.8651 0.0000 29.9356 0.0000
# 6 0.0000 0.0000 0.0000 1.7343 0.0000 40.5741
#
#
#
# Elastic Compliance Matrix: (Units=1/GPa)
#
#
# Indices 1 2 3 4 5 6 
#
# 1 0.013419 -0.003891 -0.005775 0.000000 0.005701 0.000000
# 2 -0.003891 0.011241 -0.003273 0.000000 -0.000160 0.000000
# 3 -0.005775 -0.003273 0.016939 0.000000 -0.007953 0.000000
# 4 0.000000 0.000000 0.000000 0.034940 0.000000 -0.001493
# 5 0.005701 -0.000160 -0.007953 0.000000 0.037938 0.000000
# 6 0.000000 0.000000 0.000000 -0.001493 0.000000 0.024710
#
#
# Mechanical properties :
#
#
# Convention : Reuss Voigt Hill
#
# Bulk Modulus (GPa) = 63.61167 65.94178 64.77672
# Shear Modulus (GPa) = 29.35907 31.90248 30.63078
#
# Velocity S-wave (km/s) = 3.77087 3.93081 3.85167
# Velocity P-wave (km/s) = 7.05466 7.24839 7.15218
#
# Compressibility (1/GPa) = 0.01572039
#
# Stress axis : x y z
#
# Youngs Moduli (GPa) = 74.52114 88.96341 59.03450
#
# Poissons Ratio (x) = 0.34619 0.34094
# Poissons Ratio (y) = 0.28999 0.19319
# Poissons Ratio (z) = 0.43038 0.29114
#
# Static dielectric constant tensor:
#      x y z
#    x 4.151520 0.000000 0.047110 
#    y 0.000000 3.847440 0.000000 
#    z 0.047110 0.000000 3.541950 
# 
# 
# High freq. dielectric constant tensor:
#      x y z
#    x 1.815230 0.000000 0.007310 
#    y 0.000000 1.817660 0.000000 
#    z 0.007310 0.000000 1.781420 
# 
# From -- ./inp_files/37665.got.cif
#   From: 2010.06.25/outbox.cif.g09.slc.cpg/sg13_19_cif.got.tgz:37665.got - 2010.06.28 04:50:58.
