data_PCOD8119114
_publ_section_title
;
Structure prediction by ZEFSAII (Michael W. Deem and Ramdas Pophale) SiO2 
 PCOD8119114
Probable space group: P 2/C
;
_chemical_formula_sum "Si O2"
_cell_formula_units_Z 26
_cell_length_a 13.289608
_cell_length_b 6.392510
_cell_length_c 14.345788
_cell_angle_alpha 90.000000
_cell_angle_beta 92.057047
_cell_angle_gamma 90.000000
_cell_volume 1217.946015
_symmetry_space_group_name_H-M "P 2/C"
_symmetry_group_IT_number 13
_symmetry_cell_setting 'monoclinic'
loop_
_space_group_symop_operation_xyz
x,y,z
-x,y,1/2-z
-x,-y,-z
x,-y,1/2+z
loop_
_atom_site_type_symbol
_atom_site_label
_atom_site_fract_x
_atom_site_fract_y
_atom_site_fract_z
Si Si1 0.814449 0.602557 0.719181
Si Si2 0.500000 0.405238 0.250000
Si Si3 0.874948 0.682250 0.918328
Si Si4 0.667427 0.727540 0.286615
Si Si5 0.906209 0.705294 0.538086
Si Si6 0.732466 0.023628 0.971878
Si Si7 0.635820 0.101206 0.154871
O O1 0.880433 0.685686 0.806955
O O2 0.764968 0.378682 0.742587
O O3 0.886840 0.574739 0.632736
O O4 0.734048 0.780675 0.693308
O O5 0.585470 0.545941 0.301831
O O6 0.541613 0.257189 0.167888
O O7 0.978173 0.785941 0.960666
O O8 0.875925 0.443852 0.951720
O O9 0.768343 0.790705 0.943887
O O10 0.696097 0.839429 0.383800
O O11 0.619433 0.892360 0.213942
O O12 0.834456 0.901394 0.525003
O O13 0.643958 0.032262 0.046372
#
# Coordination Sequence:
#
# PCOD8119114 Si02
#       7
#     4   2   4   4   4   4   4
#     4  10  20  37  60  85 120 168 200 242 302 346
#     4  10  24  42  64  90 118 152 196 254 308 368
#     4  11  20  37  59  88 125 160 206 248 292 348
#     4  11  21  41  64  86 123 155 201 250 304 367
#     4  10  22  36  57  88 126 162 207 248 285 350
#     4  11  22  38  64  89 120 164 199 246 305 353
#     4  10  22  41  62  89 120 153 199 250 302 367
#
# _framework density 21.347415000000002
#
# number of rings (size 3 to 8) (size 9 to 14) (size 15 to 20)
#    0.000    1.538    3.077    2.308    0.000    0.615 
#    0.000    3.077    0.000    0.000    0.000    0.000 
#    0.000    0.000    0.000    0.000    0.000    0.000 
#
# Total GULP energy -322285.017660 kJ/mol
# GULP energy per Si atom -12395.577602 kJ/mol
# Density = 2.129883 g / cm^3
# Si number density = 21.347415 Si / 1000 Ang^3
#
#
#
# Elastic Constant Matrix: (Units=GPa)
#
#
# Indices 1 2 3 4 5 6 
#
# 1 72.5911 24.4718 15.3880 0.0000 -13.9401 0.0000
# 2 24.4718 62.4832 15.9183 0.0000 0.9610 0.0000
# 3 15.3880 15.9183 105.8354 0.0000 -13.9069 0.0000
# 4 0.0000 0.0000 0.0000 27.4144 0.0000 -2.7559
# 5 -13.9401 0.9610 -13.9069 0.0000 24.6587 0.0000
# 6 0.0000 0.0000 0.0000 -2.7559 0.0000 28.8737
#
#
#
# Elastic Compliance Matrix: (Units=1/GPa)
#
#
# Indices 1 2 3 4 5 6 
#
# 1 0.018288 -0.007278 -0.000182 0.000000 0.010520 0.000000
# 2 -0.007278 0.019652 -0.002742 0.000000 -0.006427 0.000000
# 3 -0.000182 -0.002742 0.010679 0.000000 0.006027 0.000000
# 4 0.000000 0.000000 0.000000 0.036831 0.000000 0.003515
# 5 0.010520 -0.006427 0.006027 0.000000 0.050150 0.000000
# 6 0.000000 0.000000 0.000000 0.003515 0.000000 0.034969
#
#
# Mechanical properties :
#
#
# Convention : Reuss Voigt Hill
#
# Bulk Modulus (GPa) = 35.44161 39.16285 37.30223
# Shear Modulus (GPa) = 24.95267 28.53146 26.74206
#
# Velocity S-wave (km/s) = 3.42261 3.65982 3.54320
# Velocity P-wave (km/s) = 5.67955 6.02033 5.85242
#
# Compressibility (1/GPa) = 0.02821542
#
# Stress axis : x y z
#
# Youngs Moduli (GPa) = 54.68035 50.88484 93.63746
#
# Poissons Ratio (x) = 0.37034 0.01705
# Poissons Ratio (y) = 0.39797 0.25677
# Poissons Ratio (z) = 0.00995 0.13953
#
# Static dielectric constant tensor:
#      x y z
#    x 3.913830 0.000000 -0.228340 
#    y 0.000000 3.764900 0.000000 
#    z -0.228340 0.000000 3.895210 
# 
# 
# High freq. dielectric constant tensor:
#      x y z
#    x 1.834060 0.000000 -0.003330 
#    y 0.000000 1.833390 0.000000 
#    z -0.003330 0.000000 1.837190 
# 
# From -- ./inp_files/52294.got.cif
#   From: 2010.06.25/outbox.cif.g09.slc.cpg/sg13_27_cif.got.tgz:52294.got - 2010.06.28 04:50:58.
