data_PCOD8119153
_publ_section_title
;
Structure prediction by ZEFSAII (Michael W. Deem and Ramdas Pophale) SiO2 
 PCOD8119153
Probable space group: P 2/C
;
_chemical_formula_sum "Si O2"
_cell_formula_units_Z 20
_cell_length_a 8.837127
_cell_length_b 5.117938
_cell_length_c 26.275930
_cell_angle_alpha 90.000000
_cell_angle_beta 62.674787
_cell_angle_gamma 90.000000
_cell_volume 1055.796580
_symmetry_space_group_name_H-M "P 2/C"
_symmetry_group_IT_number 13
_symmetry_cell_setting 'monoclinic'
loop_
_space_group_symop_operation_xyz
x,y,z
-x,y,1/2-z
-x,-y,-z
x,-y,1/2+z
loop_
_atom_site_type_symbol
_atom_site_label
_atom_site_fract_x
_atom_site_fract_y
_atom_site_fract_z
Si Si1 0.036455 0.053202 0.108012
Si Si2 0.283064 0.640824 0.833716
Si Si3 0.831785 0.086877 0.803905
Si Si4 0.665386 0.422507 0.288100
Si Si5 0.000819 0.448656 0.940552
O O1 0.139932 0.960088 0.140926
O O2 0.072946 0.836508 0.059290
O O3 0.106290 0.326289 0.073277
O O4 0.832917 0.093540 0.151636
O O5 0.289412 0.506997 0.777158
O O6 0.474192 0.690642 0.823488
O O7 0.193596 0.448454 0.888264
O O8 0.690789 0.313936 0.817395
O O9 0.000000 0.193760 0.750000
O O10 0.786011 0.808864 0.787507
O O11 0.000000 0.500000 0.000000
#
# Coordination Sequence:
#
# PCOD8119153 Si02
#       5
#     4   4   4   4   4
#     4  10  21  36  58  83 111 142 196 232 280 346
#     4   9  23  36  57  86 115 148 196 229 290 337
#     4  12  21  36  55  84 118 154 184 225 296 346
#     4  11  23  34  58  84 122 149 180 238 286 354
#     4  10  20  37  62  84 106 148 200 243 274 328
#
# _framework density 18.943044
#
# number of rings (size 3 to 8) (size 9 to 14) (size 15 to 20)
#    1.200    0.400    2.000    3.600    2.800    1.600 
#    0.000    0.000    0.000    7.200    0.000    0.000 
#    0.000    0.000    0.000    0.000    0.000    0.000 
#
# Total GULP energy -247805.701837 kJ/mol
# GULP energy per Si atom -12390.285092 kJ/mol
# Density = 1.889993 g / cm^3
# Si number density = 18.943044 Si / 1000 Ang^3
#
#
#
# Elastic Constant Matrix: (Units=GPa)
#
#
# Indices 1 2 3 4 5 6 
#
# 1 82.0572 31.4358 35.3972 0.0000 17.6057 0.0000
# 2 31.4358 115.4787 28.0667 0.0000 11.5807 0.0000
# 3 35.3972 28.0667 85.3029 0.0000 19.2250 0.0000
# 4 0.0000 0.0000 0.0000 27.3624 0.0000 11.4369
# 5 17.6057 11.5807 19.2250 0.0000 22.4820 0.0000
# 6 0.0000 0.0000 0.0000 11.4369 0.0000 26.1682
#
#
#
# Elastic Compliance Matrix: (Units=1/GPa)
#
#
# Indices 1 2 3 4 5 6 
#
# 1 0.016806 -0.002728 -0.004245 0.000000 -0.008126 0.000000
# 2 -0.002728 0.009992 -0.001830 0.000000 -0.001446 0.000000
# 3 -0.004245 -0.001830 0.016258 0.000000 -0.009636 0.000000
# 4 0.000000 0.000000 0.000000 0.044715 0.000000 -0.019543
# 5 -0.008126 -0.001446 -0.009636 0.000000 0.059828 0.000000
# 6 0.000000 0.000000 0.000000 -0.019543 0.000000 0.046756
#
#
# Mechanical properties :
#
#
# Convention : Reuss Voigt Hill
#
# Bulk Modulus (GPa) = 39.29180 52.51537 45.90359
# Shear Modulus (GPa) = 22.68143 27.73180 25.20661
#
# Velocity S-wave (km/s) = 3.46403 3.83032 3.65177
# Velocity P-wave (km/s) = 6.06518 6.88075 6.48580
#
# Compressibility (1/GPa) = 0.02545060
#
# Stress axis : x y z
#
# Youngs Moduli (GPa) = 59.50103 100.07992 61.50789
#
# Poissons Ratio (x) = 0.27307 0.26110
# Poissons Ratio (y) = 0.16235 0.11253
# Poissons Ratio (z) = 0.25258 0.18310
#
# Static dielectric constant tensor:
#      x y z
#    x 3.386500 0.000000 0.118310 
#    y 0.000000 3.441970 0.000000 
#    z 0.118310 0.000000 3.213900 
# 
# 
# High freq. dielectric constant tensor:
#      x y z
#    x 1.715550 0.000000 0.022000 
#    y 0.000000 1.744040 0.000000 
#    z 0.022000 0.000000 1.716110 
# 
# From -- ./inp_files/74394.got.cif
#   From: 2010.06.25/outbox.cif.g09.slc.cpg/sg13_38_cif.got.tgz:74394.got - 2010.06.28 04:50:58.
