data_PCOD8119531
_publ_section_title
;
Structure prediction by ZEFSAII (Michael W. Deem and Ramdas Pophale) SiO2 
 PCOD8119531
Probable space group: P 2/C
;
_chemical_formula_sum "Si O2"
_cell_formula_units_Z 28
_cell_length_a 8.016581
_cell_length_b 9.220522
_cell_length_c 27.447889
_cell_angle_alpha 90.000000
_cell_angle_beta 137.747720
_cell_angle_gamma 90.000000
_cell_volume 1364.202789
_symmetry_space_group_name_H-M "P 2/C"
_symmetry_group_IT_number 13
_symmetry_cell_setting 'monoclinic'
loop_
_space_group_symop_operation_xyz
x,y,z
-x,y,1/2-z
-x,-y,-z
x,-y,1/2+z
loop_
_atom_site_type_symbol
_atom_site_label
_atom_site_fract_x
_atom_site_fract_y
_atom_site_fract_z
Si Si1 0.290938 0.461970 0.024599
Si Si2 0.176807 0.597401 0.898978
Si Si3 0.949456 0.669680 0.183106
Si Si4 0.180442 0.291008 0.569618
Si Si5 0.235122 0.867746 0.178545
Si Si6 0.505541 0.138154 0.934393
Si Si7 0.818126 0.090471 0.095868
O O1 0.182423 0.564279 0.957962
O O2 0.115700 0.320577 0.995678
O O3 0.553213 0.399025 0.066976
O O4 0.305539 0.559794 0.076841
O O5 0.063472 0.756466 0.862056
O O6 0.003793 0.480138 0.835188
O O7 0.143943 0.788962 0.207603
O O8 0.000000 0.642967 0.250000
O O9 0.668363 0.720124 0.110013
O O10 0.260933 0.252224 0.641768
O O11 0.271887 0.152315 0.556842
O O12 0.500000 0.937246 0.250000
O O13 0.038107 0.991802 0.121191
O O14 0.330700 0.993955 0.892767
O O15 0.617488 0.138039 0.012268
#
# Coordination Sequence:
#
# PCOD8119531 Si02
#       7
#     4   4   4   4   4   4   4
#     4  10  21  34  65  97 128 155 205 278 323 358
#     4  11  19  41  62  92 127 162 210 265 315 388
#     4  11  22  41  68  90 119 176 223 259 309 397
#     4  11  20  37  60 100 124 161 205 268 322 367
#     4  11  25  42  63  90 132 171 216 261 322 396
#     4  10  20  39  64  94 125 163 224 251 310 392
#     4  10  23  39  64  93 128 174 202 268 326 378
#
# _framework density 20.524806999999999
#
# number of rings (size 3 to 8) (size 9 to 14) (size 15 to 20)
#    0.000    1.429    4.286    1.714    4.000    0.571 
#    0.000    5.000    0.000    0.000    0.000    0.000 
#    0.000    0.000    0.000    0.000    0.000    0.000 
#
# Total GULP energy -347021.203283 kJ/mol
# GULP energy per Si atom -12393.614403 kJ/mol
# Density = 2.047809 g / cm^3
# Si number density = 20.524807 Si / 1000 Ang^3
#
#
#
# Elastic Constant Matrix: (Units=GPa)
#
#
# Indices 1 2 3 4 5 6 
#
# 1 95.9472 28.5865 20.1623 0.0000 6.0754 0.0000
# 2 28.5865 118.7922 36.4898 0.0000 1.6933 0.0000
# 3 20.1623 36.4898 76.8275 0.0000 2.8458 0.0000
# 4 0.0000 0.0000 0.0000 12.3307 0.0000 -5.5002
# 5 6.0754 1.6933 2.8458 0.0000 30.3660 0.0000
# 6 0.0000 0.0000 0.0000 -5.5002 0.0000 26.0348
#
#
#
# Elastic Compliance Matrix: (Units=1/GPa)
#
#
# Indices 1 2 3 4 5 6 
#
# 1 0.011604 -0.002167 -0.001941 0.000000 -0.002019 0.000000
# 2 -0.002167 0.010261 -0.004315 0.000000 0.000266 0.000000
# 3 -0.001941 -0.004315 0.015606 0.000000 -0.000834 0.000000
# 4 0.000000 0.000000 0.000000 0.089536 0.000000 0.018916
# 5 -0.002019 0.000266 -0.000834 0.000000 0.033399 0.000000
# 6 0.000000 0.000000 0.000000 0.018916 0.000000 0.042406
#
#
# Mechanical properties :
#
#
# Convention : Reuss Voigt Hill
#
# Bulk Modulus (GPa) = 48.48587 51.33822 49.91205
# Shear Modulus (GPa) = 22.07186 27.50151 24.78669
#
# Velocity S-wave (km/s) = 3.28285 3.66446 3.47889
# Velocity P-wave (km/s) = 6.16797 6.55526 6.36456
#
# Compressibility (1/GPa) = 0.02062456
#
# Stress axis : x y z
#
# Youngs Moduli (GPa) = 86.17807 97.45465 64.07892
#
# Poissons Ratio (x) = 0.21122 0.12438
# Poissons Ratio (y) = 0.18678 0.27648
# Poissons Ratio (z) = 0.16728 0.42049
#
# Static dielectric constant tensor:
#      x y z
#    x 3.968240 0.000000 0.068280 
#    y 0.000000 3.901410 0.000000 
#    z 0.068280 0.000000 3.338170 
# 
# 
# High freq. dielectric constant tensor:
#      x y z
#    x 1.813150 0.000000 0.001660 
#    y 0.000000 1.798860 0.000000 
#    z 0.001660 0.000000 1.763720 
# 
# From -- ./inp_files/91503.got.cif
#   From: 2010.06.25/outbox.cif.g09.slc.cpg/sg13_46_cif.got.tgz:91503.got - 2010.06.28 04:50:58.
