data_PCOD8119727
_publ_section_title
;
Structure prediction by ZEFSAII (Michael W. Deem and Ramdas Pophale) SiO2 
 PCOD8119727
Probable space group: P 2/C
;
_chemical_formula_sum "Si O2"
_cell_formula_units_Z 26
_cell_length_a 15.963016
_cell_length_b 13.273734
_cell_length_c 10.185675
_cell_angle_alpha 90.000000
_cell_angle_beta 32.226530
_cell_angle_gamma 90.000000
_cell_volume 1150.915470
_symmetry_space_group_name_H-M "P 2/C"
_symmetry_group_IT_number 13
_symmetry_cell_setting 'monoclinic'
loop_
_space_group_symop_operation_xyz
x,y,z
-x,y,1/2-z
-x,-y,-z
x,-y,1/2+z
loop_
_atom_site_type_symbol
_atom_site_label
_atom_site_fract_x
_atom_site_fract_y
_atom_site_fract_z
Si Si1 0.356634 0.286865 0.668275
Si Si2 0.899588 0.599363 0.563226
Si Si3 0.222607 0.461043 0.003517
Si Si4 0.500000 0.419087 0.250000
Si Si5 0.309209 0.220629 0.241825
Si Si6 0.942296 0.067871 0.958739
Si Si7 0.162907 0.750515 0.203689
O O1 0.265809 0.347409 0.900962
O O2 0.399752 0.357860 0.487889
O O3 0.502745 0.224052 0.535311
O O4 0.230840 0.216294 0.757307
O O5 0.866916 0.519865 0.492083
O O6 0.773532 0.690853 0.731102
O O7 0.077717 0.641276 0.311358
O O8 0.888602 0.545723 0.720238
O O9 0.387653 0.511893 0.813002
O O10 0.240304 0.107664 0.298092
O O11 0.295651 0.247190 0.414765
O O12 0.000000 0.010012 0.750000
O O13 0.030936 0.172540 0.838480
O O14 0.000000 0.000000 0.000000
#
# Coordination Sequence:
#
# PCOD8119727 Si02
#       7
#     4   4   4   2   4   4   4
#     4  12  21  38  61  86 122 165 217 258 306 363
#     4  11  23  41  56  85 124 168 221 264 312 352
#     4  12  24  38  58  84 125 173 224 269 304 353
#     4  12  20  38  56  84 112 172 218 266 294 358
#     4  10  20  41  66  87 121 165 204 254 318 380
#     4   9  20  42  71  95 122 154 195 246 317 395
#     4  10  22  41  64  91 123 161 206 256 322 371
#
# _framework density 22.590713000000001
#
# number of rings (size 3 to 8) (size 9 to 14) (size 15 to 20)
#    0.000    1.231    4.615    2.769    0.000    1.231 
#   11.077    0.769    0.000    0.000    0.000    0.000 
#    0.000    0.000    0.000    0.000    0.000    0.000 
#
# Total GULP energy -322289.243078 kJ/mol
# GULP energy per Si atom -12395.740118 kJ/mol
# Density = 2.253930 g / cm^3
# Si number density = 22.590713 Si / 1000 Ang^3
#
#
#
# Elastic Constant Matrix: (Units=GPa)
#
#
# Indices 1 2 3 4 5 6 
#
# 1 150.8105 41.6618 41.6139 0.0000 1.0293 0.0000
# 2 41.6618 56.0673 24.1067 0.0000 13.1496 0.0000
# 3 41.6139 24.1067 91.0817 0.0000 15.8056 0.0000
# 4 0.0000 0.0000 0.0000 17.3586 0.0000 5.9174
# 5 1.0293 13.1496 15.8056 0.0000 47.1602 0.0000
# 6 0.0000 0.0000 0.0000 5.9174 0.0000 42.5331
#
#
#
# Elastic Compliance Matrix: (Units=1/GPa)
#
#
# Indices 1 2 3 4 5 6 
#
# 1 0.009117 -0.006074 -0.002991 0.000000 0.002497 0.000000
# 2 -0.006074 0.024934 -0.002804 0.000000 -0.005880 0.000000
# 3 -0.002991 -0.002804 0.013740 0.000000 -0.003758 0.000000
# 4 0.000000 0.000000 0.000000 0.060476 0.000000 -0.008414
# 5 0.002497 -0.005880 -0.003758 0.000000 0.024049 0.000000
# 6 0.000000 0.000000 0.000000 -0.008414 0.000000 0.024682
#
#
# Mechanical properties :
#
#
# Convention : Reuss Voigt Hill
#
# Bulk Modulus (GPa) = 41.57525 56.96938 49.27231
# Shear Modulus (GPa) = 26.48957 34.11553 30.30255
#
# Velocity S-wave (km/s) = 3.42802 3.89029 3.66645
# Velocity P-wave (km/s) = 5.84055 6.74181 6.30730
#
# Compressibility (1/GPa) = 0.02405277
#
# Stress axis : x y z
#
# Youngs Moduli (GPa) = 109.68276 40.10616 72.78060
#
# Poissons Ratio (x) = 0.24362 0.21770
# Poissons Ratio (y) = 0.66624 0.20405
# Poissons Ratio (z) = 0.32808 0.11244
#
# Static dielectric constant tensor:
#      x y z
#    x 3.142770 0.000000 -1.096560 
#    y 0.000000 3.787960 0.000000 
#    z -1.096560 0.000000 3.428610 
# 
# 
# High freq. dielectric constant tensor:
#      x y z
#    x 1.922060 0.000000 -0.008980 
#    y 0.000000 1.848430 0.000000 
#    z -0.008980 0.000000 1.881080 
# 
# From -- ./inp_files/19840.got.cif
#   From: 2010.06.25/outbox.cif.g09.slc.cpg/sg13_10_cif.got.tgz:19840.got - 2010.06.28 04:50:58.
