data_PCOD8119046
_publ_section_title
;
Structure prediction by ZEFSAII (Michael W. Deem and Ramdas Pophale) SiO2 
 PCOD8119046
Probable space group: P 2/C
;
_chemical_formula_sum "Si O2"
_cell_formula_units_Z 26
_cell_length_a 18.580262
_cell_length_b 8.980052
_cell_length_c 9.425282
_cell_angle_alpha 90.000000
_cell_angle_beta 54.306991
_cell_angle_gamma 90.000000
_cell_volume 1277.214416
_symmetry_space_group_name_H-M "P 2/C"
_symmetry_group_IT_number 13
_symmetry_cell_setting 'monoclinic'
loop_
_space_group_symop_operation_xyz
x,y,z
-x,y,1/2-z
-x,-y,-z
x,-y,1/2+z
loop_
_atom_site_type_symbol
_atom_site_label
_atom_site_fract_x
_atom_site_fract_y
_atom_site_fract_z
Si Si1 0.310757 0.980710 0.186165
Si Si2 0.000000 0.953733 0.250000
Si Si3 0.907953 0.759157 0.811337
Si Si4 0.730597 0.391337 0.018329
Si Si5 0.398984 0.863826 0.821875
Si Si6 0.849692 0.800820 0.584466
Si Si7 0.751894 0.667941 0.176291
O O1 0.388030 0.071228 0.176964
O O2 0.215840 0.060410 0.310370
O O3 0.310744 0.812220 0.245601
O O4 0.338858 0.971716 0.989567
O O5 0.947447 0.852652 0.422851
O O6 0.074352 0.062659 0.234733
O O7 0.864699 0.706012 0.712438
O O8 0.000000 0.678419 0.750000
O O9 0.846816 0.724445 0.015103
O O10 0.637855 0.303953 0.132183
O O11 0.808361 0.306989 0.014013
O O12 0.712060 0.551649 0.108950
O O13 0.761552 0.407879 0.819830
O O14 0.500000 0.861553 0.750000
#
# Coordination Sequence:
#
# PCOD8119046 Si02
#       7
#     4   2   4   4   4   4   4
#     4  10  20  36  65  86 120 156 191 241 300 353
#     4  10  22  32  60  90 120 148 204 248 296 334
#     4  10  22  34  59  84 119 150 200 250 291 337
#     4  10  25  39  63  81 121 162 198 241 301 358
#     4  10  21  39  62  95 120 147 193 247 296 356
#     4  11  21  38  59  91 118 159 197 247 299 352
#     4  11  21  42  56  84 116 162 203 238 297 355
#
# _framework density 20.356802999999999
#
# number of rings (size 3 to 8) (size 9 to 14) (size 15 to 20)
#    0.462    1.231    1.538    2.769    6.462    1.231 
#    1.385    5.385    0.000    0.000    0.000    0.000 
#    0.000    0.000    0.000    0.000    0.000    0.000 
#
# Total GULP energy -322280.403061 kJ/mol
# GULP energy per Si atom -12395.400118 kJ/mol
# Density = 2.031047 g / cm^3
# Si number density = 20.356803 Si / 1000 Ang^3
#
#
#
# Elastic Constant Matrix: (Units=GPa)
#
#
# Indices 1 2 3 4 5 6 
#
# 1 103.3445 25.9745 34.1883 0.0000 6.7751 0.0000
# 2 25.9745 60.6244 21.5569 0.0000 -0.1044 0.0000
# 3 34.1883 21.5569 83.3978 0.0000 10.4324 0.0000
# 4 0.0000 0.0000 0.0000 26.2950 0.0000 12.1028
# 5 6.7751 -0.1044 10.4324 0.0000 30.3038 0.0000
# 6 0.0000 0.0000 0.0000 12.1028 0.0000 22.2107
#
#
#
# Elastic Compliance Matrix: (Units=1/GPa)
#
#
# Indices 1 2 3 4 5 6 
#
# 1 0.011962 -0.003795 -0.003748 0.000000 -0.001397 0.000000
# 2 -0.003795 0.019458 -0.003750 0.000000 0.002206 0.000000
# 3 -0.003748 -0.003750 0.015041 0.000000 -0.004353 0.000000
# 4 0.000000 0.000000 0.000000 0.050761 0.000000 -0.027660
# 5 -0.001397 0.002206 -0.004353 0.000000 0.034818 0.000000
# 6 0.000000 0.000000 0.000000 -0.027660 0.000000 0.060096
#
#
# Mechanical properties :
#
#
# Convention : Reuss Voigt Hill
#
# Bulk Modulus (GPa) = 41.88398 45.64513 43.76455
# Shear Modulus (GPa) = 22.45386 26.80504 24.62945
#
# Velocity S-wave (km/s) = 3.32477 3.63266 3.48212
# Velocity P-wave (km/s) = 5.94629 6.32978 6.14103
#
# Compressibility (1/GPa) = 0.02387548
#
# Stress axis : x y z
#
# Youngs Moduli (GPa) = 83.60088 51.39259 66.48497
#
# Poissons Ratio (x) = 0.19502 0.24918
# Poissons Ratio (y) = 0.31724 0.24932
# Poissons Ratio (z) = 0.31333 0.19272
#
# Static dielectric constant tensor:
#      x y z
#    x 3.459510 0.000000 0.157480 
#    y 0.000000 3.552770 0.000000 
#    z 0.157480 0.000000 3.772640 
# 
# 
# High freq. dielectric constant tensor:
#      x y z
#    x 1.784010 0.000000 0.014080 
#    y 0.000000 1.779640 0.000000 
#    z 0.014080 0.000000 1.802750 
# 
# From -- ./inp_files/22941.got.cif
#   From: 2010.06.25/outbox.cif.g09.slc.cpg/sg13_12_cif.got.tgz:22941.got - 2010.06.28 04:50:58.
