data_PCOD8119337
_publ_section_title
;
Structure prediction by ZEFSAII (Michael W. Deem and Ramdas Pophale) SiO2 
 PCOD8119337
Probable space group: P 2/C
;
_chemical_formula_sum "Si O2"
_cell_formula_units_Z 26
_cell_length_a 14.971624
_cell_length_b 15.217994
_cell_length_c 8.478723
_cell_angle_alpha 90.000000
_cell_angle_beta 38.236240
_cell_angle_gamma 90.000000
_cell_volume 1195.586469
_symmetry_space_group_name_H-M "P 2/C"
_symmetry_group_IT_number 13
_symmetry_cell_setting 'monoclinic'
loop_
_space_group_symop_operation_xyz
x,y,z
-x,y,1/2-z
-x,-y,-z
x,-y,1/2+z
loop_
_atom_site_type_symbol
_atom_site_label
_atom_site_fract_x
_atom_site_fract_y
_atom_site_fract_z
Si Si1 0.844421 0.426335 0.902736
Si Si2 0.794865 0.267888 0.199199
Si Si3 0.500000 0.996125 0.750000
Si Si4 0.404965 0.561030 0.233986
Si Si5 0.926818 0.694027 0.012071
Si Si6 0.396867 0.875168 0.636747
Si Si7 0.337534 0.746983 0.280315
O O1 0.857908 0.384789 0.709329
O O2 0.000000 0.457167 0.750000
O O3 0.776106 0.356799 0.123188
O O4 0.745863 0.512393 0.015772
O O5 0.745834 0.185485 0.159533
O O6 0.686667 0.263341 0.497855
O O7 0.958772 0.256992 0.031890
O O8 0.395666 0.934323 0.793396
O O9 0.608203 0.057899 0.502210
O O10 0.500000 0.588074 0.250000
O O11 0.379409 0.648847 0.167463
O O12 0.500000 0.500000 0.000000
O O13 0.000000 0.655542 0.750000
O O14 0.808147 0.766173 0.118921
O O15 0.543981 0.818426 0.425844
#
# Coordination Sequence:
#
# PCOD8119337 Si02
#       7
#     4   4   2   4   4   4   4
#     4  10  22  39  60  91 127 173 225 261 312 371
#     4  10  20  38  62  86 125 164 203 258 305 376
#     4  10  24  38  66  98 120 158 198 266 314 402
#     4  12  24  38  57  90 129 168 217 270 312 360
#     4   9  21  38  60  90 119 169 218 256 311 365
#     4  11  21  41  64  95 124 156 207 248 327 379
#     4  11  21  38  60  86 124 167 202 256 310 374
#
# _framework density 21.746648
#
# number of rings (size 3 to 8) (size 9 to 14) (size 15 to 20)
#    0.000    1.538    1.538    3.692    2.154    1.846 
#    1.385    6.154    0.000    5.538    0.000    0.000 
#    0.000    0.000    0.000    0.000    0.000    0.000 
#
# Total GULP energy -322283.029077 kJ/mol
# GULP energy per Si atom -12395.501118 kJ/mol
# Density = 2.169715 g / cm^3
# Si number density = 21.746648 Si / 1000 Ang^3
#
#
#
# Elastic Constant Matrix: (Units=GPa)
#
#
# Indices 1 2 3 4 5 6 
#
# 1 116.5142 48.6783 28.3710 0.0000 -10.8710 0.0000
# 2 48.6783 117.2061 32.1142 0.0000 -16.9162 0.0000
# 3 28.3710 32.1142 67.0553 0.0000 -8.6599 0.0000
# 4 0.0000 0.0000 0.0000 39.6603 0.0000 14.1400
# 5 -10.8710 -16.9162 -8.6599 0.0000 31.8522 0.0000
# 6 0.0000 0.0000 0.0000 14.1400 0.0000 39.3070
#
#
#
# Elastic Compliance Matrix: (Units=1/GPa)
#
#
# Indices 1 2 3 4 5 6 
#
# 1 0.010852 -0.003609 -0.002728 0.000000 0.001046 0.000000
# 2 -0.003609 0.011560 -0.003499 0.000000 0.003957 0.000000
# 3 -0.002728 -0.003499 0.018015 0.000000 0.002109 0.000000
# 4 0.000000 0.000000 0.000000 0.028924 0.000000 -0.010405
# 5 0.001046 0.003957 0.002109 0.000000 0.034426 0.000000
# 6 0.000000 0.000000 0.000000 -0.010405 0.000000 0.029184
#
#
# Mechanical properties :
#
#
# Convention : Reuss Voigt Hill
#
# Bulk Modulus (GPa) = 48.17735 57.67806 52.92771
# Shear Modulus (GPa) = 31.33772 34.93804 33.13788
#
# Velocity S-wave (km/s) = 3.80022 4.01258 3.90784
# Velocity P-wave (km/s) = 6.43875 6.93167 6.68975
#
# Compressibility (1/GPa) = 0.02075664
#
# Stress axis : x y z
#
# Youngs Moduli (GPa) = 92.14723 86.50167 55.50832
#
# Poissons Ratio (x) = 0.31216 0.15144
# Poissons Ratio (y) = 0.33253 0.19421
# Poissons Ratio (z) = 0.25140 0.30264
#
# Static dielectric constant tensor:
#      x y z
#    x 4.135870 0.000000 0.089430 
#    y 0.000000 4.237950 0.000000 
#    z 0.089430 0.000000 3.601960 
# 
# 
# High freq. dielectric constant tensor:
#      x y z
#    x 1.877230 0.000000 0.003530 
#    y 0.000000 1.832680 0.000000 
#    z 0.003530 0.000000 1.842700 
# 
# From -- ./inp_files/19831.got.cif
#   From: 2010.06.25/outbox.cif.g09.slc.cpg/sg13_10_cif.got.tgz:19831.got - 2010.06.28 04:50:58.
