data_PCOD8119605
_publ_section_title
;
Structure prediction by ZEFSAII (Michael W. Deem and Ramdas Pophale) SiO2 
 PCOD8119605
Probable space group: P 2/C
;
_chemical_formula_sum "Si O2"
_cell_formula_units_Z 24
_cell_length_a 12.467944
_cell_length_b 9.918968
_cell_length_c 27.701110
_cell_angle_alpha 90.000000
_cell_angle_beta 159.698111
_cell_angle_gamma 90.000000
_cell_volume 1188.628503
_symmetry_space_group_name_H-M "P 2/C"
_symmetry_group_IT_number 13
_symmetry_cell_setting 'monoclinic'
loop_
_space_group_symop_operation_xyz
x,y,z
-x,y,1/2-z
-x,-y,-z
x,-y,1/2+z
loop_
_atom_site_type_symbol
_atom_site_label
_atom_site_fract_x
_atom_site_fract_y
_atom_site_fract_z
Si Si1 0.259420 0.512781 0.503328
Si Si2 0.438567 0.757435 0.035207
Si Si3 0.431825 0.587634 0.275285
Si Si4 0.632383 0.726835 0.601024
Si Si5 0.692586 0.032577 0.487891
Si Si6 0.664774 0.147225 0.723741
O O1 0.230935 0.365411 0.467336
O O2 0.366179 0.504858 0.604115
O O3 0.505643 0.602356 0.578305
O O4 0.926280 0.579431 0.361554
O O5 0.716990 0.782293 0.192029
O O6 0.247274 0.899455 0.953355
O O7 0.542160 0.723976 0.024623
O O8 0.500000 0.539161 0.250000
O O9 0.511856 0.746337 0.316263
O O10 0.560820 0.868762 0.595963
O O11 0.000000 0.710420 0.750000
O O12 0.013477 0.108887 0.615903
O O13 0.557229 0.982850 0.378641
#
# Coordination Sequence:
#
# PCOD8119605 Si02
#       6
#     4   4   4   4   4   4
#     4  11  23  43  65  95 128 162 212 270 310 373
#     4   9  22  36  60  90 132 168 205 240 313 373
#     4  11  23  45  68  92 122 166 213 271 331 371
#     4  12  22  36  62  98 131 171 210 248 308 380
#     4  10  20  40  61  89 133 167 212 247 307 369
#     4   9  21  39  62  91 124 164 209 261 302 370
#
# _framework density 20.191337999999998
#
# number of rings (size 3 to 8) (size 9 to 14) (size 15 to 20)
#    1.000    0.667    1.667    3.500    0.000    0.667 
#    0.000    0.833    0.000    0.000    0.000    0.000 
#    0.000    0.000    0.000    0.000    0.000    0.000 
#
# Total GULP energy -297362.468413 kJ/mol
# GULP energy per Si atom -12390.102851 kJ/mol
# Density = 2.014538 g / cm^3
# Si number density = 20.191338 Si / 1000 Ang^3
#
#
#
# Elastic Constant Matrix: (Units=GPa)
#
#
# Indices 1 2 3 4 5 6 
#
# 1 26.5557 7.9658 -12.8206 0.0000 -2.8883 0.0000
# 2 7.9658 90.4558 -0.5060 0.0000 10.4644 0.0000
# 3 -12.8206 -0.5060 63.4002 0.0000 4.1869 0.0000
# 4 0.0000 0.0000 0.0000 23.7730 0.0000 -4.4248
# 5 -2.8883 10.4644 4.1869 0.0000 19.9330 0.0000
# 6 0.0000 0.0000 0.0000 -4.4248 0.0000 25.9609
#
#
#
# Elastic Compliance Matrix: (Units=1/GPa)
#
#
# Indices 1 2 3 4 5 6 
#
# 1 0.043848 -0.004627 0.008366 0.000000 0.007026 0.000000
# 2 -0.004627 0.012274 -0.000373 0.000000 -0.007036 0.000000
# 3 0.008366 -0.000373 0.017613 0.000000 -0.002291 0.000000
# 4 0.000000 0.000000 0.000000 0.043443 0.000000 0.007405
# 5 0.007026 -0.007036 -0.002291 0.000000 0.055361 0.000000
# 6 0.000000 0.000000 0.000000 0.007405 0.000000 0.039782
#
#
# Mechanical properties :
#
#
# Convention : Reuss Voigt Hill
#
# Bulk Modulus (GPa) = 12.42759 18.85445 15.64102
# Shear Modulus (GPa) = 21.51355 26.31822 23.91588
#
# Velocity S-wave (km/s) = 3.26772 3.61424 3.44534
# Velocity P-wave (km/s) = 4.51725 5.17447 4.85699
#
# Compressibility (1/GPa) = 0.08046615
#
# Stress axis : x y z
#
# Youngs Moduli (GPa) = 22.80614 81.46986 56.77660
#
# Poissons Ratio (x) = 0.37699 -0.47499
# Poissons Ratio (y) = 0.10553 0.02118
# Poissons Ratio (z) = -0.19079 0.03040
#
# Static dielectric constant tensor:
#      x y z
#    x 3.359120 0.000000 -0.297540 
#    y 0.000000 3.831530 0.000000 
#    z -0.297540 0.000000 3.459630 
# 
# 
# High freq. dielectric constant tensor:
#      x y z
#    x 1.756280 0.000000 -0.024240 
#    y 0.000000 1.804420 0.000000 
#    z -0.024240 0.000000 1.779210 
# 
# From -- ./inp_files/92406.got.cif
#   From: 2010.06.25/outbox.cif.g09.slc.cpg/sg13_47_cif.got.tgz:92406.got - 2010.06.28 04:50:58.
