data_PCOD8119343
_publ_section_title
;
Structure prediction by ZEFSAII (Michael W. Deem and Ramdas Pophale) SiO2 
 PCOD8119343
Probable space group: P 2/C
;
_chemical_formula_sum "Si O2"
_cell_formula_units_Z 22
_cell_length_a 10.766509
_cell_length_b 6.975874
_cell_length_c 14.398424
_cell_angle_alpha 90.000000
_cell_angle_beta 76.529603
_cell_angle_gamma 90.000000
_cell_volume 1051.656278
_symmetry_space_group_name_H-M "P 2/C"
_symmetry_group_IT_number 13
_symmetry_cell_setting 'monoclinic'
loop_
_space_group_symop_operation_xyz
x,y,z
-x,y,1/2-z
-x,-y,-z
x,-y,1/2+z
loop_
_atom_site_type_symbol
_atom_site_label
_atom_site_fract_x
_atom_site_fract_y
_atom_site_fract_z
Si Si1 0.680518 0.770585 0.147917
Si Si2 0.486829 0.523347 0.610234
Si Si3 0.000000 0.451760 0.750000
Si Si4 0.681034 0.170056 0.051488
Si Si5 0.885377 0.546440 0.586524
Si Si6 0.262397 0.713117 0.162819
O O1 0.552913 0.648183 0.155690
O O2 0.799140 0.641709 0.096624
O O3 0.699587 0.835623 0.252064
O O4 0.675454 0.951270 0.081199
O O5 0.500000 0.500000 0.500000
O O6 0.555526 0.726653 0.619500
O O7 0.335814 0.496471 0.660332
O O8 0.937790 0.583842 0.681390
O O9 0.889605 0.319282 0.815315
O O10 0.809341 0.266052 0.068398
O O11 0.685918 0.179838 0.938106
O O12 0.000000 0.500000 0.500000
#
# Coordination Sequence:
#
# PCOD8119343 Si02
#       6
#     4   4   2   4   4   4
#     4  10  22  39  60  93 123 155 206 255 301 356
#     4   9  20  39  64  86 117 159 203 246 310 354
#     4  10  20  38  62  88 122 158 204 248 298 354
#     4  10  21  41  64  91 117 161 207 248 308 362
#     4  10  20  40  62  86 123 164 200 249 302 362
#     4  10  20  39  61  86 126 161 195 255 302 353
#
# _framework density 20.919384000000001
#
# number of rings (size 3 to 8) (size 9 to 14) (size 15 to 20)
#    0.000    2.182    1.818    0.545    0.000    3.636 
#    3.273   17.273    0.000    0.000    0.000    0.000 
#    0.000    0.000    0.000    0.000    0.000    0.000 
#
# Total GULP energy -272601.818586 kJ/mol
# GULP energy per Si atom -12390.991754 kJ/mol
# Density = 2.087177 g / cm^3
# Si number density = 20.919384 Si / 1000 Ang^3
#
#
#
# Elastic Constant Matrix: (Units=GPa)
#
#
# Indices 1 2 3 4 5 6 
#
# 1 110.7142 30.2725 28.6174 0.0000 -9.0313 0.0000
# 2 30.2725 86.0030 31.7625 0.0000 1.5145 0.0000
# 3 28.6174 31.7625 103.1571 0.0000 11.0778 0.0000
# 4 0.0000 0.0000 0.0000 28.0663 0.0000 9.4071
# 5 -9.0313 1.5145 11.0778 0.0000 45.6181 0.0000
# 6 0.0000 0.0000 0.0000 9.4071 0.0000 8.5868
#
#
#
# Elastic Compliance Matrix: (Units=1/GPa)
#
#
# Indices 1 2 3 4 5 6 
#
# 1 0.010671 -0.002935 -0.002355 0.000000 0.002782 0.000000
# 2 -0.002935 0.013941 -0.003456 0.000000 -0.000205 0.000000
# 3 -0.002355 -0.003456 0.011756 0.000000 -0.003206 0.000000
# 4 0.000000 0.000000 0.000000 0.056305 0.000000 -0.061684
# 5 0.002782 -0.000205 -0.003206 0.000000 0.023257 0.000000
# 6 0.000000 0.000000 0.000000 -0.061684 0.000000 0.184034
#
#
# Mechanical properties :
#
#
# Convention : Reuss Voigt Hill
#
# Bulk Modulus (GPa) = 52.98281 53.46436 53.22359
# Shear Modulus (GPa) = 15.44417 30.40238 22.92327
#
# Velocity S-wave (km/s) = 2.72006 3.81637 3.31386
# Velocity P-wave (km/s) = 5.93693 6.71062 6.33559
#
# Compressibility (1/GPa) = 0.01887404
#
# Stress axis : x y z
#
# Youngs Moduli (GPa) = 93.71631 71.73256 85.06444
#
# Poissons Ratio (x) = 0.21054 0.20034
# Poissons Ratio (y) = 0.27507 0.29400
# Poissons Ratio (z) = 0.22072 0.24792
#
# Static dielectric constant tensor:
#      x y z
#    x 4.271800 0.000000 0.014840 
#    y 0.000000 2.590960 0.000000 
#    z 0.014840 0.000000 4.170830 
# 
# 
# High freq. dielectric constant tensor:
#      x y z
#    x 1.842170 0.000000 0.007900 
#    y 0.000000 1.764750 0.000000 
#    z 0.007900 0.000000 1.841320 
# 
# From -- ./inp_files/48882.got.cif
#   From: 2010.06.25/outbox.cif.g09.slc.cpg/sg13_25_cif.got.tgz:48882.got - 2010.06.28 04:50:58.
