data_PCOD8119256
_publ_section_title
;
Structure prediction by ZEFSAII (Michael W. Deem and Ramdas Pophale) SiO2 
 PCOD8119256
Probable space group: P 2/C
;
_chemical_formula_sum "Si O2"
_cell_formula_units_Z 20
_cell_length_a 13.217295
_cell_length_b 5.195991
_cell_length_c 26.849657
_cell_angle_alpha 90.000000
_cell_angle_beta 146.528343
_cell_angle_gamma 90.000000
_cell_volume 1016.984786
_symmetry_space_group_name_H-M "P 2/C"
_symmetry_group_IT_number 13
_symmetry_cell_setting 'monoclinic'
loop_
_space_group_symop_operation_xyz
x,y,z
-x,y,1/2-z
-x,-y,-z
x,-y,1/2+z
loop_
_atom_site_type_symbol
_atom_site_label
_atom_site_fract_x
_atom_site_fract_y
_atom_site_fract_z
Si Si1 0.492341 0.977303 0.438278
Si Si2 0.048940 0.476929 0.644486
Si Si3 0.351318 0.526613 0.547751
Si Si4 0.179617 0.031151 0.240199
Si Si5 0.588103 0.675242 0.733901
O O1 0.569178 0.703100 0.452592
O O2 0.278357 0.999324 0.334006
O O3 0.500000 0.000000 0.500000
O O4 0.611533 0.205597 0.464266
O O5 0.051276 0.210595 0.675630
O O6 0.230400 0.496052 0.683891
O O7 0.868120 0.500237 0.536513
O O8 0.054749 0.710602 0.687440
O O9 0.441182 0.523138 0.639412
O O10 0.344659 0.064391 0.266747
O O11 0.500000 0.750988 0.750000
#
# Coordination Sequence:
#
# PCOD8119256 Si02
#       5
#     4   4   4   4   4
#     4  11  21  40  63  84 114 156 194 235 294 346
#     4  10  20  38  59  83 124 144 193 236 289 334
#     4  11  22  39  61  87 117 153 189 244 286 340
#     4   9  19  39  55  82 121 146 188 243 277 339
#     4   9  21  38  61  84 119 156 192 234 291 340
#
# _framework density 19.665979
#
# number of rings (size 3 to 8) (size 9 to 14) (size 15 to 20)
#    1.200    0.800    2.000    1.800    0.000    1.600 
#    0.000    7.000    0.000    0.000    0.000    0.000 
#    0.000    0.000    0.000    0.000    0.000    0.000 
#
# Total GULP energy -247829.676664 kJ/mol
# GULP energy per Si atom -12391.483833 kJ/mol
# Density = 1.962122 g / cm^3
# Si number density = 19.665979 Si / 1000 Ang^3
#
#
#
# Elastic Constant Matrix: (Units=GPa)
#
#
# Indices 1 2 3 4 5 6 
#
# 1 46.2422 -0.6319 39.0488 0.0000 -17.4095 0.0000
# 2 -0.6319 100.5559 19.6561 0.0000 0.4897 0.0000
# 3 39.0488 19.6561 143.4288 0.0000 17.2817 0.0000
# 4 0.0000 0.0000 0.0000 26.3352 0.0000 2.0673
# 5 -17.4095 0.4897 17.2817 0.0000 34.4099 0.0000
# 6 0.0000 0.0000 0.0000 2.0673 0.0000 18.0754
#
#
#
# Elastic Compliance Matrix: (Units=1/GPa)
#
#
# Indices 1 2 3 4 5 6 
#
# 1 0.050143 0.003728 -0.018322 0.000000 0.034518 0.000000
# 2 0.003728 0.010507 -0.002836 0.000000 0.003161 0.000000
# 3 -0.018322 -0.002836 0.014328 0.000000 -0.016425 0.000000
# 4 0.000000 0.000000 0.000000 0.038316 0.000000 -0.004382
# 5 0.034518 0.003161 -0.016425 0.000000 0.054730 0.000000
# 6 0.000000 0.000000 0.000000 -0.004382 0.000000 0.055825
#
#
# Mechanical properties :
#
#
# Convention : Reuss Voigt Hill
#
# Bulk Modulus (GPa) = 24.92518 45.15254 35.03886
# Shear Modulus (GPa) = 18.37689 31.24104 24.80896
#
# Velocity S-wave (km/s) = 3.06019 3.99003 3.55564
# Velocity P-wave (km/s) = 5.01878 6.65106 5.89172
#
# Compressibility (1/GPa) = 0.04012007
#
# Stress axis : x y z
#
# Youngs Moduli (GPa) = 19.94283 95.17381 69.79378
#
# Poissons Ratio (x) = -0.35485 1.27874
# Poissons Ratio (y) = -0.07436 0.19793
# Poissons Ratio (z) = 0.36539 0.26990
#
# Static dielectric constant tensor:
#      x y z
#    x 3.053190 0.000000 0.077020 
#    y 0.000000 3.610100 0.000000 
#    z 0.077020 0.000000 3.794480 
# 
# 
# High freq. dielectric constant tensor:
#      x y z
#    x 1.715620 0.000000 0.010520 
#    y 0.000000 1.776920 0.000000 
#    z 0.010520 0.000000 1.781310 
# 
# From -- ./inp_files/58004.got.cif
#   From: 2010.06.25/outbox.cif.g09.slc.cpg/sg13_30_cif.got.tgz:58004.got - 2010.06.28 04:50:58.
