data_PCOD8119356
_publ_section_title
;
Structure prediction by ZEFSAII (Michael W. Deem and Ramdas Pophale) SiO2 
 PCOD8119356
Probable space group: P 2/C
;
_chemical_formula_sum "Si O2"
_cell_formula_units_Z 20
_cell_length_a 14.693453
_cell_length_b 8.018889
_cell_length_c 24.671760
_cell_angle_alpha 90.000000
_cell_angle_beta 161.784575
_cell_angle_gamma 90.000000
_cell_volume 908.686746
_symmetry_space_group_name_H-M "P 2/C"
_symmetry_group_IT_number 13
_symmetry_cell_setting 'monoclinic'
loop_
_space_group_symop_operation_xyz
x,y,z
-x,y,1/2-z
-x,-y,-z
x,-y,1/2+z
loop_
_atom_site_type_symbol
_atom_site_label
_atom_site_fract_x
_atom_site_fract_y
_atom_site_fract_z
Si Si1 0.282244 0.536434 0.768592
Si Si2 0.220167 0.964841 0.963382
Si Si3 0.393066 0.144117 0.392912
Si Si4 0.867451 0.260581 0.733129
Si Si5 0.662518 0.668517 0.398282
O O1 0.453513 0.694781 0.888957
O O2 0.219306 0.425093 0.785191
O O3 0.487024 0.439738 0.842693
O O4 0.981913 0.591167 0.569975
O O5 0.079308 0.149788 0.891678
O O6 0.499464 0.984935 0.082698
O O7 0.948053 0.861013 0.783703
O O8 0.318131 0.863333 0.072279
O O9 0.581220 0.150364 0.554799
O O10 0.000000 0.310181 0.750000
O O11 0.500000 0.663772 0.250000
#
# Coordination Sequence:
#
# PCOD8119356 Si02
#       5
#     4   4   4   4   4
#     4  11  23  41  65  92 122 157 204 250 300 365
#     4  10  21  37  58  87 122 157 201 242 291 360
#     4  10  21  37  60  92 125 159 192 240 304 366
#     4  10  20  38  62  94 126 157 193 244 304 368
#     4  11  24  43  63  87 119 162 209 258 300 341
#
# _framework density 22.009785999999998
#
# number of rings (size 3 to 8) (size 9 to 14) (size 15 to 20)
#    0.000    1.600    0.000    5.400    0.000    3.200 
#    0.000   21.000    0.000    0.000    0.000    0.000 
#    0.000    0.000    0.000    0.000    0.000    0.000 
#
# Total GULP energy -247819.923810 kJ/mol
# GULP energy per Si atom -12390.996190 kJ/mol
# Density = 2.195969 g / cm^3
# Si number density = 22.009786 Si / 1000 Ang^3
#
#
#
# Elastic Constant Matrix: (Units=GPa)
#
#
# Indices 1 2 3 4 5 6 
#
# 1 85.2358 46.3200 21.9266 0.0000 4.1901 0.0000
# 2 46.3200 62.1548 3.1492 0.0000 11.6133 0.0000
# 3 21.9266 3.1492 63.4259 0.0000 13.3577 0.0000
# 4 0.0000 0.0000 0.0000 36.0797 0.0000 2.7137
# 5 4.1901 11.6133 13.3577 0.0000 24.2799 0.0000
# 6 0.0000 0.0000 0.0000 2.7137 0.0000 27.6486
#
#
#
# Elastic Compliance Matrix: (Units=1/GPa)
#
#
# Indices 1 2 3 4 5 6 
#
# 1 0.024372 -0.019636 -0.009662 0.000000 0.010502 0.000000
# 2 -0.019636 0.033546 0.008809 0.000000 -0.017503 0.000000
# 3 -0.009662 0.008809 0.021722 0.000000 -0.014496 0.000000
# 4 0.000000 0.000000 0.000000 0.027923 0.000000 -0.002741
# 5 0.010502 -0.017503 -0.014496 0.000000 0.055721 0.000000
# 6 0.000000 0.000000 0.000000 -0.002741 0.000000 0.036437
#
#
# Mechanical properties :
#
#
# Convention : Reuss Voigt Hill
#
# Bulk Modulus (GPa) = 25.86515 39.28980 32.57748
# Shear Modulus (GPa) = 19.71707 26.89636 23.30671
#
# Velocity S-wave (km/s) = 2.99629 3.49953 3.25764
# Velocity P-wave (km/s) = 4.87314 5.84968 5.38360
#
# Compressibility (1/GPa) = 0.03866206
#
# Stress axis : x y z
#
# Youngs Moduli (GPa) = 41.03037 29.80970 46.03553
#
# Poissons Ratio (x) = 0.58533 0.44481
# Poissons Ratio (y) = 0.80566 -0.40551
# Poissons Ratio (z) = 0.39645 -0.26258
#
# Static dielectric constant tensor:
#      x y z
#    x 3.711900 0.000000 0.309830 
#    y 0.000000 4.200870 0.000000 
#    z 0.309830 0.000000 4.198480 
# 
# 
# High freq. dielectric constant tensor:
#      x y z
#    x 1.847420 0.000000 0.033330 
#    y 0.000000 1.881300 0.000000 
#    z 0.033330 0.000000 1.875000 
# 
# From -- ./inp_files/87199.got.cif
#   From: 2010.06.25/outbox.cif.g09.slc.cpg/sg13_44_cif.got.tgz:87199.got - 2010.06.28 04:50:58.
