data_PCOD8119088
_publ_section_title
;
Structure prediction by ZEFSAII (Michael W. Deem and Ramdas Pophale) SiO2 
 PCOD8119088
Probable space group: P 2/C
;
_chemical_formula_sum "Si O2"
_cell_formula_units_Z 30
_cell_length_a 11.932949
_cell_length_b 23.092346
_cell_length_c 5.392470
_cell_angle_alpha 90.000000
_cell_angle_beta 82.286106
_cell_angle_gamma 90.000000
_cell_volume 1472.501066
_symmetry_space_group_name_H-M "P 2/C"
_symmetry_group_IT_number 13
_symmetry_cell_setting 'monoclinic'
loop_
_space_group_symop_operation_xyz
x,y,z
-x,y,1/2-z
-x,-y,-z
x,-y,1/2+z
loop_
_atom_site_type_symbol
_atom_site_label
_atom_site_fract_x
_atom_site_fract_y
_atom_site_fract_z
Si Si1 0.544893 0.434785 0.984931
Si Si2 0.300534 0.250854 0.569886
Si Si3 0.868841 0.218962 0.262658
Si Si4 0.500000 0.805668 0.750000
Si Si5 0.675486 0.845446 0.049661
Si Si6 0.763113 0.624321 0.400821
Si Si7 0.365996 0.968666 0.283484
Si Si8 0.874178 0.346113 0.378032
O O1 0.500000 0.402959 0.750000
O O2 0.681041 0.431397 0.925705
O O3 0.500000 0.403648 0.250000
O O4 0.500000 0.500000 0.000000
O O5 0.173289 0.236066 0.503330
O O6 0.396144 0.236701 0.340151
O O7 0.335621 0.211614 0.786120
O O8 0.309695 0.318081 0.636751
O O9 0.792270 0.164000 0.363137
O O10 0.848117 0.277581 0.432636
O O11 0.000000 0.200562 0.250000
O O12 0.443256 0.849509 0.567264
O O13 0.686305 0.904094 0.203327
O O14 0.806676 0.627004 0.668489
O O15 0.853013 0.619859 0.145258
O O16 0.500000 0.966977 0.250000
O O17 0.321293 0.001116 0.545171
O O18 0.000000 0.354240 0.250000
#
# Coordination Sequence:
#
# PCOD8119088 Si02
#       8
#     4   4   4   2   4   4   4   4
#     4  10  22  39  59  86 119 165 206 242 287 341
#     4  10  21  33  54  83 119 156 192 234 306 356
#     4   9  20  36  56  82 116 155 198 236 294 368
#     4  10  22  32  50  80 120 154 180 238 296 370
#     4  11  21  37  55  81 114 152 195 238 305 353
#     4  11  21  36  58  89 120 159 200 241 293 362
#     4  10  23  37  58  81 109 149 199 247 295 352
#     4  10  20  37  58  89 124 155 194 248 301 360
#
# _framework density 20.373501000000001
#
# number of rings (size 3 to 8) (size 9 to 14) (size 15 to 20)
#    0.000    1.867    1.333    2.400    7.467    1.600 
#    0.000    0.000    0.000    0.800    0.000   37.333 
#    0.000    0.000    0.000    0.000    0.000    0.000 
#
# Total GULP energy -371655.079481 kJ/mol
# GULP energy per Si atom -12388.502649 kJ/mol
# Density = 2.032713 g / cm^3
# Si number density = 20.373501 Si / 1000 Ang^3
#
#
#
# Elastic Constant Matrix: (Units=GPa)
#
#
# Indices 1 2 3 4 5 6 
#
# 1 104.3505 30.2765 21.8440 0.0000 6.3387 0.0000
# 2 30.2765 71.9491 18.6798 0.0000 -2.1786 0.0000
# 3 21.8440 18.6798 120.2146 0.0000 0.3064 0.0000
# 4 0.0000 0.0000 0.0000 10.6374 0.0000 -4.3608
# 5 6.3387 -2.1786 0.3064 0.0000 27.3245 0.0000
# 6 0.0000 0.0000 0.0000 -4.3608 0.0000 19.9005
#
#
#
# Elastic Compliance Matrix: (Units=1/GPa)
#
#
# Indices 1 2 3 4 5 6 
#
# 1 0.011359 -0.004518 -0.001354 0.000000 -0.002980 0.000000
# 2 -0.004518 0.016319 -0.001721 0.000000 0.002369 0.000000
# 3 -0.001354 -0.001721 0.008832 0.000000 0.000078 0.000000
# 4 0.000000 0.000000 0.000000 0.103287 0.000000 0.022634
# 5 -0.002980 0.002369 0.000078 0.000000 0.037476 0.000000
# 6 0.000000 0.000000 0.000000 0.022634 0.000000 0.055210
#
#
# Mechanical properties :
#
#
# Convention : Reuss Voigt Hill
#
# Bulk Modulus (GPa) = 46.89957 48.67941 47.78949
# Shear Modulus (GPa) = 19.62509 26.62007 23.12258
#
# Velocity S-wave (km/s) = 3.10702 3.61862 3.37253
# Velocity P-wave (km/s) = 5.99510 6.43464 6.21876
#
# Compressibility (1/GPa) = 0.02132216
#
# Stress axis : x y z
#
# Youngs Moduli (GPa) = 88.03925 61.28004 113.22836
#
# Poissons Ratio (x) = 0.27689 0.15334
# Poissons Ratio (y) = 0.39779 0.19483
# Poissons Ratio (z) = 0.11923 0.10544
#
# Static dielectric constant tensor:
#      x y z
#    x 3.744690 0.000000 0.058020 
#    y 0.000000 3.429910 0.000000 
#    z 0.058020 0.000000 4.865210 
# 
# 
# High freq. dielectric constant tensor:
#      x y z
#    x 1.778540 0.000000 0.001390 
#    y 0.000000 1.762550 0.000000 
#    z 0.001390 0.000000 1.815350 
# 
# From -- ./inp_files/4139.got.cif
#   From: 2010.06.25/outbox.cif.g09.slc.cpg/sg13_3_cif.got.tgz:4139.got - 2010.06.28 04:50:58.
