data_PCOD8119380
_publ_section_title
;
Structure prediction by ZEFSAII (Michael W. Deem and Ramdas Pophale) SiO2 
 PCOD8119380
Probable space group: P 2/C
;
_chemical_formula_sum "Si O2"
_cell_formula_units_Z 32
_cell_length_a 15.198104
_cell_length_b 8.350937
_cell_length_c 25.071341
_cell_angle_alpha 90.000000
_cell_angle_beta 151.210333
_cell_angle_gamma 90.000000
_cell_volume 1532.444376
_symmetry_space_group_name_H-M "P 2/C"
_symmetry_group_IT_number 13
_symmetry_cell_setting 'monoclinic'
loop_
_space_group_symop_operation_xyz
x,y,z
-x,y,1/2-z
-x,-y,-z
x,-y,1/2+z
loop_
_atom_site_type_symbol
_atom_site_label
_atom_site_fract_x
_atom_site_fract_y
_atom_site_fract_z
Si Si1 0.565031 0.690972 0.921812
Si Si2 0.172250 0.550946 0.736090
Si Si3 0.032296 0.273403 0.587140
Si Si4 0.320299 0.553192 0.621776
Si Si5 0.212895 0.029967 0.993074
Si Si6 0.300046 0.478328 0.913615
Si Si7 0.104728 0.235508 0.358996
Si Si8 0.288709 0.190981 0.631536
O O1 0.355315 0.652306 0.822816
O O2 0.632671 0.559879 0.915432
O O3 0.598769 0.868624 0.915608
O O4 0.696592 0.671988 0.043924
O O5 0.171017 0.457111 0.793062
O O6 0.133133 0.424933 0.668366
O O7 0.018964 0.686618 0.659977
O O8 0.855706 0.334305 0.458855
O O9 0.958196 0.152393 0.593127
O O10 0.174471 0.175486 0.625807
O O11 0.500000 0.609265 0.750000
O O12 0.261455 0.373527 0.600862
O O13 0.196446 0.920959 0.932382
O O14 0.212658 0.928915 0.047140
O O15 0.257807 0.638198 0.924059
O O16 0.500000 0.500000 0.000000
O O17 0.000000 0.181666 0.250000
O O18 0.500000 0.147654 0.750000
#
# Coordination Sequence:
#
# PCOD8119380 Si02
#       8
#     4   4   4   4   4   4   4   4
#     4  10  21  38  59  88 117 155 204 249 299 355
#     4  10  20  38  64  88 115 154 203 254 295 346
#     4  11  23  39  62  91 117 155 207 253 300 356
#     4  10  21  38  62  86 114 158 208 255 297 350
#     4  11  24  38  57  85 125 161 191 243 308 370
#     4   9  19  38  63  87 114 152 199 246 288 344
#     4  10  21  38  59  87 121 156 194 242 301 357
#     4  11  23  39  58  86 121 161 200 246 304 364
#
# _framework density 20.881671999999998
#
# number of rings (size 3 to 8) (size 9 to 14) (size 15 to 20)
#    0.000    1.750    0.000    5.250    0.000    6.000 
#    0.000    5.625    0.000    0.000    0.000    0.000 
#    0.000    0.000    0.000    0.000    0.000    0.000 
#
# Total GULP energy -396610.673778 kJ/mol
# GULP energy per Si atom -12394.083556 kJ/mol
# Density = 2.083414 g / cm^3
# Si number density = 20.881672 Si / 1000 Ang^3
#
#
#
# Elastic Constant Matrix: (Units=GPa)
#
#
# Indices 1 2 3 4 5 6 
#
# 1 120.2657 41.9776 44.2881 0.0000 9.1808 0.0000
# 2 41.9776 80.9166 44.1047 0.0000 0.6854 0.0000
# 3 44.2881 44.1047 92.4292 0.0000 3.7333 0.0000
# 4 0.0000 0.0000 0.0000 25.9046 0.0000 -5.6994
# 5 9.1808 0.6854 3.7333 0.0000 37.1837 0.0000
# 6 0.0000 0.0000 0.0000 -5.6994 0.0000 14.6342
#
#
#
# Elastic Compliance Matrix: (Units=1/GPa)
#
#
# Indices 1 2 3 4 5 6 
#
# 1 0.011092 -0.003904 -0.003358 0.000000 -0.002330 0.000000
# 2 -0.003904 0.018086 -0.006812 0.000000 0.001315 0.000000
# 3 -0.003358 -0.006812 0.015704 0.000000 -0.000622 0.000000
# 4 0.000000 0.000000 0.000000 0.042221 0.000000 0.016443
# 5 -0.002330 0.001315 -0.000622 0.000000 0.027507 0.000000
# 6 0.000000 0.000000 0.000000 0.016443 0.000000 0.074737
#
#
# Mechanical properties :
#
#
# Convention : Reuss Voigt Hill
#
# Bulk Modulus (GPa) = 59.76279 61.59470 60.67875
# Shear Modulus (GPa) = 22.41416 26.42724 24.42070
#
# Velocity S-wave (km/s) = 3.27982 3.56135 3.42348
# Velocity P-wave (km/s) = 6.55933 6.81704 6.68942
#
# Compressibility (1/GPa) = 0.01673282
#
# Stress axis : x y z
#
# Youngs Moduli (GPa) = 90.15496 55.29137 63.67902
#
# Poissons Ratio (x) = 0.21588 0.21381
# Poissons Ratio (y) = 0.35200 0.43381
# Poissons Ratio (z) = 0.30271 0.37667
#
# Static dielectric constant tensor:
#      x y z
#    x 4.435040 0.000000 -0.748190 
#    y 0.000000 3.811850 0.000000 
#    z -0.748190 0.000000 5.150400 
# 
# 
# High freq. dielectric constant tensor:
#      x y z
#    x 1.835640 0.000000 0.002540 
#    y 0.000000 1.800640 0.000000 
#    z 0.002540 0.000000 1.814110 
# 
# From -- ./inp_files/87438.got.cif
#   From: 2010.06.25/outbox.cif.g09.slc.cpg/sg13_44_cif.got.tgz:87438.got - 2010.06.28 04:50:58.
