data_PCOD8119554
_publ_section_title
;
Structure prediction by ZEFSAII (Michael W. Deem and Ramdas Pophale) SiO2 
 PCOD8119554
Probable space group: P 2/C
;
_chemical_formula_sum "Si O2"
_cell_formula_units_Z 28
_cell_length_a 27.726501
_cell_length_b 9.534121
_cell_length_c 8.633257
_cell_angle_alpha 90.000000
_cell_angle_beta 31.678634
_cell_angle_gamma 90.000000
_cell_volume 1198.498114
_symmetry_space_group_name_H-M "P 2/C"
_symmetry_group_IT_number 13
_symmetry_cell_setting 'monoclinic'
loop_
_space_group_symop_operation_xyz
x,y,z
-x,y,1/2-z
-x,-y,-z
x,-y,1/2+z
loop_
_atom_site_type_symbol
_atom_site_label
_atom_site_fract_x
_atom_site_fract_y
_atom_site_fract_z
Si Si1 0.709285 0.915781 0.794626
Si Si2 0.112183 0.036212 0.863420
Si Si3 0.053001 0.176275 0.310474
Si Si4 0.788486 0.625682 0.118526
Si Si5 0.480163 0.649047 0.984465
Si Si6 0.733645 0.338918 0.414690
Si Si7 0.358619 0.174965 0.328940
O O1 0.784527 0.981909 0.474532
O O2 0.639201 0.843682 0.863297
O O3 0.765458 0.807272 0.751377
O O4 0.655086 0.030248 0.041458
O O5 0.059493 0.891024 0.964573
O O6 0.113136 0.062007 0.044837
O O7 0.052711 0.172345 0.959430
O O8 0.104146 0.326915 0.158113
O O9 0.778231 0.464357 0.193964
O O10 0.760349 0.646120 0.018681
O O11 0.722525 0.716016 0.408398
O O12 0.500000 0.648032 0.750000
O O13 0.542284 0.766171 0.895673
O O14 0.500000 0.500000 0.000000
O O15 0.375002 0.679094 0.306170
#
# Coordination Sequence:
#
# PCOD8119554 Si02
#       7
#     4   4   4   4   4   4   4
#     4  12  25  44  69 103 136 182 219 283 349 400
#     4  10  20  39  67 102 135 172 219 281 337 403
#     4  10  22  38  69 101 137 170 228 278 337 404
#     4  12  23  45  68 101 129 184 230 277 338 420
#     4  12  26  46  70 100 133 176 234 282 338 408
#     4  12  27  44  71  95 138 179 226 280 350 406
#     4  12  25  43  72  98 139 175 233 284 336 408
#
# _framework density 23.362573999999999
#
# number of rings (size 3 to 8) (size 9 to 14) (size 15 to 20)
#    0.000    0.571    5.714    1.714    4.000    0.571 
#    0.000    0.714    0.000    0.000    0.000    0.000 
#    0.000    0.000    0.000    0.000    0.000    0.000 
#
# Total GULP energy -347075.503264 kJ/mol
# GULP energy per Si atom -12395.553688 kJ/mol
# Density = 2.330940 g / cm^3
# Si number density = 23.362574 Si / 1000 Ang^3
#
#
#
# Elastic Constant Matrix: (Units=GPa)
#
#
# Indices 1 2 3 4 5 6 
#
# 1 68.6878 13.6900 7.1417 0.0000 6.7271 0.0000
# 2 13.6900 120.8937 18.2544 0.0000 5.1453 0.0000
# 3 7.1417 18.2544 61.4163 0.0000 -9.2230 0.0000
# 4 0.0000 0.0000 0.0000 69.5362 0.0000 -10.1831
# 5 6.7271 5.1453 -9.2230 0.0000 44.8500 0.0000
# 6 0.0000 0.0000 0.0000 -10.1831 0.0000 42.1282
#
#
#
# Elastic Compliance Matrix: (Units=1/GPa)
#
#
# Indices 1 2 3 4 5 6 
#
# 1 0.015255 -0.001358 -0.001744 0.000000 -0.002491 0.000000
# 2 -0.001358 0.008890 -0.002690 0.000000 -0.001369 0.000000
# 3 -0.001744 -0.002690 0.017924 0.000000 0.004256 0.000000
# 4 0.000000 0.000000 0.000000 0.014909 0.000000 0.003604
# 5 -0.002491 -0.001369 0.004256 0.000000 0.023702 0.000000
# 6 0.000000 0.000000 0.000000 0.003604 0.000000 0.024608
#
#
# Mechanical properties :
#
#
# Convention : Reuss Voigt Hill
#
# Bulk Modulus (GPa) = 32.80440 36.57443 34.68942
# Shear Modulus (GPa) = 39.35962 45.43034 42.39498
#
# Velocity S-wave (km/s) = 4.10900 4.41452 4.26450
# Velocity P-wave (km/s) = 6.04845 6.45547 6.25527
#
# Compressibility (1/GPa) = 0.03048371
#
# Stress axis : x y z
#
# Youngs Moduli (GPa) = 65.55390 112.48626 55.79162
#
# Poissons Ratio (x) = 0.15276 0.09732
# Poissons Ratio (y) = 0.08902 0.15008
# Poissons Ratio (z) = 0.11435 0.30259
#
# Static dielectric constant tensor:
#      x y z
#    x 4.627490 0.000000 0.064590 
#    y 0.000000 4.148220 0.000000 
#    z 0.064590 0.000000 4.188170 
# 
# 
# High freq. dielectric constant tensor:
#      x y z
#    x 1.947660 0.000000 0.008440 
#    y 0.000000 1.905020 0.000000 
#    z 0.008440 0.000000 1.922970 
# 
# From -- ./inp_files/24532.got.cif
#   From: 2010.06.25/outbox.cif.g09.slc.cpg/sg13_13_cif.got.tgz:24532.got - 2010.06.28 04:50:58.
