data_PCOD8119241
_publ_section_title
;
Structure prediction by ZEFSAII (Michael W. Deem and Ramdas Pophale) SiO2 
 PCOD8119241
Probable space group: P 2/C
;
_chemical_formula_sum "Si O2"
_cell_formula_units_Z 30
_cell_length_a 10.872971
_cell_length_b 15.022683
_cell_length_c 11.457577
_cell_angle_alpha 90.000000
_cell_angle_beta 122.732057
_cell_angle_gamma 90.000000
_cell_volume 1574.316730
_symmetry_space_group_name_H-M "P 2/C"
_symmetry_group_IT_number 13
_symmetry_cell_setting 'monoclinic'
loop_
_space_group_symop_operation_xyz
x,y,z
-x,y,1/2-z
-x,-y,-z
x,-y,1/2+z
loop_
_atom_site_type_symbol
_atom_site_label
_atom_site_fract_x
_atom_site_fract_y
_atom_site_fract_z
Si Si1 0.170245 0.551751 0.841788
Si Si2 0.500000 0.795632 0.750000
Si Si3 0.843164 0.824071 0.689228
Si Si4 0.221979 0.316869 0.169607
Si Si5 0.607129 0.740114 0.147563
Si Si6 0.531560 0.101736 0.038708
Si Si7 0.842703 0.350285 0.620848
Si Si8 0.700518 0.690796 0.447321
O O1 0.244862 0.598961 0.767890
O O2 0.203059 0.447242 0.855796
O O3 0.000000 0.570965 0.750000
O O4 0.230070 0.593318 0.994576
O O5 0.624389 0.727350 0.778763
O O6 0.537617 0.861075 0.876844
O O7 0.871212 0.760479 0.815387
O O8 0.708615 0.891871 0.636296
O O9 0.804339 0.762708 0.559998
O O10 0.000000 0.873732 0.750000
O O11 0.142951 0.349292 0.011553
O O12 0.713803 0.715973 0.095340
O O13 0.695130 0.720807 0.310777
O O14 0.458572 0.682922 0.073008
O O15 0.548285 0.841967 0.105319
O O16 0.500000 0.000000 0.000000
O O17 0.000000 0.319999 0.750000
#
# Coordination Sequence:
#
# PCOD8119241 Si02
#       8
#     4   2   4   4   4   4   4   4
#     4  10  23  37  56  82 112 163 209 242 287 337
#     4  10  20  40  62  86 116 148 198 236 302 362
#     4   9  19  36  63  87 109 156 194 234 288 356
#     4  10  20  38  58  81 116 155 199 244 290 347
#     4  10  21  38  55  86 112 149 196 236 301 353
#     4  10  21  39  65  89 118 150 187 242 303 363
#     4  11  25  35  54  83 119 159 196 247 297 341
#     4   9  19  36  59  79 114 148 197 244 279 340
#
# _framework density 19.055886000000001
#
# number of rings (size 3 to 8) (size 9 to 14) (size 15 to 20)
#    0.000    2.133    1.333    2.400    5.600    3.733 
#    0.000    0.667    0.000    2.400    0.000    0.000 
#    0.000    0.000    0.000    0.000    0.000    0.000 
#
# Total GULP energy -371786.328080 kJ/mol
# GULP energy per Si atom -12392.877603 kJ/mol
# Density = 1.901251 g / cm^3
# Si number density = 19.055886 Si / 1000 Ang^3
#
#
#
# Elastic Constant Matrix: (Units=GPa)
#
#
# Indices 1 2 3 4 5 6 
#
# 1 83.8196 48.1336 44.1552 0.0000 -0.5869 0.0000
# 2 48.1336 102.6463 42.3530 0.0000 9.1085 0.0000
# 3 44.1552 42.3530 117.5683 0.0000 -9.0697 0.0000
# 4 0.0000 0.0000 0.0000 19.8694 0.0000 0.5835
# 5 -0.5869 9.1085 -9.0697 0.0000 25.6665 0.0000
# 6 0.0000 0.0000 0.0000 0.5835 0.0000 20.2111
#
#
#
# Elastic Compliance Matrix: (Units=1/GPa)
#
#
# Indices 1 2 3 4 5 6 
#
# 1 0.018109 -0.006871 -0.004221 0.000000 0.001361 0.000000
# 2 -0.006871 0.014914 -0.003303 0.000000 -0.006617 0.000000
# 3 -0.004221 -0.003303 0.011682 0.000000 0.005204 0.000000
# 4 0.000000 0.000000 0.000000 0.050371 0.000000 -0.001454
# 5 0.001361 -0.006617 0.005204 0.000000 0.043179 0.000000
# 6 0.000000 0.000000 0.000000 -0.001454 0.000000 0.049520
#
#
# Mechanical properties :
#
#
# Convention : Reuss Voigt Hill
#
# Bulk Modulus (GPa) = 62.82941 63.70198 63.26569
# Shear Modulus (GPa) = 22.53568 24.44224 23.48896
#
# Velocity S-wave (km/s) = 3.44264 3.58531 3.51470
# Velocity P-wave (km/s) = 6.98892 7.11624 7.05287
#
# Compressibility (1/GPa) = 0.01591611
#
# Stress axis : x y z
#
# Youngs Moduli (GPa) = 55.22047 67.05103 85.60071
#
# Poissons Ratio (x) = 0.46071 0.36133
# Poissons Ratio (y) = 0.37942 0.28270
# Poissons Ratio (z) = 0.23309 0.22144
#
# Static dielectric constant tensor:
#      x y z
#    x 3.729490 0.000000 -0.204320 
#    y 0.000000 3.228770 0.000000 
#    z -0.204320 0.000000 3.851610 
# 
# 
# High freq. dielectric constant tensor:
#      x y z
#    x 1.745570 0.000000 -0.000220 
#    y 0.000000 1.709630 0.000000 
#    z -0.000220 0.000000 1.750450 
# 
# From -- ./inp_files/34613.got.cif
#   From: 2010.06.25/outbox.cif.g09.slc.cpg/sg13_18_cif.got.tgz:34613.got - 2010.06.28 04:50:58.
