data_PCOD8119398
_publ_section_title
;
Structure prediction by ZEFSAII (Michael W. Deem and Ramdas Pophale) SiO2 
 PCOD8119398
Probable space group: P 2/C
;
_chemical_formula_sum "Si O2"
_cell_formula_units_Z 30
_cell_length_a 5.809463
_cell_length_b 14.900327
_cell_length_c 18.418455
_cell_angle_alpha 90.000000
_cell_angle_beta 120.927811
_cell_angle_gamma 90.000000
_cell_volume 1367.662358
_symmetry_space_group_name_H-M "P 2/C"
_symmetry_group_IT_number 13
_symmetry_cell_setting 'monoclinic'
loop_
_space_group_symop_operation_xyz
x,y,z
-x,y,1/2-z
-x,-y,-z
x,-y,1/2+z
loop_
_atom_site_type_symbol
_atom_site_label
_atom_site_fract_x
_atom_site_fract_y
_atom_site_fract_z
Si Si1 0.228284 0.975269 0.661586
Si Si2 0.469265 0.761305 0.029071
Si Si3 0.041830 0.345844 0.903669
Si Si4 0.690978 0.169798 0.849896
Si Si5 0.554248 0.183701 0.387256
Si Si6 0.000000 0.121479 0.250000
Si Si7 0.173245 0.483566 0.204042
Si Si8 0.064250 0.660362 0.568990
O O1 0.500000 0.984162 0.750000
O O2 0.264270 0.901840 0.604357
O O3 0.997617 0.941563 0.678549
O O4 0.155173 0.074113 0.620221
O O5 0.654463 0.673098 0.073169
O O6 0.477588 0.820904 0.103061
O O7 0.563973 0.820229 0.976061
O O8 0.178176 0.728204 0.958944
O O9 0.904315 0.248765 0.879364
O O10 0.891917 0.413942 0.826622
O O11 0.046218 0.384437 0.986251
O O12 0.500000 0.175867 0.750000
O O13 0.264702 0.182404 0.300512
O O14 0.670576 0.278868 0.378695
O O15 0.500000 0.472495 0.250000
O O16 0.046493 0.417290 0.125042
O O17 0.000000 0.463603 0.250000
#
# Coordination Sequence:
#
# PCOD8119398 Si02
#       8
#     4   4   4   4   4   2   4   4
#     4   9  20  37  59  96 132 175 222 279 335 406
#     4  10  23  41  67  95 130 185 219 279 341 411
#     4  10  24  44  71  94 135 180 225 279 347 410
#     4  10  22  40  66  96 134 172 229 280 344 411
#     4  10  21  40  64  95 131 177 227 274 346 405
#     4  10  20  38  64  94 134 182 226 282 342 408
#     4  12  30  47  73 112 138 176 235 291 353 422
#     4  10  24  47  66  95 137 181 223 275 350 414
#
# _framework density 21.935237999999998
#
# number of rings (size 3 to 8) (size 9 to 14) (size 15 to 20)
#    0.000    1.867    0.000    1.600    9.333    6.933 
#    1.200    9.333    0.000    0.000    0.000    0.000 
#    0.000    0.000    0.000    0.000    0.000    0.000 
#
# Total GULP energy -371842.084485 kJ/mol
# GULP energy per Si atom -12394.736149 kJ/mol
# Density = 2.188531 g / cm^3
# Si number density = 21.935238 Si / 1000 Ang^3
#
#
#
# Elastic Constant Matrix: (Units=GPa)
#
#
# Indices 1 2 3 4 5 6 
#
# 1 114.0838 24.9424 42.1117 0.0000 -16.5647 0.0000
# 2 24.9424 82.7394 37.5059 0.0000 -12.5016 0.0000
# 3 42.1117 37.5059 95.1874 0.0000 -17.0097 0.0000
# 4 0.0000 0.0000 0.0000 28.6982 0.0000 -13.0258
# 5 -16.5647 -12.5016 -17.0097 0.0000 35.3791 0.0000
# 6 0.0000 0.0000 0.0000 -13.0258 0.0000 11.9381
#
#
#
# Elastic Compliance Matrix: (Units=1/GPa)
#
#
# Indices 1 2 3 4 5 6 
#
# 1 0.010840 -0.001090 -0.003860 0.000000 0.002835 0.000000
# 2 -0.001090 0.015053 -0.005021 0.000000 0.002395 0.000000
# 3 -0.003860 -0.005021 0.014825 0.000000 0.003546 0.000000
# 4 0.000000 0.000000 0.000000 0.069034 0.000000 0.075324
# 5 0.002835 0.002395 0.003546 0.000000 0.032144 0.000000
# 6 0.000000 0.000000 0.000000 0.075324 0.000000 0.165953
#
#
# Mechanical properties :
#
#
# Convention : Reuss Voigt Hill
#
# Bulk Modulus (GPa) = 48.13085 55.68120 51.90603
# Shear Modulus (GPa) = 14.93805 27.69979 21.31892
#
# Velocity S-wave (km/s) = 2.61244 3.55744 3.12092
# Velocity P-wave (km/s) = 5.57581 6.50487 6.05818
#
# Compressibility (1/GPa) = 0.02077669
#
# Stress axis : x y z
#
# Youngs Moduli (GPa) = 92.25005 66.43411 67.45242
#
# Poissons Ratio (x) = 0.07241 0.26035
# Poissons Ratio (y) = 0.10054 0.33867
# Poissons Ratio (z) = 0.35607 0.33356
#
# Static dielectric constant tensor:
#      x y z
#    x 4.337030 0.000000 -0.230320 
#    y 0.000000 3.943890 0.000000 
#    z -0.230320 0.000000 4.132030 
# 
# 
# High freq. dielectric constant tensor:
#      x y z
#    x 1.871880 0.000000 -0.008950 
#    y 0.000000 1.856910 0.000000 
#    z -0.008950 0.000000 1.864600 
# 
# From -- ./inp_files/61654.got.cif
#   From: 2010.06.25/outbox.cif.g09.slc.cpg/sg13_31_cif.got.tgz:61654.got - 2010.06.28 04:50:58.
