data_PCOD8119477
_publ_section_title
;
Structure prediction by ZEFSAII (Michael W. Deem and Ramdas Pophale) SiO2 
 PCOD8119477
Probable space group: P 2/C
;
_chemical_formula_sum "Si O2"
_cell_formula_units_Z 20
_cell_length_a 16.159252
_cell_length_b 8.680778
_cell_length_c 23.101136
_cell_angle_alpha 90.000000
_cell_angle_beta 18.405449
_cell_angle_gamma 90.000000
_cell_volume 1023.155987
_symmetry_space_group_name_H-M "P 2/C"
_symmetry_group_IT_number 13
_symmetry_cell_setting 'monoclinic'
loop_
_space_group_symop_operation_xyz
x,y,z
-x,y,1/2-z
-x,-y,-z
x,-y,1/2+z
loop_
_atom_site_type_symbol
_atom_site_label
_atom_site_fract_x
_atom_site_fract_y
_atom_site_fract_z
Si Si1 0.740571 0.153705 0.891046
Si Si2 0.244235 0.046345 0.741202
Si Si3 0.586880 0.709278 0.284966
Si Si4 0.575815 0.441827 0.387216
Si Si5 0.093345 0.746880 0.538550
O O1 0.807604 0.162170 0.778089
O O2 0.000000 0.097821 0.750000
O O3 0.640916 0.313683 0.984681
O O4 0.528148 0.023983 0.043096
O O5 0.261790 0.147339 0.787093
O O6 0.014764 0.919796 0.900157
O O7 0.573853 0.566695 0.337678
O O8 0.291709 0.752445 0.461402
O O9 0.760886 0.673049 0.113384
O O10 0.500000 0.500000 0.500000
O O11 0.859673 0.368096 0.207596
#
# Coordination Sequence:
#
# PCOD8119477 Si02
#       5
#     4   4   4   4   4
#     4  10  21  36  56  89 118 152 199 247 301 356
#     4  10  20  39  60  86 123 156 199 251 299 358
#     4  11  22  40  64  87 122 163 201 249 303 360
#     4  11  23  39  58  87 121 157 200 249 297 355
#     4  10  24  40  60  92 121 160 204 247 305 360
#
# _framework density 19.547360999999999
#
# number of rings (size 3 to 8) (size 9 to 14) (size 15 to 20)
#    0.000    1.600    2.000    2.400    2.800    0.000 
#    0.000    0.000    0.000    9.600    0.000    0.000 
#    0.000    0.000    0.000    0.000    0.000    0.000 
#
# Total GULP energy -247964.677835 kJ/mol
# GULP energy per Si atom -12398.233892 kJ/mol
# Density = 1.950287 g / cm^3
# Si number density = 19.547361 Si / 1000 Ang^3
#
#
#
# Elastic Constant Matrix: (Units=GPa)
#
#
# Indices 1 2 3 4 5 6 
#
# 1 113.1547 58.5388 50.3187 0.0000 -7.0997 0.0000
# 2 58.5388 110.7042 43.0195 0.0000 -1.9863 0.0000
# 3 50.3187 43.0195 100.5298 0.0000 -5.5946 0.0000
# 4 0.0000 0.0000 0.0000 20.9632 0.0000 9.5440
# 5 -7.0997 -1.9863 -5.5946 0.0000 38.0548 0.0000
# 6 0.0000 0.0000 0.0000 9.5440 0.0000 32.8461
#
#
#
# Elastic Compliance Matrix: (Units=1/GPa)
#
#
# Indices 1 2 3 4 5 6 
#
# 1 0.013774 -0.005530 -0.004437 0.000000 0.001629 0.000000
# 2 -0.005530 0.013055 -0.002862 0.000000 -0.000771 0.000000
# 3 -0.004437 -0.002862 0.013449 0.000000 0.001000 0.000000
# 4 0.000000 0.000000 0.000000 0.054975 0.000000 -0.015974
# 5 0.001629 -0.000771 0.001000 0.000000 0.026689 0.000000
# 6 0.000000 0.000000 0.000000 -0.015974 0.000000 0.035086
#
#
# Mechanical properties :
#
#
# Convention : Reuss Voigt Hill
#
# Bulk Modulus (GPa) = 68.39948 69.79363 69.09655
# Shear Modulus (GPa) = 26.65837 29.87361 28.26599
#
# Velocity S-wave (km/s) = 3.69695 3.91355 3.80679
# Velocity P-wave (km/s) = 7.30006 7.49690 7.39914
#
# Compressibility (1/GPa) = 0.01462000
#
# Stress axis : x y z
#
# Youngs Moduli (GPa) = 72.60297 76.59659 74.35738
#
# Poissons Ratio (x) = 0.42356 0.32994
# Poissons Ratio (y) = 0.40148 0.21280
# Poissons Ratio (z) = 0.32215 0.21921
#
# Static dielectric constant tensor:
#      x y z
#    x 3.713980 0.000000 -0.029750 
#    y 0.000000 3.693170 0.000000 
#    z -0.029750 0.000000 3.636290 
# 
# 
# High freq. dielectric constant tensor:
#      x y z
#    x 1.770100 0.000000 -0.001210 
#    y 0.000000 1.760040 0.000000 
#    z -0.001210 0.000000 1.768730 
# 
# From -- ./inp_files/28127.got.cif
#   From: 2010.06.25/outbox.cif.g09.slc.cpg/sg13_15_cif.got.tgz:28127.got - 2010.06.28 04:50:58.
