data_PCOD8119627
_publ_section_title
;
Structure prediction by ZEFSAII (Michael W. Deem and Ramdas Pophale) SiO2 
 PCOD8119627
Probable space group: P 2/C
;
_chemical_formula_sum "Si O2"
_cell_formula_units_Z 18
_cell_length_a 8.184392
_cell_length_b 7.454145
_cell_length_c 23.060801
_cell_angle_alpha 90.000000
_cell_angle_beta 37.605288
_cell_angle_gamma 90.000000
_cell_volume 858.507045
_symmetry_space_group_name_H-M "P 2/C"
_symmetry_group_IT_number 13
_symmetry_cell_setting 'monoclinic'
loop_
_space_group_symop_operation_xyz
x,y,z
-x,y,1/2-z
-x,-y,-z
x,-y,1/2+z
loop_
_atom_site_type_symbol
_atom_site_label
_atom_site_fract_x
_atom_site_fract_y
_atom_site_fract_z
Si Si1 0.607108 0.719959 0.312423
Si Si2 0.910272 0.739612 0.114469
Si Si3 0.791169 0.080478 0.426912
Si Si4 0.000000 0.994150 0.750000
Si Si5 0.655777 0.549701 0.013803
O O1 0.798631 0.655740 0.206288
O O2 0.318957 0.774374 0.367964
O O3 0.740287 0.885545 0.308519
O O4 0.556631 0.561822 0.373443
O O5 0.127634 0.599431 0.029607
O O6 0.031966 0.934221 0.090279
O O7 0.794883 0.257410 0.465280
O O8 0.500000 0.000000 0.500000
O O9 0.920687 0.126840 0.327575
O O10 0.500000 0.500000 0.000000
#
# Coordination Sequence:
#
# PCOD8119627 Si02
#       5
#     4   4   4   2   4
#     4  10  21  41  63  86 123 161 195 254 302 350
#     4  10  23  41  61  89 123 157 201 248 302 357
#     4  11  21  40  60  90 119 158 202 243 301 359
#     4  10  20  40  64  84 122 160 198 246 302 358
#     4  12  22  38  64  90 121 158 202 246 300 361
#
# _framework density 20.966631
#
# number of rings (size 3 to 8) (size 9 to 14) (size 15 to 20)
#    0.000    1.333    4.444    2.000    0.000    2.667 
#    0.000    8.889    0.000    0.000    0.000    0.000 
#    0.000    0.000    0.000    0.000    0.000    0.000 
#
# Total GULP energy -223197.301434 kJ/mol
# GULP energy per Si atom -12399.850080 kJ/mol
# Density = 2.091891 g / cm^3
# Si number density = 20.966631 Si / 1000 Ang^3
#
#
#
# Elastic Constant Matrix: (Units=GPa)
#
#
# Indices 1 2 3 4 5 6 
#
# 1 109.3825 23.2112 22.1765 0.0000 -12.5545 0.0000
# 2 23.2112 85.5012 30.2156 0.0000 1.4017 0.0000
# 3 22.1765 30.2156 86.3223 0.0000 8.0215 0.0000
# 4 0.0000 0.0000 0.0000 32.3180 0.0000 2.0588
# 5 -12.5545 1.4017 8.0215 0.0000 39.8400 0.0000
# 6 0.0000 0.0000 0.0000 2.0588 0.0000 25.3895
#
#
#
# Elastic Compliance Matrix: (Units=1/GPa)
#
#
# Indices 1 2 3 4 5 6 
#
# 1 0.010499 -0.002093 -0.002323 0.000000 0.003850 0.000000
# 2 -0.002093 0.013773 -0.004257 0.000000 -0.000287 0.000000
# 3 -0.002323 -0.004257 0.013987 0.000000 -0.003398 0.000000
# 4 0.000000 0.000000 0.000000 0.031103 0.000000 -0.002522
# 5 0.003850 -0.000287 -0.003398 0.000000 0.027008 0.000000
# 6 0.000000 0.000000 0.000000 -0.002522 0.000000 0.039591
#
#
# Mechanical properties :
#
#
# Convention : Reuss Voigt Hill
#
# Bulk Modulus (GPa) = 47.81198 48.04583 47.92890
# Shear Modulus (GPa) = 31.19622 33.21635 32.20629
#
# Velocity S-wave (km/s) = 3.86151 3.98458 3.92353
# Velocity P-wave (km/s) = 6.53721 6.64336 6.59050
#
# Compressibility (1/GPa) = 0.02091526
#
# Stress axis : x y z
#
# Youngs Moduli (GPa) = 95.24722 72.60686 71.49537
#
# Poissons Ratio (x) = 0.15193 0.16605
# Poissons Ratio (y) = 0.19931 0.30433
# Poissons Ratio (z) = 0.22121 0.30906
#
# Static dielectric constant tensor:
#      x y z
#    x 3.902980 0.000000 0.057140 
#    y 0.000000 4.587240 0.000000 
#    z 0.057140 0.000000 3.804190 
# 
# 
# High freq. dielectric constant tensor:
#      x y z
#    x 1.833240 0.000000 0.004740 
#    y 0.000000 1.790160 0.000000 
#    z 0.004740 0.000000 1.839440 
# 
# From -- ./inp_files/27743.got.cif
#   From: 2010.06.25/outbox.cif.g09.slc.cpg/sg13_14_cif.got.tgz:27743.got - 2010.06.28 04:50:58.
