data_PCOD8119100
_publ_section_title
;
Structure prediction by ZEFSAII (Michael W. Deem and Ramdas Pophale) SiO2 
 PCOD8119100
Probable space group: P 2/C
;
_chemical_formula_sum "Si O2"
_cell_formula_units_Z 24
_cell_length_a 6.066945
_cell_length_b 12.716308
_cell_length_c 17.049735
_cell_angle_alpha 90.000000
_cell_angle_beta 57.707325
_cell_angle_gamma 90.000000
_cell_volume 1111.923948
_symmetry_space_group_name_H-M "P 2/C"
_symmetry_group_IT_number 13
_symmetry_cell_setting 'monoclinic'
loop_
_space_group_symop_operation_xyz
x,y,z
-x,y,1/2-z
-x,-y,-z
x,-y,1/2+z
loop_
_atom_site_type_symbol
_atom_site_label
_atom_site_fract_x
_atom_site_fract_y
_atom_site_fract_z
Si Si1 0.998571 0.759676 0.496874
Si Si2 0.747014 0.361517 0.417679
Si Si3 0.178665 0.588084 0.079160
Si Si4 0.000000 0.713910 0.250000
Si Si5 0.438043 0.218850 0.171951
Si Si6 0.000000 0.950867 0.750000
Si Si7 0.791347 0.885084 0.181351
O O1 0.008432 0.651951 0.444421
O O2 0.705599 0.797483 0.572737
O O3 0.152877 0.734643 0.547381
O O4 0.137120 0.854172 0.421996
O O5 0.924254 0.467054 0.392018
O O6 0.466560 0.403607 0.492835
O O7 0.729466 0.315403 0.332735
O O8 0.186093 0.641163 0.162853
O O9 0.811808 0.782688 0.231751
O O10 0.500000 0.246841 0.250000
O O11 0.265463 0.114929 0.195651
O O12 0.987708 0.023790 0.674183
O O13 0.500000 0.928382 0.250000
#
# Coordination Sequence:
#
# PCOD8119100 Si02
#       7
#     4   4   4   2   4   2   4
#     4  10  21  38  63  91 121 156 195 240 293 350
#     4  10  20  37  59  85 122 160 196 238 284 344
#     4   9  19  34  56  89 124 159 195 231 281 342
#     4   9  18  33  54  84 120 153 190 237 284 340
#     4  11  24  42  60  84 118 157 200 247 295 349
#     4  11  24  43  62  82 116 151 194 251 304 358
#     4  10  21  39  63  88 115 149 193 246 300 354
#
# _framework density 21.584209000000001
#
# number of rings (size 3 to 8) (size 9 to 14) (size 15 to 20)
#    0.000    2.000    0.000    3.000    0.000    4.000 
#    0.000   10.000    0.000    0.000    0.000    0.000 
#    0.000    0.000    0.000    0.000    0.000    0.000 
#
# Total GULP energy -297496.152248 kJ/mol
# GULP energy per Si atom -12395.673010 kJ/mol
# Density = 2.153508 g / cm^3
# Si number density = 21.584209 Si / 1000 Ang^3
#
#
#
# Elastic Constant Matrix: (Units=GPa)
#
#
# Indices 1 2 3 4 5 6 
#
# 1 89.6220 45.4636 37.3972 0.0000 23.7097 0.0000
# 2 45.4636 122.9821 58.4343 0.0000 15.8639 0.0000
# 3 37.3972 58.4343 102.5904 0.0000 21.2511 0.0000
# 4 0.0000 0.0000 0.0000 35.8880 0.0000 -3.7878
# 5 23.7097 15.8639 21.2511 0.0000 30.3343 0.0000
# 6 0.0000 0.0000 0.0000 -3.7878 0.0000 25.3902
#
#
#
# Elastic Compliance Matrix: (Units=1/GPa)
#
#
# Indices 1 2 3 4 5 6 
#
# 1 0.016445 -0.004030 -0.001723 0.000000 -0.009539 0.000000
# 2 -0.004030 0.012204 -0.005630 0.000000 0.000711 0.000000
# 3 -0.001723 -0.005630 0.014848 0.000000 -0.006111 0.000000
# 4 0.000000 0.000000 0.000000 0.028310 0.000000 0.004223
# 5 -0.009539 0.000711 -0.006111 0.000000 0.044331 0.000000
# 6 0.000000 0.000000 0.000000 0.004223 0.000000 0.040015
#
#
# Mechanical properties :
#
#
# Convention : Reuss Voigt Hill
#
# Bulk Modulus (GPa) = 48.23640 66.42051 57.32846
# Shear Modulus (GPa) = 26.90634 29.91581 28.41107
#
# Velocity S-wave (km/s) = 3.53452 3.72695 3.63201
# Velocity P-wave (km/s) = 6.24929 7.02565 6.64881
#
# Compressibility (1/GPa) = 0.02073123
#
# Stress axis : x y z
#
# Youngs Moduli (GPa) = 60.80911 81.93888 67.34845
#
# Poissons Ratio (x) = 0.33022 0.11606
# Poissons Ratio (y) = 0.24506 0.37915
# Poissons Ratio (z) = 0.10479 0.46129
#
# Static dielectric constant tensor:
#      x y z
#    x 3.786090 0.000000 0.179690 
#    y 0.000000 4.195190 0.000000 
#    z 0.179690 0.000000 3.924650 
# 
# 
# High freq. dielectric constant tensor:
#      x y z
#    x 1.840700 0.000000 0.010940 
#    y 0.000000 1.849560 0.000000 
#    z 0.010940 0.000000 1.842700 
# 
# From -- ./inp_files/61082.got.cif
#   From: 2010.06.25/outbox.cif.g09.slc.cpg/sg13_31_cif.got.tgz:61082.got - 2010.06.28 04:50:58.
