data_PCOD8119508
_publ_section_title
;
Structure prediction by ZEFSAII (Michael W. Deem and Ramdas Pophale) SiO2 
 PCOD8119508
Probable space group: P 2/C
;
_chemical_formula_sum "Si O2"
_cell_formula_units_Z 22
_cell_length_a 11.682250
_cell_length_b 7.118536
_cell_length_c 21.336588
_cell_angle_alpha 90.000000
_cell_angle_beta 37.301745
_cell_angle_gamma 90.000000
_cell_volume 1075.285591
_symmetry_space_group_name_H-M "P 2/C"
_symmetry_group_IT_number 13
_symmetry_cell_setting 'monoclinic'
loop_
_space_group_symop_operation_xyz
x,y,z
-x,y,1/2-z
-x,-y,-z
x,-y,1/2+z
loop_
_atom_site_type_symbol
_atom_site_label
_atom_site_fract_x
_atom_site_fract_y
_atom_site_fract_z
Si Si1 0.214561 0.999305 0.887120
Si Si2 0.408311 0.301439 0.386742
Si Si3 0.000000 0.923667 0.750000
Si Si4 0.175262 0.226437 0.294468
Si Si5 0.330854 0.986335 0.026551
Si Si6 0.778535 0.701282 0.021108
O O1 0.331273 0.820239 0.862318
O O2 0.224539 0.977285 0.806840
O O3 0.286548 0.194926 0.885540
O O4 0.000000 0.000000 0.000000
O O5 0.632409 0.347167 0.284867
O O6 0.362597 0.190837 0.469621
O O7 0.300640 0.495528 0.438865
O O8 0.120330 0.795014 0.745699
O O9 0.139798 0.053108 0.648850
O O10 0.005337 0.316225 0.409910
O O11 0.311121 0.181242 0.997157
O O12 0.500000 0.000000 0.000000
#
# Coordination Sequence:
#
# PCOD8119508 Si02
#       6
#     4   4   2   4   4   4
#     4   9  20  40  63  87 121 161 203 253 310 362
#     4  11  21  40  64  93 124 159 208 258 309 366
#     4  10  20  40  62  88 124 166 204 250 310 364
#     4  10  20  39  63  87 127 166 202 253 309 367
#     4  10  20  40  62  87 122 165 202 252 305 368
#     4   9  22  40  61  92 121 161 205 256 307 362
#
# _framework density 20.459679999999999
#
# number of rings (size 3 to 8) (size 9 to 14) (size 15 to 20)
#    0.000    2.182    1.818    1.636    0.000    3.636 
#    3.273   13.636    0.000    0.000    0.000    0.000 
#    0.000    0.000    0.000    0.000    0.000    0.000 
#
# Total GULP energy -272542.092751 kJ/mol
# GULP energy per Si atom -12388.276943 kJ/mol
# Density = 2.041311 g / cm^3
# Si number density = 20.459680 Si / 1000 Ang^3
#
#
#
# Elastic Constant Matrix: (Units=GPa)
#
#
# Indices 1 2 3 4 5 6 
#
# 1 127.6167 43.3007 38.8653 0.0000 -7.7533 0.0000
# 2 43.3007 124.6672 43.7974 0.0000 -7.7242 0.0000
# 3 38.8653 43.7974 98.4725 0.0000 -17.8115 0.0000
# 4 0.0000 0.0000 0.0000 22.6624 0.0000 -8.5518
# 5 -7.7533 -7.7242 -17.8115 0.0000 44.1283 0.0000
# 6 0.0000 0.0000 0.0000 -8.5518 0.0000 14.6468
#
#
#
# Elastic Compliance Matrix: (Units=1/GPa)
#
#
# Indices 1 2 3 4 5 6 
#
# 1 0.009449 -0.002337 -0.002658 0.000000 0.000178 0.000000
# 2 -0.002337 0.010085 -0.003579 0.000000 -0.000090 0.000000
# 3 -0.002658 -0.003579 0.013590 0.000000 0.004392 0.000000
# 4 0.000000 0.000000 0.000000 0.056595 0.000000 0.033044
# 5 0.000178 -0.000090 0.004392 0.000000 0.024450 0.000000
# 6 0.000000 0.000000 0.000000 0.033044 0.000000 0.087568
#
#
# Mechanical properties :
#
#
# Convention : Reuss Voigt Hill
#
# Bulk Modulus (GPa) = 62.59292 66.96480 64.77886
# Shear Modulus (GPa) = 22.30043 31.27370 26.78707
#
# Velocity S-wave (km/s) = 3.30505 3.91391 3.62230
# Velocity P-wave (km/s) = 6.72489 7.29562 7.01606
#
# Compressibility (1/GPa) = 0.01597625
#
# Stress axis : x y z
#
# Youngs Moduli (GPa) = 105.82885 99.15668 73.58126
#
# Poissons Ratio (x) = 0.23176 0.19555
# Poissons Ratio (y) = 0.24735 0.26337
# Poissons Ratio (z) = 0.28125 0.35491
#
# Static dielectric constant tensor:
#      x y z
#    x 4.333140 0.000000 0.004730 
#    y 0.000000 3.426900 0.000000 
#    z 0.004730 0.000000 4.028320 
# 
# 
# High freq. dielectric constant tensor:
#      x y z
#    x 1.825930 0.000000 -0.006950 
#    y 0.000000 1.750470 0.000000 
#    z -0.006950 0.000000 1.816070 
# 
# From -- ./inp_files/58279.got.cif
#   From: 2010.06.25/outbox.cif.g09.slc.cpg/sg13_30_cif.got.tgz:58279.got - 2010.06.28 04:50:58.
