data_PCOD8119987
_publ_section_title
;
Structure prediction by ZEFSAII (Michael W. Deem and Ramdas Pophale) SiO2 
 PCOD8119987
Probable space group: P 2/C
;
_chemical_formula_sum "Si O2"
_cell_formula_units_Z 22
_cell_length_a 14.816756
_cell_length_b 11.426047
_cell_length_c 8.920054
_cell_angle_alpha 90.000000
_cell_angle_beta 133.186595
_cell_angle_gamma 90.000000
_cell_volume 1101.085011
_symmetry_space_group_name_H-M "P 2/C"
_symmetry_group_IT_number 13
_symmetry_cell_setting 'monoclinic'
loop_
_space_group_symop_operation_xyz
x,y,z
-x,y,1/2-z
-x,-y,-z
x,-y,1/2+z
loop_
_atom_site_type_symbol
_atom_site_label
_atom_site_fract_x
_atom_site_fract_y
_atom_site_fract_z
Si Si1 0.173559 0.446570 0.203576
Si Si2 0.451400 0.616110 0.025054
Si Si3 0.404880 0.159197 0.893989
Si Si4 0.000000 0.657418 0.250000
Si Si5 0.160979 0.285602 0.683083
Si Si6 0.500000 0.987407 0.250000
Si Si7 0.000000 0.352090 0.250000
O O1 0.301716 0.373995 0.346215
O O2 0.211977 0.581782 0.235861
O O3 0.104388 0.430719 0.284417
O O4 0.076588 0.419005 0.959942
O O5 0.500000 0.615287 0.250000
O O6 0.501658 0.730573 0.995665
O O7 0.500000 0.500000 0.000000
O O8 0.267530 0.195524 0.775234
O O9 0.405828 0.097492 0.732401
O O10 0.431656 0.066798 0.053187
O O11 0.903273 0.739101 0.229158
O O12 0.061438 0.265828 0.439362
#
# Coordination Sequence:
#
# PCOD8119987 Si02
#       7
#     4   4   4   2   4   2   2
#     4  11  21  35  59  92 143 167 210 246 320 410
#     4  12  26  39  63 105 139 164 207 274 342 396
#     4  11  24  45  69  92 127 169 225 275 334 383
#     4  10  23  36  58  99 132 183 206 242 327 406
#     4  11  20  37  61  91 132 166 211 256 315 398
#     4  10  26  48  66  92 116 180 230 272 332 378
#     4  10  21  36  56  93 136 181 196 246 321 410
#
# _framework density 19.980291000000001
#
# number of rings (size 3 to 8) (size 9 to 14) (size 15 to 20)
#    0.000    1.091    2.727    5.455    6.364    0.000 
#    0.000    0.000    0.000    3.273    0.000    0.000 
#    0.000    0.000    0.000    0.000    0.000    0.000 
#
# Total GULP energy -272724.757187 kJ/mol
# GULP energy per Si atom -12396.579872 kJ/mol
# Density = 1.993481 g / cm^3
# Si number density = 19.980291 Si / 1000 Ang^3
#
#
#
# Elastic Constant Matrix: (Units=GPa)
#
#
# Indices 1 2 3 4 5 6 
#
# 1 167.2280 70.3068 55.5265 0.0000 -6.9110 0.0000
# 2 70.3068 99.9251 27.4496 0.0000 -1.0128 0.0000
# 3 55.5265 27.4496 73.2554 0.0000 -5.7177 0.0000
# 4 0.0000 0.0000 0.0000 11.8986 0.0000 1.6030
# 5 -6.9110 -1.0128 -5.7177 0.0000 40.1649 0.0000
# 6 0.0000 0.0000 0.0000 1.6030 0.0000 17.6266
#
#
#
# Elastic Compliance Matrix: (Units=1/GPa)
#
#
# Indices 1 2 3 4 5 6 
#
# 1 0.010252 -0.005671 -0.005581 0.000000 0.000826 0.000000
# 2 -0.005671 0.014297 -0.001119 0.000000 -0.000775 0.000000
# 3 -0.005581 -0.001119 0.018428 0.000000 0.001635 0.000000
# 4 0.000000 0.000000 0.000000 0.085086 0.000000 -0.007738
# 5 0.000826 -0.000775 0.001635 0.000000 0.025253 0.000000
# 6 0.000000 0.000000 0.000000 -0.007738 0.000000 0.057436
#
#
# Mechanical properties :
#
#
# Convention : Reuss Voigt Hill
#
# Bulk Modulus (GPa) = 54.84154 71.88605 63.36380
# Shear Modulus (GPa) = 20.69770 26.41305 23.55538
#
# Velocity S-wave (km/s) = 3.22204 3.63981 3.43728
# Velocity P-wave (km/s) = 6.43036 7.32946 6.89458
#
# Compressibility (1/GPa) = 0.01823435
#
# Stress axis : x y z
#
# Youngs Moduli (GPa) = 97.54667 69.94253 54.26540
#
# Poissons Ratio (x) = 0.39668 0.30285
# Poissons Ratio (y) = 0.55323 0.06072
# Poissons Ratio (z) = 0.54439 0.07826
#
# Static dielectric constant tensor:
#      x y z
#    x 4.103440 0.000000 -0.202320 
#    y 0.000000 3.450840 0.000000 
#    z -0.202320 0.000000 3.795900 
# 
# 
# High freq. dielectric constant tensor:
#      x y z
#    x 1.806330 0.000000 -0.013990 
#    y 0.000000 1.743560 0.000000 
#    z -0.013990 0.000000 1.785890 
# 
# From -- ./inp_files/18472.got.cif
#   From: 2010.06.25/outbox.cif.g09.slc.cpg/sg13_10_cif.got.tgz:18472.got - 2010.06.28 04:50:58.
