data_PCOD8119607
_publ_section_title
;
Structure prediction by ZEFSAII (Michael W. Deem and Ramdas Pophale) SiO2 
 PCOD8119607
Probable space group: P 2/C
;
_chemical_formula_sum "Si O2"
_cell_formula_units_Z 28
_cell_length_a 14.127845
_cell_length_b 6.521672
_cell_length_c 16.486572
_cell_angle_alpha 90.000000
_cell_angle_beta 58.759192
_cell_angle_gamma 90.000000
_cell_volume 1298.759857
_symmetry_space_group_name_H-M "P 2/C"
_symmetry_group_IT_number 13
_symmetry_cell_setting 'monoclinic'
loop_
_space_group_symop_operation_xyz
x,y,z
-x,y,1/2-z
-x,-y,-z
x,-y,1/2+z
loop_
_atom_site_type_symbol
_atom_site_label
_atom_site_fract_x
_atom_site_fract_y
_atom_site_fract_z
Si Si1 0.166406 0.896084 0.401503
Si Si2 0.600720 0.971041 0.651895
Si Si3 0.550196 0.203900 0.008607
Si Si4 0.991533 0.170266 0.393410
Si Si5 0.134286 0.553942 0.286017
Si Si6 0.000000 0.138277 0.750000
Si Si7 0.373829 0.502082 0.154742
Si Si8 0.500000 0.645388 0.250000
O O1 0.168930 0.692252 0.346853
O O2 0.122996 0.808212 0.506664
O O3 0.283086 0.015894 0.352753
O O4 0.086436 0.074075 0.406361
O O5 0.500000 0.867500 0.750000
O O6 0.618519 0.843275 0.561101
O O7 0.566617 0.211245 0.655329
O O8 0.444279 0.339806 0.075003
O O9 0.623838 0.292758 0.902334
O O10 0.500000 0.000000 0.000000
O O11 0.034013 0.394005 0.345385
O O12 0.958196 0.013398 0.338017
O O13 0.245556 0.431017 0.212552
O O14 0.100243 0.714377 0.231522
O O15 0.417578 0.518564 0.228546
#
# Coordination Sequence:
#
# PCOD8119607 Si02
#       8
#     4   4   4   4   4   2   4   2
#     4  10  22  42  64  96 126 167 225 273 324 398
#     4  10  21  39  67  93 133 172 213 273 330 396
#     4  11  24  43  62  97 137 173 217 267 327 398
#     4  10  23  41  66  92 129 173 218 276 331 386
#     4  11  22  42  67  93 130 171 219 278 330 387
#     4  10  24  42  62  94 130 164 228 264 332 398
#     4  11  25  41  66  97 136 175 222 273 327 398
#     4  10  20  40  62 100 126 170 224 258 328 398
#
# _framework density 21.559027
#
# number of rings (size 3 to 8) (size 9 to 14) (size 15 to 20)
#    0.429    1.143    2.857    0.857    5.000    1.143 
#    2.571    0.000    0.000    0.000    0.000    0.000 
#    0.000    0.000    0.000    0.000    0.000    0.000 
#
# Total GULP energy -346919.327359 kJ/mol
# GULP energy per Si atom -12389.975977 kJ/mol
# Density = 2.150996 g / cm^3
# Si number density = 21.559027 Si / 1000 Ang^3
#
#
#
# Elastic Constant Matrix: (Units=GPa)
#
#
# Indices 1 2 3 4 5 6 
#
# 1 103.5671 32.0907 59.5749 0.0000 2.0204 0.0000
# 2 32.0907 84.5641 26.2176 0.0000 6.5628 0.0000
# 3 59.5749 26.2176 99.8227 0.0000 1.4413 0.0000
# 4 0.0000 0.0000 0.0000 24.4419 0.0000 1.6597
# 5 2.0204 6.5628 1.4413 0.0000 35.6162 0.0000
# 6 0.0000 0.0000 0.0000 1.6597 0.0000 19.9975
#
#
#
# Elastic Compliance Matrix: (Units=1/GPa)
#
#
# Indices 1 2 3 4 5 6 
#
# 1 0.015496 -0.003286 -0.008386 0.000000 0.000066 0.000000
# 2 -0.003286 0.013751 -0.001618 0.000000 -0.002282 0.000000
# 3 -0.008386 -0.001618 0.015446 0.000000 0.000149 0.000000
# 4 0.000000 0.000000 0.000000 0.041145 0.000000 -0.003415
# 5 0.000066 -0.002282 0.000149 0.000000 0.028488 0.000000
# 6 0.000000 0.000000 0.000000 -0.003415 0.000000 0.050290
#
#
# Mechanical properties :
#
#
# Convention : Reuss Voigt Hill
#
# Bulk Modulus (GPa) = 55.20795 58.19114 56.69955
# Shear Modulus (GPa) = 25.35075 27.34919 26.34997
#
# Velocity S-wave (km/s) = 3.43283 3.56557 3.49983
# Velocity P-wave (km/s) = 6.43240 6.63334 6.53364
#
# Compressibility (1/GPa) = 0.01811333
#
# Stress axis : x y z
#
# Youngs Moduli (GPa) = 64.53073 72.72283 64.74362
#
# Poissons Ratio (x) = 0.23895 0.54297
# Poissons Ratio (y) = 0.21203 0.10473
# Poissons Ratio (z) = 0.54118 0.11764
#
# Static dielectric constant tensor:
#      x y z
#    x 3.678760 0.000000 -0.019660 
#    y 0.000000 4.139120 0.000000 
#    z -0.019660 0.000000 4.001970 
# 
# 
# High freq. dielectric constant tensor:
#      x y z
#    x 1.841540 0.000000 0.007620 
#    y 0.000000 1.846970 0.000000 
#    z 0.007620 0.000000 1.842640 
# 
# From -- ./inp_files/67313.got.cif
#   From: 2010.06.25/outbox.cif.g09.slc.cpg/sg13_34_cif.got.tgz:67313.got - 2010.06.28 04:50:58.
