data_PCOD8119298
_publ_section_title
;
Structure prediction by ZEFSAII (Michael W. Deem and Ramdas Pophale) SiO2 
 PCOD8119298
Probable space group: P 2/C
;
_chemical_formula_sum "Si O2"
_cell_formula_units_Z 30
_cell_length_a 19.787155
_cell_length_b 5.327236
_cell_length_c 28.012138
_cell_angle_alpha 90.000000
_cell_angle_beta 152.803576
_cell_angle_gamma 90.000000
_cell_volume 1349.547129
_symmetry_space_group_name_H-M "P 2/C"
_symmetry_group_IT_number 13
_symmetry_cell_setting 'monoclinic'
loop_
_space_group_symop_operation_xyz
x,y,z
-x,y,1/2-z
-x,-y,-z
x,-y,1/2+z
loop_
_atom_site_type_symbol
_atom_site_label
_atom_site_fract_x
_atom_site_fract_y
_atom_site_fract_z
Si Si1 0.852754 0.392096 0.771233
Si Si2 0.169726 0.262868 0.985812
Si Si3 0.593940 0.632204 0.380084
Si Si4 0.813470 0.872926 0.584743
Si Si5 0.849359 0.870541 0.713438
Si Si6 0.748436 0.616610 0.311323
Si Si7 0.215210 0.127040 0.114585
Si Si8 0.500000 0.022597 0.250000
O O1 0.780805 0.627203 0.697310
O O2 0.767007 0.373849 0.766740
O O3 0.028261 0.443391 0.889160
O O4 0.830376 0.125562 0.731091
O O5 0.199257 0.118763 0.955432
O O6 0.326972 0.397824 0.096701
O O7 0.132165 0.109026 0.010967
O O8 0.697298 0.671273 0.491552
O O9 0.425795 0.593663 0.288771
O O10 0.610182 0.855148 0.351996
O O11 0.770248 0.920225 0.612869
O O12 0.982011 0.784017 0.688416
O O13 0.833940 0.373202 0.386370
O O14 0.817889 0.869629 0.377873
O O15 0.391952 0.171168 0.217596
#
# Coordination Sequence:
#
# PCOD8119298 Si02
#       8
#     4   4   4   4   4   4   4   2
#     4  11  24  44  62  90 127 169 206 261 314 368
#     4  11  22  38  68  93 127 159 219 261 313 370
#     4  11  21  39  62  93 127 162 209 255 311 376
#     4  10  22  38  66  97 118 156 213 270 311 365
#     4  10  23  42  67  90 123 159 213 267 316 356
#     4  11  26  40  61  89 134 170 202 251 315 376
#     4  11  22  39  60  94 126 170 205 252 308 376
#     4  10  20  38  60  94 132 162 204 258 318 364
#
# _framework density 22.229679000000001
#
# number of rings (size 3 to 8) (size 9 to 14) (size 15 to 20)
#    0.000    1.333    2.667    3.200    3.733    2.667 
#    0.000    1.333    0.000    0.000    0.000    0.000 
#    0.000    0.000    0.000    0.000    0.000    0.000 
#
# Total GULP energy -371794.988460 kJ/mol
# GULP energy per Si atom -12393.166282 kJ/mol
# Density = 2.217908 g / cm^3
# Si number density = 22.229679 Si / 1000 Ang^3
#
#
#
# Elastic Constant Matrix: (Units=GPa)
#
#
# Indices 1 2 3 4 5 6 
#
# 1 117.6539 61.3246 29.6973 0.0000 -42.7592 0.0000
# 2 61.3246 147.7617 31.7465 0.0000 -29.7193 0.0000
# 3 29.6973 31.7465 78.5431 0.0000 -35.2078 0.0000
# 4 0.0000 0.0000 0.0000 20.0943 0.0000 -3.7594
# 5 -42.7592 -29.7193 -35.2078 0.0000 42.4841 0.0000
# 6 0.0000 0.0000 0.0000 -3.7594 0.0000 28.3554
#
#
#
# Elastic Compliance Matrix: (Units=1/GPa)
#
#
# Indices 1 2 3 4 5 6 
#
# 1 0.015221 -0.003896 0.002331 0.000000 0.014526 0.000000
# 2 -0.003896 0.008937 -0.001741 0.000000 0.000887 0.000000
# 3 0.002331 -0.001741 0.020779 0.000000 0.018348 0.000000
# 4 0.000000 0.000000 0.000000 0.051031 0.000000 0.006766
# 5 0.014526 0.000887 0.018348 0.000000 0.053985 0.000000
# 6 0.000000 0.000000 0.000000 0.006766 0.000000 0.036164
#
#
# Mechanical properties :
#
#
# Convention : Reuss Voigt Hill
#
# Bulk Modulus (GPa) = 26.09306 65.49950 45.79628
# Shear Modulus (GPa) = 24.33023 32.93278 28.63151
#
# Velocity S-wave (km/s) = 3.31190 3.85317 3.59275
# Velocity P-wave (km/s) = 5.13696 7.02316 6.15277
#
# Compressibility (1/GPa) = 0.03832437
#
# Stress axis : x y z
#
# Youngs Moduli (GPa) = 65.69775 111.89000 48.12507
#
# Poissons Ratio (x) = 0.43597 -0.11219
# Poissons Ratio (y) = 0.25598 0.08381
# Poissons Ratio (z) = -0.15315 0.19485
#
# Static dielectric constant tensor:
#      x y z
#    x 3.921760 0.000000 -0.236730 
#    y 0.000000 3.966260 0.000000 
#    z -0.236730 0.000000 4.051710 
# 
# 
# High freq. dielectric constant tensor:
#      x y z
#    x 1.869060 0.000000 -0.019010 
#    y 0.000000 1.878920 0.000000 
#    z -0.019010 0.000000 1.867410 
# 
# From -- ./inp_files/93410.got.cif
#   From: 2010.06.25/outbox.cif.g09.slc.cpg/sg13_47_cif.got.tgz:93410.got - 2010.06.28 04:50:58.
