data_PCOD8119482
_publ_section_title
;
Structure prediction by ZEFSAII (Michael W. Deem and Ramdas Pophale) SiO2 
 PCOD8119482
Probable space group: P 2/C
;
_chemical_formula_sum "Si O2"
_cell_formula_units_Z 30
_cell_length_a 9.602624
_cell_length_b 5.055393
_cell_length_c 27.443966
_cell_angle_alpha 90.000000
_cell_angle_beta 115.380227
_cell_angle_gamma 90.000000
_cell_volume 1203.682184
_symmetry_space_group_name_H-M "P 2/C"
_symmetry_group_IT_number 13
_symmetry_cell_setting 'monoclinic'
loop_
_space_group_symop_operation_xyz
x,y,z
-x,y,1/2-z
-x,-y,-z
x,-y,1/2+z
loop_
_atom_site_type_symbol
_atom_site_label
_atom_site_fract_x
_atom_site_fract_y
_atom_site_fract_z
Si Si1 0.642305 0.982851 0.200480
Si Si2 0.285748 0.507500 0.920418
Si Si3 0.500000 0.399738 0.750000
Si Si4 0.900167 0.693876 0.779670
Si Si5 0.688671 0.987658 0.893391
Si Si6 0.582446 0.202375 0.975340
Si Si7 0.232178 0.497784 0.147924
Si Si8 0.846946 0.966320 0.145525
O O1 0.727121 0.244204 0.235049
O O2 0.752504 0.846931 0.176971
O O3 0.627415 0.781410 0.242648
O O4 0.481114 0.057179 0.152607
O O5 0.454166 0.389923 0.930209
O O6 0.238163 0.757587 0.880845
O O7 0.162661 0.263417 0.897346
O O8 0.297639 0.608013 0.978043
O O9 0.597512 0.566282 0.803804
O O10 0.893858 0.510346 0.827103
O O11 0.000000 0.567582 0.750000
O O12 0.980872 0.967417 0.810581
O O13 0.678887 0.041019 0.949624
O O14 0.777708 0.222562 0.879573
O O15 0.791507 0.728752 0.896760
O O16 0.500000 0.000000 0.000000
#
# Coordination Sequence:
#
# PCOD8119482 Si02
#       8
#     4   4   2   4   4   4   4   4
#     4  10  20  39  60  95 128 172 221 261 335 379
#     4  11  23  40  64 100 130 162 219 272 344 391
#     4  10  22  38  66  92 138 176 220 288 328 406
#     4  10  23  43  68  92 134 188 235 270 314 399
#     4  11  24  38  68  97 136 165 210 287 339 398
#     4  11  23  40  71 103 134 164 214 284 352 406
#     4  11  24  41  60  95 131 176 221 268 337 386
#     4  11  24  40  64  94 135 174 219 279 317 399
#
# _framework density 24.923521999999998
#
# number of rings (size 3 to 8) (size 9 to 14) (size 15 to 20)
#    0.000    1.333    2.667    2.400    5.600    4.800 
#    0.000    6.000    0.000    4.800    0.000    0.000 
#    0.000    0.000    0.000    0.000    0.000    0.000 
#
# Total GULP energy -371841.337911 kJ/mol
# GULP energy per Si atom -12394.711264 kJ/mol
# Density = 2.486679 g / cm^3
# Si number density = 24.923522 Si / 1000 Ang^3
#
#
#
# Elastic Constant Matrix: (Units=GPa)
#
#
# Indices 1 2 3 4 5 6 
#
# 1 94.1010 29.9340 29.9047 0.0000 -31.4440 0.0000
# 2 29.9340 109.2189 25.2891 0.0000 -8.8094 0.0000
# 3 29.9047 25.2891 81.7624 0.0000 -16.1636 0.0000
# 4 0.0000 0.0000 0.0000 8.4661 0.0000 18.5381
# 5 -31.4440 -8.8094 -16.1636 0.0000 39.9881 0.0000
# 6 0.0000 0.0000 0.0000 18.5381 0.0000 11.7950
#
#
#
# Elastic Compliance Matrix: (Units=1/GPa)
#
#
# Indices 1 2 3 4 5 6 
#
# 1 0.016071 -0.002871 -0.002844 0.000000 0.010855 0.000000
# 2 -0.002871 0.010413 -0.002352 0.000000 -0.000914 0.000000
# 3 -0.002844 -0.002352 0.014622 0.000000 0.003156 0.000000
# 4 0.000000 0.000000 0.000000 -0.048379 0.000000 0.076037
# 5 0.010855 -0.000914 0.003156 0.000000 0.034618 0.000000
# 6 0.000000 0.000000 0.000000 0.076037 0.000000 -0.034725
#
#
# Mechanical properties :
#
#
# Convention : Reuss Voigt Hill
#
# Bulk Modulus (GPa) = 40.04165 50.59308 45.31737
# Shear Modulus (GPa) = 292.77929 25.38013 159.07971
#
# Velocity S-wave (km/s) = 10.85017 3.19457 7.99786
# Velocity P-wave (km/s) = 13.15556 5.82670 10.17397
#
# Compressibility (1/GPa) = 0.02497400
#
# Stress axis : x y z
#
# Youngs Moduli (GPa) = 62.22311 96.02940 68.38985
#
# Poissons Ratio (x) = 0.27566 0.19452
# Poissons Ratio (y) = 0.17861 0.16083
# Poissons Ratio (z) = 0.17698 0.22582
#
# Static dielectric constant tensor:
#      x y z
#    x 4.282050 0.000000 -0.082950 
#    y 0.000000 4.381320 0.000000 
#    z -0.082950 0.000000 4.724010 
# 
# 
# High freq. dielectric constant tensor:
#      x y z
#    x 1.968070 0.000000 -0.009080 
#    y 0.000000 1.995380 0.000000 
#    z -0.009080 0.000000 1.985860 
# 
# From -- ./inp_files/95681.got.cif
#   From: 2010.06.25/outbox.cif.g09.slc.cpg/sg13_48_cif.got.tgz:95681.got - 2010.06.28 04:50:58.
