data_PCOD8119309
_publ_section_title
;
Structure prediction by ZEFSAII (Michael W. Deem and Ramdas Pophale) SiO2 
 PCOD8119309
Probable space group: P 2/C
;
_chemical_formula_sum "Si O2"
_cell_formula_units_Z 30
_cell_length_a 12.829081
_cell_length_b 15.590409
_cell_length_c 9.802160
_cell_angle_alpha 90.000000
_cell_angle_beta 125.838482
_cell_angle_gamma 90.000000
_cell_volume 1589.349282
_symmetry_space_group_name_H-M "P 2/C"
_symmetry_group_IT_number 13
_symmetry_cell_setting 'monoclinic'
loop_
_space_group_symop_operation_xyz
x,y,z
-x,y,1/2-z
-x,-y,-z
x,-y,1/2+z
loop_
_atom_site_type_symbol
_atom_site_label
_atom_site_fract_x
_atom_site_fract_y
_atom_site_fract_z
Si Si1 0.644594 0.569736 0.334470
Si Si2 0.609606 0.684234 0.053130
Si Si3 0.763990 0.607688 0.941109
Si Si4 0.682388 0.311320 0.112733
Si Si5 0.000000 0.705645 0.250000
Si Si6 0.811635 0.815349 0.289126
Si Si7 0.145120 0.170672 0.361447
Si Si8 0.088144 0.987893 0.200358
O O1 0.500000 0.534589 0.250000
O O2 0.652558 0.608032 0.188567
O O3 0.748785 0.495071 0.437472
O O4 0.680305 0.645652 0.463664
O O5 0.680436 0.772745 0.140438
O O6 0.646700 0.652729 0.931118
O O7 0.460710 0.707072 0.945669
O O8 0.754707 0.628361 0.774671
O O9 0.898545 0.641292 0.102743
O O10 0.761677 0.223675 0.165420
O O11 0.933238 0.764475 0.315577
O O12 0.810294 0.818556 0.450434
O O13 0.805347 0.915011 0.240596
O O14 0.000000 0.205786 0.250000
O O15 0.152112 0.075136 0.304276
O O16 0.000000 0.948740 0.250000
O O17 0.000000 0.000000 0.000000
#
# Coordination Sequence:
#
# PCOD8119309 Si02
#       8
#     4   4   4   4   2   4   4   4
#     4  10  20  38  61  86 117 162 206 246 293 350
#     4  10  22  38  62  87 120 161 200 248 303 342
#     4  11  22  38  59  89 122 156 208 252 291 353
#     4  11  22  39  63  89 118 160 204 247 293 361
#     4  10  24  38  60  88 128 162 190 248 316 336
#     4  11  20  39  59  87 121 154 194 247 294 361
#     4  11  22  37  61  89 117 151 201 239 299 356
#     4  11  21  35  61  89 116 150 199 244 288 358
#
# _framework density 18.87565
#
# number of rings (size 3 to 8) (size 9 to 14) (size 15 to 20)
#    0.000    1.333    4.667    2.800    0.000    2.133 
#    1.200    4.000    0.000    0.000    0.000    0.000 
#    0.000    0.000    0.000    0.000    0.000    0.000 
#
# Total GULP energy -371923.755064 kJ/mol
# GULP energy per Si atom -12397.458502 kJ/mol
# Density = 1.883269 g / cm^3
# Si number density = 18.875650 Si / 1000 Ang^3
#
#
#
# Elastic Constant Matrix: (Units=GPa)
#
#
# Indices 1 2 3 4 5 6 
#
# 1 79.4997 39.5321 14.2260 0.0000 13.1143 0.0000
# 2 39.5321 103.7055 18.3124 0.0000 18.3690 0.0000
# 3 14.2260 18.3124 64.2854 0.0000 -0.3262 0.0000
# 4 0.0000 0.0000 0.0000 12.7480 0.0000 -7.0363
# 5 13.1143 18.3690 -0.3262 0.0000 29.1382 0.0000
# 6 0.0000 0.0000 0.0000 -7.0363 0.0000 24.4445
#
#
#
# Elastic Compliance Matrix: (Units=1/GPa)
#
#
# Indices 1 2 3 4 5 6 
#
# 1 0.016153 -0.005048 -0.002157 0.000000 -0.004112 0.000000
# 2 -0.005048 0.013100 -0.002645 0.000000 -0.006016 0.000000
# 3 -0.002157 -0.002645 0.016801 0.000000 0.002827 0.000000
# 4 0.000000 0.000000 0.000000 0.093261 0.000000 0.026845
# 5 -0.004112 -0.006016 0.002827 0.000000 0.039994 0.000000
# 6 0.000000 0.000000 0.000000 0.026845 0.000000 0.048636
#
#
# Mechanical properties :
#
#
# Convention : Reuss Voigt Hill
#
# Bulk Modulus (GPa) = 37.94713 43.51463 40.73088
# Shear Modulus (GPa) = 19.49846 24.96081 22.22964
#
# Velocity S-wave (km/s) = 3.21751 3.64040 3.43547
# Velocity P-wave (km/s) = 5.82671 6.38540 6.11244
#
# Compressibility (1/GPa) = 0.02635245
#
# Stress axis : x y z
#
# Youngs Moduli (GPa) = 61.90666 76.33775 59.52079
#
# Poissons Ratio (x) = 0.38538 0.12841
# Poissons Ratio (y) = 0.31252 0.15743
# Poissons Ratio (z) = 0.13356 0.20191
#
# Static dielectric constant tensor:
#      x y z
#    x 3.511720 0.000000 -0.165670 
#    y 0.000000 3.684780 0.000000 
#    z -0.165670 0.000000 3.658640 
# 
# 
# High freq. dielectric constant tensor:
#      x y z
#    x 1.725730 0.000000 -0.017590 
#    y 0.000000 1.733660 0.000000 
#    z -0.017590 0.000000 1.744650 
# 
# From -- ./inp_files/16814.got.cif
#   From: 2010.06.25/outbox.cif.g09.slc.cpg/sg13_9_cif.got.tgz:16814.got - 2010.06.28 04:50:58.
