data_PCOD8119704
_publ_section_title
;
Structure prediction by ZEFSAII (Michael W. Deem and Ramdas Pophale) SiO2 
 PCOD8119704
Probable space group: P 2/C
;
_chemical_formula_sum "Si O2"
_cell_formula_units_Z 26
_cell_length_a 13.878847
_cell_length_b 6.483656
_cell_length_c 30.964331
_cell_angle_alpha 90.000000
_cell_angle_beta 26.228110
_cell_angle_gamma 90.000000
_cell_volume 1231.414511
_symmetry_space_group_name_H-M "P 2/C"
_symmetry_group_IT_number 13
_symmetry_cell_setting 'monoclinic'
loop_
_space_group_symop_operation_xyz
x,y,z
-x,y,1/2-z
-x,-y,-z
x,-y,1/2+z
loop_
_atom_site_type_symbol
_atom_site_label
_atom_site_fract_x
_atom_site_fract_y
_atom_site_fract_z
Si Si1 0.714688 0.423017 0.135604
Si Si2 0.877184 0.189335 0.528307
Si Si3 0.330899 0.185078 0.610054
Si Si4 0.622696 0.847179 0.590095
Si Si5 0.255061 0.037354 0.546699
Si Si6 0.148022 0.128378 0.250904
Si Si7 0.000000 0.463932 0.250000
O O1 0.500000 0.379391 0.250000
O O2 0.749379 0.667317 0.114434
O O3 0.701030 0.316833 0.093875
O O4 0.931620 0.327430 0.071593
O O5 0.695580 0.085683 0.570586
O O6 0.000000 0.000000 0.500000
O O7 0.580179 0.159319 0.526521
O O8 0.225035 0.407702 0.660048
O O9 0.331152 0.153871 0.558820
O O10 0.186898 0.017372 0.693825
O O11 0.364108 0.823675 0.690766
O O12 0.726431 0.803909 0.501083
O O13 0.005355 0.972755 0.651324
O O14 0.021282 0.329656 0.284783
#
# Coordination Sequence:
#
# PCOD8119704 Si02
#       7
#     4   4   4   4   4   4   2
#     4  10  22  44  69  98 126 162 212 258 316 399
#     4   9  21  45  67  95 127 164 206 252 323 394
#     4  10  21  40  60  86 122 177 217 257 313 366
#     4  10  24  40  64  97 127 163 210 264 322 383
#     4  10  20  41  61  86 130 165 211 269 309 366
#     4  11  22  41  58  93 129 166 220 256 311 384
#     4  12  20  38  62  86 126 172 226 258 306 380
#
# _framework density 21.11393
#
# number of rings (size 3 to 8) (size 9 to 14) (size 15 to 20)
#    0.000    1.846    3.077    0.000    2.154    5.538 
#    8.308    0.000    0.000    0.000    0.000    0.000 
#    0.000    0.000    0.000    0.000    0.000    0.000 
#
# Total GULP energy -322123.538775 kJ/mol
# GULP energy per Si atom -12389.366876 kJ/mol
# Density = 2.106587 g / cm^3
# Si number density = 21.113930 Si / 1000 Ang^3
#
#
#
# Elastic Constant Matrix: (Units=GPa)
#
#
# Indices 1 2 3 4 5 6 
#
# 1 77.7728 30.3838 29.8727 0.0000 -3.1829 0.0000
# 2 30.3838 87.6195 26.9321 0.0000 4.3531 0.0000
# 3 29.8727 26.9321 128.9185 0.0000 11.9469 0.0000
# 4 0.0000 0.0000 0.0000 26.3357 0.0000 -6.5294
# 5 -3.1829 4.3531 11.9469 0.0000 24.9072 0.0000
# 6 0.0000 0.0000 0.0000 -6.5294 0.0000 27.3857
#
#
#
# Elastic Compliance Matrix: (Units=1/GPa)
#
#
# Indices 1 2 3 4 5 6 
#
# 1 0.016138 -0.004852 -0.003135 0.000000 0.004414 0.000000
# 2 -0.004852 0.013676 -0.001522 0.000000 -0.002280 0.000000
# 3 -0.003135 -0.001522 0.009224 0.000000 -0.004559 0.000000
# 4 0.000000 0.000000 0.000000 0.040357 0.000000 0.009622
# 5 0.004414 -0.002280 -0.004559 0.000000 0.043298 0.000000
# 6 0.000000 0.000000 0.000000 0.009622 0.000000 0.038810
#
#
# Mechanical properties :
#
#
# Convention : Reuss Voigt Hill
#
# Bulk Modulus (GPa) = 49.94631 52.07646 51.01138
# Shear Modulus (GPa) = 26.71029 29.53387 28.12208
#
# Velocity S-wave (km/s) = 3.56062 3.74409 3.65351
# Velocity P-wave (km/s) = 6.37268 6.58855 6.48151
#
# Compressibility (1/GPa) = 0.02002150
#
# Stress axis : x y z
#
# Youngs Moduli (GPa) = 61.96449 73.11832 108.41761
#
# Poissons Ratio (x) = 0.35477 0.33989
# Poissons Ratio (y) = 0.30065 0.16496
# Poissons Ratio (z) = 0.19426 0.11125
#
# Static dielectric constant tensor:
#      x y z
#    x 3.956780 0.000000 -0.279020 
#    y 0.000000 3.841630 0.000000 
#    z -0.279020 0.000000 3.998640 
# 
# 
# High freq. dielectric constant tensor:
#      x y z
#    x 1.824130 0.000000 -0.018670 
#    y 0.000000 1.810100 0.000000 
#    z -0.018670 0.000000 1.833820 
# 
# From -- ./inp_files/96842.got.cif
#   From: 2010.06.25/outbox.cif.g09.slc.cpg/sg13_49_cif.got.tgz:96842.got - 2010.06.28 04:50:58.
