data_PCOD8119585
_publ_section_title
;
Structure prediction by ZEFSAII (Michael W. Deem and Ramdas Pophale) SiO2 
 PCOD8119585
Probable space group: P 2/C
;
_chemical_formula_sum "Si O2"
_cell_formula_units_Z 28
_cell_length_a 14.974613
_cell_length_b 12.175278
_cell_length_c 9.131120
_cell_angle_alpha 90.000000
_cell_angle_beta 63.543971
_cell_angle_gamma 90.000000
_cell_volume 1490.444272
_symmetry_space_group_name_H-M "P 2/C"
_symmetry_group_IT_number 13
_symmetry_cell_setting 'monoclinic'
loop_
_space_group_symop_operation_xyz
x,y,z
-x,y,1/2-z
-x,-y,-z
x,-y,1/2+z
loop_
_atom_site_type_symbol
_atom_site_label
_atom_site_fract_x
_atom_site_fract_y
_atom_site_fract_z
Si Si1 0.899644 0.391659 0.747337
Si Si2 0.425021 0.498692 0.425617
Si Si3 0.714024 0.301205 0.041522
Si Si4 0.099344 0.372551 0.106481
Si Si5 0.554493 0.860023 0.076045
Si Si6 0.284943 0.312485 0.123035
Si Si7 0.415383 0.897329 0.919026
O O1 0.908340 0.389815 0.563351
O O2 0.882019 0.513683 0.820840
O O3 0.000000 0.343763 0.750000
O O4 0.805997 0.319183 0.864732
O O5 0.500000 0.543638 0.250000
O O6 0.500000 0.500000 0.500000
O O7 0.380650 0.378239 0.426053
O O8 0.332699 0.577396 0.523926
O O9 0.747630 0.325233 0.183996
O O10 0.683280 0.174683 0.037422
O O11 0.189577 0.291595 0.087520
O O12 0.000000 0.319696 0.250000
O O13 0.500000 0.798119 0.250000
O O14 0.607447 0.973508 0.090221
O O15 0.638398 0.787546 0.939337
O O16 0.458294 0.883861 0.048633
O O17 0.500000 0.852291 0.750000
#
# Coordination Sequence:
#
# PCOD8119585 Si02
#       7
#     4   4   4   4   4   4   4
#     4  11  23  40  61  85 115 153 195 241 292 352
#     4  12  24  35  51  81 121 157 191 226 283 347
#     4  12  23  38  59  83 118 159 194 239 295 348
#     4  11  23  40  61  85 116 151 196 242 291 351
#     4  10  22  37  60  86 117 155 206 246 285 343
#     4  12  23  38  58  85 117 157 196 240 293 346
#     4  10  20  40  60  83 116 162 201 242 289 343
#
# _framework density 18.786344
#
# number of rings (size 3 to 8) (size 9 to 14) (size 15 to 20)
#    0.000    0.857    4.286    5.143    4.000    0.000 
#    0.000    0.000    0.000    0.857    0.000    4.000 
#    0.000    0.000    0.000    0.000    0.000    0.000 
#
# Total GULP energy -347045.656584 kJ/mol
# GULP energy per Si atom -12394.487735 kJ/mol
# Density = 1.874359 g / cm^3
# Si number density = 18.786344 Si / 1000 Ang^3
#
#
#
# Elastic Constant Matrix: (Units=GPa)
#
#
# Indices 1 2 3 4 5 6 
#
# 1 108.3661 15.6149 42.5689 0.0000 9.4680 0.0000
# 2 15.6149 53.4169 13.0278 0.0000 -1.5555 0.0000
# 3 42.5689 13.0278 144.3399 0.0000 13.3097 0.0000
# 4 0.0000 0.0000 0.0000 17.6084 0.0000 0.2824
# 5 9.4680 -1.5555 13.3097 0.0000 39.2321 0.0000
# 6 0.0000 0.0000 0.0000 0.2824 0.0000 19.0890
#
#
#
# Elastic Compliance Matrix: (Units=1/GPa)
#
#
# Indices 1 2 3 4 5 6 
#
# 1 0.010851 -0.002539 -0.002808 0.000000 -0.001767 0.000000
# 2 -0.002539 0.019809 -0.001206 0.000000 0.001807 0.000000
# 3 -0.002808 -0.001206 0.008059 0.000000 -0.002104 0.000000
# 4 0.000000 0.000000 0.000000 0.056805 0.000000 -0.000840
# 5 -0.001767 0.001807 -0.002104 0.000000 0.026701 0.000000
# 6 0.000000 0.000000 0.000000 -0.000840 0.000000 0.052399
#
#
# Mechanical properties :
#
#
# Convention : Reuss Voigt Hill
#
# Bulk Modulus (GPa) = 39.04049 49.83844 44.43947
# Shear Modulus (GPa) = 25.47535 30.84664 28.16100
#
# Velocity S-wave (km/s) = 3.68646 4.05652 3.87591
# Velocity P-wave (km/s) = 6.24071 6.96614 6.61338
#
# Compressibility (1/GPa) = 0.02561443
#
# Stress axis : x y z
#
# Youngs Moduli (GPa) = 92.15504 50.48085 124.08219
#
# Poissons Ratio (x) = 0.12815 0.34845
# Poissons Ratio (y) = 0.23395 0.14963
# Poissons Ratio (z) = 0.25879 0.06088
#
# Static dielectric constant tensor:
#      x y z
#    x 3.682580 0.000000 0.004240 
#    y 0.000000 3.240460 0.000000 
#    z 0.004240 0.000000 3.693660 
# 
# 
# High freq. dielectric constant tensor:
#      x y z
#    x 1.729930 0.000000 0.010660 
#    y 0.000000 1.697710 0.000000 
#    z 0.010660 0.000000 1.751720 
# 
# From -- ./inp_files/18734.got.cif
#   From: 2010.06.25/outbox.cif.g09.slc.cpg/sg13_10_cif.got.tgz:18734.got - 2010.06.28 04:50:58.
