data_PCOD8119924
_publ_section_title
;
Structure prediction by ZEFSAII (Michael W. Deem and Ramdas Pophale) SiO2 
 PCOD8119924
Probable space group: P 2/C
;
_chemical_formula_sum "Si O2"
_cell_formula_units_Z 20
_cell_length_a 7.199108
_cell_length_b 5.182786
_cell_length_c 25.031549
_cell_angle_alpha 90.000000
_cell_angle_beta 75.434682
_cell_angle_gamma 90.000000
_cell_volume 903.946941
_symmetry_space_group_name_H-M "P 2/C"
_symmetry_group_IT_number 13
_symmetry_cell_setting 'monoclinic'
loop_
_space_group_symop_operation_xyz
x,y,z
-x,y,1/2-z
-x,-y,-z
x,-y,1/2+z
loop_
_atom_site_type_symbol
_atom_site_label
_atom_site_fract_x
_atom_site_fract_y
_atom_site_fract_z
Si Si1 0.687261 0.026184 0.201595
Si Si2 0.720001 0.074019 0.481025
Si Si3 0.258374 0.404841 0.586305
Si Si4 0.888157 0.534893 0.169151
Si Si5 0.331078 0.772996 0.403382
O O1 0.500000 0.068002 0.250000
O O2 0.827892 0.267557 0.200514
O O3 0.803755 0.769360 0.211386
O O4 0.626643 0.998314 0.143384
O O5 0.748819 0.341005 0.448708
O O6 0.787196 0.107659 0.537809
O O7 0.500000 0.000000 0.500000
O O8 0.823007 0.839242 0.442249
O O9 0.471631 0.357795 0.592079
O O10 0.118270 0.444362 0.647321
O O11 0.799118 0.553669 0.115425
#
# Coordination Sequence:
#
# PCOD8119924 Si02
#       5
#     4   4   4   4   4
#     4  10  22  42  63  81 117 155 198 251 297 342
#     4  10  21  35  59  89 121 158 188 231 289 358
#     4  11  22  38  60  88 125 148 193 241 284 354
#     4  10  23  38  61  88 116 150 200 239 293 349
#     4   9  23  37  63  81 121 156 193 228 301 340
#
# _framework density 22.125195999999999
#
# number of rings (size 3 to 8) (size 9 to 14) (size 15 to 20)
#    1.200    0.800    0.000    4.200    8.400    1.600 
#    0.000    1.000    0.000    0.000    0.000    0.000 
#    0.000    0.000    0.000    0.000    0.000    0.000 
#
# Total GULP energy -247842.548489 kJ/mol
# GULP energy per Si atom -12392.127424 kJ/mol
# Density = 2.207484 g / cm^3
# Si number density = 22.125196 Si / 1000 Ang^3
#
#
#
# Elastic Constant Matrix: (Units=GPa)
#
#
# Indices 1 2 3 4 5 6 
#
# 1 24.6108 3.4080 -4.9129 0.0000 -6.3958 0.0000
# 2 3.4080 167.9012 27.2722 0.0000 -12.1063 0.0000
# 3 -4.9129 27.2722 64.5117 0.0000 -22.7083 0.0000
# 4 0.0000 0.0000 0.0000 35.5510 0.0000 -13.5894
# 5 -6.3958 -12.1063 -22.7083 0.0000 31.3484 0.0000
# 6 0.0000 0.0000 0.0000 -13.5894 0.0000 10.8911
#
#
#
# Elastic Compliance Matrix: (Units=1/GPa)
#
#
# Indices 1 2 3 4 5 6 
#
# 1 0.047006 -0.001389 0.009871 0.000000 0.016204 0.000000
# 2 -0.001389 0.006447 -0.002758 0.000000 0.000209 0.000000
# 3 0.009871 -0.002758 0.023829 0.000000 0.018210 0.000000
# 4 0.000000 0.000000 0.000000 0.053779 0.000000 0.067103
# 5 0.016204 0.000209 0.018210 0.000000 0.048477 0.000000
# 6 0.000000 0.000000 0.000000 0.067103 0.000000 0.175545
#
#
# Mechanical properties :
#
#
# Convention : Reuss Voigt Hill
#
# Bulk Modulus (GPa) = 11.27011 34.28427 22.77719
# Shear Modulus (GPa) = 13.39720 30.97518 22.18619
#
# Velocity S-wave (km/s) = 2.46340 3.74571 3.17007
# Velocity P-wave (km/s) = 3.63262 5.85118 4.86992
#
# Compressibility (1/GPa) = 0.08873030
#
# Stress axis : x y z
#
# Youngs Moduli (GPa) = 21.27366 155.10897 41.96635
#
# Poissons Ratio (x) = 0.21546 -0.41425
# Poissons Ratio (y) = 0.02955 0.11574
# Poissons Ratio (z) = -0.20999 0.42777
#
# Static dielectric constant tensor:
#      x y z
#    x 3.722180 0.000000 -0.046260 
#    y 0.000000 4.257200 0.000000 
#    z -0.046260 0.000000 4.132820 
# 
# 
# High freq. dielectric constant tensor:
#      x y z
#    x 1.846200 0.000000 -0.017750 
#    y 0.000000 1.877590 0.000000 
#    z -0.017750 0.000000 1.865210 
# 
# From -- ./inp_files/90615.got.cif
#   From: 2010.06.25/outbox.cif.g09.slc.cpg/sg13_46_cif.got.tgz:90615.got - 2010.06.28 04:50:58.
