data_PCOD8119928
_publ_section_title
;
Structure prediction by ZEFSAII (Michael W. Deem and Ramdas Pophale) SiO2 
 PCOD8119928
Probable space group: P 2/C
;
_chemical_formula_sum "Si O2"
_cell_formula_units_Z 32
_cell_length_a 12.602113
_cell_length_b 15.440035
_cell_length_c 18.889330
_cell_angle_alpha 90.000000
_cell_angle_beta 26.520393
_cell_angle_gamma 90.000000
_cell_volume 1641.139639
_symmetry_space_group_name_H-M "P 2/C"
_symmetry_group_IT_number 13
_symmetry_cell_setting 'monoclinic'
loop_
_space_group_symop_operation_xyz
x,y,z
-x,y,1/2-z
-x,-y,-z
x,-y,1/2+z
loop_
_atom_site_type_symbol
_atom_site_label
_atom_site_fract_x
_atom_site_fract_y
_atom_site_fract_z
Si Si1 0.165271 0.754383 0.274723
Si Si2 0.745450 0.946860 0.914305
Si Si3 0.547002 0.587571 0.399225
Si Si4 0.382484 0.865257 0.024711
Si Si5 0.893601 0.680374 0.887843
Si Si6 0.366632 0.397649 0.162884
Si Si7 0.603374 0.253592 0.110893
Si Si8 0.545651 0.830735 0.142260
O O1 0.260229 0.659121 0.234680
O O2 0.235597 0.792527 0.155678
O O3 0.290108 0.813319 0.259340
O O4 0.885530 0.751032 0.449462
O O5 0.000000 0.905361 0.750000
O O6 0.774260 0.050615 0.898295
O O7 0.602698 0.902929 0.936054
O O8 0.642452 0.919510 0.051489
O O9 0.288980 0.601599 0.517441
O O10 0.656987 0.498737 0.302509
O O11 0.518788 0.596906 0.500394
O O12 0.478984 0.820463 0.895388
O O13 0.000000 0.714564 0.750000
O O14 0.107459 0.646575 0.809642
O O15 0.743151 0.756105 0.014333
O O16 0.513187 0.346349 0.135458
O O17 0.500000 0.234682 0.250000
O O18 0.500000 0.849313 0.250000
#
# Coordination Sequence:
#
# PCOD8119928 Si02
#       8
#     4   4   4   4   4   4   4   4
#     4  10  21  41  62  84 118 162 205 237 299 360
#     4  10  21  37  67  92 117 153 206 252 294 349
#     4   9  19  37  62  90 107 153 202 255 293 339
#     4  10  22  42  62  91 119 160 201 247 297 358
#     4   9  19  36  59  86 118 149 203 252 292 351
#     4  10  21  35  60  89 118 148 203 247 296 351
#     4  12  26  38  58  88 125 163 196 241 308 363
#     4  10  22  36  61  90 121 159 195 246 306 352
#
# _framework density 19.498646000000001
#
# number of rings (size 3 to 8) (size 9 to 14) (size 15 to 20)
#    0.000    2.000    1.250    1.500    7.000    0.500 
#    0.000    3.125    0.000    6.000    0.000    0.000 
#    0.000    0.000    0.000    0.000    0.000    0.000 
#
# Total GULP energy -396634.036200 kJ/mol
# GULP energy per Si atom -12394.813631 kJ/mol
# Density = 1.945427 g / cm^3
# Si number density = 19.498646 Si / 1000 Ang^3
#
#
#
# Elastic Constant Matrix: (Units=GPa)
#
#
# Indices 1 2 3 4 5 6 
#
# 1 100.8897 56.6108 62.1254 0.0000 20.3590 0.0000
# 2 56.6108 109.6289 56.6173 0.0000 -4.6689 0.0000
# 3 62.1254 56.6173 91.9375 0.0000 3.9908 0.0000
# 4 0.0000 0.0000 0.0000 4.5226 0.0000 3.0762
# 5 20.3590 -4.6689 3.9908 0.0000 26.0909 0.0000
# 6 0.0000 0.0000 0.0000 3.0762 0.0000 10.9140
#
#
#
# Elastic Compliance Matrix: (Units=1/GPa)
#
#
# Indices 1 2 3 4 5 6 
#
# 1 0.025333 -0.008076 -0.011299 0.000000 -0.019484 0.000000
# 2 -0.008076 0.016310 -0.005021 0.000000 0.009988 0.000000
# 3 -0.011299 -0.005021 0.021402 0.000000 0.004645 0.000000
# 4 0.000000 0.000000 0.000000 0.273557 0.000000 -0.077105
# 5 -0.019484 0.009988 0.004645 0.000000 0.054608 0.000000
# 6 0.000000 0.000000 0.000000 -0.077105 0.000000 0.113358
#
#
# Mechanical properties :
#
#
# Convention : Reuss Voigt Hill
#
# Bulk Modulus (GPa) = 70.15544 72.57367 71.36456
# Shear Modulus (GPa) = 8.95877 16.77902 12.86890
#
# Velocity S-wave (km/s) = 2.14582 2.93665 2.57181
# Velocity P-wave (km/s) = 6.49593 6.98564 6.74523
#
# Compressibility (1/GPa) = 0.01425406
#
# Stress axis : x y z
#
# Youngs Moduli (GPa) = 39.47427 61.31123 46.72370
#
# Poissons Ratio (x) = 0.49515 0.52794
# Poissons Ratio (y) = 0.31879 0.23458
# Poissons Ratio (z) = 0.44603 0.30782
#
# Static dielectric constant tensor:
#      x y z
#    x 3.598420 0.000000 -0.176410 
#    y 0.000000 3.758100 0.000000 
#    z -0.176410 0.000000 3.451990 
# 
# 
# High freq. dielectric constant tensor:
#      x y z
#    x 1.755300 0.000000 -0.020340 
#    y 0.000000 1.763920 0.000000 
#    z -0.020340 0.000000 1.748030 
# 
# From -- ./inp_files/66920.got.cif
#   From: 2010.06.25/outbox.cif.g09.slc.cpg/sg13_34_cif.got.tgz:66920.got - 2010.06.28 04:50:58.
