data_PCOD8119773
_publ_section_title
;
Structure prediction by ZEFSAII (Michael W. Deem and Ramdas Pophale) SiO2 
 PCOD8119773
Probable space group: P 2/C
;
_chemical_formula_sum "Si O2"
_cell_formula_units_Z 24
_cell_length_a 13.513546
_cell_length_b 14.632656
_cell_length_c 8.934948
_cell_angle_alpha 90.000000
_cell_angle_beta 137.902333
_cell_angle_gamma 90.000000
_cell_volume 1184.448532
_symmetry_space_group_name_H-M "P 2/C"
_symmetry_group_IT_number 13
_symmetry_cell_setting 'monoclinic'
loop_
_space_group_symop_operation_xyz
x,y,z
-x,y,1/2-z
-x,-y,-z
x,-y,1/2+z
loop_
_atom_site_type_symbol
_atom_site_label
_atom_site_fract_x
_atom_site_fract_y
_atom_site_fract_z
Si Si1 0.650122 0.394174 0.839250
Si Si2 0.393483 0.084717 0.759531
Si Si3 0.840891 0.752660 0.145135
Si Si4 0.607887 0.883895 0.735424
Si Si5 0.155384 0.776287 0.001659
Si Si6 0.653221 0.420634 0.496058
O O1 0.500000 0.357490 0.750000
O O2 0.623102 0.425197 0.638959
O O3 0.707645 0.480588 0.999498
O O4 0.776348 0.318185 0.980241
O O5 0.500000 0.054271 0.750000
O O6 0.253383 0.141434 0.547548
O O7 0.337305 0.985387 0.758416
O O8 0.493802 0.150366 0.979185
O O9 0.853081 0.789559 0.328448
O O10 0.000000 0.745832 0.250000
O O11 0.744168 0.817688 0.927385
O O12 0.774559 0.651639 0.079843
O O13 0.500000 0.888928 0.750000
O O14 0.000000 0.786979 0.750000
O O15 0.500000 0.391320 0.250000
#
# Coordination Sequence:
#
# PCOD8119773 Si02
#       6
#     4   4   4   4   4   4
#     4  10  21  39  63  91 120 157 201 249 299 352
#     4  10  22  39  66  94 115 158 200 252 306 351
#     4  11  25  40  61  88 123 167 199 246 305 360
#     4  10  20  42  66  88 121 153 208 252 292 365
#     4  11  25  41  58  90 128 160 200 248 305 362
#     4  10  21  38  63  91 119 156 203 249 296 355
#
# _framework density 20.262595999999998
#
# number of rings (size 3 to 8) (size 9 to 14) (size 15 to 20)
#    0.000    1.667    1.667    3.000    4.667    4.000 
#    0.000    5.000    0.000    0.000    0.000    0.000 
#    0.000    0.000    0.000    0.000    0.000    0.000 
#
# Total GULP energy -297379.276316 kJ/mol
# GULP energy per Si atom -12390.803180 kJ/mol
# Density = 2.021648 g / cm^3
# Si number density = 20.262596 Si / 1000 Ang^3
#
#
#
# Elastic Constant Matrix: (Units=GPa)
#
#
# Indices 1 2 3 4 5 6 
#
# 1 107.9785 47.5610 42.7245 0.0000 13.5691 0.0000
# 2 47.5610 88.6104 49.8976 0.0000 20.0575 0.0000
# 3 42.7245 49.8976 125.1275 0.0000 17.0819 0.0000
# 4 0.0000 0.0000 0.0000 21.9113 0.0000 -9.6601
# 5 13.5691 20.0575 17.0819 0.0000 35.1326 0.0000
# 6 0.0000 0.0000 0.0000 -9.6601 0.0000 15.5935
#
#
#
# Elastic Compliance Matrix: (Units=1/GPa)
#
#
# Indices 1 2 3 4 5 6 
#
# 1 0.012544 -0.005424 -0.002015 0.000000 -0.000768 0.000000
# 2 -0.005424 0.018128 -0.004552 0.000000 -0.006041 0.000000
# 3 -0.002015 -0.004552 0.010748 0.000000 -0.001848 0.000000
# 4 0.000000 0.000000 0.000000 0.062787 0.000000 0.038896
# 5 -0.000768 -0.006041 -0.001848 0.000000 0.033108 0.000000
# 6 0.000000 0.000000 0.000000 0.038896 0.000000 0.088225
#
#
# Mechanical properties :
#
#
# Convention : Reuss Voigt Hill
#
# Bulk Modulus (GPa) = 57.35205 66.89808 62.12506
# Shear Modulus (GPa) = 19.58214 26.62970 23.10592
#
# Velocity S-wave (km/s) = 3.11210 3.62916 3.38053
# Velocity P-wave (km/s) = 6.42490 7.11676 6.77966
#
# Compressibility (1/GPa) = 0.01743617
#
# Stress axis : x y z
#
# Youngs Moduli (GPa) = 79.71759 55.16475 93.04486
#
# Poissons Ratio (x) = 0.29923 0.18751
# Poissons Ratio (y) = 0.43242 0.42354
# Poissons Ratio (z) = 0.16065 0.25111
#
# Static dielectric constant tensor:
#      x y z
#    x 3.679620 0.000000 -0.102190 
#    y 0.000000 3.845300 0.000000 
#    z -0.102190 0.000000 3.573350 
# 
# 
# High freq. dielectric constant tensor:
#      x y z
#    x 1.790500 0.000000 -0.013200 
#    y 0.000000 1.798180 0.000000 
#    z -0.013200 0.000000 1.791820 
# 
# From -- ./inp_files/19738.got.cif
#   From: 2010.06.25/outbox.cif.g09.slc.cpg/sg13_10_cif.got.tgz:19738.got - 2010.06.28 04:50:58.
