data_PCOD8119981
_publ_section_title
;
Structure prediction by ZEFSAII (Michael W. Deem and Ramdas Pophale) SiO2 
 PCOD8119981
Probable space group: P 2/C
;
_chemical_formula_sum "Si O2"
_cell_formula_units_Z 20
_cell_length_a 8.875222
_cell_length_b 11.347559
_cell_length_c 9.238554
_cell_angle_alpha 90.000000
_cell_angle_beta 89.927970
_cell_angle_gamma 90.000000
_cell_volume 930.433488
_symmetry_space_group_name_H-M "P 2/C"
_symmetry_group_IT_number 13
_symmetry_cell_setting 'monoclinic'
loop_
_space_group_symop_operation_xyz
x,y,z
-x,y,1/2-z
-x,-y,-z
x,-y,1/2+z
loop_
_atom_site_type_symbol
_atom_site_label
_atom_site_fract_x
_atom_site_fract_y
_atom_site_fract_z
Si Si1 0.170262 0.517898 0.950235
Si Si2 0.165909 0.244976 0.293131
Si Si3 0.327150 0.628115 0.223537
Si Si4 0.330937 0.858659 0.059566
Si Si5 0.610710 0.113900 0.380127
O O1 0.175937 0.617480 0.826784
O O2 0.231804 0.401424 0.868564
O O3 0.273389 0.551924 0.085700
O O4 0.000000 0.500000 0.000000
O O5 0.217884 0.169362 0.429830
O O6 0.274814 0.219656 0.156237
O O7 0.000000 0.205110 0.250000
O O8 0.500000 0.594493 0.250000
O O9 0.303718 0.767384 0.190970
O O10 0.294961 0.993395 0.099494
O O11 0.508886 0.847740 0.017017
O O12 0.500000 0.086439 0.250000
#
# Coordination Sequence:
#
# PCOD8119981 Si02
#       5
#     4   4   4   4   4
#     4  11  24  43  61  84 123 164 194 238 305 356
#     4  10  21  36  56  83 115 155 197 240 290 347
#     4  11  23  39  63  92 116 151 205 250 286 346
#     4   9  20  37  60  85 114 154 193 239 295 350
#     4   9  18  37  59  83 116 150 189 240 299 346
#
# _framework density 21.495356000000001
#
# number of rings (size 3 to 8) (size 9 to 14) (size 15 to 20)
#    0.000    2.000    0.000    3.000    0.000    8.000 
#    0.000    4.000    0.000    0.000    0.000    0.000 
#    0.000    0.000    0.000    0.000    0.000    0.000 
#
# Total GULP energy -247999.999882 kJ/mol
# GULP energy per Si atom -12399.999994 kJ/mol
# Density = 2.144643 g / cm^3
# Si number density = 21.495356 Si / 1000 Ang^3
#
#
#
# Elastic Constant Matrix: (Units=GPa)
#
#
# Indices 1 2 3 4 5 6 
#
# 1 138.6909 46.2562 44.8393 0.0000 4.4799 0.0000
# 2 46.2562 110.5086 47.7557 0.0000 -12.7284 0.0000
# 3 44.8393 47.7557 73.1688 0.0000 -12.5776 0.0000
# 4 0.0000 0.0000 0.0000 40.2550 0.0000 -7.4771
# 5 4.4799 -12.7284 -12.5776 0.0000 36.6622 0.0000
# 6 0.0000 0.0000 0.0000 -7.4771 0.0000 28.5248
#
#
#
# Elastic Compliance Matrix: (Units=1/GPa)
#
#
# Indices 1 2 3 4 5 6 
#
# 1 0.009754 -0.002302 -0.005119 0.000000 -0.003747 0.000000
# 2 -0.002302 0.013242 -0.006794 0.000000 0.002548 0.000000
# 3 -0.005119 -0.006794 0.022253 0.000000 0.005901 0.000000
# 4 0.000000 0.000000 0.000000 0.026113 0.000000 0.006845
# 5 -0.003747 0.002548 0.005901 0.000000 0.030643 0.000000
# 6 0.000000 0.000000 0.000000 0.006845 0.000000 0.036851
#
#
# Mechanical properties :
#
#
# Convention : Reuss Voigt Hill
#
# Bulk Modulus (GPa) = 59.45872 66.67452 63.06662
# Shear Modulus (GPa) = 28.91951 33.32288 31.12119
#
# Velocity S-wave (km/s) = 3.67193 3.94158 3.80914
# Velocity P-wave (km/s) = 6.76008 7.19723 6.98208
#
# Compressibility (1/GPa) = 0.01681839
#
# Stress axis : x y z
#
# Youngs Moduli (GPa) = 102.51985 75.51588 44.93820
#
# Poissons Ratio (x) = 0.17386 0.23004
# Poissons Ratio (y) = 0.23603 0.30531
# Poissons Ratio (z) = 0.52481 0.51306
#
# Static dielectric constant tensor:
#      x y z
#    x 3.887390 0.000000 -0.012950 
#    y 0.000000 3.869390 0.000000 
#    z -0.012950 0.000000 4.046420 
# 
# 
# High freq. dielectric constant tensor:
#      x y z
#    x 1.837530 0.000000 0.010880 
#    y 0.000000 1.842340 0.000000 
#    z 0.010880 0.000000 1.849080 
# 
# From -- ./inp_files/11667.got.cif
#   From: 2010.06.25/outbox.cif.g09.slc.cpg/sg13_6_cif.got.tgz:11667.got - 2010.06.28 04:50:58.
