data_PCOD8119837
_publ_section_title
;
Structure prediction by ZEFSAII (Michael W. Deem and Ramdas Pophale) SiO2 
 PCOD8119837
Probable space group: P 2/C
;
_chemical_formula_sum "Si O2"
_cell_formula_units_Z 26
_cell_length_a 14.487594
_cell_length_b 9.706252
_cell_length_c 9.183265
_cell_angle_alpha 90.000000
_cell_angle_beta 102.507552
_cell_angle_gamma 90.000000
_cell_volume 1260.705841
_symmetry_space_group_name_H-M "P 2/C"
_symmetry_group_IT_number 13
_symmetry_cell_setting 'monoclinic'
loop_
_space_group_symop_operation_xyz
x,y,z
-x,y,1/2-z
-x,-y,-z
x,-y,1/2+z
loop_
_atom_site_type_symbol
_atom_site_label
_atom_site_fract_x
_atom_site_fract_y
_atom_site_fract_z
Si Si1 0.682263 0.538125 0.448342
Si Si2 0.255308 0.828026 0.974253
Si Si3 0.676351 0.976847 0.224149
Si Si4 0.391866 0.269976 0.961688
Si Si5 0.879816 0.378432 0.967249
Si Si6 0.000000 0.468889 0.750000
Si Si7 0.500000 0.129941 0.250000
Si Si8 0.500000 0.619210 0.250000
O O1 0.678908 0.690763 0.522287
O O2 0.668419 0.411476 0.553302
O O3 0.785987 0.525999 0.408106
O O4 0.593777 0.527167 0.306882
O O5 0.297127 0.938596 0.102497
O O6 0.152230 0.776567 0.996116
O O7 0.252118 0.908167 0.818768
O O8 0.681767 0.839971 0.127867
O O9 0.569219 0.034336 0.177902
O O10 0.480891 0.286652 0.884025
O O11 0.432300 0.225372 0.130219
O O12 0.936482 0.373141 0.834301
O O13 0.938650 0.435734 0.123268
#
# Coordination Sequence:
#
# PCOD8119837 Si02
#       8
#     4   4   4   4   4   2   2   2
#     4  10  24  39  64 100 131 172 220 280 322 381
#     4  10  24  43  66  94 131 169 225 272 329 398
#     4  12  23  43  60  89 131 189 222 266 322 393
#     4  12  24  40  61  90 132 185 228 274 314 379
#     4   9  23  41  73 102 131 164 215 276 339 406
#     4  10  20  46  74 106 126 164 212 286 354 396
#     4  12  26  38  60  88 132 194 238 262 312 390
#     4  12  22  40  60  94 142 172 220 272 320 376
#
# _framework density 20.623366000000001
#
# number of rings (size 3 to 8) (size 9 to 14) (size 15 to 20)
#    0.923    0.308    3.077    2.769    4.308    2.462 
#    0.000    0.000    0.000    2.769    0.000    0.000 
#    0.000    0.000    0.000    0.000    0.000    0.000 
#
# Total GULP energy -322152.575267 kJ/mol
# GULP energy per Si atom -12390.483664 kJ/mol
# Density = 2.057643 g / cm^3
# Si number density = 20.623366 Si / 1000 Ang^3
#
#
#
# Elastic Constant Matrix: (Units=GPa)
#
#
# Indices 1 2 3 4 5 6 
#
# 1 118.2078 41.5689 33.4378 0.0000 -14.1318 0.0000
# 2 41.5689 116.6798 38.8847 0.0000 -22.3470 0.0000
# 3 33.4378 38.8847 72.5759 0.0000 -14.3718 0.0000
# 4 0.0000 0.0000 0.0000 23.5300 0.0000 -4.1481
# 5 -14.1318 -22.3470 -14.3718 0.0000 36.9936 0.0000
# 6 0.0000 0.0000 0.0000 -4.1481 0.0000 27.5217
#
#
#
# Elastic Compliance Matrix: (Units=1/GPa)
#
#
# Indices 1 2 3 4 5 6 
#
# 1 0.010364 -0.002364 -0.003258 0.000000 0.001265 0.000000
# 2 -0.002364 0.011705 -0.004291 0.000000 0.004500 0.000000
# 3 -0.003258 -0.004291 0.018220 0.000000 0.003242 0.000000
# 4 0.000000 0.000000 0.000000 0.043659 0.000000 0.006580
# 5 0.001265 0.004500 0.003242 0.000000 0.031493 0.000000
# 6 0.000000 0.000000 0.000000 0.006580 0.000000 0.037327
#
#
# Mechanical properties :
#
#
# Convention : Reuss Voigt Hill
#
# Bulk Modulus (GPa) = 48.86670 59.47180 54.16925
# Shear Modulus (GPa) = 27.86848 30.51387 29.19118
#
# Velocity S-wave (km/s) = 3.68000 3.85070 3.76632
# Velocity P-wave (km/s) = 6.46551 6.97641 6.72581
#
# Compressibility (1/GPa) = 0.02046383
#
# Stress axis : x y z
#
# Youngs Moduli (GPa) = 96.48910 85.43639 54.88349
#
# Poissons Ratio (x) = 0.20200 0.17879
# Poissons Ratio (y) = 0.22813 0.23548
# Poissons Ratio (z) = 0.31432 0.36657
#
# Static dielectric constant tensor:
#      x y z
#    x 3.653420 0.000000 -0.079010 
#    y 0.000000 3.687650 0.000000 
#    z -0.079010 0.000000 3.655930 
# 
# 
# High freq. dielectric constant tensor:
#      x y z
#    x 1.782370 0.000000 -0.011460 
#    y 0.000000 1.800030 0.000000 
#    z -0.011460 0.000000 1.805670 
# 
# From -- ./inp_files/21213.got.cif
#   From: 2010.06.25/outbox.cif.g09.slc.cpg/sg13_11_cif.got.tgz:21213.got - 2010.06.28 04:50:58.
