data_PCOD8119064
_publ_section_title
;
Structure prediction by ZEFSAII (Michael W. Deem and Ramdas Pophale) SiO2 
 PCOD8119064
Probable space group: P 2/C
;
_chemical_formula_sum "Si O2"
_cell_formula_units_Z 22
_cell_length_a 10.578775
_cell_length_b 8.385051
_cell_length_c 14.903665
_cell_angle_alpha 90.000000
_cell_angle_beta 47.145787
_cell_angle_gamma 90.000000
_cell_volume 969.146609
_symmetry_space_group_name_H-M "P 2/C"
_symmetry_group_IT_number 13
_symmetry_cell_setting 'monoclinic'
loop_
_space_group_symop_operation_xyz
x,y,z
-x,y,1/2-z
-x,-y,-z
x,-y,1/2+z
loop_
_atom_site_type_symbol
_atom_site_label
_atom_site_fract_x
_atom_site_fract_y
_atom_site_fract_z
Si Si1 0.835847 0.592092 0.688158
Si Si2 0.723922 0.922850 0.804844
Si Si3 0.000000 0.116587 0.750000
Si Si4 0.265610 0.623906 0.102849
Si Si5 0.454733 0.822832 0.433995
Si Si6 0.768081 0.415217 0.546508
O O1 0.735354 0.759846 0.743767
O O2 0.832127 0.497292 0.783178
O O3 0.741113 0.486937 0.658290
O O4 0.032813 0.625384 0.567213
O O5 0.578716 0.039986 0.832913
O O6 0.680211 0.896499 0.930658
O O7 0.910596 0.009734 0.715527
O O8 0.144401 0.227787 0.634750
O O9 0.440521 0.686435 0.062913
O O10 0.308673 0.537083 0.989433
O O11 0.345742 0.745692 0.405234
#
# Coordination Sequence:
#
# PCOD8119064 Si02
#       6
#     4   4   2   4   4   4
#     4  11  23  39  70  95 128 169 228 264 322 389
#     4  10  21  39  65 101 125 176 214 270 333 390
#     4  10  20  36  70  84 130 174 214 260 334 378
#     4  11  21  41  65  92 126 174 216 271 317 395
#     4  10  22  39  68  93 134 166 218 267 339 381
#     4  11  22  39  67 100 125 174 220 270 317 393
#
# _framework density 22.700382000000001
#
# number of rings (size 3 to 8) (size 9 to 14) (size 15 to 20)
#    0.000    1.455    3.636    1.636    0.000    0.727 
#    0.000    0.909   40.000    0.000    0.000    0.000 
#    0.000    0.000    0.000    0.000    0.000    0.000 
#
# Total GULP energy -272852.008370 kJ/mol
# GULP energy per Si atom -12402.364017 kJ/mol
# Density = 2.264871 g / cm^3
# Si number density = 22.700382 Si / 1000 Ang^3
#
#
#
# Elastic Constant Matrix: (Units=GPa)
#
#
# Indices 1 2 3 4 5 6 
#
# 1 111.2115 65.9289 31.1901 0.0000 -9.2496 0.0000
# 2 65.9289 147.2944 37.0757 0.0000 -5.8760 0.0000
# 3 31.1901 37.0757 45.7254 0.0000 -3.3018 0.0000
# 4 0.0000 0.0000 0.0000 29.8397 0.0000 0.2120
# 5 -9.2496 -5.8760 -3.3018 0.0000 31.5809 0.0000
# 6 0.0000 0.0000 0.0000 0.2120 0.0000 47.6587
#
#
#
# Elastic Compliance Matrix: (Units=1/GPa)
#
#
# Indices 1 2 3 4 5 6 
#
# 1 0.013380 -0.004569 -0.005240 0.000000 0.002521 0.000000
# 2 -0.004569 0.010114 -0.005083 0.000000 0.000012 0.000000
# 3 -0.005240 -0.005083 0.029610 0.000000 0.000615 0.000000
# 4 0.000000 0.000000 0.000000 0.033513 0.000000 -0.000149
# 5 0.002521 0.000012 0.000615 0.000000 0.032470 0.000000
# 6 0.000000 0.000000 0.000000 -0.000149 0.000000 0.020983
#
#
# Mechanical properties :
#
#
# Convention : Reuss Voigt Hill
#
# Bulk Modulus (GPa) = 42.88262 63.62454 53.25358
# Shear Modulus (GPa) = 28.14864 33.15162 30.65013
#
# Velocity S-wave (km/s) = 3.52519 3.82566 3.67850
# Velocity P-wave (km/s) = 5.95827 6.89950 6.44609
#
# Compressibility (1/GPa) = 0.02331947
#
# Stress axis : x y z
#
# Youngs Moduli (GPa) = 74.73908 98.86886 33.77244
#
# Poissons Ratio (x) = 0.45177 0.17695
# Poissons Ratio (y) = 0.34151 0.17168
# Poissons Ratio (z) = 0.39160 0.50259
#
# Static dielectric constant tensor:
#      x y z
#    x 3.995530 0.000000 -0.273710 
#    y 0.000000 4.357880 0.000000 
#    z -0.273710 0.000000 3.894610 
# 
# 
# High freq. dielectric constant tensor:
#      x y z
#    x 1.883540 0.000000 -0.031130 
#    y 0.000000 1.909150 0.000000 
#    z -0.031130 0.000000 1.878360 
# 
# From -- ./inp_files/65869.got.cif
#   From: 2010.06.25/outbox.cif.g09.slc.cpg/sg13_33_cif.got.tgz:65869.got - 2010.06.28 04:50:58.
