data_PCOD8119175
_publ_section_title
;
Structure prediction by ZEFSAII (Michael W. Deem and Ramdas Pophale) SiO2 
 PCOD8119175
Probable space group: P 2/C
;
_chemical_formula_sum "Si O2"
_cell_formula_units_Z 24
_cell_length_a 15.163071
_cell_length_b 9.048399
_cell_length_c 18.139474
_cell_angle_alpha 90.000000
_cell_angle_beta 29.678460
_cell_angle_gamma 90.000000
_cell_volume 1232.266561
_symmetry_space_group_name_H-M "P 2/C"
_symmetry_group_IT_number 13
_symmetry_cell_setting 'monoclinic'
loop_
_space_group_symop_operation_xyz
x,y,z
-x,y,1/2-z
-x,-y,-z
x,-y,1/2+z
loop_
_atom_site_type_symbol
_atom_site_label
_atom_site_fract_x
_atom_site_fract_y
_atom_site_fract_z
Si Si1 0.655305 0.673995 0.696695
Si Si2 0.984304 0.810821 0.848465
Si Si3 0.310001 0.655109 0.351372
Si Si4 0.371495 0.187424 0.136259
Si Si5 0.040096 0.913470 0.047472
Si Si6 0.661770 0.850451 0.312393
O O1 0.500000 0.692393 0.750000
O O2 0.735714 0.509750 0.642283
O O3 0.579686 0.703099 0.832950
O O4 0.810569 0.790722 0.567923
O O5 0.000000 0.799585 0.750000
O O6 0.174546 0.784147 0.748294
O O7 0.904501 0.970266 0.929646
O O8 0.844805 0.689835 0.977859
O O9 0.500000 0.654426 0.250000
O O10 0.322075 0.776458 0.278863
O O11 0.393223 0.022599 0.153376
O O12 0.513404 0.228301 0.969887
O O13 0.856962 0.835990 0.207338
O O14 0.000000 0.000000 0.000000
#
# Coordination Sequence:
#
# PCOD8119175 Si02
#       6
#     4   4   4   4   4   4
#     4  11  24  40  61  87 128 167 203 254 314 369
#     4  11  22  39  65  93 123 160 206 262 307 373
#     4  11  23  39  58  89 125 168 209 249 313 381
#     4  10  21  39  61  94 121 157 212 259 305 363
#     4  11  20  42  62  93 119 159 210 255 311 371
#     4  10  20  37  63  87 120 157 203 260 304 370
#
# _framework density 19.476306000000001
#
# number of rings (size 3 to 8) (size 9 to 14) (size 15 to 20)
#    0.000    1.333    5.000    1.000    0.000   10.000 
#    0.000    4.167    0.000    0.000    0.000    0.000 
#    0.000    0.000    0.000    0.000    0.000    0.000 
#
# Total GULP energy -297550.247909 kJ/mol
# GULP energy per Si atom -12397.926996 kJ/mol
# Density = 1.943198 g / cm^3
# Si number density = 19.476306 Si / 1000 Ang^3
#
#
#
# Elastic Constant Matrix: (Units=GPa)
#
#
# Indices 1 2 3 4 5 6 
#
# 1 101.0874 49.2228 45.3829 0.0000 20.3535 0.0000
# 2 49.2228 96.3388 54.1513 0.0000 10.8430 0.0000
# 3 45.3829 54.1513 150.0144 0.0000 13.4220 0.0000
# 4 0.0000 0.0000 0.0000 24.0752 0.0000 -1.4242
# 5 20.3535 10.8430 13.4220 0.0000 39.6318 0.0000
# 6 0.0000 0.0000 0.0000 -1.4242 0.0000 18.0858
#
#
#
# Elastic Compliance Matrix: (Units=1/GPa)
#
#
# Indices 1 2 3 4 5 6 
#
# 1 0.014631 -0.005844 -0.001843 0.000000 -0.005291 0.000000
# 2 -0.005844 0.015517 -0.003838 0.000000 0.000056 0.000000
# 3 -0.001843 -0.003838 0.008694 0.000000 -0.000948 0.000000
# 4 0.000000 0.000000 0.000000 0.041731 0.000000 0.003286
# 5 -0.005291 0.000056 -0.000948 0.000000 0.028255 0.000000
# 6 0.000000 0.000000 0.000000 0.003286 0.000000 0.055551
#
#
# Mechanical properties :
#
#
# Convention : Reuss Voigt Hill
#
# Bulk Modulus (GPa) = 63.32755 71.66162 67.49459
# Shear Modulus (GPa) = 25.94799 29.60414 27.77606
#
# Velocity S-wave (km/s) = 3.65401 3.90296 3.78053
# Velocity P-wave (km/s) = 7.09846 7.56207 7.33393
#
# Compressibility (1/GPa) = 0.01579091
#
# Stress axis : x y z
#
# Youngs Moduli (GPa) = 68.34906 64.44519 115.02179
#
# Poissons Ratio (x) = 0.37660 0.21202
# Poissons Ratio (y) = 0.39942 0.44149
# Poissons Ratio (z) = 0.12599 0.24736
#
# Static dielectric constant tensor:
#      x y z
#    x 3.673200 0.000000 -0.079760 
#    y 0.000000 3.827200 0.000000 
#    z -0.079760 0.000000 3.983070 
# 
# 
# High freq. dielectric constant tensor:
#      x y z
#    x 1.749460 0.000000 -0.000420 
#    y 0.000000 1.750900 0.000000 
#    z -0.000420 0.000000 1.780100 
# 
# From -- ./inp_files/68058.got.cif
#   From: 2010.06.25/outbox.cif.g09.slc.cpg/sg13_35_cif.got.tgz:68058.got - 2010.06.28 04:50:58.
