data_PCOD8119795
_publ_section_title
;
Structure prediction by ZEFSAII (Michael W. Deem and Ramdas Pophale) SiO2 
 PCOD8119795
Probable space group: P 2/C
;
_chemical_formula_sum "Si O2"
_cell_formula_units_Z 28
_cell_length_a 17.094899
_cell_length_b 11.919926
_cell_length_c 19.650378
_cell_angle_alpha 90.000000
_cell_angle_beta 160.383499
_cell_angle_gamma 90.000000
_cell_volume 1344.286783
_symmetry_space_group_name_H-M "P 2/C"
_symmetry_group_IT_number 13
_symmetry_cell_setting 'monoclinic'
loop_
_space_group_symop_operation_xyz
x,y,z
-x,y,1/2-z
-x,-y,-z
x,-y,1/2+z
loop_
_atom_site_type_symbol
_atom_site_label
_atom_site_fract_x
_atom_site_fract_y
_atom_site_fract_z
Si Si1 0.723920 0.716716 0.313810
Si Si2 0.000000 0.218417 0.750000
Si Si3 0.868156 0.396165 0.536670
Si Si4 0.165047 0.395358 0.142478
Si Si5 0.627617 0.132675 0.537645
Si Si6 0.745620 0.955269 0.280915
Si Si7 0.500000 0.580659 0.250000
Si Si8 0.619044 0.625988 0.082041
O O1 0.684340 0.850182 0.279638
O O2 0.566720 0.662592 0.243331
O O3 0.636585 0.655529 0.174701
O O4 0.006213 0.697484 0.551350
O O5 0.151787 0.294024 0.926874
O O6 0.166024 0.133040 0.847257
O O7 0.764033 0.359991 0.376913
O O8 0.724835 0.501805 0.449379
O O9 0.143445 0.425371 0.754351
O O10 0.384058 0.443710 0.367979
O O11 0.000000 0.500000 0.000000
O O12 0.726477 0.081057 0.687534
O O13 0.543225 0.260048 0.479629
O O14 0.424455 0.057089 0.339996
O O15 0.000000 0.000000 0.500000
#
# Coordination Sequence:
#
# PCOD8119795 Si02
#       8
#     4   2   4   4   4   4   2   4
#     4  10  23  41  62  91 125 166 211 259 315 390
#     4  10  22  42  60  98 132 158 210 262 332 364
#     4  10  24  38  61  89 127 169 201 263 314 374
#     4  11  21  40  63  90 119 166 222 257 296 381
#     4   9  20  39  65  92 121 152 206 265 308 383
#     4  10  20  42  69  88 117 164 212 258 319 369
#     4  12  24  44  54  92 142 164 210 254 316 394
#     4   9  21  41  66  89 118 163 213 259 310 367
#
# _framework density 20.828889
#
# number of rings (size 3 to 8) (size 9 to 14) (size 15 to 20)
#    0.000    2.000    1.429    1.714    4.000    3.429 
#    2.571    0.000    0.000    0.000    0.000    0.000 
#    0.000    0.000    0.000    0.000    0.000    0.000 
#
# Total GULP energy -347087.512927 kJ/mol
# GULP energy per Si atom -12395.982605 kJ/mol
# Density = 2.078148 g / cm^3
# Si number density = 20.828889 Si / 1000 Ang^3
#
#
#
# Elastic Constant Matrix: (Units=GPa)
#
#
# Indices 1 2 3 4 5 6 
#
# 1 120.3170 40.4703 45.5062 0.0000 22.9335 0.0000
# 2 40.4703 106.4225 54.3031 0.0000 22.7643 0.0000
# 3 45.5062 54.3031 154.9056 0.0000 6.5007 0.0000
# 4 0.0000 0.0000 0.0000 38.1739 0.0000 8.9518
# 5 22.9335 22.7643 6.5007 0.0000 32.1230 0.0000
# 6 0.0000 0.0000 0.0000 8.9518 0.0000 28.6876
#
#
#
# Elastic Compliance Matrix: (Units=1/GPa)
#
#
# Indices 1 2 3 4 5 6 
#
# 1 0.010936 -0.001620 -0.002385 0.000000 -0.006176 0.000000
# 2 -0.001620 0.013715 -0.004007 0.000000 -0.007752 0.000000
# 3 -0.002385 -0.004007 0.008442 0.000000 0.002834 0.000000
# 4 0.000000 0.000000 0.000000 0.028264 0.000000 -0.008820
# 5 -0.006176 -0.007752 0.002834 0.000000 0.040460 0.000000
# 6 0.000000 0.000000 0.000000 -0.008820 0.000000 0.037610
#
#
# Mechanical properties :
#
#
# Convention : Reuss Voigt Hill
#
# Bulk Modulus (GPa) = 58.58815 73.57825 66.08320
# Shear Modulus (GPa) = 31.02862 35.88794 33.45828
#
# Velocity S-wave (km/s) = 3.86384 4.15539 4.01227
# Velocity P-wave (km/s) = 6.93506 7.64361 7.29794
#
# Compressibility (1/GPa) = 0.01706830
#
# Stress axis : x y z
#
# Youngs Moduli (GPa) = 91.44197 72.91138 118.45653
#
# Poissons Ratio (x) = 0.11814 0.28256
# Poissons Ratio (y) = 0.14817 0.47461
# Poissons Ratio (z) = 0.21812 0.29213
#
# Static dielectric constant tensor:
#      x y z
#    x 3.432490 0.000000 -0.802830 
#    y 0.000000 4.408310 0.000000 
#    z -0.802830 0.000000 5.326040 
# 
# 
# High freq. dielectric constant tensor:
#      x y z
#    x 1.810560 0.000000 0.001220 
#    y 0.000000 1.819460 0.000000 
#    z 0.001220 0.000000 1.821740 
# 
# From -- ./inp_files/81116.got.cif
#   From: 2010.06.25/outbox.cif.g09.slc.cpg/sg13_41_cif.got.tgz:81116.got - 2010.06.28 04:50:58.
