data_PCOD8119108
_publ_section_title
;
Structure prediction by ZEFSAII (Michael W. Deem and Ramdas Pophale) SiO2 
 PCOD8119108
Probable space group: P 2/C
;
_chemical_formula_sum "Si O2"
_cell_formula_units_Z 20
_cell_length_a 11.742973
_cell_length_b 6.201757
_cell_length_c 16.099787
_cell_angle_alpha 90.000000
_cell_angle_beta 133.227156
_cell_angle_gamma 90.000000
_cell_volume 854.335374
_symmetry_space_group_name_H-M "P 2/C"
_symmetry_group_IT_number 13
_symmetry_cell_setting 'monoclinic'
loop_
_space_group_symop_operation_xyz
x,y,z
-x,y,1/2-z
-x,-y,-z
x,-y,1/2+z
loop_
_atom_site_type_symbol
_atom_site_label
_atom_site_fract_x
_atom_site_fract_y
_atom_site_fract_z
Si Si1 0.426950 0.388486 0.074947
Si Si2 0.049352 0.360832 0.651210
Si Si3 0.195276 0.014578 0.932964
Si Si4 0.786923 0.643916 0.433962
Si Si5 0.728478 0.352466 0.142270
O O1 0.367327 0.489195 0.133331
O O2 0.613073 0.336816 0.165170
O O3 0.340703 0.174181 0.002621
O O4 0.380345 0.578800 0.988271
O O5 0.178738 0.314488 0.645265
O O6 0.135373 0.473499 0.772236
O O7 0.969928 0.139937 0.641916
O O8 0.925019 0.525883 0.552582
O O9 0.194515 0.875128 0.846908
O O10 0.225726 0.877457 0.031201
#
# Coordination Sequence:
#
# PCOD8119108 Si02
#       5
#     4   4   4   4   4
#     4   9  20  37  57  83 116 153 193 238 291 351
#     4  10  21  36  57  86 117 150 192 243 294 348
#     4  10  20  37  60  83 116 156 194 239 294 353
#     4   9  20  37  57  83 116 153 193 238 291 351
#     4  10  21  36  57  86 117 150 192 243 294 348
#
# _framework density 23.410011000000001
#
# number of rings (size 3 to 8) (size 9 to 14) (size 15 to 20)
#    0.000    2.400    0.000    1.200    0.000   11.200 
#    0.000    0.000    0.000   21.600    0.000    0.000 
#    0.000    0.000    0.000    0.000    0.000    0.000 
#
# Total GULP energy -247912.556615 kJ/mol
# GULP energy per Si atom -12395.627831 kJ/mol
# Density = 2.335673 g / cm^3
# Si number density = 23.410011 Si / 1000 Ang^3
#
#
#
# Elastic Constant Matrix: (Units=GPa)
#
#
# Indices 1 2 3 4 5 6 
#
# 1 166.6637 74.9593 21.9486 0.0000 20.1381 0.0000
# 2 74.9593 139.3902 24.2466 0.0000 10.7491 0.0000
# 3 21.9486 24.2466 36.8953 0.0000 5.2409 0.0000
# 4 0.0000 0.0000 0.0000 20.0861 0.0000 0.2590
# 5 20.1381 10.7491 5.2409 0.0000 17.2119 0.0000
# 6 0.0000 0.0000 0.0000 0.2590 0.0000 37.9887
#
#
#
# Elastic Compliance Matrix: (Units=1/GPa)
#
#
# Indices 1 2 3 4 5 6 
#
# 1 0.008876 -0.003912 -0.001653 0.000000 -0.007439 0.000000
# 2 -0.003912 0.010043 -0.004214 0.000000 -0.000411 0.000000
# 3 -0.001653 -0.004214 0.031573 0.000000 -0.005049 0.000000
# 4 0.000000 0.000000 0.000000 0.049790 0.000000 -0.000340
# 5 -0.007439 -0.000411 -0.005049 0.000000 0.068597 0.000000
# 6 0.000000 0.000000 0.000000 -0.000340 0.000000 0.026326
#
#
# Mechanical properties :
#
#
# Convention : Reuss Voigt Hill
#
# Bulk Modulus (GPa) = 32.32646 65.02869 48.67757
# Shear Modulus (GPa) = 22.21489 29.84367 26.02928
#
# Velocity S-wave (km/s) = 3.08384 3.57434 3.33811
# Velocity P-wave (km/s) = 5.14965 6.69873 5.97461
#
# Compressibility (1/GPa) = 0.03093441
#
# Stress axis : x y z
#
# Youngs Moduli (GPa) = 112.66168 99.57502 31.67229
#
# Poissons Ratio (x) = 0.38955 0.05234
# Poissons Ratio (y) = 0.44075 0.13347
# Poissons Ratio (z) = 0.18619 0.41961
#
# Static dielectric constant tensor:
#      x y z
#    x 5.246590 0.000000 0.067730 
#    y 0.000000 4.154660 0.000000 
#    z 0.067730 0.000000 3.614590 
# 
# 
# High freq. dielectric constant tensor:
#      x y z
#    x 1.954420 0.000000 0.004930 
#    y 0.000000 1.925450 0.000000 
#    z 0.004930 0.000000 1.886050 
# 
# From -- ./inp_files/65250.got.cif
#   From: 2010.06.25/outbox.cif.g09.slc.cpg/sg13_33_cif.got.tgz:65250.got - 2010.06.28 04:50:58.
