data_PCOD8119372
_publ_section_title
;
Structure prediction by ZEFSAII (Michael W. Deem and Ramdas Pophale) SiO2 
 PCOD8119372
Probable space group: P 2/C
;
_chemical_formula_sum "Si O2"
_cell_formula_units_Z 28
_cell_length_a 8.653452
_cell_length_b 11.083227
_cell_length_c 13.742943
_cell_angle_alpha 90.000000
_cell_angle_beta 69.644611
_cell_angle_gamma 90.000000
_cell_volume 1235.751766
_symmetry_space_group_name_H-M "P 2/C"
_symmetry_group_IT_number 13
_symmetry_cell_setting 'monoclinic'
loop_
_space_group_symop_operation_xyz
x,y,z
-x,y,1/2-z
-x,-y,-z
x,-y,1/2+z
loop_
_atom_site_type_symbol
_atom_site_label
_atom_site_fract_x
_atom_site_fract_y
_atom_site_fract_z
Si Si1 0.637013 0.394860 0.639602
Si Si2 0.855426 0.967058 0.205072
Si Si3 0.344442 0.167584 0.991265
Si Si4 0.472220 0.959492 0.648171
Si Si5 0.853052 0.593005 0.540612
Si Si6 0.045414 0.717459 0.351024
Si Si7 0.022971 0.792214 0.858300
O O1 0.500000 0.414986 0.750000
O O2 0.585662 0.288963 0.575579
O O3 0.676524 0.523028 0.576330
O O4 0.806838 0.373352 0.660080
O O5 0.000000 0.979718 0.250000
O O6 0.884966 0.849367 0.131973
O O7 0.688476 0.955446 0.304866
O O8 0.862874 0.091156 0.141314
O O9 0.439486 0.143245 0.073465
O O10 0.151685 0.191723 0.049423
O O11 0.377523 0.049727 0.914947
O O12 0.500000 0.901452 0.750000
O O13 0.876773 0.685332 0.444799
O O14 0.000000 0.500000 0.500000
O O15 0.877479 0.673863 0.631097
O O16 0.000000 0.716847 0.250000
O O17 0.000000 0.773494 0.750000
#
# Coordination Sequence:
#
# PCOD8119372 Si02
#       7
#     4   4   4   4   4   4   4
#     4  11  23  46  72  94 134 186 238 288 352 411
#     4  10  20  38  63  96 140 174 213 273 346 417
#     4  11  21  41  71  99 140 195 223 277 358 415
#     4  11  23  39  64 108 150 176 225 279 351 429
#     4  10  22  41  66  98 125 179 242 279 339 406
#     4  10  21  39  66 104 132 170 230 285 338 422
#     4  11  21  41  69 101 131 183 225 282 346 411
#
# _framework density 22.658272
#
# number of rings (size 3 to 8) (size 9 to 14) (size 15 to 20)
#    0.000    1.429    5.714    2.143    0.000    2.857 
#    0.000    1.429    6.286    0.000    0.000    0.000 
#    0.000    0.000    0.000    0.000    0.000    0.000 
#
# Total GULP energy -346959.077830 kJ/mol
# GULP energy per Si atom -12391.395637 kJ/mol
# Density = 2.260670 g / cm^3
# Si number density = 22.658272 Si / 1000 Ang^3
#
#
#
# Elastic Constant Matrix: (Units=GPa)
#
#
# Indices 1 2 3 4 5 6 
#
# 1 56.8226 31.5067 34.0731 0.0000 -11.4701 0.0000
# 2 31.5067 138.1486 67.2159 0.0000 -15.8508 0.0000
# 3 34.0731 67.2159 154.9425 0.0000 -10.4023 0.0000
# 4 0.0000 0.0000 0.0000 46.6344 0.0000 -1.5350
# 5 -11.4701 -15.8508 -10.4023 0.0000 37.6029 0.0000
# 6 0.0000 0.0000 0.0000 -1.5350 0.0000 32.9652
#
#
#
# Elastic Compliance Matrix: (Units=1/GPa)
#
#
# Indices 1 2 3 4 5 6 
#
# 1 0.022118 -0.002915 -0.003290 0.000000 0.004608 0.000000
# 2 -0.002915 0.009862 -0.003483 0.000000 0.002305 0.000000
# 3 -0.003290 -0.003483 0.008684 0.000000 -0.000069 0.000000
# 4 0.000000 0.000000 0.000000 0.021476 0.000000 0.001000
# 5 0.004608 0.002305 -0.000069 0.000000 0.028952 0.000000
# 6 0.000000 0.000000 0.000000 0.001000 0.000000 0.030382
#
#
# Mechanical properties :
#
#
# Convention : Reuss Voigt Hill
#
# Bulk Modulus (GPa) = 46.97329 68.38947 57.68138
# Shear Modulus (GPa) = 33.79648 37.91502 35.85575
#
# Velocity S-wave (km/s) = 3.86628 4.09509 3.98233
# Velocity P-wave (km/s) = 6.38020 7.25315 6.83064
#
# Compressibility (1/GPa) = 0.02128869
#
# Stress axis : x y z
#
# Youngs Moduli (GPa) = 45.21247 101.39665 115.15871
#
# Poissons Ratio (x) = 0.29555 0.37888
# Poissons Ratio (y) = 0.13179 0.40106
# Poissons Ratio (z) = 0.14875 0.35313
#
# Static dielectric constant tensor:
#      x y z
#    x 3.836400 0.000000 -0.205960 
#    y 0.000000 5.204400 0.000000 
#    z -0.205960 0.000000 4.504500 
# 
# 
# High freq. dielectric constant tensor:
#      x y z
#    x 1.875610 0.000000 -0.006180 
#    y 0.000000 1.890000 0.000000 
#    z -0.006180 0.000000 1.908280 
# 
# From -- ./inp_files/46865.got.cif
#   From: 2010.06.25/outbox.cif.g09.slc.cpg/sg13_24_cif.got.tgz:46865.got - 2010.06.28 04:50:58.
