data_PCOD8119187
_publ_section_title
;
Structure prediction by ZEFSAII (Michael W. Deem and Ramdas Pophale) SiO2 
 PCOD8119187
Probable space group: P 2/C
;
_chemical_formula_sum "Si O2"
_cell_formula_units_Z 26
_cell_length_a 15.535629
_cell_length_b 9.693385
_cell_length_c 14.382293
_cell_angle_alpha 90.000000
_cell_angle_beta 35.771782
_cell_angle_gamma 90.000000
_cell_volume 1266.077123
_symmetry_space_group_name_H-M "P 2/C"
_symmetry_group_IT_number 13
_symmetry_cell_setting 'monoclinic'
loop_
_space_group_symop_operation_xyz
x,y,z
-x,y,1/2-z
-x,-y,-z
x,-y,1/2+z
loop_
_atom_site_type_symbol
_atom_site_label
_atom_site_fract_x
_atom_site_fract_y
_atom_site_fract_z
Si Si1 0.847867 0.232223 0.677258
Si Si2 0.837801 0.345402 0.886567
Si Si3 0.384543 0.434737 0.964776
Si Si4 0.298222 0.495443 0.247347
Si Si5 0.175401 0.775396 0.918624
Si Si6 0.622911 0.014546 0.812924
Si Si7 0.500000 0.189329 0.750000
O O1 0.809863 0.271804 0.814588
O O2 0.788915 0.360422 0.668350
O O3 0.759557 0.096079 0.732939
O O4 0.017964 0.191112 0.509800
O O5 0.000000 0.415492 0.750000
O O6 0.713512 0.462258 0.011734
O O7 0.829922 0.216219 0.964884
O O8 0.550094 0.490256 0.829482
O O9 0.387508 0.286926 0.908165
O O10 0.318103 0.430053 0.126696
O O11 0.196263 0.387503 0.387900
O O12 0.313352 0.862242 0.761259
O O13 0.574119 0.088051 0.760337
O O14 0.500000 0.000000 0.000000
#
# Coordination Sequence:
#
# PCOD8119187 Si02
#       7
#     4   4   4   4   4   4   2
#     4  10  22  45  64  90 135 163 212 271 326 387
#     4   9  21  38  65  95 128 165 213 263 325 395
#     4  10  20  37  63  95 133 160 211 274 323 377
#     4  10  20  38  68  97 125 166 213 273 331 382
#     4  11  23  40  67  96 122 174 214 260 330 389
#     4  12  28  43  65  92 133 175 223 271 321 389
#     4  12  24  42  62  94 130 172 218 274 326 392
#
# _framework density 20.535875000000001
#
# number of rings (size 3 to 8) (size 9 to 14) (size 15 to 20)
#    0.000    1.538    1.538    2.769    6.462    0.000 
#    0.000    0.000    0.000    0.000    0.000    0.000 
#    0.000    0.000    0.000    0.000    0.000    0.000 
#
# Total GULP energy -322226.946587 kJ/mol
# GULP energy per Si atom -12393.344100 kJ/mol
# Density = 2.048913 g / cm^3
# Si number density = 20.535875 Si / 1000 Ang^3
#
#
#
# Elastic Constant Matrix: (Units=GPa)
#
#
# Indices 1 2 3 4 5 6 
#
# 1 112.3399 38.3663 41.7676 0.0000 -25.5991 0.0000
# 2 38.3663 89.6531 38.9376 0.0000 -8.3818 0.0000
# 3 41.7676 38.9376 93.4632 0.0000 -14.3149 0.0000
# 4 0.0000 0.0000 0.0000 38.4437 0.0000 2.2906
# 5 -25.5991 -8.3818 -14.3149 0.0000 22.4753 0.0000
# 6 0.0000 0.0000 0.0000 2.2906 0.0000 33.2407
#
#
#
# Elastic Compliance Matrix: (Units=1/GPa)
#
#
# Indices 1 2 3 4 5 6 
#
# 1 0.014139 -0.003610 -0.002830 0.000000 0.012955 0.000000
# 2 -0.003610 0.014594 -0.004723 0.000000 -0.001678 0.000000
# 3 -0.002830 -0.004723 0.014592 0.000000 0.004309 0.000000
# 4 0.000000 0.000000 0.000000 0.026119 0.000000 -0.001800
# 5 0.012955 -0.001678 0.004309 0.000000 0.061367 0.000000
# 6 0.000000 0.000000 0.000000 -0.001800 0.000000 0.030208
#
#
# Mechanical properties :
#
#
# Convention : Reuss Voigt Hill
#
# Bulk Modulus (GPa) = 47.62674 59.28878 53.45776
# Shear Modulus (GPa) = 26.26800 30.59093 28.42946
#
# Velocity S-wave (km/s) = 3.58037 3.86376 3.72476
# Velocity P-wave (km/s) = 6.35094 6.98845 6.67730
#
# Compressibility (1/GPa) = 0.02099661
#
# Stress axis : x y z
#
# Youngs Moduli (GPa) = 70.72694 68.52287 68.53081
#
# Poissons Ratio (x) = 0.24738 0.19396
# Poissons Ratio (y) = 0.25534 0.32371
# Poissons Ratio (z) = 0.20017 0.32367
#
# Static dielectric constant tensor:
#      x y z
#    x 4.055980 0.000000 0.079720 
#    y 0.000000 3.667940 0.000000 
#    z 0.079720 0.000000 3.773690 
# 
# 
# High freq. dielectric constant tensor:
#      x y z
#    x 1.821770 0.000000 0.003740 
#    y 0.000000 1.790130 0.000000 
#    z 0.003740 0.000000 1.804270 
# 
# From -- ./inp_files/53315.got.cif
#   From: 2010.06.25/outbox.cif.g09.slc.cpg/sg13_27_cif.got.tgz:53315.got - 2010.06.28 04:50:58.
