data_PCOD8119194
_publ_section_title
;
Structure prediction by ZEFSAII (Michael W. Deem and Ramdas Pophale) SiO2 
 PCOD8119194
Probable space group: P 2/C
;
_chemical_formula_sum "Si O2"
_cell_formula_units_Z 26
_cell_length_a 9.043001
_cell_length_b 14.105544
_cell_length_c 14.492368
_cell_angle_alpha 90.000000
_cell_angle_beta 44.993195
_cell_angle_gamma 90.000000
_cell_volume 1306.998795
_symmetry_space_group_name_H-M "P 2/C"
_symmetry_group_IT_number 13
_symmetry_cell_setting 'monoclinic'
loop_
_space_group_symop_operation_xyz
x,y,z
-x,y,1/2-z
-x,-y,-z
x,-y,1/2+z
loop_
_atom_site_type_symbol
_atom_site_label
_atom_site_fract_x
_atom_site_fract_y
_atom_site_fract_z
Si Si1 0.598282 0.833149 0.112244
Si Si2 0.500000 0.655712 0.250000
Si Si3 0.957443 0.594627 0.073766
Si Si4 0.302126 0.819512 0.083959
Si Si5 0.000000 0.659832 0.250000
Si Si6 0.000000 0.020303 0.750000
Si Si7 0.954127 0.083410 0.090502
Si Si8 0.708364 0.247547 0.112448
O O1 0.500000 0.881141 0.250000
O O2 0.572009 0.719950 0.131709
O O3 0.484564 0.862140 0.067683
O O4 0.838002 0.855238 0.993729
O O5 0.705645 0.597359 0.185253
O O6 0.030868 0.591275 0.148371
O O7 0.090989 0.681870 0.971301
O O8 0.000000 0.500000 0.000000
O O9 0.160178 0.911107 0.126104
O O10 0.190137 0.732750 0.188037
O O11 0.367502 0.777414 0.957030
O O12 0.891797 0.956356 0.718849
O O13 0.767311 0.150629 0.139034
O O14 0.000000 0.000000 0.000000
O O15 0.500000 0.293193 0.250000
#
# Coordination Sequence:
#
# PCOD8119194 Si02
#       8
#     4   2   4   4   2   2   4   4
#     4  10  20  37  64  88 119 162 222 257 316 374
#     4  10  20  42  68  96 122 170 212 256 318 390
#     4  11  23  43  72  99 127 164 217 264 328 387
#     4  10  20  40  65  86 120 176 219 261 313 384
#     4   9  18  40  67  94 120 166 209 262 315 390
#     4  11  24  36  61  88 130 164 233 260 317 378
#     4  12  24  41  58  91 129 172 219 270 316 375
#     4  11  25  44  62  93 137 171 207 274 332 378
#
# _framework density 19.892901999999999
#
# number of rings (size 3 to 8) (size 9 to 14) (size 15 to 20)
#    0.462    0.923    4.615    0.923    5.385    2.462 
#    0.000    3.077    0.000    0.000    0.000    0.000 
#    0.000    0.000    0.000    0.000    0.000    0.000 
#
# Total GULP energy -322133.646157 kJ/mol
# GULP energy per Si atom -12389.755621 kJ/mol
# Density = 1.984762 g / cm^3
# Si number density = 19.892902 Si / 1000 Ang^3
#
#
#
# Elastic Constant Matrix: (Units=GPa)
#
#
# Indices 1 2 3 4 5 6 
#
# 1 112.6293 38.4807 35.9620 0.0000 3.2727 0.0000
# 2 38.4807 90.0502 34.3165 0.0000 10.2727 0.0000
# 3 35.9620 34.3165 93.7223 0.0000 -0.2352 0.0000
# 4 0.0000 0.0000 0.0000 29.3532 0.0000 8.8407
# 5 3.2727 10.2727 -0.2352 0.0000 41.4238 0.0000
# 6 0.0000 0.0000 0.0000 8.8407 0.0000 24.4148
#
#
#
# Elastic Compliance Matrix: (Units=1/GPa)
#
#
# Indices 1 2 3 4 5 6 
#
# 1 0.011042 -0.003608 -0.002916 0.000000 0.000006 0.000000
# 2 -0.003608 0.014531 -0.003944 0.000000 -0.003341 0.000000
# 3 -0.002916 -0.003944 0.013236 0.000000 0.001284 0.000000
# 4 0.000000 0.000000 0.000000 0.038238 0.000000 -0.013846
# 5 0.000006 -0.003341 0.001284 0.000000 0.024976 0.000000
# 6 0.000000 0.000000 0.000000 -0.013846 0.000000 0.045973
#
#
# Mechanical properties :
#
#
# Convention : Reuss Voigt Hill
#
# Bulk Modulus (GPa) = 55.95174 57.10222 56.52698
# Shear Modulus (GPa) = 28.58929 31.54787 30.06858
#
# Velocity S-wave (km/s) = 3.79510 3.98664 3.89205
# Velocity P-wave (km/s) = 6.88413 7.06811 6.97673
#
# Compressibility (1/GPa) = 0.01787255
#
# Stress axis : x y z
#
# Youngs Moduli (GPa) = 90.56098 68.81816 75.55063
#
# Poissons Ratio (x) = 0.24830 0.22030
# Poissons Ratio (y) = 0.32675 0.29801
# Poissons Ratio (z) = 0.26406 0.27145
#
# Static dielectric constant tensor:
#      x y z
#    x 3.358420 0.000000 0.241130 
#    y 0.000000 3.437020 0.000000 
#    z 0.241130 0.000000 3.331040 
# 
# 
# High freq. dielectric constant tensor:
#      x y z
#    x 1.784750 0.000000 0.001670 
#    y 0.000000 1.750510 0.000000 
#    z 0.001670 0.000000 1.766660 
# 
# From -- ./inp_files/47916.got.cif
#   From: 2010.06.25/outbox.cif.g09.slc.cpg/sg13_24_cif.got.tgz:47916.got - 2010.06.28 04:50:58.
