data_PCOD8119030
_publ_section_title
;
Structure prediction by ZEFSAII (Michael W. Deem and Ramdas Pophale) SiO2 
 PCOD8119030
Probable space group: P 2/C
;
_chemical_formula_sum "Si O2"
_cell_formula_units_Z 32
_cell_length_a 11.511791
_cell_length_b 16.616979
_cell_length_c 9.293532
_cell_angle_alpha 90.000000
_cell_angle_beta 79.487560
_cell_angle_gamma 90.000000
_cell_volume 1747.931471
_symmetry_space_group_name_H-M "P 2/C"
_symmetry_group_IT_number 13
_symmetry_cell_setting 'monoclinic'
loop_
_space_group_symop_operation_xyz
x,y,z
-x,y,1/2-z
-x,-y,-z
x,-y,1/2+z
loop_
_atom_site_type_symbol
_atom_site_label
_atom_site_fract_x
_atom_site_fract_y
_atom_site_fract_z
Si Si1 0.321802 0.693789 0.162258
Si Si2 0.506133 0.230552 0.077718
Si Si3 0.293145 0.789493 0.451355
Si Si4 0.466980 0.080047 0.922980
Si Si5 0.910259 0.622074 0.392095
Si Si6 0.219879 0.462544 0.086644
Si Si7 0.371434 0.470223 0.787256
Si Si8 0.930277 0.302904 0.405814
O O1 0.328274 0.763149 0.281576
O O2 0.185471 0.680067 0.158278
O O3 0.384515 0.614098 0.204129
O O4 0.389544 0.711189 0.997686
O O5 0.500000 0.224534 0.250000
O O6 0.377935 0.258877 0.045101
O O7 0.542647 0.146255 0.993199
O O8 0.329214 0.885382 0.458021
O O9 0.157000 0.768775 0.519984
O O10 0.500000 0.068777 0.750000
O O11 0.500000 0.000000 0.000000
O O12 0.855404 0.537871 0.458517
O O13 0.000000 0.594878 0.250000
O O14 0.971918 0.675264 0.499368
O O15 0.332429 0.452865 0.958243
O O16 0.270387 0.476247 0.234678
O O17 0.142808 0.382894 0.110064
O O18 0.500000 0.513053 0.750000
O O19 0.000000 0.271740 0.250000
#
# Coordination Sequence:
#
# PCOD8119030 Si02
#       8
#     4   4   4   4   4   4   4   4
#     4  11  20  39  60  84 115 162 199 252 309 370
#     4  10  21  36  61  90 125 150 193 244 303 365
#     4  10  20  39  59  86 123 164 189 245 311 359
#     4  10  20  36  63  97 130 156 191 229 301 370
#     4  11  22  37  58  81 109 158 220 258 307 365
#     4  11  22  38  54  78 112 157 210 264 318 359
#     4  11  22  37  55  78 113 159 207 258 321 385
#     4  12  23  37  57  84 120 158 210 260 308 353
#
# _framework density 18.307354
#
# number of rings (size 3 to 8) (size 9 to 14) (size 15 to 20)
#    0.750    0.500    3.750    4.125    1.750    0.000 
#    0.000    0.000    0.000    0.000    0.000    4.375 
#    0.000    0.000    0.000    0.000    0.000    0.000 
#
# Total GULP energy -396482.980692 kJ/mol
# GULP energy per Si atom -12390.093147 kJ/mol
# Density = 1.826569 g / cm^3
# Si number density = 18.307354 Si / 1000 Ang^3
#
#
#
# Elastic Constant Matrix: (Units=GPa)
#
#
# Indices 1 2 3 4 5 6 
#
# 1 98.7453 27.0179 30.9491 0.0000 -2.6530 0.0000
# 2 27.0179 70.0273 25.8974 0.0000 0.9214 0.0000
# 3 30.9491 25.8974 130.8122 0.0000 -12.1276 0.0000
# 4 0.0000 0.0000 0.0000 22.6652 0.0000 -0.3219
# 5 -2.6530 0.9214 -12.1276 0.0000 25.9429 0.0000
# 6 0.0000 0.0000 0.0000 -0.3219 0.0000 20.2901
#
#
#
# Elastic Compliance Matrix: (Units=1/GPa)
#
#
# Indices 1 2 3 4 5 6 
#
# 1 0.011811 -0.003823 -0.002000 0.000000 0.000409 0.000000
# 2 -0.003823 0.016752 -0.002617 0.000000 -0.002209 0.000000
# 3 -0.002000 -0.002617 0.009016 0.000000 0.004103 0.000000
# 4 0.000000 0.000000 0.000000 0.044130 0.000000 0.000700
# 5 0.000409 -0.002209 0.004103 0.000000 0.040585 0.000000
# 6 0.000000 0.000000 0.000000 0.000700 0.000000 0.049296
#
#
# Mechanical properties :
#
#
# Convention : Reuss Voigt Hill
#
# Bulk Modulus (GPa) = 48.30827 51.92373 50.11600
# Shear Modulus (GPa) = 25.59270 28.16101 26.87685
#
# Velocity S-wave (km/s) = 3.74297 3.92629 3.83572
# Velocity P-wave (km/s) = 6.71747 6.99844 6.85939
#
# Compressibility (1/GPa) = 0.02070039
#
# Stress axis : x y z
#
# Youngs Moduli (GPa) = 84.66888 59.69500 110.91244
#
# Poissons Ratio (x) = 0.22820 0.22178
# Poissons Ratio (y) = 0.32366 0.29024
# Poissons Ratio (z) = 0.16931 0.15621
#
# Static dielectric constant tensor:
#      x y z
#    x 3.441460 0.000000 0.125270 
#    y 0.000000 3.102970 0.000000 
#    z 0.125270 0.000000 4.271010 
# 
# 
# High freq. dielectric constant tensor:
#      x y z
#    x 1.708710 0.000000 0.002420 
#    y 0.000000 1.670290 0.000000 
#    z 0.002420 0.000000 1.725270 
# 
# From -- ./inp_files/17064.got.cif
#   From: 2010.06.25/outbox.cif.g09.slc.cpg/sg13_9_cif.got.tgz:17064.got - 2010.06.28 04:50:58.
