data_PCOD8119146
_publ_section_title
;
Structure prediction by ZEFSAII (Michael W. Deem and Ramdas Pophale) SiO2 
 PCOD8119146
Probable space group: P 2/C
;
_chemical_formula_sum "Si O2"
_cell_formula_units_Z 30
_cell_length_a 19.796296
_cell_length_b 14.567840
_cell_length_c 14.057620
_cell_angle_alpha 90.000000
_cell_angle_beta 21.292677
_cell_angle_gamma 90.000000
_cell_volume 1472.161987
_symmetry_space_group_name_H-M "P 2/C"
_symmetry_group_IT_number 13
_symmetry_cell_setting 'monoclinic'
loop_
_space_group_symop_operation_xyz
x,y,z
-x,y,1/2-z
-x,-y,-z
x,-y,1/2+z
loop_
_atom_site_type_symbol
_atom_site_label
_atom_site_fract_x
_atom_site_fract_y
_atom_site_fract_z
Si Si1 0.716573 0.356053 0.303392
Si Si2 0.464662 0.814163 0.558371
Si Si3 0.344157 0.714462 0.893828
Si Si4 0.500000 0.452547 0.750000
Si Si5 0.788637 0.453223 0.023004
Si Si6 0.878068 0.859765 0.999723
Si Si7 0.120007 0.929194 0.999985
Si Si8 0.967240 0.222639 0.574335
O O1 0.595960 0.268836 0.430460
O O2 0.638873 0.392454 0.505003
O O3 0.714566 0.440831 0.229216
O O4 0.925166 0.318325 0.047310
O O5 0.465688 0.776956 0.664238
O O6 0.335722 0.904511 0.731669
O O7 0.662418 0.845910 0.259899
O O8 0.500000 0.657234 0.750000
O O9 0.195686 0.651551 0.033835
O O10 0.231129 0.777453 0.114293
O O11 0.360786 0.501614 0.854150
O O12 0.000000 0.496165 0.750000
O O13 0.000000 0.832384 0.750000
O O14 0.941864 0.788542 0.995669
O O15 0.911268 0.965184 0.985401
O O16 0.000000 0.900405 0.250000
O O17 0.067569 0.868383 0.978617
#
# Coordination Sequence:
#
# PCOD8119146 Si02
#       8
#     4   4   4   2   4   4   4   4
#     4  10  25  42  66  92 126 168 210 260 315 388
#     4  10  21  38  63  85 124 162 214 263 312 371
#     4  11  19  37  67  94 113 154 217 274 316 363
#     4  12  26  46  64  94 140 170 204 252 336 400
#     4  11  23  44  69  99 125 160 215 273 319 379
#     4  11  24  37  56  91 132 170 209 262 320 388
#     4  10  20  37  61  90 123 163 214 273 327 363
#     4  11  21  40  65  88 123 164 217 263 317 382
#
# _framework density 20.378193
#
# number of rings (size 3 to 8) (size 9 to 14) (size 15 to 20)
#    0.000    1.333    4.667    1.200    1.867    0.533 
#    2.400    0.000    0.000    0.000    0.000    0.000 
#    0.000    0.000    0.000    0.000    0.000    0.000 
#
# Total GULP energy -371651.929858 kJ/mol
# GULP energy per Si atom -12388.397662 kJ/mol
# Density = 2.033181 g / cm^3
# Si number density = 20.378193 Si / 1000 Ang^3
#
#
#
# Elastic Constant Matrix: (Units=GPa)
#
#
# Indices 1 2 3 4 5 6 
#
# 1 95.8161 25.4201 41.3881 0.0000 8.8114 0.0000
# 2 25.4201 45.9202 23.9170 0.0000 9.0656 0.0000
# 3 41.3881 23.9170 129.3842 0.0000 10.1111 0.0000
# 4 0.0000 0.0000 0.0000 26.9476 0.0000 6.9751
# 5 8.8114 9.0656 10.1111 0.0000 43.2282 0.0000
# 6 0.0000 0.0000 0.0000 6.9751 0.0000 20.9035
#
#
#
# Elastic Compliance Matrix: (Units=1/GPa)
#
#
# Indices 1 2 3 4 5 6 
#
# 1 0.013366 -0.005583 -0.003180 0.000000 -0.000810 0.000000
# 2 -0.005583 0.027159 -0.002932 0.000000 -0.003872 0.000000
# 3 -0.003180 -0.002932 0.009361 0.000000 -0.000926 0.000000
# 4 0.000000 0.000000 0.000000 0.040617 0.000000 -0.013553
# 5 -0.000810 -0.003872 -0.000926 0.000000 0.024327 0.000000
# 6 0.000000 0.000000 0.000000 -0.013553 0.000000 0.052361
#
#
# Mechanical properties :
#
#
# Convention : Reuss Voigt Hill
#
# Bulk Modulus (GPa) = 37.74238 50.28566 44.01402
# Shear Modulus (GPa) = 25.07367 30.24222 27.65794
#
# Velocity S-wave (km/s) = 3.51154 3.85651 3.68806
# Velocity P-wave (km/s) = 5.91628 6.67533 6.30723
#
# Compressibility (1/GPa) = 0.02649541
#
# Stress axis : x y z
#
# Youngs Moduli (GPa) = 74.81680 36.82046 106.83050
#
# Poissons Ratio (x) = 0.20556 0.33975
# Poissons Ratio (y) = 0.41768 0.31322
# Poissons Ratio (z) = 0.23794 0.10796
#
# Static dielectric constant tensor:
#      x y z
#    x 3.830740 0.000000 -0.063950 
#    y 0.000000 3.458190 0.000000 
#    z -0.063950 0.000000 3.648760 
# 
# 
# High freq. dielectric constant tensor:
#      x y z
#    x 1.805010 0.000000 -0.003230 
#    y 0.000000 1.775200 0.000000 
#    z -0.003230 0.000000 1.803630 
# 
# From -- ./inp_files/57807.got.cif
#   From: 2010.06.25/outbox.cif.g09.slc.cpg/sg13_29_cif.got.tgz:57807.got - 2010.06.28 04:50:58.
