data_PCOD8119096
_publ_section_title
;
Structure prediction by ZEFSAII (Michael W. Deem and Ramdas Pophale) SiO2 
 PCOD8119096
Probable space group: P 2/C
;
_chemical_formula_sum "Si O2"
_cell_formula_units_Z 24
_cell_length_a 8.870292
_cell_length_b 18.193066
_cell_length_c 8.286648
_cell_angle_alpha 90.000000
_cell_angle_beta 120.383842
_cell_angle_gamma 90.000000
_cell_volume 1153.614011
_symmetry_space_group_name_H-M "P 2/C"
_symmetry_group_IT_number 13
_symmetry_cell_setting 'monoclinic'
loop_
_space_group_symop_operation_xyz
x,y,z
-x,y,1/2-z
-x,-y,-z
x,-y,1/2+z
loop_
_atom_site_type_symbol
_atom_site_label
_atom_site_fract_x
_atom_site_fract_y
_atom_site_fract_z
Si Si1 0.688354 0.406897 0.791579
Si Si2 0.825480 0.451935 0.552413
Si Si3 0.018104 0.174457 0.947384
Si Si4 0.987449 0.669683 0.931083
Si Si5 0.686589 0.931642 0.779825
Si Si6 0.311403 0.906210 0.098583
O O1 0.500000 0.382451 0.750000
O O2 0.674169 0.426711 0.594355
O O3 0.766510 0.474866 0.932797
O O4 0.820124 0.338751 0.885619
O O5 0.000000 0.467522 0.750000
O O6 0.853305 0.388690 0.435083
O O7 0.000000 0.191291 0.750000
O O8 0.835428 0.150575 0.926744
O O9 0.163426 0.112553 0.048139
O O10 0.081000 0.248544 0.070233
O O11 0.000000 0.654123 0.750000
O O12 0.500000 0.907047 0.750000
O O13 0.696256 0.917308 0.596080
O O14 0.720308 0.017416 0.826491
O O15 0.500000 0.873686 0.250000
#
# Coordination Sequence:
#
# PCOD8119096 Si02
#       6
#     4   4   4   4   4   4
#     4  11  21  36  60  89 115 146 190 242 287 339
#     4  10  20  37  59  83 114 152 190 231 285 346
#     4  12  24  41  62  87 119 159 200 245 299 358
#     4  11  23  41  59  81 115 156 193 234 290 355
#     4  11  22  40  62  91 121 156 200 247 296 349
#     4  11  22  39  63  91 122 157 198 247 295 349
#
# _framework density 20.804186999999999
#
# number of rings (size 3 to 8) (size 9 to 14) (size 15 to 20)
#    0.000    1.000    0.000   11.500    0.000    0.667 
#    0.000    5.833    0.000    0.000    0.000    0.000 
#    0.000    0.000    0.000    0.000    0.000    0.000 
#
# Total GULP energy -297725.730113 kJ/mol
# GULP energy per Si atom -12405.238755 kJ/mol
# Density = 2.075684 g / cm^3
# Si number density = 20.804187 Si / 1000 Ang^3
#
#
#
# Elastic Constant Matrix: (Units=GPa)
#
#
# Indices 1 2 3 4 5 6 
#
# 1 100.1767 9.4811 18.6947 0.0000 -15.7931 0.0000
# 2 9.4811 43.8211 4.9814 0.0000 3.8166 0.0000
# 3 18.6947 4.9814 87.5375 0.0000 -32.3215 0.0000
# 4 0.0000 0.0000 0.0000 33.5283 0.0000 -21.5216
# 5 -15.7931 3.8166 -32.3215 0.0000 49.4174 0.0000
# 6 0.0000 0.0000 0.0000 -21.5216 0.0000 -106.9282
#
#
#
# Elastic Compliance Matrix: (Units=1/GPa)
#
#
# Indices 1 2 3 4 5 6 
#
# 1 0.010888 -0.002489 -0.001091 0.000000 0.002958 0.000000
# 2 -0.002489 0.023997 -0.002389 0.000000 -0.004211 0.000000
# 3 -0.001091 -0.002389 0.015467 0.000000 0.009952 0.000000
# 4 0.000000 0.000000 0.000000 0.026413 0.000000 -0.005316
# 5 0.002958 -0.004211 0.009952 0.000000 0.028016 0.000000
# 6 0.000000 0.000000 0.000000 -0.005316 0.000000 -0.008282
#
#
# Mechanical properties :
#
#
# Convention : Reuss Voigt Hill
#
# Bulk Modulus (GPa) = 26.03280 33.09441 29.56361
# Shear Modulus (GPa) = 41.23969 8.42871 24.83420
#
# Velocity S-wave (km/s) = 4.45711 2.01501 3.45876
# Velocity P-wave (km/s) = 6.24725 4.62123 5.49472
#
# Compressibility (1/GPa) = 0.03841308
#
# Stress axis : x y z
#
# Youngs Moduli (GPa) = 91.84451 41.67193 64.65241
#
# Poissons Ratio (x) = 0.10373 0.07056
# Poissons Ratio (y) = 0.22863 0.15445
# Poissons Ratio (z) = 0.10024 0.09955
#
# Static dielectric constant tensor:
#      x y z
#    x 5.435770 0.000000 0.066590 
#    y 0.000000 3.723970 0.000000 
#    z 0.066590 0.000000 3.958860 
# 
# 
# High freq. dielectric constant tensor:
#      x y z
#    x 1.823980 0.000000 -0.021330 
#    y 0.000000 1.807690 0.000000 
#    z -0.021330 0.000000 1.824140 
# 
# From -- ./inp_files/12858.got.cif
#   From: 2010.06.25/outbox.cif.g09.slc.cpg/sg13_7_cif.got.tgz:12858.got - 2010.06.28 04:50:58.
