data_PCOD8119246
_publ_section_title
;
Structure prediction by ZEFSAII (Michael W. Deem and Ramdas Pophale) SiO2 
 PCOD8119246
Probable space group: P 2/C
;
_chemical_formula_sum "Si O2"
_cell_formula_units_Z 28
_cell_length_a 20.862225
_cell_length_b 7.657695
_cell_length_c 23.791419
_cell_angle_alpha 90.000000
_cell_angle_beta 158.881214
_cell_angle_gamma 90.000000
_cell_volume 1369.451108
_symmetry_space_group_name_H-M "P 2/C"
_symmetry_group_IT_number 13
_symmetry_cell_setting 'monoclinic'
loop_
_space_group_symop_operation_xyz
x,y,z
-x,y,1/2-z
-x,-y,-z
x,-y,1/2+z
loop_
_atom_site_type_symbol
_atom_site_label
_atom_site_fract_x
_atom_site_fract_y
_atom_site_fract_z
Si Si1 0.292087 0.469003 0.996269
Si Si2 0.199984 0.057563 0.652975
Si Si3 0.987355 0.448746 0.830399
Si Si4 0.356739 0.158360 0.586018
Si Si5 0.199385 0.130113 0.773080
Si Si6 0.541646 0.137864 0.413771
Si Si7 0.059741 0.811530 0.929423
O O1 0.162319 0.489079 0.837687
O O2 0.178917 0.416485 0.958658
O O3 0.395011 0.650426 0.091117
O O4 0.436477 0.318410 0.102292
O O5 0.265936 0.158812 0.763031
O O6 0.198479 0.173310 0.595148
O O7 0.331755 0.894739 0.749693
O O8 0.000000 0.000000 0.500000
O O9 0.946529 0.276483 0.832533
O O10 0.988810 0.614026 0.873137
O O11 0.500000 0.109680 0.750000
O O12 0.160587 0.153760 0.453049
O O13 0.361566 0.017831 0.540405
O O14 0.368909 0.147339 0.951801
O O15 0.106868 0.941443 0.702843
#
# Coordination Sequence:
#
# PCOD8119246 Si02
#       7
#     4   4   4   4   4   4   4
#     4   9  20  35  57  88 118 144 188 241 292 352
#     4  10  22  40  57  82 117 157 197 235 284 339
#     4   9  18  36  59  87 114 149 191 236 292 346
#     4  11  21  36  57  89 118 149 186 232 301 351
#     4  10  21  37  62  85 112 157 198 234 282 337
#     4  11  21  39  61  85 115 151 194 242 289 342
#     4  10  20  38  58  85 121 149 186 239 288 350
#
# _framework density 20.446148999999998
#
# number of rings (size 3 to 8) (size 9 to 14) (size 15 to 20)
#    0.000    2.000    1.429    2.143    0.000    4.000 
#   10.286    2.857    0.000   10.286    0.000    0.000 
#    0.000    0.000    0.000    0.000    0.000    0.000 
#
# Total GULP energy -347212.420961 kJ/mol
# GULP energy per Si atom -12400.443606 kJ/mol
# Density = 2.039961 g / cm^3
# Si number density = 20.446149 Si / 1000 Ang^3
#
#
#
# Elastic Constant Matrix: (Units=GPa)
#
#
# Indices 1 2 3 4 5 6 
#
# 1 91.0997 50.8124 23.0648 0.0000 -3.6831 0.0000
# 2 50.8124 115.9062 31.6684 0.0000 -5.8369 0.0000
# 3 23.0648 31.6684 63.0898 0.0000 4.6014 0.0000
# 4 0.0000 0.0000 0.0000 24.1116 0.0000 -3.5896
# 5 -3.6831 -5.8369 4.6014 0.0000 27.2573 0.0000
# 6 0.0000 0.0000 0.0000 -3.5896 0.0000 21.1167
#
#
#
# Elastic Compliance Matrix: (Units=1/GPa)
#
#
# Indices 1 2 3 4 5 6 
#
# 1 0.014904 -0.005747 -0.002654 0.000000 0.001231 0.000000
# 2 -0.005747 0.012467 -0.004349 0.000000 0.002627 0.000000
# 3 -0.002654 -0.004349 0.019336 0.000000 -0.004554 0.000000
# 4 0.000000 0.000000 0.000000 0.042551 0.000000 0.007233
# 5 0.001231 0.002627 -0.004554 0.000000 0.038185 0.000000
# 6 0.000000 0.000000 0.000000 0.007233 0.000000 0.048585
#
#
# Mechanical properties :
#
#
# Convention : Reuss Voigt Hill
#
# Bulk Modulus (GPa) = 47.15135 53.46521 50.30828
# Shear Modulus (GPa) = 23.96966 25.46713 24.71839
#
# Velocity S-wave (km/s) = 3.42765 3.53309 3.48077
# Velocity P-wave (km/s) = 6.22706 6.54597 6.38851
#
# Compressibility (1/GPa) = 0.02120830
#
# Stress axis : x y z
#
# Youngs Moduli (GPa) = 67.09610 80.20858 51.71771
#
# Poissons Ratio (x) = 0.46093 0.13725
# Poissons Ratio (y) = 0.38558 0.22491
# Poissons Ratio (z) = 0.17807 0.34882
#
# Static dielectric constant tensor:
#      x y z
#    x 4.194980 0.000000 -0.226220 
#    y 0.000000 3.656550 0.000000 
#    z -0.226220 0.000000 3.578300 
# 
# 
# High freq. dielectric constant tensor:
#      x y z
#    x 1.806090 0.000000 -0.008620 
#    y 0.000000 1.789380 0.000000 
#    z -0.008620 0.000000 1.793730 
# 
# From -- ./inp_files/88519.got.cif
#   From: 2010.06.25/outbox.cif.g09.slc.cpg/sg13_45_cif.got.tgz:88519.got - 2010.06.28 04:50:58.
