data_PCOD8119365
_publ_section_title
;
Structure prediction by ZEFSAII (Michael W. Deem and Ramdas Pophale) SiO2 
 PCOD8119365
Probable space group: P 2/C
;
_chemical_formula_sum "Si O2"
_cell_formula_units_Z 28
_cell_length_a 8.794637
_cell_length_b 6.786529
_cell_length_c 27.035174
_cell_angle_alpha 90.000000
_cell_angle_beta 56.524674
_cell_angle_gamma 90.000000
_cell_volume 1345.938198
_symmetry_space_group_name_H-M "P 2/C"
_symmetry_group_IT_number 13
_symmetry_cell_setting 'monoclinic'
loop_
_space_group_symop_operation_xyz
x,y,z
-x,y,1/2-z
-x,-y,-z
x,-y,1/2+z
loop_
_atom_site_type_symbol
_atom_site_label
_atom_site_fract_x
_atom_site_fract_y
_atom_site_fract_z
Si Si1 0.741154 0.501203 0.581243
Si Si2 0.136961 0.149449 0.114237
Si Si3 0.213300 0.758405 0.159399
Si Si4 0.053834 0.192283 0.019776
Si Si5 0.565007 0.640035 0.291232
Si Si6 0.445325 0.547184 0.564270
Si Si7 0.078885 0.419649 0.284885
O O1 0.811459 0.304549 0.541347
O O2 0.621398 0.438641 0.650205
O O3 0.620125 0.617065 0.563323
O O4 0.898861 0.655379 0.566255
O O5 0.141474 0.110237 0.054751
O O6 0.311930 0.274266 0.096153
O O7 0.959157 0.276936 0.161798
O O8 0.147869 0.955787 0.145220
O O9 0.315914 0.788118 0.194733
O O10 0.366099 0.656129 0.098907
O O11 0.031903 0.626180 0.193525
O O12 0.000000 0.000000 0.000000
O O13 0.500000 0.734125 0.250000
O O14 0.703783 0.457425 0.256173
O O15 0.500000 0.500000 0.500000
O O16 0.000000 0.309484 0.250000
#
# Coordination Sequence:
#
# PCOD8119365 Si02
#       7
#     4   4   4   4   4   4   4
#     4  10  23  43  60  90 125 159 209 253 304 368
#     4  11  22  39  65  93 124 163 203 252 309 366
#     4   9  22  37  60  96 123 157 208 247 304 368
#     4  11  25  40  61  89 127 163 199 251 312 373
#     4  10  20  40  66  88 121 164 203 254 309 359
#     4  10  20  38  63  88 122 164 199 249 303 359
#     4   9  20  40  63  89 121 161 207 251 302 362
#
# _framework density 20.803332999999999
#
# number of rings (size 3 to 8) (size 9 to 14) (size 15 to 20)
#    0.000    2.000    1.429    1.714    2.000    6.857 
#    0.000    1.429    0.000   15.429    0.000    0.000 
#    0.000    0.000    0.000    0.000    0.000    0.000 
#
# Total GULP energy -346900.961486 kJ/mol
# GULP energy per Si atom -12389.320053 kJ/mol
# Density = 2.075598 g / cm^3
# Si number density = 20.803333 Si / 1000 Ang^3
#
#
#
# Elastic Constant Matrix: (Units=GPa)
#
#
# Indices 1 2 3 4 5 6 
#
# 1 98.4984 40.2399 50.6472 0.0000 14.9566 0.0000
# 2 40.2399 96.9365 40.5103 0.0000 11.7358 0.0000
# 3 50.6472 40.5103 120.5830 0.0000 5.1567 0.0000
# 4 0.0000 0.0000 0.0000 14.2953 0.0000 12.9501
# 5 14.9566 11.7358 5.1567 0.0000 47.6676 0.0000
# 6 0.0000 0.0000 0.0000 12.9501 0.0000 20.8166
#
#
#
# Elastic Compliance Matrix: (Units=1/GPa)
#
#
# Indices 1 2 3 4 5 6 
#
# 1 0.014580 -0.003685 -0.004751 0.000000 -0.003153 0.000000
# 2 -0.003685 0.013244 -0.002825 0.000000 -0.001799 0.000000
# 3 -0.004751 -0.002825 0.011196 0.000000 0.000975 0.000000
# 4 0.000000 0.000000 0.000000 0.160284 0.000000 -0.099713
# 5 -0.003153 -0.001799 0.000975 0.000000 0.022305 0.000000
# 6 0.000000 0.000000 0.000000 -0.099713 0.000000 0.110071
#
#
# Mechanical properties :
#
#
# Convention : Reuss Voigt Hill
#
# Bulk Modulus (GPa) = 60.61253 64.31251 62.46252
# Shear Modulus (GPa) = 13.90047 28.86393 21.38220
#
# Velocity S-wave (km/s) = 2.58773 3.72891 3.20945
# Velocity P-wave (km/s) = 6.17476 7.03714 6.62001
#
# Compressibility (1/GPa) = 0.01649824
#
# Stress axis : x y z
#
# Youngs Moduli (GPa) = 68.58899 75.50604 89.31960
#
# Poissons Ratio (x) = 0.27824 0.42434
# Poissons Ratio (y) = 0.25275 0.25230
# Poissons Ratio (z) = 0.32586 0.21328
#
# Static dielectric constant tensor:
#      x y z
#    x 3.889160 0.000000 0.088970 
#    y 0.000000 3.308850 0.000000 
#    z 0.088970 0.000000 3.877560 
# 
# 
# High freq. dielectric constant tensor:
#      x y z
#    x 1.820060 0.000000 0.001590 
#    y 0.000000 1.780030 0.000000 
#    z 0.001590 0.000000 1.840880 
# 
# From -- ./inp_files/95603.got.cif
#   From: 2010.06.25/outbox.cif.g09.slc.cpg/sg13_48_cif.got.tgz:95603.got - 2010.06.28 04:50:58.
