data_PCOD8119163
_publ_section_title
;
Structure prediction by ZEFSAII (Michael W. Deem and Ramdas Pophale) SiO2 
 PCOD8119163
Probable space group: P 2/C
;
_chemical_formula_sum "Si O2"
_cell_formula_units_Z 28
_cell_length_a 22.191910
_cell_length_b 8.572716
_cell_length_c 9.729225
_cell_angle_alpha 90.000000
_cell_angle_beta 130.889319
_cell_angle_gamma 90.000000
_cell_volume 1399.262173
_symmetry_space_group_name_H-M "P 2/C"
_symmetry_group_IT_number 13
_symmetry_cell_setting 'monoclinic'
loop_
_space_group_symop_operation_xyz
x,y,z
-x,y,1/2-z
-x,-y,-z
x,-y,1/2+z
loop_
_atom_site_type_symbol
_atom_site_label
_atom_site_fract_x
_atom_site_fract_y
_atom_site_fract_z
Si Si1 0.672101 0.158614 0.669511
Si Si2 0.827414 0.323135 0.967747
Si Si3 0.917112 0.813699 0.357527
Si Si4 0.099782 0.825745 0.664633
Si Si5 0.826504 0.317577 0.481294
Si Si6 0.673457 0.154134 0.350900
Si Si7 0.499389 0.854698 0.902939
O O1 0.733682 0.285510 0.818193
O O2 0.689936 0.116533 0.536385
O O3 0.583098 0.236716 0.552913
O O4 0.680639 0.003679 0.773786
O O5 0.866530 0.299730 0.878041
O O6 0.839119 0.500708 0.029183
O O7 0.871873 0.207511 0.138738
O O8 0.009177 0.770437 0.512486
O O9 0.895829 0.991427 0.362832
O O10 0.891571 0.780135 0.163581
O O11 0.158452 0.728279 0.654012
O O12 0.736574 0.277498 0.389392
O O13 0.585069 0.234293 0.199439
O O14 0.500000 0.921613 0.750000
O O15 0.500000 0.000000 0.000000
#
# Coordination Sequence:
#
# PCOD8119163 Si02
#       7
#     4   4   4   4   4   4   4
#     4  10  20  37  62  89 120 157 201 245 292 351
#     4  12  25  39  59  90 125 157 193 241 300 357
#     4  11  23  45  63  88 113 154 205 247 292 349
#     4  11  25  41  67  86 115 154 201 249 292 349
#     4  12  25  39  59  90 125 157 193 241 300 357
#     4  10  20  37  62  89 120 157 201 245 292 351
#     4   8  16  32  57  88 116 150 196 247 290 338
#
# _framework density 20.010546999999999
#
# number of rings (size 3 to 8) (size 9 to 14) (size 15 to 20)
#    0.000    1.429    1.429    4.286    2.000    5.714 
#    0.000    0.714    0.000    0.000    0.000    0.000 
#    0.000    0.000    0.000    0.000    0.000    0.000 
#
# Total GULP energy -347111.687302 kJ/mol
# GULP energy per Si atom -12396.845975 kJ/mol
# Density = 1.996500 g / cm^3
# Si number density = 20.010547 Si / 1000 Ang^3
#
#
#
# Elastic Constant Matrix: (Units=GPa)
#
#
# Indices 1 2 3 4 5 6 
#
# 1 98.5166 41.2283 30.4460 0.0000 20.4756 0.0000
# 2 41.2283 67.3894 29.7988 0.0000 14.1841 0.0000
# 3 30.4460 29.7988 86.8313 0.0000 18.5637 0.0000
# 4 0.0000 0.0000 0.0000 20.7820 0.0000 -5.6609
# 5 20.4756 14.1841 18.5637 0.0000 40.2368 0.0000
# 6 0.0000 0.0000 0.0000 -5.6609 0.0000 15.5601
#
#
#
# Elastic Compliance Matrix: (Units=1/GPa)
#
#
# Indices 1 2 3 4 5 6 
#
# 1 0.014585 -0.007301 -0.001744 0.000000 -0.004044 0.000000
# 2 -0.007301 0.021679 -0.004482 0.000000 -0.001859 0.000000
# 3 -0.001744 -0.004482 0.014577 0.000000 -0.004257 0.000000
# 4 0.000000 0.000000 0.000000 0.053412 0.000000 0.019432
# 5 -0.004044 -0.001859 -0.004257 0.000000 0.029530 0.000000
# 6 0.000000 0.000000 0.000000 0.019432 0.000000 0.071336
#
#
# Mechanical properties :
#
#
# Convention : Reuss Voigt Hill
#
# Bulk Modulus (GPa) = 42.04106 50.63149 46.33627
# Shear Modulus (GPa) = 20.82440 25.40005 23.11223
#
# Velocity S-wave (km/s) = 3.22944 3.56664 3.40222
# Velocity P-wave (km/s) = 5.91277 6.50527 6.21608
#
# Compressibility (1/GPa) = 0.02378627
#
# Stress axis : x y z
#
# Youngs Moduli (GPa) = 68.56184 46.12734 68.60298
#
# Poissons Ratio (x) = 0.33677 0.11965
# Poissons Ratio (y) = 0.50056 0.30751
# Poissons Ratio (z) = 0.11958 0.20677
#
# Static dielectric constant tensor:
#      x y z
#    x 4.083490 0.000000 0.309620 
#    y 0.000000 3.180670 0.000000 
#    z 0.309620 0.000000 4.014290 
# 
# 
# High freq. dielectric constant tensor:
#      x y z
#    x 1.802380 0.000000 0.005690 
#    y 0.000000 1.738190 0.000000 
#    z 0.005690 0.000000 1.802810 
# 
# From -- ./inp_files/22995.got.cif
#   From: 2010.06.25/outbox.cif.g09.slc.cpg/sg13_12_cif.got.tgz:22995.got - 2010.06.28 04:50:58.
