data_PCOD8119999
_publ_section_title
;
Structure prediction by ZEFSAII (Michael W. Deem and Ramdas Pophale) SiO2 
 PCOD8119999
Probable space group: P 2/C
;
_chemical_formula_sum "Si O2"
_cell_formula_units_Z 20
_cell_length_a 10.109757
_cell_length_b 7.237705
_cell_length_c 13.631128
_cell_angle_alpha 90.000000
_cell_angle_beta 99.439684
_cell_angle_gamma 90.000000
_cell_volume 983.903133
_symmetry_space_group_name_H-M "P 2/C"
_symmetry_group_IT_number 13
_symmetry_cell_setting 'monoclinic'
loop_
_space_group_symop_operation_xyz
x,y,z
-x,y,1/2-z
-x,-y,-z
x,-y,1/2+z
loop_
_atom_site_type_symbol
_atom_site_label
_atom_site_fract_x
_atom_site_fract_y
_atom_site_fract_z
Si Si1 0.836616 0.191067 0.001193
Si Si2 0.532198 0.787143 0.485067
Si Si3 0.420765 0.485972 0.340870
Si Si4 0.880112 0.475496 0.164097
Si Si5 0.041556 0.119460 0.860465
O O1 0.898921 0.368306 0.063862
O O2 0.854768 0.015859 0.074436
O O3 0.681884 0.226873 0.960175
O O4 0.907485 0.154788 0.906702
O O5 0.436355 0.688250 0.393474
O O6 0.516014 0.674695 0.584106
O O7 0.500000 0.000000 0.500000
O O8 0.500000 0.482181 0.250000
O O9 0.264386 0.436399 0.303924
O O10 0.881027 0.691136 0.143364
O O11 0.000000 0.412849 0.250000
O O12 0.000000 0.035429 0.750000
#
# Coordination Sequence:
#
# PCOD8119999 Si02
#       5
#     4   4   4   4   4
#     4  10  21  39  58  88 122 155 199 248 295 352
#     4  10  22  42  62  87 123 165 199 249 309 361
#     4  10  23  41  62  92 122 157 208 250 296 369
#     4  10  21  38  62  88 119 156 197 242 302 351
#     4  10  21  36  58  89 118 157 199 249 292 354
#
# _framework density 20.327204999999999
#
# number of rings (size 3 to 8) (size 9 to 14) (size 15 to 20)
#    0.000    2.000    0.000    2.400    5.600    0.800 
#   18.000    0.000    0.000    0.000    0.000    0.000 
#    0.000    0.000    0.000    0.000    0.000    0.000 
#
# Total GULP energy -248027.131423 kJ/mol
# GULP energy per Si atom -12401.356571 kJ/mol
# Density = 2.028094 g / cm^3
# Si number density = 20.327205 Si / 1000 Ang^3
#
#
#
# Elastic Constant Matrix: (Units=GPa)
#
#
# Indices 1 2 3 4 5 6 
#
# 1 100.2626 16.0988 60.9231 0.0000 6.5802 0.0000
# 2 16.0988 79.5099 27.7791 0.0000 -2.8489 0.0000
# 3 60.9231 27.7791 124.8512 0.0000 -14.7512 0.0000
# 4 0.0000 0.0000 0.0000 114.2091 0.0000 -57.2286
# 5 6.5802 -2.8489 -14.7512 0.0000 30.9070 0.0000
# 6 0.0000 0.0000 0.0000 -57.2286 0.0000 59.1499
#
#
#
# Elastic Compliance Matrix: (Units=1/GPa)
#
#
# Indices 1 2 3 4 5 6 
#
# 1 0.015637 -0.000499 -0.008391 0.000000 -0.007380 0.000000
# 2 -0.000499 0.013654 -0.002791 0.000000 0.000033 0.000000
# 3 -0.008391 -0.002791 0.013677 0.000000 0.008057 0.000000
# 4 0.000000 0.000000 0.000000 0.016995 0.000000 0.016443
# 5 -0.007380 0.000033 0.008057 0.000000 0.037775 0.000000
# 6 0.000000 0.000000 0.000000 0.016443 0.000000 0.032815
#
#
# Mechanical properties :
#
#
# Convention : Reuss Voigt Hill
#
# Bulk Modulus (GPa) = 51.00314 57.13621 54.06968
# Shear Modulus (GPa) = 31.16201 54.17472 42.66836
#
# Velocity S-wave (km/s) = 3.91963 5.16809 4.58654
# Velocity P-wave (km/s) = 6.75501 7.98633 7.39634
#
# Compressibility (1/GPa) = 0.01960663
#
# Stress axis : x y z
#
# Youngs Moduli (GPa) = 63.95021 73.23724 73.11472
#
# Poissons Ratio (x) = 0.03653 0.61353
# Poissons Ratio (y) = 0.03190 0.20405
# Poissons Ratio (z) = 0.53663 0.20439
#
# Static dielectric constant tensor:
#      x y z
#    x 3.677000 0.000000 0.048270 
#    y 0.000000 3.781930 0.000000 
#    z 0.048270 0.000000 3.692240 
# 
# 
# High freq. dielectric constant tensor:
#      x y z
#    x 1.796950 0.000000 0.000780 
#    y 0.000000 1.804310 0.000000 
#    z 0.000780 0.000000 1.788400 
# 
# From -- ./inp_files/45812.got.cif
#   From: 2010.06.25/outbox.cif.g09.slc.cpg/sg13_23_cif.got.tgz:45812.got - 2010.06.28 04:50:58.
