data_PCOD8119891
_publ_section_title
;
Structure prediction by ZEFSAII (Michael W. Deem and Ramdas Pophale) SiO2 
 PCOD8119891
Probable space group: P 2/C
;
_chemical_formula_sum "Si O2"
_cell_formula_units_Z 28
_cell_length_a 22.394576
_cell_length_b 13.396229
_cell_length_c 12.541331
_cell_angle_alpha 90.000000
_cell_angle_beta 156.606263
_cell_angle_gamma 90.000000
_cell_volume 1493.865777
_symmetry_space_group_name_H-M "P 2/C"
_symmetry_group_IT_number 13
_symmetry_cell_setting 'monoclinic'
loop_
_space_group_symop_operation_xyz
x,y,z
-x,y,1/2-z
-x,-y,-z
x,-y,1/2+z
loop_
_atom_site_type_symbol
_atom_site_label
_atom_site_fract_x
_atom_site_fract_y
_atom_site_fract_z
Si Si1 0.082746 0.267302 0.779213
Si Si2 0.333453 0.394130 0.291132
Si Si3 0.332748 0.382411 0.723484
Si Si4 0.822357 0.197690 0.943670
Si Si5 0.840830 0.893811 0.255392
Si Si6 0.808069 0.896933 0.635356
Si Si7 0.783677 0.686863 0.685209
O O1 0.170847 0.177225 0.866844
O O2 0.000000 0.225588 0.750000
O O3 0.961036 0.319833 0.502522
O O4 0.203398 0.350601 0.004465
O O5 0.493165 0.356496 0.510572
O O6 0.317044 0.512713 0.257304
O O7 0.318448 0.356708 0.387977
O O8 0.261055 0.303163 0.685800
O O9 0.245178 0.379136 0.466997
O O10 0.763571 0.122681 0.939519
O O11 0.000000 0.216054 0.250000
O O12 0.769341 0.154556 0.743662
O O13 0.013972 0.909827 0.566178
O O14 0.747907 0.995883 0.077973
O O15 0.745793 0.804680 0.604199
#
# Coordination Sequence:
#
# PCOD8119891 Si02
#       7
#     4   4   4   4   4   4   4
#     4   9  19  33  52  81 106 130 169 212 252 294
#     4  10  21  35  53  75 102 136 171 212 257 303
#     4  10  21  36  53  74 101 138 175 206 255 311
#     4   9  18  31  50  77 103 131 172 214 249 296
#     4   9  16  29  51  77 105 132 163 211 256 292
#     4   8  16  29  50  77 101 132 170 205 250 305
#     4   9  18  35  55  75 101 134 172 209 251 303
#
# _framework density 18.743316
#
# number of rings (size 3 to 8) (size 9 to 14) (size 15 to 20)
#    0.000    2.857    0.000    1.286    0.000    8.571 
#    0.000    2.143    0.000   11.143    0.000    0.000 
#    0.000    0.000    0.000    0.000    0.000    0.000 
#
# Total GULP energy -347092.398761 kJ/mol
# GULP energy per Si atom -12396.157099 kJ/mol
# Density = 1.870066 g / cm^3
# Si number density = 18.743316 Si / 1000 Ang^3
#
#
#
# Elastic Constant Matrix: (Units=GPa)
#
#
# Indices 1 2 3 4 5 6 
#
# 1 130.9061 89.4305 41.0669 0.0000 -13.9046 0.0000
# 2 89.4305 128.1656 35.7828 0.0000 0.1581 0.0000
# 3 41.0669 35.7828 48.8011 0.0000 -1.9425 0.0000
# 4 0.0000 0.0000 0.0000 4.8603 0.0000 -1.1344
# 5 -13.9046 0.1581 -1.9425 0.0000 14.7320 0.0000
# 6 0.0000 0.0000 0.0000 -1.1344 0.0000 33.4245
#
#
#
# Elastic Compliance Matrix: (Units=1/GPa)
#
#
# Indices 1 2 3 4 5 6 
#
# 1 0.020027 -0.011935 -0.007383 0.000000 0.018057 0.000000
# 2 -0.011935 0.016940 -0.002848 0.000000 -0.011822 0.000000
# 3 -0.007383 -0.002848 0.028667 0.000000 -0.003158 0.000000
# 4 0.000000 0.000000 0.000000 0.207390 0.000000 0.007039
# 5 0.018057 -0.011822 -0.003158 0.000000 0.084633 0.000000
# 6 0.000000 0.000000 0.000000 0.007039 0.000000 0.030157
#
#
# Mechanical properties :
#
#
# Convention : Reuss Voigt Hill
#
# Bulk Modulus (GPa) = 46.94504 71.15924 59.05214
# Shear Modulus (GPa) = 11.38314 20.04287 15.71300
#
# Velocity S-wave (km/s) = 2.46705 3.27361 2.89853
# Velocity P-wave (km/s) = 5.76331 7.23438 6.54034
#
# Compressibility (1/GPa) = 0.02130151
#
# Stress axis : x y z
#
# Youngs Moduli (GPa) = 49.93298 59.03095 34.88369
#
# Poissons Ratio (x) = 0.70455 0.25754
# Poissons Ratio (y) = 0.59596 0.09935
# Poissons Ratio (z) = 0.36864 0.16813
#
# Static dielectric constant tensor:
#      x y z
#    x 3.519390 0.000000 -0.157540 
#    y 0.000000 3.559240 0.000000 
#    z -0.157540 0.000000 3.261320 
# 
# 
# High freq. dielectric constant tensor:
#      x y z
#    x 1.728550 0.000000 -0.015930 
#    y 0.000000 1.725990 0.000000 
#    z -0.015930 0.000000 1.702890 
# 
# From -- ./inp_files/40835.got.cif
#   From: 2010.06.25/outbox.cif.g09.slc.cpg/sg13_21_cif.got.tgz:40835.got - 2010.06.28 04:50:58.
