data_PCOD8119520
_publ_section_title
;
Structure prediction by ZEFSAII (Michael W. Deem and Ramdas Pophale) SiO2 
 PCOD8119520
Probable space group: P 2/C
;
_chemical_formula_sum "Si O2"
_cell_formula_units_Z 20
_cell_length_a 15.692699
_cell_length_b 7.345581
_cell_length_c 21.483286
_cell_angle_alpha 90.000000
_cell_angle_beta 23.874482
_cell_angle_gamma 90.000000
_cell_volume 1002.292741
_symmetry_space_group_name_H-M "P 2/C"
_symmetry_group_IT_number 13
_symmetry_cell_setting 'monoclinic'
loop_
_space_group_symop_operation_xyz
x,y,z
-x,y,1/2-z
-x,-y,-z
x,-y,1/2+z
loop_
_atom_site_type_symbol
_atom_site_label
_atom_site_fract_x
_atom_site_fract_y
_atom_site_fract_z
Si Si1 0.862917 0.820170 0.592681
Si Si2 0.572329 0.773066 0.570230
Si Si3 0.227527 0.370583 0.229747
Si Si4 0.969265 0.284392 0.887829
Si Si5 0.176169 0.964795 0.680857
O O1 0.610194 0.861511 0.763838
O O2 0.926611 0.703575 0.611721
O O3 0.906501 0.704554 0.501605
O O4 0.000000 0.000000 0.500000
O O5 0.462272 0.607967 0.603744
O O6 0.765378 0.690221 0.480023
O O7 0.637647 0.933165 0.479572
O O8 0.134392 0.554268 0.262893
O O9 0.257359 0.220264 0.156500
O O10 0.080593 0.094290 0.798301
O O11 0.000000 0.907657 0.750000
#
# Coordination Sequence:
#
# PCOD8119520 Si02
#       5
#     4   4   4   4   4
#     4  10  20  39  64  86 122 163 199 257 309 359
#     4   9  22  37  63  90 123 162 201 257 304 363
#     4  10  22  37  64  86 123 158 203 251 303 368
#     4  11  20  40  62  88 125 160 202 253 307 358
#     4  10  21  39  61  89 122 160 205 252 304 367
#
# _framework density 19.954249000000001
#
# number of rings (size 3 to 8) (size 9 to 14) (size 15 to 20)
#    1.200    0.800    2.000    1.800    0.000    3.200 
#    0.000    8.000    0.000    0.000    0.000    0.000 
#    0.000    0.000    0.000    0.000    0.000    0.000 
#
# Total GULP energy -247809.457156 kJ/mol
# GULP energy per Si atom -12390.472858 kJ/mol
# Density = 1.990883 g / cm^3
# Si number density = 19.954249 Si / 1000 Ang^3
#
#
#
# Elastic Constant Matrix: (Units=GPa)
#
#
# Indices 1 2 3 4 5 6 
#
# 1 92.2832 50.7189 21.7965 0.0000 -5.7678 0.0000
# 2 50.7189 69.3595 14.6969 0.0000 -8.9339 0.0000
# 3 21.7965 14.6969 71.1196 0.0000 -8.3467 0.0000
# 4 0.0000 0.0000 0.0000 17.9990 0.0000 -5.1760
# 5 -5.7678 -8.9339 -8.3467 0.0000 38.2248 0.0000
# 6 0.0000 0.0000 0.0000 -5.1760 0.0000 26.6208
#
#
#
# Elastic Compliance Matrix: (Units=1/GPa)
#
#
# Indices 1 2 3 4 5 6 
#
# 1 0.018758 -0.013173 -0.003136 0.000000 -0.000933 0.000000
# 2 -0.013173 0.024652 -0.000630 0.000000 0.003636 0.000000
# 3 -0.003136 -0.000630 0.015476 0.000000 0.002759 0.000000
# 4 0.000000 0.000000 0.000000 0.058849 0.000000 0.011442
# 5 -0.000933 0.003636 0.002759 0.000000 0.027472 0.000000
# 6 0.000000 0.000000 0.000000 0.011442 0.000000 0.039789
#
#
# Mechanical properties :
#
#
# Convention : Reuss Voigt Hill
#
# Bulk Modulus (GPa) = 39.98791 45.24300 42.61545
# Shear Modulus (GPa) = 22.00588 26.27226 24.13907
#
# Velocity S-wave (km/s) = 3.32447 3.63247 3.48188
# Velocity P-wave (km/s) = 5.90080 6.34946 6.12924
#
# Compressibility (1/GPa) = 0.02500756
#
# Stress axis : x y z
#
# Youngs Moduli (GPa) = 53.30974 40.56471 64.61572
#
# Poissons Ratio (x) = 0.53434 0.20266
# Poissons Ratio (y) = 0.70222 0.04074
# Poissons Ratio (z) = 0.16720 0.02558
#
# Static dielectric constant tensor:
#      x y z
#    x 3.726110 0.000000 0.114370 
#    y 0.000000 3.189010 0.000000 
#    z 0.114370 0.000000 3.720840 
# 
# 
# High freq. dielectric constant tensor:
#      x y z
#    x 1.786800 0.000000 0.007940 
#    y 0.000000 1.748420 0.000000 
#    z 0.007940 0.000000 1.785620 
# 
# From -- ./inp_files/67908.got.cif
#   From: 2010.06.25/outbox.cif.g09.slc.cpg/sg13_34_cif.got.tgz:67908.got - 2010.06.28 04:50:58.
