data_PCOD8119140
_publ_section_title
;
Structure prediction by ZEFSAII (Michael W. Deem and Ramdas Pophale) SiO2 
 PCOD8119140
Probable space group: P 2/C
;
_chemical_formula_sum "Si O2"
_cell_formula_units_Z 18
_cell_length_a 14.644033
_cell_length_b 6.074894
_cell_length_c 13.889154
_cell_angle_alpha 90.000000
_cell_angle_beta 136.360184
_cell_angle_gamma 90.000000
_cell_volume 852.710201
_symmetry_space_group_name_H-M "P 2/C"
_symmetry_group_IT_number 13
_symmetry_cell_setting 'monoclinic'
loop_
_space_group_symop_operation_xyz
x,y,z
-x,y,1/2-z
-x,-y,-z
x,-y,1/2+z
loop_
_atom_site_type_symbol
_atom_site_label
_atom_site_fract_x
_atom_site_fract_y
_atom_site_fract_z
Si Si1 0.500000 0.789748 0.250000
Si Si2 0.717876 0.883220 0.870312
Si Si3 0.905805 0.738268 0.517789
Si Si4 0.185222 0.574288 0.712512
Si Si5 0.290459 0.504466 0.496351
O O1 0.577822 0.637633 0.384774
O O2 0.397431 0.937572 0.232476
O O3 0.716758 0.716018 0.780013
O O4 0.691299 0.751536 0.949207
O O5 0.859531 0.007410 0.985155
O O6 0.868780 0.636887 0.385724
O O7 0.836686 0.601966 0.549841
O O8 0.063135 0.727418 0.653935
O O9 0.268188 0.484987 0.865583
#
# Coordination Sequence:
#
# PCOD8119140 Si02
#       5
#     2   4   4   4   4
#     4  10  22  40  56  80 118 154 198 248 282 332
#     4  10  21  39  60  84 116 154 194 238 289 344
#     4   9  20  37  58  90 122 145 185 238 289 352
#     4  10  20  37  61  89 117 149 189 239 292 345
#     4  10  21  38  59  83 118 156 192 238 287 339
#
# _framework density 21.109162999999999
#
# number of rings (size 3 to 8) (size 9 to 14) (size 15 to 20)
#    0.000    2.222    0.000    2.000    0.000    4.444 
#    0.000   28.889    0.000    0.000    0.000    0.000 
#    0.000    0.000    0.000    0.000    0.000    0.000 
#
# Total GULP energy -223268.229583 kJ/mol
# GULP energy per Si atom -12403.790532 kJ/mol
# Density = 2.106112 g / cm^3
# Si number density = 21.109163 Si / 1000 Ang^3
#
#
#
# Elastic Constant Matrix: (Units=GPa)
#
#
# Indices 1 2 3 4 5 6 
#
# 1 58.1527 30.7710 45.1082 0.0000 -2.7835 0.0000
# 2 30.7710 113.9695 45.6349 0.0000 -2.8416 0.0000
# 3 45.1082 45.6349 124.7028 0.0000 -11.0960 0.0000
# 4 0.0000 0.0000 0.0000 18.1182 0.0000 6.9715
# 5 -2.7835 -2.8416 -11.0960 0.0000 35.9000 0.0000
# 6 0.0000 0.0000 0.0000 6.9715 0.0000 27.9184
#
#
#
# Elastic Compliance Matrix: (Units=1/GPa)
#
#
# Indices 1 2 3 4 5 6 
#
# 1 0.025181 -0.003683 -0.007828 0.000000 -0.000759 0.000000
# 2 -0.003683 0.010824 -0.002651 0.000000 -0.000248 0.000000
# 3 -0.007828 -0.002651 0.012080 0.000000 0.002917 0.000000
# 4 0.000000 0.000000 0.000000 0.061060 0.000000 -0.015247
# 5 -0.000759 -0.000248 0.002917 0.000000 0.028678 0.000000
# 6 0.000000 0.000000 0.000000 -0.015247 0.000000 0.039626
#
#
# Mechanical properties :
#
#
# Convention : Reuss Voigt Hill
#
# Bulk Modulus (GPa) = 50.60497 59.98368 55.29432
# Shear Modulus (GPa) = 23.54486 28.07472 25.80979
#
# Velocity S-wave (km/s) = 3.34336 3.65084 3.50048
# Velocity P-wave (km/s) = 6.23932 6.80067 6.52604
#
# Compressibility (1/GPa) = 0.01976091
#
# Stress axis : x y z
#
# Youngs Moduli (GPa) = 39.71258 92.38796 82.77876
#
# Poissons Ratio (x) = 0.34027 0.64802
# Poissons Ratio (y) = 0.14626 0.21943
# Poissons Ratio (z) = 0.31088 0.24491
#
# Static dielectric constant tensor:
#      x y z
#    x 3.817630 0.000000 0.170560 
#    y 0.000000 3.891340 0.000000 
#    z 0.170560 0.000000 3.582520 
# 
# 
# High freq. dielectric constant tensor:
#      x y z
#    x 1.828300 0.000000 0.011970 
#    y 0.000000 1.830200 0.000000 
#    z 0.011970 0.000000 1.806950 
# 
# From -- ./inp_files/31277.got.cif
#   From: 2010.06.25/outbox.cif.g09.slc.cpg/sg13_16_cif.got.tgz:31277.got - 2010.06.28 04:50:58.
