data_PCOD8119904
_publ_section_title
;
Structure prediction by ZEFSAII (Michael W. Deem and Ramdas Pophale) SiO2 
 PCOD8119904
Probable space group: P 2/C
;
_chemical_formula_sum "Si O2"
_cell_formula_units_Z 20
_cell_length_a 14.008402
_cell_length_b 13.317604
_cell_length_c 11.001825
_cell_angle_alpha 90.000000
_cell_angle_beta 150.181079
_cell_angle_gamma 90.000000
_cell_volume 1020.618386
_symmetry_space_group_name_H-M "P 2/C"
_symmetry_group_IT_number 13
_symmetry_cell_setting 'monoclinic'
loop_
_space_group_symop_operation_xyz
x,y,z
-x,y,1/2-z
-x,-y,-z
x,-y,1/2+z
loop_
_atom_site_type_symbol
_atom_site_label
_atom_site_fract_x
_atom_site_fract_y
_atom_site_fract_z
Si Si1 0.614966 0.794319 0.696260
Si Si2 0.792809 0.549460 0.264913
Si Si3 0.775734 0.756241 0.125023
Si Si4 0.513769 0.374278 0.900586
Si Si5 0.057151 0.930904 0.449611
O O1 0.395812 0.812175 0.492881
O O2 0.616210 0.715020 0.587873
O O3 0.733135 0.745126 0.936243
O O4 0.716143 0.903142 0.783064
O O5 0.817352 0.643188 0.205099
O O6 0.697843 0.592516 0.284770
O O7 0.000000 0.500000 0.500000
O O8 0.646565 0.471938 0.043747
O O9 0.958550 0.823282 0.356354
O O10 0.500000 0.331532 0.750000
O O11 0.000000 0.974854 0.250000
O O12 0.000000 0.000000 0.500000
#
# Coordination Sequence:
#
# PCOD8119904 Si02
#       5
#     4   4   4   4   4
#     4   9  19  38  59  80 114 150 189 232 282 347
#     4  10  21  35  56  83 114 155 197 234 282 340
#     4   9  19  36  62  81 108 155 194 225 282 348
#     4  10  22  36  53  86 122 149 193 241 285 336
#     4  10  21  40  61  87 112 144 191 244 296 352
#
# _framework density 19.595960999999999
#
# number of rings (size 3 to 8) (size 9 to 14) (size 15 to 20)
#    0.000    2.400    0.000    1.200    8.400    1.600 
#    7.200    0.000    0.000    0.000    0.000    0.000 
#    0.000    0.000    0.000    0.000    0.000    0.000 
#
# Total GULP energy -247793.815567 kJ/mol
# GULP energy per Si atom -12389.690778 kJ/mol
# Density = 1.955136 g / cm^3
# Si number density = 19.595961 Si / 1000 Ang^3
#
#
#
# Elastic Constant Matrix: (Units=GPa)
#
#
# Indices 1 2 3 4 5 6 
#
# 1 127.9510 55.7959 53.0465 0.0000 -17.2156 0.0000
# 2 55.7959 51.1336 28.6844 0.0000 -8.7764 0.0000
# 3 53.0465 28.6844 77.7827 0.0000 6.0251 0.0000
# 4 0.0000 0.0000 0.0000 28.5693 0.0000 5.8156
# 5 -17.2156 -8.7764 6.0251 0.0000 37.6256 0.0000
# 6 0.0000 0.0000 0.0000 5.8156 0.0000 42.7961
#
#
#
# Elastic Compliance Matrix: (Units=1/GPa)
#
#
# Indices 1 2 3 4 5 6 
#
# 1 0.018007 -0.014445 -0.007423 0.000000 0.006058 0.000000
# 2 -0.014445 0.038397 -0.004547 0.000000 0.003075 0.000000
# 3 -0.007423 -0.004547 0.020191 0.000000 -0.007690 0.000000
# 4 0.000000 0.000000 0.000000 0.035998 0.000000 -0.004892
# 5 0.006058 0.003075 -0.007690 0.000000 0.031298 0.000000
# 6 0.000000 0.000000 0.000000 -0.004892 0.000000 0.024031
#
#
# Mechanical properties :
#
#
# Convention : Reuss Voigt Hill
#
# Bulk Modulus (GPa) = 42.07725 59.10233 50.58979
# Shear Modulus (GPa) = 21.86503 29.75423 25.80963
#
# Velocity S-wave (km/s) = 3.34397 3.90087 3.63311
# Velocity P-wave (km/s) = 6.03561 7.10739 6.59331
#
# Compressibility (1/GPa) = 0.02376581
#
# Stress axis : x y z
#
# Youngs Moduli (GPa) = 55.53323 26.04340 49.52705
#
# Poissons Ratio (x) = 0.37620 0.36763
# Poissons Ratio (y) = 0.80219 0.22519
# Poissons Ratio (z) = 0.41221 0.11841
#
# Static dielectric constant tensor:
#      x y z
#    x 3.756400 0.000000 0.293780 
#    y 0.000000 4.868020 0.000000 
#    z 0.293780 0.000000 3.637210 
# 
# 
# High freq. dielectric constant tensor:
#      x y z
#    x 1.776960 0.000000 0.015370 
#    y 0.000000 1.745260 0.000000 
#    z 0.015370 0.000000 1.758940 
# 
# From -- ./inp_files/37077.got.cif
#   From: 2010.06.25/outbox.cif.g09.slc.cpg/sg13_19_cif.got.tgz:37077.got - 2010.06.28 04:50:58.
