data_PCOD8119820
_publ_section_title
;
Structure prediction by ZEFSAII (Michael W. Deem and Ramdas Pophale) SiO2 
 PCOD8119820
Probable space group: P 2/C
;
_chemical_formula_sum "Si O2"
_cell_formula_units_Z 28
_cell_length_a 15.392810
_cell_length_b 6.883861
_cell_length_c 22.167846
_cell_angle_alpha 90.000000
_cell_angle_beta 29.627561
_cell_angle_gamma 90.000000
_cell_volume 1161.226333
_symmetry_space_group_name_H-M "P 2/C"
_symmetry_group_IT_number 13
_symmetry_cell_setting 'monoclinic'
loop_
_space_group_symop_operation_xyz
x,y,z
-x,y,1/2-z
-x,-y,-z
x,-y,1/2+z
loop_
_atom_site_type_symbol
_atom_site_label
_atom_site_fract_x
_atom_site_fract_y
_atom_site_fract_z
Si Si1 0.583422 0.384180 0.855456
Si Si2 0.750311 0.529613 0.380951
Si Si3 0.142964 0.334854 0.354970
Si Si4 0.811246 0.139483 0.923881
Si Si5 0.418066 0.051802 0.183031
Si Si6 0.862437 0.374582 0.006509
Si Si7 0.500000 0.726613 0.750000
Si Si8 0.000000 0.798359 0.750000
O O1 0.671638 0.380875 0.868020
O O2 0.691103 0.516205 0.743626
O O3 0.589574 0.175953 0.820806
O O4 0.387938 0.462914 0.983938
O O5 0.866393 0.699208 0.341427
O O6 0.866677 0.341199 0.293763
O O7 0.233487 0.145719 0.268106
O O8 0.077680 0.299318 0.463340
O O9 0.977220 0.432844 0.419552
O O10 0.895644 0.930681 0.860411
O O11 0.599137 0.127329 0.044627
O O12 0.889799 0.203311 0.941287
O O13 0.415490 0.122661 0.253656
O O14 0.652306 0.415716 0.132380
#
# Coordination Sequence:
#
# PCOD8119820 Si02
#       8
#     4   4   4   4   4   4   2   2
#     4  11  24  44  68  99 141 180 230 284 352 418
#     4  11  26  45  65 101 138 183 233 284 351 418
#     4  10  21  43  67 100 140 180 227 284 350 414
#     4  11  23  45  69 101 140 180 235 295 341 415
#     4  10  20  43  70 102 136 186 231 285 350 411
#     4   9  21  42  69  98 138 180 226 288 349 409
#     4   8  18  40  70 100 142 174 234 290 346 418
#     4  12  26  44  70 100 138 186 234 288 358 406
#
# _framework density 24.112442000000001
#
# number of rings (size 3 to 8) (size 9 to 14) (size 15 to 20)
#    0.000    1.714    2.857    0.429    4.000    1.714 
#    2.571    6.429    0.000    0.000    0.000    0.000 
#    0.000    0.000    0.000    0.000    0.000    0.000 
#
# Total GULP energy -346886.379477 kJ/mol
# GULP energy per Si atom -12388.799267 kJ/mol
# Density = 2.405756 g / cm^3
# Si number density = 24.112442 Si / 1000 Ang^3
#
#
#
# Elastic Constant Matrix: (Units=GPa)
#
#
# Indices 1 2 3 4 5 6 
#
# 1 42.6576 18.6166 10.1017 0.0000 -1.1908 0.0000
# 2 18.6166 117.6408 20.2924 0.0000 -5.9693 0.0000
# 3 10.1017 20.2924 81.0175 0.0000 -13.5437 0.0000
# 4 0.0000 0.0000 0.0000 40.9840 0.0000 -1.8996
# 5 -1.1908 -5.9693 -13.5437 0.0000 33.3325 0.0000
# 6 0.0000 0.0000 0.0000 -1.8996 0.0000 32.3143
#
#
#
# Elastic Compliance Matrix: (Units=1/GPa)
#
#
# Indices 1 2 3 4 5 6 
#
# 1 0.025592 -0.003674 -0.002390 0.000000 -0.000715 0.000000
# 2 -0.003674 0.009429 -0.001763 0.000000 0.000841 0.000000
# 3 -0.002390 -0.001763 0.013964 0.000000 0.005273 0.000000
# 4 0.000000 0.000000 0.000000 0.024466 0.000000 0.001438
# 5 -0.000715 0.000841 0.005273 0.000000 0.032268 0.000000
# 6 0.000000 0.000000 0.000000 0.001438 0.000000 0.031031
#
#
# Mechanical properties :
#
#
# Convention : Reuss Voigt Hill
#
# Bulk Modulus (GPa) = 30.00259 37.70416 33.85338
# Shear Modulus (GPa) = 30.57840 34.14652 32.36246
#
# Velocity S-wave (km/s) = 3.56498 3.76724 3.66751
# Velocity P-wave (km/s) = 5.42359 5.88163 5.65725
#
# Compressibility (1/GPa) = 0.03333045
#
# Stress axis : x y z
#
# Youngs Moduli (GPa) = 39.07483 106.06016 71.61242
#
# Poissons Ratio (x) = 0.38965 0.17117
# Poissons Ratio (y) = 0.14356 0.12625
# Poissons Ratio (z) = 0.09340 0.18698
#
# Static dielectric constant tensor:
#      x y z
#    x 4.068650 0.000000 -0.140890 
#    y 0.000000 4.167510 0.000000 
#    z -0.140890 0.000000 4.859720 
# 
# 
# High freq. dielectric constant tensor:
#      x y z
#    x 1.938840 0.000000 -0.002530 
#    y 0.000000 1.938910 0.000000 
#    z -0.002530 0.000000 1.985180 
# 
# From -- ./inp_files/93162.got.cif
#   From: 2010.06.25/outbox.cif.g09.slc.cpg/sg13_47_cif.got.tgz:93162.got - 2010.06.28 04:50:58.
