data_PCOD8119656
_publ_section_title
;
Structure prediction by ZEFSAII (Michael W. Deem and Ramdas Pophale) SiO2 
 PCOD8119656
Probable space group: P 2/C
;
_chemical_formula_sum "Si O2"
_cell_formula_units_Z 30
_cell_length_a 10.307249
_cell_length_b 9.929251
_cell_length_c 14.396899
_cell_angle_alpha 90.000000
_cell_angle_beta 97.558185
_cell_angle_gamma 90.000000
_cell_volume 1460.624194
_symmetry_space_group_name_H-M "P 2/C"
_symmetry_group_IT_number 13
_symmetry_cell_setting 'monoclinic'
loop_
_space_group_symop_operation_xyz
x,y,z
-x,y,1/2-z
-x,-y,-z
x,-y,1/2+z
loop_
_atom_site_type_symbol
_atom_site_label
_atom_site_fract_x
_atom_site_fract_y
_atom_site_fract_z
Si Si1 0.135306 0.849471 0.668428
Si Si2 0.183264 0.640009 0.519582
Si Si3 0.153229 0.194129 0.371446
Si Si4 0.887899 0.647408 0.450370
Si Si5 0.548341 0.633321 0.052084
Si Si6 0.742544 0.870493 0.335084
Si Si7 0.391549 0.110386 0.489921
Si Si8 0.500000 0.280748 0.750000
O O1 0.203426 0.763904 0.593205
O O2 0.151022 0.758189 0.763518
O O3 0.985079 0.881813 0.625486
O O4 0.193573 0.995293 0.700976
O O5 0.181803 0.496965 0.574551
O O6 0.297284 0.652448 0.453496
O O7 0.044224 0.644551 0.454168
O O8 0.157645 0.313205 0.448661
O O9 0.283444 0.102066 0.397353
O O10 0.843245 0.749371 0.365621
O O11 0.513972 0.628496 0.158880
O O12 0.500000 0.500000 0.000000
O O13 0.463111 0.747192 0.994984
O O14 0.688316 0.921033 0.426492
O O15 0.626560 0.815939 0.259456
O O16 0.500000 0.000000 0.500000
#
# Coordination Sequence:
#
# PCOD8119656 Si02
#       8
#     4   4   4   4   4   4   4   2
#     4  10  21  37  63  91 121 159 212 255 304 371
#     4  10  20  40  66  90 118 163 208 252 303 375
#     4   9  20  38  58  89 127 163 197 261 311 356
#     4   9  20  41  64  87 126 159 204 256 313 359
#     4  11  23  43  62  90 123 166 207 248 308 371
#     4  10  21  39  57  88 123 162 198 260 311 358
#     4  10  21  36  60  85 122 163 201 251 305 365
#     4  10  24  42  64  86 136 162 200 264 312 364
#
# _framework density 20.539164
#
# number of rings (size 3 to 8) (size 9 to 14) (size 15 to 20)
#    0.000    2.133    0.000    3.200    3.733    5.867 
#   12.000    0.000    0.000    0.000    0.000    0.000 
#    0.000    0.000    0.000    0.000    0.000    0.000 
#
# Total GULP energy -371695.238047 kJ/mol
# GULP energy per Si atom -12389.841268 kJ/mol
# Density = 2.049242 g / cm^3
# Si number density = 20.539164 Si / 1000 Ang^3
#
#
#
# Elastic Constant Matrix: (Units=GPa)
#
#
# Indices 1 2 3 4 5 6 
#
# 1 136.4621 41.5725 49.1044 0.0000 2.9107 0.0000
# 2 41.5725 119.9833 44.9430 0.0000 7.7731 0.0000
# 3 49.1044 44.9430 77.9834 0.0000 8.9156 0.0000
# 4 0.0000 0.0000 0.0000 14.4995 0.0000 6.2030
# 5 2.9107 7.7731 8.9156 0.0000 32.1845 0.0000
# 6 0.0000 0.0000 0.0000 6.2030 0.0000 32.5758
#
#
#
# Elastic Compliance Matrix: (Units=1/GPa)
#
#
# Indices 1 2 3 4 5 6 
#
# 1 0.009674 -0.001392 -0.005399 0.000000 0.000957 0.000000
# 2 -0.001392 0.010854 -0.005261 0.000000 -0.001038 0.000000
# 3 -0.005399 -0.005261 0.019677 0.000000 -0.003692 0.000000
# 4 0.000000 0.000000 0.000000 0.075084 0.000000 -0.014297
# 5 0.000957 -0.001038 -0.003692 0.000000 0.032258 0.000000
# 6 0.000000 0.000000 0.000000 -0.014297 0.000000 0.033420
#
#
# Mechanical properties :
#
#
# Convention : Reuss Voigt Hill
#
# Bulk Modulus (GPa) = 62.10041 67.29653 64.69847
# Shear Modulus (GPa) = 23.75992 29.10588 26.43290
#
# Velocity S-wave (km/s) = 3.40488 3.76851 3.59130
# Velocity P-wave (km/s) = 6.76449 7.19525 6.98320
#
# Compressibility (1/GPa) = 0.01610295
#
# Stress axis : x y z
#
# Youngs Moduli (GPa) = 103.36551 92.12819 50.82130
#
# Poissons Ratio (x) = 0.12821 0.27439
# Poissons Ratio (y) = 0.14385 0.26735
# Poissons Ratio (z) = 0.55808 0.48465
#
# Static dielectric constant tensor:
#      x y z
#    x 3.990960 0.000000 0.078040 
#    y 0.000000 3.466920 0.000000 
#    z 0.078040 0.000000 3.585870 
# 
# 
# High freq. dielectric constant tensor:
#      x y z
#    x 1.824070 0.000000 0.007530 
#    y 0.000000 1.792200 0.000000 
#    z 0.007530 0.000000 1.785340 
# 
# From -- ./inp_files/50040.got.cif
#   From: 2010.06.25/outbox.cif.g09.slc.cpg/sg13_26_cif.got.tgz:50040.got - 2010.06.28 04:50:58.
