data_PCOD8119862
_publ_section_title
;
Structure prediction by ZEFSAII (Michael W. Deem and Ramdas Pophale) SiO2 
 PCOD8119862
Probable space group: P 2/C
;
_chemical_formula_sum "Si O2"
_cell_formula_units_Z 32
_cell_length_a 11.017831
_cell_length_b 17.465634
_cell_length_c 8.739871
_cell_angle_alpha 90.000000
_cell_angle_beta 85.389747
_cell_angle_gamma 90.000000
_cell_volume 1676.401540
_symmetry_space_group_name_H-M "P 2/C"
_symmetry_group_IT_number 13
_symmetry_cell_setting 'monoclinic'
loop_
_space_group_symop_operation_xyz
x,y,z
-x,y,1/2-z
-x,-y,-z
x,-y,1/2+z
loop_
_atom_site_type_symbol
_atom_site_label
_atom_site_fract_x
_atom_site_fract_y
_atom_site_fract_z
Si Si1 0.217844 0.349233 0.550576
Si Si2 0.356242 0.935531 0.075816
Si Si3 0.408517 0.532110 0.888982
Si Si4 0.738847 0.379997 0.608629
Si Si5 0.015259 0.582468 0.568218
Si Si6 0.655579 0.784772 0.592868
Si Si7 0.357642 0.916020 0.412465
Si Si8 0.620121 0.758347 0.944735
O O1 0.321307 0.401927 0.461458
O O2 0.212676 0.353589 0.733108
O O3 0.085055 0.363972 0.497289
O O4 0.244421 0.261608 0.510567
O O5 0.299423 0.919283 0.248511
O O6 0.499619 0.933672 0.093106
O O7 0.322403 0.873924 0.947434
O O8 0.301875 0.016514 0.023499
O O9 0.500000 0.565733 0.750000
O O10 0.326449 0.460373 0.846040
O O11 0.500000 0.500000 0.000000
O O12 0.651706 0.318652 0.534883
O O13 0.849994 0.388208 0.480519
O O14 0.000000 0.579173 0.750000
O O15 0.000000 0.500000 0.500000
O O16 0.672527 0.763376 0.768465
O O17 0.524660 0.760194 0.542805
O O18 0.324641 0.831930 0.475699
#
# Coordination Sequence:
#
# PCOD8119862 Si02
#       8
#     4   4   4   4   4   4   4   4
#     4  12  25  41  62  82 114 148 195 239 288 339
#     4   9  16  28  47  73 110 149 192 225 279 336
#     4  12  26  39  58  85 116 150 184 229 286 348
#     4  12  25  42  60  84 112 151 193 241 287 340
#     4  12  26  44  64  83 107 146 195 244 288 339
#     4  10  21  34  53  83 115 153 187 235 287 344
#     4   9  16  28  47  73 109 151 188 230 273 341
#     4  10  21  34  54  81 118 150 190 233 289 342
#
# _framework density 19.088505000000001
#
# number of rings (size 3 to 8) (size 9 to 14) (size 15 to 20)
#    0.000    1.250    2.500    4.125    5.250    4.000 
#    0.000    0.000    0.000    0.000    0.000    0.875 
#    0.000    0.000    0.000    0.000    0.000    0.000 
#
# Total GULP energy -396689.248074 kJ/mol
# GULP energy per Si atom -12396.539002 kJ/mol
# Density = 1.904506 g / cm^3
# Si number density = 19.088505 Si / 1000 Ang^3
#
#
#
# Elastic Constant Matrix: (Units=GPa)
#
#
# Indices 1 2 3 4 5 6 
#
# 1 55.3911 11.8703 17.5096 0.0000 -7.6791 0.0000
# 2 11.8703 90.0515 26.1913 0.0000 -4.7371 0.0000
# 3 17.5096 26.1913 127.7602 0.0000 0.1801 0.0000
# 4 0.0000 0.0000 0.0000 35.3171 0.0000 -2.9139
# 5 -7.6791 -4.7371 0.1801 0.0000 27.2797 0.0000
# 6 0.0000 0.0000 0.0000 -2.9139 0.0000 9.0936
#
#
#
# Elastic Compliance Matrix: (Units=1/GPa)
#
#
# Indices 1 2 3 4 5 6 
#
# 1 0.019903 -0.001646 -0.002398 0.000000 0.005333 0.000000
# 2 -0.001646 0.012063 -0.002250 0.000000 0.001646 0.000000
# 3 -0.002398 -0.002250 0.008619 0.000000 -0.001123 0.000000
# 4 0.000000 0.000000 0.000000 0.029084 0.000000 0.009319
# 5 0.005333 0.001646 -0.001123 0.000000 0.038452 0.000000
# 6 0.000000 0.000000 0.000000 0.009319 0.000000 0.112954
#
#
# Mechanical properties :
#
#
# Convention : Reuss Voigt Hill
#
# Bulk Modulus (GPa) = 35.71667 42.70501 39.21084
# Shear Modulus (GPa) = 20.57668 28.84685 24.71176
#
# Velocity S-wave (km/s) = 3.28679 3.89165 3.60194
# Velocity P-wave (km/s) = 5.75810 6.52794 6.15507
#
# Compressibility (1/GPa) = 0.02799813
#
# Stress axis : x y z
#
# Youngs Moduli (GPa) = 50.24265 82.90092 116.02853
#
# Poissons Ratio (x) = 0.13642 0.27823
# Poissons Ratio (y) = 0.08268 0.26102
# Poissons Ratio (z) = 0.12048 0.18650
#
# Static dielectric constant tensor:
#      x y z
#    x 3.083930 0.000000 0.052560 
#    y 0.000000 3.306220 0.000000 
#    z 0.052560 0.000000 3.674660 
# 
# 
# High freq. dielectric constant tensor:
#      x y z
#    x 1.693820 0.000000 0.003600 
#    y 0.000000 1.748230 0.000000 
#    z 0.003600 0.000000 1.766160 
# 
# From -- ./inp_files/17072.got.cif
#   From: 2010.06.25/outbox.cif.g09.slc.cpg/sg13_9_cif.got.tgz:17072.got - 2010.06.28 04:50:58.
