data_PCOD8119613
_publ_section_title
;
Structure prediction by ZEFSAII (Michael W. Deem and Ramdas Pophale) SiO2 
 PCOD8119613
Probable space group: P 2/C
;
_chemical_formula_sum "Si O2"
_cell_formula_units_Z 20
_cell_length_a 16.535459
_cell_length_b 6.425605
_cell_length_c 8.697805
_cell_angle_alpha 90.000000
_cell_angle_beta 104.450285
_cell_angle_gamma 90.000000
_cell_volume 894.908883
_symmetry_space_group_name_H-M "P 2/C"
_symmetry_group_IT_number 13
_symmetry_cell_setting 'monoclinic'
loop_
_space_group_symop_operation_xyz
x,y,z
-x,y,1/2-z
-x,-y,-z
x,-y,1/2+z
loop_
_atom_site_type_symbol
_atom_site_label
_atom_site_fract_x
_atom_site_fract_y
_atom_site_fract_z
Si Si1 0.808553 0.589838 0.928738
Si Si2 0.058238 0.881457 0.644219
Si Si3 0.331929 0.142485 0.282432
Si Si4 0.199484 0.796604 0.256671
Si Si5 0.440623 0.089177 0.600630
O O1 0.894948 0.690628 0.913301
O O2 0.729903 0.676889 0.797172
O O3 0.812899 0.341056 0.903890
O O4 0.796966 0.633408 0.102393
O O5 0.000000 0.787365 0.750000
O O6 0.123989 0.044503 0.746293
O O7 0.000000 0.000000 0.500000
O O8 0.371608 0.214822 0.467051
O O9 0.285211 0.922605 0.286238
O O10 0.399276 0.098439 0.180145
O O11 0.500000 0.220298 0.750000
O O12 0.500000 0.000000 0.500000
#
# Coordination Sequence:
#
# PCOD8119613 Si02
#       5
#     4   4   4   4   4
#     4  11  25  39  62  91 120 161 205 246 299 359
#     4  11  24  44  62  86 123 158 201 254 304 353
#     4  10  20  40  62  86 125 159 202 248 294 356
#     4  11  25  39  62  92 119 162 206 243 301 357
#     4   9  18  34  64  93 114 160 202 242 302 355
#
# _framework density 22.348644
#
# number of rings (size 3 to 8) (size 9 to 14) (size 15 to 20)
#    0.000    1.600    4.000    0.000    5.600    1.600 
#    0.000    0.000    0.000   24.000    0.000    0.000 
#    0.000    0.000    0.000    0.000    0.000    0.000 
#
# Total GULP energy -247885.228305 kJ/mol
# GULP energy per Si atom -12394.261415 kJ/mol
# Density = 2.229778 g / cm^3
# Si number density = 22.348644 Si / 1000 Ang^3
#
#
#
# Elastic Constant Matrix: (Units=GPa)
#
#
# Indices 1 2 3 4 5 6 
#
# 1 114.7667 13.9935 31.6501 0.0000 -6.5468 0.0000
# 2 13.9935 55.8296 -4.5603 0.0000 -6.4205 0.0000
# 3 31.6501 -4.5603 98.9392 0.0000 5.1633 0.0000
# 4 0.0000 0.0000 0.0000 30.5491 0.0000 -4.0623
# 5 -6.5468 -6.4205 5.1633 0.0000 48.2520 0.0000
# 6 0.0000 0.0000 0.0000 -4.0623 0.0000 7.8435
#
#
#
# Elastic Compliance Matrix: (Units=1/GPa)
#
#
# Indices 1 2 3 4 5 6 
#
# 1 0.010054 -0.002640 -0.003410 0.000000 0.001378 0.000000
# 2 -0.002640 0.018934 0.001613 0.000000 0.001988 0.000000
# 3 -0.003410 0.001613 0.011349 0.000000 -0.001462 0.000000
# 4 0.000000 0.000000 0.000000 0.035155 0.000000 0.018208
# 5 0.001378 0.001988 -0.001462 0.000000 0.021333 0.000000
# 6 0.000000 0.000000 0.000000 0.018208 0.000000 0.136924
#
#
# Mechanical properties :
#
#
# Convention : Reuss Voigt Hill
#
# Bulk Modulus (GPa) = 31.78265 39.07802 35.43033
# Shear Modulus (GPa) = 19.75426 32.55905 26.15666
#
# Velocity S-wave (km/s) = 2.97629 3.82104 3.42481
# Velocity P-wave (km/s) = 5.10522 6.08200 5.61489
#
# Compressibility (1/GPa) = 0.03146371
#
# Stress axis : x y z
#
# Youngs Moduli (GPa) = 99.46091 52.81546 88.11586
#
# Poissons Ratio (x) = 0.13944 0.30046
# Poissons Ratio (y) = 0.26259 -0.14217
# Poissons Ratio (z) = 0.33915 -0.08522
#
# Static dielectric constant tensor:
#      x y z
#    x 4.897360 0.000000 0.107360 
#    y 0.000000 3.566570 0.000000 
#    z 0.107360 0.000000 4.802690 
# 
# 
# High freq. dielectric constant tensor:
#      x y z
#    x 1.904480 0.000000 0.001880 
#    y 0.000000 1.827020 0.000000 
#    z 0.001880 0.000000 1.904590 
# 
# From -- ./inp_files/20459.got.cif
#   From: 2010.06.25/outbox.cif.g09.slc.cpg/sg13_11_cif.got.tgz:20459.got - 2010.06.28 04:50:58.
