data_PCOD8119620
_publ_section_title
;
Structure prediction by ZEFSAII (Michael W. Deem and Ramdas Pophale) SiO2 
 PCOD8119620
Probable space group: P 2/C
;
_chemical_formula_sum "Si O2"
_cell_formula_units_Z 24
_cell_length_a 19.933419
_cell_length_b 7.896024
_cell_length_c 19.718328
_cell_angle_alpha 90.000000
_cell_angle_beta 22.378654
_cell_angle_gamma 90.000000
_cell_volume 1181.606217
_symmetry_space_group_name_H-M "P 2/C"
_symmetry_group_IT_number 13
_symmetry_cell_setting 'monoclinic'
loop_
_space_group_symop_operation_xyz
x,y,z
-x,y,1/2-z
-x,-y,-z
x,-y,1/2+z
loop_
_atom_site_type_symbol
_atom_site_label
_atom_site_fract_x
_atom_site_fract_y
_atom_site_fract_z
Si Si1 0.704921 0.650904 0.254762
Si Si2 0.592748 0.723691 0.873568
Si Si3 0.354511 0.766987 0.828916
Si Si4 0.098544 0.076818 0.091902
Si Si5 0.328074 0.612436 0.366077
Si Si6 0.950247 0.844526 0.590455
O O1 0.588365 0.762408 0.416271
O O2 0.673005 0.462079 0.309062
O O3 0.628937 0.677098 0.249970
O O4 0.913710 0.694816 0.059515
O O5 0.556144 0.765828 0.829000
O O6 0.746065 0.828717 0.764963
O O7 0.500000 0.798758 0.750000
O O8 0.257977 0.583567 0.930639
O O9 0.222302 0.923362 0.953000
O O10 0.964262 0.117804 0.157081
O O11 0.000000 0.009273 0.250000
O O12 0.193092 0.253328 0.024362
O O13 0.500000 0.617910 0.250000
O O14 0.000000 0.000000 0.500000
#
# Coordination Sequence:
#
# PCOD8119620 Si02
#       6
#     4   4   4   4   4   4
#     4   9  21  37  62  90 115 158 197 248 299 350
#     4  10  20  40  63  88 118 153 205 243 299 357
#     4  10  21  41  62  85 119 155 197 249 296 354
#     4  11  24  39  57  89 121 158 197 243 300 354
#     4   9  20  39  60  85 118 154 199 246 294 355
#     4  11  22  39  58  88 124 153 195 248 295 354
#
# _framework density 20.311337000000002
#
# number of rings (size 3 to 8) (size 9 to 14) (size 15 to 20)
#    0.000    2.000    1.667    1.000    2.333    2.667 
#    0.000    0.000    0.000    0.000    0.000    0.000 
#    0.000    0.000    0.000    0.000    0.000    0.000 
#
# Total GULP energy -297395.692352 kJ/mol
# GULP energy per Si atom -12391.487181 kJ/mol
# Density = 2.026511 g / cm^3
# Si number density = 20.311337 Si / 1000 Ang^3
#
#
#
# Elastic Constant Matrix: (Units=GPa)
#
#
# Indices 1 2 3 4 5 6 
#
# 1 108.2168 16.1188 26.8138 0.0000 -0.7818 0.0000
# 2 16.1188 66.5791 3.0393 0.0000 3.5120 0.0000
# 3 26.8138 3.0393 52.0644 0.0000 18.4981 0.0000
# 4 0.0000 0.0000 0.0000 30.2764 0.0000 1.3254
# 5 -0.7818 3.5120 18.4981 0.0000 31.3480 0.0000
# 6 0.0000 0.0000 0.0000 1.3254 0.0000 31.6462
#
#
#
# Elastic Compliance Matrix: (Units=1/GPa)
#
#
# Indices 1 2 3 4 5 6 
#
# 1 0.011567 -0.002721 -0.007603 0.000000 0.005080 0.000000
# 2 -0.002721 0.015754 0.001433 0.000000 -0.002679 0.000000
# 3 -0.007603 0.001433 0.029308 0.000000 -0.017644 0.000000
# 4 0.000000 0.000000 0.000000 0.033090 0.000000 -0.001386
# 5 0.005080 -0.002679 -0.017644 0.000000 0.042738 0.000000
# 6 0.000000 0.000000 0.000000 -0.001386 0.000000 0.031657
#
#
# Mechanical properties :
#
#
# Convention : Reuss Voigt Hill
#
# Bulk Modulus (GPa) = 25.74156 35.42267 30.58211
# Shear Modulus (GPa) = 25.66153 30.71336 28.18745
#
# Velocity S-wave (km/s) = 3.55830 3.89283 3.72932
# Velocity P-wave (km/s) = 5.43903 6.13866 5.79941
#
# Compressibility (1/GPa) = 0.03884769
#
# Stress axis : x y z
#
# Youngs Moduli (GPa) = 86.45642 63.47443 34.12075
#
# Poissons Ratio (x) = 0.17272 0.25941
# Poissons Ratio (y) = 0.23526 -0.04891
# Poissons Ratio (z) = 0.65731 -0.09099
#
# Static dielectric constant tensor:
#      x y z
#    x 3.778740 0.000000 0.098110 
#    y 0.000000 3.957950 0.000000 
#    z 0.098110 0.000000 3.398970 
# 
# 
# High freq. dielectric constant tensor:
#      x y z
#    x 1.807970 0.000000 0.005060 
#    y 0.000000 1.804670 0.000000 
#    z 0.005060 0.000000 1.769390 
# 
# From -- ./inp_files/81636.got.cif
#   From: 2010.06.25/outbox.cif.g09.slc.cpg/sg13_41_cif.got.tgz:81636.got - 2010.06.28 04:50:58.
