data_PCOD8119988
_publ_section_title
;
Structure prediction by ZEFSAII (Michael W. Deem and Ramdas Pophale) SiO2 
 PCOD8119988
Probable space group: P 2/C
;
_chemical_formula_sum "Si O2"
_cell_formula_units_Z 28
_cell_length_a 11.834606
_cell_length_b 25.229274
_cell_length_c 4.963400
_cell_angle_alpha 90.000000
_cell_angle_beta 91.410461
_cell_angle_gamma 90.000000
_cell_volume 1481.515597
_symmetry_space_group_name_H-M "P 2/C"
_symmetry_group_IT_number 13
_symmetry_cell_setting 'monoclinic'
loop_
_space_group_symop_operation_xyz
x,y,z
-x,y,1/2-z
-x,-y,-z
x,-y,1/2+z
loop_
_atom_site_type_symbol
_atom_site_label
_atom_site_fract_x
_atom_site_fract_y
_atom_site_fract_z
Si Si1 0.072027 0.267948 0.499925
Si Si2 0.632184 0.849245 0.825785
Si Si3 0.239497 0.355723 0.311451
Si Si4 0.365474 0.967583 0.752271
Si Si5 0.710034 0.212587 0.837745
Si Si6 0.373168 0.326094 0.801219
Si Si7 0.131517 0.465943 0.269128
O O1 0.135953 0.315383 0.347987
O O2 0.156376 0.226133 0.651118
O O3 0.000000 0.241347 0.250000
O O4 0.000000 0.290207 0.750000
O O5 0.500000 0.848158 0.750000
O O6 0.681859 0.908296 0.788257
O O7 0.690622 0.807299 0.637291
O O8 0.667136 0.832482 0.129808
O O9 0.297325 0.362720 0.604647
O O10 0.197609 0.412326 0.207074
O O11 0.331617 0.333264 0.105220
O O12 0.500000 0.965178 0.750000
O O13 0.319680 0.007982 0.525338
O O14 0.637034 0.264770 0.780709
O O15 0.500000 0.344542 0.750000
O O16 0.165462 0.488679 0.560465
O O17 0.000000 0.451985 0.250000
#
# Coordination Sequence:
#
# PCOD8119988 Si02
#       7
#     4   4   4   4   4   4   4
#     4  11  22  37  56  79 111 143 176 222 272 328
#     4  11  20  32  51  75 110 146 176 217 261 312
#     4  11  22  37  59  82 107 143 180 215 265 325
#     4   9  17  29  45  68 100 139 177 212 258 312
#     4  11  22  34  51  79 107 140 181 216 262 318
#     4  11  22  37  56  79 110 146 184 220 253 307
#     4  10  21  36  57  83 108 133 168 221 277 323
#
# _framework density 18.899566
#
# number of rings (size 3 to 8) (size 9 to 14) (size 15 to 20)
#    0.000    1.429    0.000    8.143    0.000    4.000 
#    0.000    0.000    0.000    8.571    0.000    0.000 
#    0.000   40.000    0.000    0.000    0.000    0.000 
#
# Total GULP energy -347125.527436 kJ/mol
# GULP energy per Si atom -12397.340266 kJ/mol
# Density = 1.885655 g / cm^3
# Si number density = 18.899566 Si / 1000 Ang^3
#
#
#
# Elastic Constant Matrix: (Units=GPa)
#
#
# Indices 1 2 3 4 5 6 
#
# 1 74.8101 26.3194 23.5900 0.0000 -0.7837 0.0000
# 2 26.3194 99.0248 14.7560 0.0000 1.7973 0.0000
# 3 23.5900 14.7560 89.9890 0.0000 -1.8319 0.0000
# 4 0.0000 0.0000 0.0000 -46.5941 0.0000 -62.0002
# 5 -0.7837 1.7973 -1.8319 0.0000 40.4417 0.0000
# 6 0.0000 0.0000 0.0000 -62.0002 0.0000 -50.1809
#
#
#
# Elastic Compliance Matrix: (Units=1/GPa)
#
#
# Indices 1 2 3 4 5 6 
#
# 1 0.015775 -0.003673 -0.003527 0.000000 0.000309 0.000000
# 2 -0.003673 0.011218 -0.000889 0.000000 -0.000610 0.000000
# 3 -0.003527 -0.000889 0.012193 0.000000 0.000523 0.000000
# 4 0.000000 0.000000 0.000000 0.033323 0.000000 -0.041172
# 5 0.000309 -0.000610 0.000523 0.000000 0.024784 0.000000
# 6 0.000000 0.000000 0.000000 -0.041172 0.000000 0.030941
#
#
# Mechanical properties :
#
#
# Convention : Reuss Voigt Hill
#
# Bulk Modulus (GPa) = 43.46106 43.68385 43.57245
# Shear Modulus (GPa) = 32.87717 2.01059 17.44388
#
# Velocity S-wave (km/s) = 4.17534 1.03254 3.04135
# Velocity P-wave (km/s) = 6.80370 4.95836 5.95297
#
# Compressibility (1/GPa) = 0.02300910
#
# Stress axis : x y z
#
# Youngs Moduli (GPa) = 63.39297 89.14082 82.01147
#
# Poissons Ratio (x) = 0.32739 0.28923
# Poissons Ratio (y) = 0.23283 0.07292
# Poissons Ratio (z) = 0.22357 0.07926
#
# Static dielectric constant tensor:
#      x y z
#    x 3.332940 0.000000 0.069130 
#    y 0.000000 3.373320 0.000000 
#    z 0.069130 0.000000 3.660500 
# 
# 
# High freq. dielectric constant tensor:
#      x y z
#    x 1.705280 0.000000 0.003710 
#    y 0.000000 1.723510 0.000000 
#    z 0.003710 0.000000 1.758660 
# 
# From -- ./inp_files/3944.got.cif
#   From: 2010.06.25/outbox.cif.g09.slc.cpg/sg13_2_cif.got.tgz:3944.got - 2010.06.28 04:50:58.
