data_PCOD8119569
_publ_section_title
;
Structure prediction by ZEFSAII (Michael W. Deem and Ramdas Pophale) SiO2 
 PCOD8119569
Probable space group: P 2/C
;
_chemical_formula_sum "Si O2"
_cell_formula_units_Z 22
_cell_length_a 8.923386
_cell_length_b 15.876977
_cell_length_c 7.756560
_cell_angle_alpha 90.000000
_cell_angle_beta 84.286336
_cell_angle_gamma 90.000000
_cell_volume 1093.461853
_symmetry_space_group_name_H-M "P 2/C"
_symmetry_group_IT_number 13
_symmetry_cell_setting 'monoclinic'
loop_
_space_group_symop_operation_xyz
x,y,z
-x,y,1/2-z
-x,-y,-z
x,-y,1/2+z
loop_
_atom_site_type_symbol
_atom_site_label
_atom_site_fract_x
_atom_site_fract_y
_atom_site_fract_z
Si Si1 0.500000 0.706797 0.750000
Si Si2 0.274588 0.751597 0.517818
Si Si3 0.000000 0.952484 0.750000
Si Si4 0.761968 0.405719 0.061872
Si Si5 0.000000 0.685579 0.750000
Si Si6 0.326023 0.584534 0.302812
Si Si7 0.890260 0.110686 0.621455
O O1 0.418222 0.769351 0.623851
O O2 0.376000 0.646370 0.845756
O O3 0.119499 0.745523 0.641823
O O4 0.310738 0.662849 0.429502
O O5 0.256594 0.829248 0.383745
O O6 0.042116 0.896610 0.580639
O O7 0.137341 0.016311 0.796949
O O8 0.919544 0.373748 0.119085
O O9 0.746693 0.504562 0.097403
O O10 0.765417 0.392763 0.857627
O O11 0.500000 0.564373 0.250000
O O12 0.000000 0.156741 0.750000
#
# Coordination Sequence:
#
# PCOD8119569 Si02
#       7
#     2   4   2   4   2   4   4
#     4  10  20  40  56  80 114 168 202 236 288 354
#     4  11  23  37  60  87 122 148 196 251 303 343
#     4   8  17  36  63  92 122 158 184 222 305 384
#     4  11  22  38  59  76 115 158 209 246 293 351
#     4  10  25  38  53  90 116 154 192 260 311 332
#     4  12  23  38  60  80 111 163 210 245 291 356
#     4   9  18  35  61  93 119 152 189 235 292 369
#
# _framework density 20.119586000000002
#
# number of rings (size 3 to 8) (size 9 to 14) (size 15 to 20)
#    0.545    1.091    2.727    3.273    2.545    2.909 
#    0.000    0.000    0.000    1.091    0.000    0.000 
#    0.000    0.000    0.000    0.000    0.000    0.000 
#
# Total GULP energy -272580.510172 kJ/mol
# GULP energy per Si atom -12390.023190 kJ/mol
# Density = 2.007379 g / cm^3
# Si number density = 20.119586 Si / 1000 Ang^3
#
#
#
# Elastic Constant Matrix: (Units=GPa)
#
#
# Indices 1 2 3 4 5 6 
#
# 1 104.6818 34.1251 36.2103 0.0000 39.6382 0.0000
# 2 34.1251 79.6017 12.3443 0.0000 26.3252 0.0000
# 3 36.2103 12.3443 99.0915 0.0000 34.7810 0.0000
# 4 0.0000 0.0000 0.0000 16.2282 0.0000 9.9352
# 5 39.6382 26.3252 34.7810 0.0000 40.4329 0.0000
# 6 0.0000 0.0000 0.0000 9.9352 0.0000 3.9179
#
#
#
# Elastic Compliance Matrix: (Units=1/GPa)
#
#
# Indices 1 2 3 4 5 6 
#
# 1 0.015495 -0.002195 -0.000800 0.000000 -0.013073 0.000000
# 2 -0.002195 0.016724 0.002558 0.000000 -0.010936 0.000000
# 3 -0.000800 0.002558 0.014862 0.000000 -0.013665 0.000000
# 4 0.000000 0.000000 0.000000 -0.111535 0.000000 0.282834
# 5 -0.013073 -0.010936 -0.013665 0.000000 0.056424 0.000000
# 6 0.000000 0.000000 0.000000 0.282834 0.000000 -0.461981
#
#
# Mechanical properties :
#
#
# Convention : Reuss Voigt Hill
#
# Bulk Modulus (GPa) = 21.64264 49.85939 35.75102
# Shear Modulus (GPa) = -11.01969 25.49549 7.23790
#
# Velocity S-wave (km/s) = -2.34286 3.56363 1.89875
# Velocity P-wave (km/s) = 1.86057 6.46281 4.75551
#
# Compressibility (1/GPa) = 0.04620508
#
# Stress axis : x y z
#
# Youngs Moduli (GPa) = 64.53531 59.79466 67.28601
#
# Poissons Ratio (x) = 0.13127 0.05385
# Poissons Ratio (y) = 0.14168 -0.17209
# Poissons Ratio (z) = 0.05165 -0.15293
#
# Static dielectric constant tensor:
#      x y z
#    x 3.239550 0.000000 0.427610 
#    y 0.000000 3.511210 0.000000 
#    z 0.427610 0.000000 3.949230 
# 
# 
# High freq. dielectric constant tensor:
#      x y z
#    x 1.760400 0.000000 0.030530 
#    y 0.000000 1.777940 0.000000 
#    z 0.030530 0.000000 1.797980 
# 
# From -- ./inp_files/12452.got.cif
#   From: 2010.06.25/outbox.cif.g09.slc.cpg/sg13_7_cif.got.tgz:12452.got - 2010.06.28 04:50:58.
