data_PCOD8119203
_publ_section_title
;
Structure prediction by ZEFSAII (Michael W. Deem and Ramdas Pophale) SiO2 
 PCOD8119203
Probable space group: P 2/C
;
_chemical_formula_sum "Si O2"
_cell_formula_units_Z 30
_cell_length_a 8.927053
_cell_length_b 15.142883
_cell_length_c 11.889598
_cell_angle_alpha 90.000000
_cell_angle_beta 67.593620
_cell_angle_gamma 90.000000
_cell_volume 1485.909828
_symmetry_space_group_name_H-M "P 2/C"
_symmetry_group_IT_number 13
_symmetry_cell_setting 'monoclinic'
loop_
_space_group_symop_operation_xyz
x,y,z
-x,y,1/2-z
-x,-y,-z
x,-y,1/2+z
loop_
_atom_site_type_symbol
_atom_site_label
_atom_site_fract_x
_atom_site_fract_y
_atom_site_fract_z
Si Si1 0.136917 0.757618 0.547842
Si Si2 0.176466 0.109513 0.645834
Si Si3 0.500000 0.295025 0.250000
Si Si4 0.212652 0.180547 0.391290
Si Si5 0.403121 0.570951 0.166747
Si Si6 0.662104 0.391341 0.406982
Si Si7 0.314700 0.749712 0.267105
Si Si8 0.189119 0.082692 0.184618
O O1 0.183781 0.664326 0.592908
O O2 0.191753 0.765180 0.403812
O O3 0.226592 0.838797 0.585795
O O4 0.942194 0.764235 0.611057
O O5 0.162770 0.133746 0.519784
O O6 0.289111 0.179057 0.677202
O O7 0.000000 0.111942 0.750000
O O8 0.260032 0.012446 0.627511
O O9 0.370512 0.240417 0.360804
O O10 0.596449 0.351803 0.311190
O O11 0.262134 0.107118 0.284995
O O12 0.500000 0.537128 0.250000
O O13 0.298307 0.493194 0.137455
O O14 0.280379 0.650536 0.231270
O O15 0.531438 0.611373 0.042955
O O16 0.500000 0.756175 0.250000
O O17 0.000000 0.068864 0.250000
#
# Coordination Sequence:
#
# PCOD8119203 Si02
#       8
#     4   4   2   4   4   4   4   4
#     4  11  21  41  65  90 129 168 211 258 319 381
#     4  11  23  41  66  92 127 170 216 265 314 377
#     4  12  24  40  66  94 126 168 212 264 322 380
#     4  11  24  41  64  94 128 167 215 260 317 382
#     4  10  20  37  64  96 124 164 216 252 321 385
#     4  11  21  38  67  92 126 168 208 263 314 386
#     4  11  22  40  64  94 126 167 208 263 319 373
#     4   9  22  38  63  93 123 170 215 257 317 383
#
# _framework density 20.189648999999999
#
# number of rings (size 3 to 8) (size 9 to 14) (size 15 to 20)
#    0.000    1.333    6.000    0.800    1.867    1.600 
#    1.200    1.333    2.933    4.800    0.000    0.000 
#    0.000    0.000    0.000    0.000    0.000    0.000 
#
# Total GULP energy -371941.449865 kJ/mol
# GULP energy per Si atom -12398.048329 kJ/mol
# Density = 2.014370 g / cm^3
# Si number density = 20.189649 Si / 1000 Ang^3
#
#
#
# Elastic Constant Matrix: (Units=GPa)
#
#
# Indices 1 2 3 4 5 6 
#
# 1 55.4811 42.2778 14.4918 0.0000 0.6774 0.0000
# 2 42.2778 156.3974 46.8402 0.0000 9.0663 0.0000
# 3 14.4918 46.8402 116.7400 0.0000 11.3621 0.0000
# 4 0.0000 0.0000 0.0000 16.4222 0.0000 5.8270
# 5 0.6774 9.0663 11.3621 0.0000 27.6166 0.0000
# 6 0.0000 0.0000 0.0000 5.8270 0.0000 32.1495
#
#
#
# Elastic Compliance Matrix: (Units=1/GPa)
#
#
# Indices 1 2 3 4 5 6 
#
# 1 0.022790 -0.006094 -0.000546 0.000000 0.001666 0.000000
# 2 -0.006094 0.008937 -0.002665 0.000000 -0.001688 0.000000
# 3 -0.000546 -0.002665 0.010018 0.000000 -0.003233 0.000000
# 4 0.000000 0.000000 0.000000 0.065078 0.000000 -0.011795
# 5 0.001666 -0.001688 -0.003233 0.000000 0.038054 0.000000
# 6 0.000000 0.000000 0.000000 -0.011795 0.000000 0.033243
#
#
# Mechanical properties :
#
#
# Convention : Reuss Voigt Hill
#
# Bulk Modulus (GPa) = 43.22468 59.53757 51.38112
# Shear Modulus (GPa) = 24.45685 30.23823 27.34754
#
# Velocity S-wave (km/s) = 3.48423 3.87422 3.68439
# Velocity P-wave (km/s) = 6.13533 7.04031 6.60334
#
# Compressibility (1/GPa) = 0.02313493
#
# Stress axis : x y z
#
# Youngs Moduli (GPa) = 43.87894 111.89068 99.82116
#
# Poissons Ratio (x) = 0.68182 0.05453
# Poissons Ratio (y) = 0.26738 0.26604
# Poissons Ratio (z) = 0.02397 0.29821
#
# Static dielectric constant tensor:
#      x y z
#    x 3.320420 0.000000 0.239650 
#    y 0.000000 4.085530 0.000000 
#    z 0.239650 0.000000 3.725560 
# 
# 
# High freq. dielectric constant tensor:
#      x y z
#    x 1.757700 0.000000 0.017100 
#    y 0.000000 1.797430 0.000000 
#    z 0.017100 0.000000 1.804910 
# 
# From -- ./inp_files/30373.got.cif
#   From: 2010.06.25/outbox.cif.g09.slc.cpg/sg13_16_cif.got.tgz:30373.got - 2010.06.28 04:50:58.
