data_PCOD8119553
_publ_section_title
;
Structure prediction by ZEFSAII (Michael W. Deem and Ramdas Pophale) SiO2 
 PCOD8119553
Probable space group: P 2/C
;
_chemical_formula_sum "Si O2"
_cell_formula_units_Z 24
_cell_length_a 11.817891
_cell_length_b 7.246166
_cell_length_c 13.094299
_cell_angle_alpha 90.000000
_cell_angle_beta 87.450560
_cell_angle_gamma 90.000000
_cell_volume 1120.212565
_symmetry_space_group_name_H-M "P 2/C"
_symmetry_group_IT_number 13
_symmetry_cell_setting 'monoclinic'
loop_
_space_group_symop_operation_xyz
x,y,z
-x,y,1/2-z
-x,-y,-z
x,-y,1/2+z
loop_
_atom_site_type_symbol
_atom_site_label
_atom_site_fract_x
_atom_site_fract_y
_atom_site_fract_z
Si Si1 0.397797 0.256668 0.515816
Si Si2 0.635640 0.155929 0.547929
Si Si3 0.626705 0.655442 0.255453
Si Si4 0.880759 0.245014 0.524872
Si Si5 0.223214 0.582699 0.874345
Si Si6 0.050995 0.112539 0.358038
O O1 0.534487 0.288707 0.508062
O O2 0.351462 0.260030 0.633704
O O3 0.325822 0.402097 0.452686
O O4 0.384589 0.056672 0.468682
O O5 0.645431 0.184780 0.670064
O O6 0.753694 0.206730 0.489681
O O7 0.500000 0.572992 0.250000
O O8 0.719452 0.495869 0.230987
O O9 0.875550 0.445249 0.579778
O O10 0.964287 0.238763 0.425849
O O11 0.926373 0.090797 0.601012
O O12 0.170020 0.779861 0.851341
O O13 0.000000 0.085655 0.250000
#
# Coordination Sequence:
#
# PCOD8119553 Si02
#       6
#     4   4   4   4   4   4
#     4  10  20  39  66  97 137 168 207 271 325 393
#     4   9  19  40  64  95 130 171 211 260 328 393
#     4   9  21  38  61  97 132 169 215 260 320 402
#     4  10  23  43  63  90 129 164 213 276 314 385
#     4  11  23  42  66  97 129 166 218 264 333 388
#     4  11  25  44  63  92 123 170 229 264 323 386
#
# _framework density 21.424506000000001
#
# number of rings (size 3 to 8) (size 9 to 14) (size 15 to 20)
#    0.000    2.000    1.667    0.500    2.333    9.333 
#    0.000    2.500    0.000    0.000    0.000    0.000 
#    0.000    0.000    0.000    0.000    0.000    0.000 
#
# Total GULP energy -297477.960469 kJ/mol
# GULP energy per Si atom -12394.915020 kJ/mol
# Density = 2.137574 g / cm^3
# Si number density = 21.424506 Si / 1000 Ang^3
#
#
#
# Elastic Constant Matrix: (Units=GPa)
#
#
# Indices 1 2 3 4 5 6 
#
# 1 110.2737 26.8081 48.3507 0.0000 -1.1243 0.0000
# 2 26.8081 57.0557 27.4100 0.0000 2.7997 0.0000
# 3 48.3507 27.4100 91.2187 0.0000 1.5845 0.0000
# 4 0.0000 0.0000 0.0000 14.8464 0.0000 -0.3107
# 5 -1.1243 2.7997 1.5845 0.0000 31.4623 0.0000
# 6 0.0000 0.0000 0.0000 -0.3107 0.0000 55.9082
#
#
#
# Elastic Compliance Matrix: (Units=1/GPa)
#
#
# Indices 1 2 3 4 5 6 
#
# 1 0.012293 -0.003140 -0.005590 0.000000 0.001000 0.000000
# 2 -0.003140 0.021358 -0.004723 0.000000 -0.001775 0.000000
# 3 -0.005590 -0.004723 0.015354 0.000000 -0.000553 0.000000
# 4 0.000000 0.000000 0.000000 0.067364 0.000000 0.000374
# 5 0.001000 -0.001775 -0.000553 0.000000 0.032006 0.000000
# 6 0.000000 0.000000 0.000000 0.000374 0.000000 0.017889
#
#
# Mechanical properties :
#
#
# Convention : Reuss Voigt Hill
#
# Bulk Modulus (GPa) = 45.24762 51.52063 48.38412
# Shear Modulus (GPa) = 24.93340 30.84199 27.88769
#
# Velocity S-wave (km/s) = 3.41512 3.79828 3.61178
# Velocity P-wave (km/s) = 6.05939 6.58298 6.32660
#
# Compressibility (1/GPa) = 0.02210061
#
# Stress axis : x y z
#
# Youngs Moduli (GPa) = 81.34931 46.82125 65.12847
#
# Poissons Ratio (x) = 0.14700 0.36405
# Poissons Ratio (y) = 0.25540 0.30759
# Poissons Ratio (z) = 0.45472 0.22113
#
# Static dielectric constant tensor:
#      x y z
#    x 4.231000 0.000000 -0.084470 
#    y 0.000000 3.761820 0.000000 
#    z -0.084470 0.000000 3.724470 
# 
# 
# High freq. dielectric constant tensor:
#      x y z
#    x 1.855270 0.000000 -0.004660 
#    y 0.000000 1.839980 0.000000 
#    z -0.004660 0.000000 1.823340 
# 
# From -- ./inp_files/32604.got.cif
#   From: 2010.06.25/outbox.cif.g09.slc.cpg/sg13_17_cif.got.tgz:32604.got - 2010.06.28 04:50:58.
