data_PCOD8119130
_publ_section_title
;
Structure prediction by ZEFSAII (Michael W. Deem and Ramdas Pophale) SiO2 
 PCOD8119130
Probable space group: P 2/C
;
_chemical_formula_sum "Si O2"
_cell_formula_units_Z 18
_cell_length_a 15.575292
_cell_length_b 9.391390
_cell_length_c 20.169332
_cell_angle_alpha 90.000000
_cell_angle_beta 161.162880
_cell_angle_gamma 90.000000
_cell_volume 952.570863
_symmetry_space_group_name_H-M "P 2/C"
_symmetry_group_IT_number 13
_symmetry_cell_setting 'monoclinic'
loop_
_space_group_symop_operation_xyz
x,y,z
-x,y,1/2-z
-x,-y,-z
x,-y,1/2+z
loop_
_atom_site_type_symbol
_atom_site_label
_atom_site_fract_x
_atom_site_fract_y
_atom_site_fract_z
Si Si1 0.788813 0.653324 0.749270
Si Si2 0.898756 0.149331 0.449543
Si Si3 0.630553 0.653865 0.169802
Si Si4 0.791393 0.236987 0.041468
Si Si5 0.500000 0.993231 0.750000
O O1 0.778626 0.768379 0.799411
O O2 0.536831 0.682539 0.518645
O O3 0.769568 0.499625 0.769357
O O4 0.063793 0.667292 0.908775
O O5 0.138965 0.230685 0.660167
O O6 0.671042 0.120389 0.335339
O O7 0.000000 0.000000 0.500000
O O8 0.444365 0.667765 0.099043
O O9 0.000000 0.189522 0.250000
O O10 0.676783 0.092786 0.926620
#
# Coordination Sequence:
#
# PCOD8119130 Si02
#       5
#     4   4   4   4   2
#     4  10  22  40  63  89 119 156 198 245 296 350
#     4  12  23  38  61  87 121 153 197 243 291 349
#     4  10  22  40  63  89 119 156 198 245 296 350
#     4  10  20  37  61  85 119 159 194 238 298 356
#     4  12  24  38  56  92 120 156 198 240 292 354
#
# _framework density 18.896232000000001
#
# number of rings (size 3 to 8) (size 9 to 14) (size 15 to 20)
#    0.000    1.333    4.444    0.667    0.000    4.444 
#    0.000    2.222    0.000    0.000    0.000    0.000 
#    0.000    0.000    0.000    0.000    0.000    0.000 
#
# Total GULP energy -223231.018976 kJ/mol
# GULP energy per Si atom -12401.723276 kJ/mol
# Density = 1.885322 g / cm^3
# Si number density = 18.896232 Si / 1000 Ang^3
#
#
#
# Elastic Constant Matrix: (Units=GPa)
#
#
# Indices 1 2 3 4 5 6 
#
# 1 141.4952 85.5568 78.2841 0.0000 29.2078 0.0000
# 2 85.5568 158.0455 79.0624 0.0000 9.6596 0.0000
# 3 78.2841 79.0624 108.1907 0.0000 13.6714 0.0000
# 4 0.0000 0.0000 0.0000 40.2824 0.0000 1.4284
# 5 29.2078 9.6596 13.6714 0.0000 39.5453 0.0000
# 6 0.0000 0.0000 0.0000 1.4284 0.0000 41.1604
#
#
#
# Elastic Compliance Matrix: (Units=1/GPa)
#
#
# Indices 1 2 3 4 5 6 
#
# 1 0.014954 -0.004253 -0.006742 0.000000 -0.007675 0.000000
# 2 -0.004253 0.011183 -0.005382 0.000000 0.002270 0.000000
# 3 -0.006742 -0.005382 0.018047 0.000000 0.000055 0.000000
# 4 0.000000 0.000000 0.000000 0.024855 0.000000 -0.000863
# 5 -0.007675 0.002270 0.000055 0.000000 0.030382 0.000000
# 6 0.000000 0.000000 0.000000 -0.000863 0.000000 0.024325
#
#
# Mechanical properties :
#
#
# Convention : Reuss Voigt Hill
#
# Bulk Modulus (GPa) = 87.48956 99.28199 93.38577
# Shear Modulus (GPa) = 31.18946 35.18617 33.18781
#
# Velocity S-wave (km/s) = 4.06712 4.31986 4.19539
# Velocity P-wave (km/s) = 8.27380 8.80547 8.54377
#
# Compressibility (1/GPa) = 0.01142994
#
# Stress axis : x y z
#
# Youngs Moduli (GPa) = 66.87391 89.42027 55.41039
#
# Poissons Ratio (x) = 0.38032 0.37358
# Poissons Ratio (y) = 0.28443 0.29820
# Poissons Ratio (z) = 0.45087 0.48123
#
# Static dielectric constant tensor:
#      x y z
#    x 3.691310 0.000000 0.056900 
#    y 0.000000 3.188340 0.000000 
#    z 0.056900 0.000000 3.646940 
# 
# 
# High freq. dielectric constant tensor:
#      x y z
#    x 1.748870 0.000000 -0.001310 
#    y 0.000000 1.730160 0.000000 
#    z -0.001310 0.000000 1.749960 
# 
# From -- ./inp_files/27669.got.cif
#   From: 2010.06.25/outbox.cif.g09.slc.cpg/sg13_14_cif.got.tgz:27669.got - 2010.06.28 04:50:58.
