data_PCOD8119115
_publ_section_title
;
Structure prediction by ZEFSAII (Michael W. Deem and Ramdas Pophale) SiO2 
 PCOD8119115
Probable space group: P 2/C
;
_chemical_formula_sum "Si O2"
_cell_formula_units_Z 24
_cell_length_a 13.584587
_cell_length_b 13.834717
_cell_length_c 20.805750
_cell_angle_alpha 90.000000
_cell_angle_beta 18.127968
_cell_angle_gamma 90.000000
_cell_volume 1216.624228
_symmetry_space_group_name_H-M "P 2/C"
_symmetry_group_IT_number 13
_symmetry_cell_setting 'monoclinic'
loop_
_space_group_symop_operation_xyz
x,y,z
-x,y,1/2-z
-x,-y,-z
x,-y,1/2+z
loop_
_atom_site_type_symbol
_atom_site_label
_atom_site_fract_x
_atom_site_fract_y
_atom_site_fract_z
Si Si1 0.214380 0.075445 0.558628
Si Si2 0.733397 0.212489 0.789095
Si Si3 0.896598 0.420996 0.710511
Si Si4 0.496167 0.588483 0.915260
Si Si5 0.700694 0.206201 0.321731
Si Si6 0.626837 0.877838 0.100263
O O1 0.543235 0.117188 0.381371
O O2 0.000000 0.034697 0.750000
O O3 0.032848 0.161499 0.635817
O O4 0.287205 0.989214 0.465066
O O5 0.833882 0.322062 0.710550
O O6 0.646935 0.156769 0.777933
O O7 0.435755 0.211605 0.021721
O O8 0.779177 0.510215 0.739834
O O9 0.269131 0.432302 0.495150
O O10 0.705705 0.418239 0.894999
O O11 0.642901 0.695017 0.818644
O O12 0.072494 0.190326 0.096520
O O13 0.500000 0.866493 0.250000
#
# Coordination Sequence:
#
# PCOD8119115 Si02
#       6
#     4   4   4   4   4   4
#     4  10  20  38  61  84 112 146 191 238 285 338
#     4  10  20  37  60  86 116 149 187 232 283 336
#     4   9  17  30  53  89 121 142 173 225 283 335
#     4   9  17  30  53  89 121 142 173 225 283 335
#     4  10  20  37  60  86 116 149 187 232 283 336
#     4  12  26  38  53  82 116 152 197 236 279 336
#
# _framework density 19.726716
#
# number of rings (size 3 to 8) (size 9 to 14) (size 15 to 20)
#    0.000    2.000    1.667    2.500    2.333    5.333 
#    0.000    0.000    0.000    1.000    0.000    0.000 
#    0.000    0.000    0.000    0.000    0.000    0.000 
#
# Total GULP energy -297681.027223 kJ/mol
# GULP energy per Si atom -12403.376134 kJ/mol
# Density = 1.968182 g / cm^3
# Si number density = 19.726716 Si / 1000 Ang^3
#
#
#
# Elastic Constant Matrix: (Units=GPa)
#
#
# Indices 1 2 3 4 5 6 
#
# 1 75.5876 25.4538 28.2249 0.0000 -3.1916 0.0000
# 2 25.4538 113.4088 23.4311 0.0000 -4.0818 0.0000
# 3 28.2249 23.4311 37.2215 0.0000 -16.7501 0.0000
# 4 0.0000 0.0000 0.0000 16.1964 0.0000 -15.1506
# 5 -3.1916 -4.0818 -16.7501 0.0000 19.6014 0.0000
# 6 0.0000 0.0000 0.0000 -15.1506 0.0000 16.5879
#
#
#
# Elastic Compliance Matrix: (Units=1/GPa)
#
#
# Indices 1 2 3 4 5 6 
#
# 1 0.021451 -0.000584 -0.023368 0.000000 -0.016597 0.000000
# 2 -0.000584 0.010520 -0.008509 0.000000 -0.005175 0.000000
# 3 -0.023368 -0.008509 0.077069 0.000000 0.060282 0.000000
# 4 0.000000 0.000000 0.000000 0.423978 0.000000 0.387242
# 5 -0.016597 -0.005175 0.060282 0.000000 0.098749 0.000000
# 6 0.000000 0.000000 0.000000 0.387242 0.000000 0.413973
#
#
# Mechanical properties :
#
#
# Convention : Reuss Voigt Hill
#
# Bulk Modulus (GPa) = 22.66531 42.27082 32.46806
# Shear Modulus (GPa) = 4.44299 20.41769 12.43034
#
# Velocity S-wave (km/s) = 1.50238 3.22067 2.51296
# Velocity P-wave (km/s) = 3.81105 5.94181 4.99145
#
# Compressibility (1/GPa) = 0.04412029
#
# Stress axis : x y z
#
# Youngs Moduli (GPa) = 46.61748 95.05309 12.97530
#
# Poissons Ratio (x) = 0.05551 0.30320
# Poissons Ratio (y) = 0.02722 0.11040
# Poissons Ratio (z) = 1.08934 0.80878
#
# Static dielectric constant tensor:
#      x y z
#    x 3.359060 0.000000 -0.310010 
#    y 0.000000 3.685520 0.000000 
#    z -0.310010 0.000000 3.461970 
# 
# 
# High freq. dielectric constant tensor:
#      x y z
#    x 1.741460 0.000000 -0.037060 
#    y 0.000000 1.780950 0.000000 
#    z -0.037060 0.000000 1.753020 
# 
# From -- ./inp_files/12409.got.cif
#   From: 2010.06.25/outbox.cif.g09.slc.cpg/sg13_7_cif.got.tgz:12409.got - 2010.06.28 04:50:58.
