data_PCOD8119385
_publ_section_title
;
Structure prediction by ZEFSAII (Michael W. Deem and Ramdas Pophale) SiO2 
 PCOD8119385
Probable space group: P 2/C
;
_chemical_formula_sum "Si O2"
_cell_formula_units_Z 26
_cell_length_a 14.502201
_cell_length_b 14.302817
_cell_length_c 9.133441
_cell_angle_alpha 90.000000
_cell_angle_beta 43.649210
_cell_angle_gamma 90.000000
_cell_volume 1307.647983
_symmetry_space_group_name_H-M "P 2/C"
_symmetry_group_IT_number 13
_symmetry_cell_setting 'monoclinic'
loop_
_space_group_symop_operation_xyz
x,y,z
-x,y,1/2-z
-x,-y,-z
x,-y,1/2+z
loop_
_atom_site_type_symbol
_atom_site_label
_atom_site_fract_x
_atom_site_fract_y
_atom_site_fract_z
Si Si1 0.740933 0.397428 0.198523
Si Si2 0.531487 0.692102 0.544148
Si Si3 0.979513 0.727587 0.440780
Si Si4 0.047642 0.908445 0.530743
Si Si5 0.213746 0.582619 0.188331
Si Si6 0.637457 0.888142 0.342174
Si Si7 0.500000 0.999606 0.250000
O O1 0.588509 0.363783 0.397909
O O2 0.796423 0.478997 0.237405
O O3 0.829829 0.308105 0.132810
O O4 0.763249 0.431345 0.008790
O O5 0.500000 0.713470 0.750000
O O6 0.660057 0.628103 0.378095
O O7 0.566021 0.787630 0.421639
O O8 0.000000 0.759137 0.250000
O O9 0.979297 0.817514 0.542437
O O10 0.084295 0.646766 0.367620
O O11 0.203842 0.887129 0.338322
O O12 0.000000 0.921248 0.750000
O O13 0.000000 0.000000 0.500000
O O14 0.594552 0.938211 0.243255
O O15 0.595351 0.938785 0.539525
#
# Coordination Sequence:
#
# PCOD8119385 Si02
#       7
#     4   4   4   4   4   4   2
#     4  10  22  36  63  90 124 163 213 258 319 387
#     4  10  20  38  64  88 124 164 204 260 324 376
#     4  10  22  40  64  90 127 171 213 262 323 381
#     4  12  26  43  66  95 131 169 216 266 318 382
#     4  10  20  40  59  89 123 166 207 263 322 375
#     4  11  22  44  63  94 128 165 214 265 320 383
#     4  10  24  38  70  92 122 170 210 262 320 378
#
# _framework density 19.883026000000001
#
# number of rings (size 3 to 8) (size 9 to 14) (size 15 to 20)
#    0.000    1.538    2.308    2.308    0.000    4.923 
#    2.769    0.000    0.000    0.000    0.000    0.000 
#    0.000    0.000    0.000    0.000    0.000    0.000 
#
# Total GULP energy -322408.421394 kJ/mol
# GULP energy per Si atom -12400.323900 kJ/mol
# Density = 1.983777 g / cm^3
# Si number density = 19.883026 Si / 1000 Ang^3
#
#
#
# Elastic Constant Matrix: (Units=GPa)
#
#
# Indices 1 2 3 4 5 6 
#
# 1 107.1709 52.1134 39.1868 0.0000 3.0161 0.0000
# 2 52.1134 110.9623 30.4850 0.0000 25.4889 0.0000
# 3 39.1868 30.4850 63.1090 0.0000 8.5903 0.0000
# 4 0.0000 0.0000 0.0000 -29.8654 0.0000 13.0045
# 5 3.0161 25.4889 8.5903 0.0000 29.6447 0.0000
# 6 0.0000 0.0000 0.0000 13.0045 0.0000 2.3663
#
#
#
# Elastic Compliance Matrix: (Units=1/GPa)
#
#
# Indices 1 2 3 4 5 6 
#
# 1 0.014825 -0.006452 -0.006911 0.000000 0.006042 0.000000
# 2 -0.006452 0.015270 -0.001741 0.000000 -0.011968 0.000000
# 3 -0.006911 -0.001741 0.021528 0.000000 -0.004038 0.000000
# 4 0.000000 0.000000 0.000000 -0.009868 0.000000 0.054234
# 5 0.006042 -0.011968 -0.004038 0.000000 0.044579 0.000000
# 6 0.000000 0.000000 0.000000 0.054234 0.000000 0.124550
#
#
# Mechanical properties :
#
#
# Convention : Reuss Voigt Hill
#
# Bulk Modulus (GPa) = 46.69697 58.31249 52.50473
# Shear Modulus (GPa) = 20.14270 11.05959 15.60114
#
# Velocity S-wave (km/s) = 3.18631 2.36102 2.80419
# Velocity P-wave (km/s) = 6.08881 6.06828 6.07855
#
# Compressibility (1/GPa) = 0.02141467
#
# Stress axis : x y z
#
# Youngs Moduli (GPa) = 67.45251 65.48982 46.45168
#
# Poissons Ratio (x) = 0.42252 0.32105
# Poissons Ratio (y) = 0.43518 0.08086
# Poissons Ratio (z) = 0.46619 0.11401
#
# Static dielectric constant tensor:
#      x y z
#    x 3.859230 0.000000 -0.091460 
#    y 0.000000 3.637450 0.000000 
#    z -0.091460 0.000000 3.624020 
# 
# 
# High freq. dielectric constant tensor:
#      x y z
#    x 1.786520 0.000000 -0.011250 
#    y 0.000000 1.786010 0.000000 
#    z -0.011250 0.000000 1.774780 
# 
# From -- ./inp_files/19841.got.cif
#   From: 2010.06.25/outbox.cif.g09.slc.cpg/sg13_10_cif.got.tgz:19841.got - 2010.06.28 04:50:58.
