data_PCOD8119322
_publ_section_title
;
Structure prediction by ZEFSAII (Michael W. Deem and Ramdas Pophale) SiO2 
 PCOD8119322
Probable space group: P 2/C
;
_chemical_formula_sum "Si O2"
_cell_formula_units_Z 28
_cell_length_a 26.080197
_cell_length_b 9.155682
_cell_length_c 9.014207
_cell_angle_alpha 90.000000
_cell_angle_beta 146.184786
_cell_angle_gamma 90.000000
_cell_volume 1197.862434
_symmetry_space_group_name_H-M "P 2/C"
_symmetry_group_IT_number 13
_symmetry_cell_setting 'monoclinic'
loop_
_space_group_symop_operation_xyz
x,y,z
-x,y,1/2-z
-x,-y,-z
x,-y,1/2+z
loop_
_atom_site_type_symbol
_atom_site_label
_atom_site_fract_x
_atom_site_fract_y
_atom_site_fract_z
Si Si1 0.214235 0.004007 0.767513
Si Si2 0.332603 0.585496 0.235473
Si Si3 0.000000 0.492703 0.250000
Si Si4 0.170542 0.201654 0.923487
Si Si5 0.500000 0.895992 0.250000
Si Si6 0.124573 0.466268 0.300761
Si Si7 0.657483 0.894155 0.179792
Si Si8 0.640785 0.322936 0.020411
O O1 0.291352 0.081250 0.852116
O O2 0.142817 0.909276 0.492672
O O3 0.159300 0.122929 0.735830
O O4 0.269115 0.895985 0.009511
O O5 0.382374 0.729687 0.417625
O O6 0.387528 0.443215 0.423545
O O7 0.327594 0.584771 0.045779
O O8 0.228582 0.584927 0.050273
O O9 0.930479 0.400128 0.189455
O O10 0.068800 0.586864 0.520739
O O11 0.279448 0.224250 0.215420
O O12 0.116797 0.354914 0.793643
O O13 0.443179 0.786480 0.221960
O O14 0.572919 0.996402 0.512196
#
# Coordination Sequence:
#
# PCOD8119322 Si02
#       8
#     4   4   2   4   2   4   4   4
#     4  10  20  38  61  94 116 166 234 254 317 381
#     4  11  24  41  65  95 125 173 228 260 315 394
#     4  10  22  40  64 108 124 170 196 252 366 372
#     4  10  20  40  62  94 126 168 220 267 305 399
#     4  12  24  44  62  90 140 164 222 298 318 384
#     4  10  22  40  68  97 137 161 207 274 312 404
#     4  11  23  38  64  92 124 177 224 268 330 376
#     4  11  24  40  60  91 129 173 218 272 336 364
#
# _framework density 23.374970000000001
#
# number of rings (size 3 to 8) (size 9 to 14) (size 15 to 20)
#    0.000    1.429    4.286    1.714    6.000    3.429 
#    0.000    0.000    0.000    2.571    0.000    0.000 
#    0.000    0.000    0.000    0.000    0.000    0.000 
#
# Total GULP energy -346911.872355 kJ/mol
# GULP energy per Si atom -12389.709727 kJ/mol
# Density = 2.332177 g / cm^3
# Si number density = 23.374970 Si / 1000 Ang^3
#
#
#
# Elastic Constant Matrix: (Units=GPa)
#
#
# Indices 1 2 3 4 5 6 
#
# 1 99.7491 31.7762 42.0233 0.0000 -21.5136 0.0000
# 2 31.7762 118.3398 35.4120 0.0000 -8.1493 0.0000
# 3 42.0233 35.4120 67.6530 0.0000 -8.1247 0.0000
# 4 0.0000 0.0000 0.0000 19.0476 0.0000 -6.9933
# 5 -21.5136 -8.1493 -8.1247 0.0000 39.9508 0.0000
# 6 0.0000 0.0000 0.0000 -6.9933 0.0000 18.2213
#
#
#
# Elastic Compliance Matrix: (Units=1/GPa)
#
#
# Indices 1 2 3 4 5 6 
#
# 1 0.015146 -0.001239 -0.008006 0.000000 0.006275 0.000000
# 2 -0.001239 0.010160 -0.004489 0.000000 0.000492 0.000000
# 3 -0.008006 -0.004489 0.022014 0.000000 -0.000750 0.000000
# 4 0.000000 0.000000 0.000000 0.061111 0.000000 0.023454
# 5 0.006275 0.000492 -0.000750 0.000000 0.028358 0.000000
# 6 0.000000 0.000000 0.000000 0.023454 0.000000 0.063882
#
#
# Mechanical properties :
#
#
# Convention : Reuss Voigt Hill
#
# Bulk Modulus (GPa) = 50.37394 56.01833 53.19614
# Shear Modulus (GPa) = 21.29848 27.21264 24.25556
#
# Velocity S-wave (km/s) = 3.02183 3.41571 3.22479
# Velocity P-wave (km/s) = 5.81140 6.29072 6.05581
#
# Compressibility (1/GPa) = 0.01985153
#
# Stress axis : x y z
#
# Youngs Moduli (GPa) = 66.02328 98.42236 45.42542
#
# Poissons Ratio (x) = 0.12196 0.36367
# Poissons Ratio (y) = 0.08181 0.20393
# Poissons Ratio (z) = 0.52858 0.44186
#
# Static dielectric constant tensor:
#      x y z
#    x 4.248720 0.000000 -0.258610 
#    y 0.000000 4.305570 0.000000 
#    z -0.258610 0.000000 3.986720 
# 
# 
# High freq. dielectric constant tensor:
#      x y z
#    x 1.921990 0.000000 -0.020600 
#    y 0.000000 1.918820 0.000000 
#    z -0.020600 0.000000 1.900650 
# 
# From -- ./inp_files/24630.got.cif
#   From: 2010.06.25/outbox.cif.g09.slc.cpg/sg13_13_cif.got.tgz:24630.got - 2010.06.28 04:50:58.
