data_PCOD8119784
_publ_section_title
;
Structure prediction by ZEFSAII (Michael W. Deem and Ramdas Pophale) SiO2 
 PCOD8119784
Probable space group: P 2/C
;
_chemical_formula_sum "Si O2"
_cell_formula_units_Z 26
_cell_length_a 8.897796
_cell_length_b 11.683735
_cell_length_c 21.775776
_cell_angle_alpha 90.000000
_cell_angle_beta 145.822808
_cell_angle_gamma 90.000000
_cell_volume 1271.698119
_symmetry_space_group_name_H-M "P 2/C"
_symmetry_group_IT_number 13
_symmetry_cell_setting 'monoclinic'
loop_
_space_group_symop_operation_xyz
x,y,z
-x,y,1/2-z
-x,-y,-z
x,-y,1/2+z
loop_
_atom_site_type_symbol
_atom_site_label
_atom_site_fract_x
_atom_site_fract_y
_atom_site_fract_z
Si Si1 0.723528 0.339134 0.036791
Si Si2 0.990971 0.252841 0.883374
Si Si3 0.006222 0.215200 0.476244
Si Si4 0.500000 0.914176 0.750000
Si Si5 0.172480 0.450980 0.863902
Si Si6 0.601465 0.879362 0.056088
Si Si7 0.563842 0.888067 0.181599
O O1 0.889555 0.414543 0.142484
O O2 0.890775 0.321227 0.030799
O O3 0.472515 0.424667 0.941941
O O4 0.631933 0.216011 0.031614
O O5 0.080098 0.376923 0.890895
O O6 0.152502 0.152026 0.903999
O O7 0.061543 0.258663 0.978865
O O8 0.683675 0.217107 0.763272
O O9 0.244421 0.123142 0.563900
O O10 0.743972 0.162991 0.355995
O O11 0.386389 0.992218 0.766973
O O12 0.000000 0.406813 0.750000
O O13 0.697928 0.886444 0.159502
O O14 0.500000 0.000000 0.000000
#
# Coordination Sequence:
#
# PCOD8119784 Si02
#       7
#     4   4   4   2   4   4   4
#     4   9  22  41  62  91 123 164 206 260 316 377
#     4  11  21  38  65  92 120 165 214 265 303 380
#     4  11  23  41  60  91 128 163 214 253 324 382
#     4  12  24  38  62  86 136 172 198 272 326 380
#     4  10  20  42  67  91 122 163 211 264 315 371
#     4  10  21  37  60  91 128 162 206 256 314 388
#     4  11  22  38  62  89 121 170 215 251 312 383
#
# _framework density 20.445103
#
# number of rings (size 3 to 8) (size 9 to 14) (size 15 to 20)
#    0.000    1.538    1.538    4.615    4.308    0.615 
#   11.077    0.000    3.385    0.000    0.000    0.000 
#    0.000    0.000    0.000    0.000    0.000    0.000 
#
# Total GULP energy -322256.854883 kJ/mol
# GULP energy per Si atom -12394.494419 kJ/mol
# Density = 2.039857 g / cm^3
# Si number density = 20.445103 Si / 1000 Ang^3
#
#
#
# Elastic Constant Matrix: (Units=GPa)
#
#
# Indices 1 2 3 4 5 6 
#
# 1 135.0142 52.5376 49.5923 0.0000 -17.4145 0.0000
# 2 52.5376 134.1098 45.7631 0.0000 -13.5254 0.0000
# 3 49.5923 45.7631 109.8670 0.0000 -4.0570 0.0000
# 4 0.0000 0.0000 0.0000 27.0501 0.0000 -2.2409
# 5 -17.4145 -13.5254 -4.0570 0.0000 28.9900 0.0000
# 6 0.0000 0.0000 0.0000 -2.2409 0.0000 29.5109
#
#
#
# Elastic Compliance Matrix: (Units=1/GPa)
#
#
# Indices 1 2 3 4 5 6 
#
# 1 0.010171 -0.002353 -0.003444 0.000000 0.004530 0.000000
# 2 -0.002353 0.009619 -0.002846 0.000000 0.002676 0.000000
# 3 -0.003444 -0.002846 0.011777 0.000000 -0.001748 0.000000
# 4 0.000000 0.000000 0.000000 0.037202 0.000000 0.002825
# 5 0.004530 0.002676 -0.001748 0.000000 0.038220 0.000000
# 6 0.000000 0.000000 0.000000 0.002825 0.000000 0.034100
#
#
# Mechanical properties :
#
#
# Convention : Reuss Voigt Hill
#
# Bulk Modulus (GPa) = 70.01346 74.97522 72.49434
# Shear Modulus (GPa) = 30.64906 32.51673 31.58290
#
# Velocity S-wave (km/s) = 3.87601 3.99236 3.93461
# Velocity P-wave (km/s) = 7.37226 7.61597 7.49511
#
# Compressibility (1/GPa) = 0.01428297
#
# Stress axis : x y z
#
# Youngs Moduli (GPa) = 98.31441 103.95800 84.90851
#
# Poissons Ratio (x) = 0.24456 0.29243
# Poissons Ratio (y) = 0.23129 0.24165
# Poissons Ratio (z) = 0.33860 0.29586
#
# Static dielectric constant tensor:
#      x y z
#    x 3.965190 0.000000 -0.059510 
#    y 0.000000 3.599660 0.000000 
#    z -0.059510 0.000000 3.842020 
# 
# 
# High freq. dielectric constant tensor:
#      x y z
#    x 1.808010 0.000000 -0.005000 
#    y 0.000000 1.786330 0.000000 
#    z -0.005000 0.000000 1.794710 
# 
# From -- ./inp_files/76502.got.cif
#   From: 2010.06.25/outbox.cif.g09.slc.cpg/sg13_39_cif.got.tgz:76502.got - 2010.06.28 04:50:58.
