data_PCOD8119467
_publ_section_title
;
Structure prediction by ZEFSAII (Michael W. Deem and Ramdas Pophale) SiO2 
 PCOD8119467
Probable space group: P 2/C
;
_chemical_formula_sum "Si O2"
_cell_formula_units_Z 32
_cell_length_a 12.224581
_cell_length_b 19.496353
_cell_length_c 9.464998
_cell_angle_alpha 90.000000
_cell_angle_beta 49.115924
_cell_angle_gamma 90.000000
_cell_volume 1705.493330
_symmetry_space_group_name_H-M "P 2/C"
_symmetry_group_IT_number 13
_symmetry_cell_setting 'monoclinic'
loop_
_space_group_symop_operation_xyz
x,y,z
-x,y,1/2-z
-x,-y,-z
x,-y,1/2+z
loop_
_atom_site_type_symbol
_atom_site_label
_atom_site_fract_x
_atom_site_fract_y
_atom_site_fract_z
Si Si1 0.616518 0.941209 0.265519
Si Si2 0.813651 0.703819 0.272321
Si Si3 0.365052 0.573853 0.064607
Si Si4 0.419567 0.093286 0.184140
Si Si5 0.176165 0.811734 0.751562
Si Si6 0.133863 0.318757 0.450151
Si Si7 0.319144 0.447173 0.277929
Si Si8 0.846410 0.829518 0.052947
O O1 0.500000 0.913973 0.250000
O O2 0.550949 0.926369 0.472500
O O3 0.769453 0.902615 0.130776
O O4 0.654106 0.021225 0.207414
O O5 0.688402 0.649196 0.347337
O O6 0.822355 0.710733 0.433632
O O7 0.780332 0.776442 0.224610
O O8 0.961959 0.674460 0.082833
O O9 0.287797 0.522232 0.240580
O O10 0.538051 0.578227 0.926000
O O11 0.328916 0.547833 0.938191
O O12 0.500000 0.129218 0.250000
O O13 0.299451 0.140429 0.213624
O O14 0.199866 0.735166 0.785796
O O15 0.188370 0.803111 0.574031
O O16 0.018173 0.840035 0.931916
O O17 0.192931 0.392877 0.355274
#
# Coordination Sequence:
#
# PCOD8119467 Si02
#       8
#     4   4   4   4   4   4   4   4
#     4  10  20  39  58  80 112 144 180 225 273 323
#     4   9  19  35  53  75 104 141 178 220 265 317
#     4   9  18  33  51  74 103 135 174 215 267 315
#     4  10  22  37  58  83 110 142 181 227 272 323
#     4  10  21  38  55  82 111 145 183 224 273 323
#     4   9  19  35  52  75 107 137 178 223 265 313
#     4   9  18  33  51  73 104 136 170 219 263 316
#     4  10  21  37  58  78 113 146 180 227 271 324
#
# _framework density 18.762899999999998
#
# number of rings (size 3 to 8) (size 9 to 14) (size 15 to 20)
#    0.000    2.500    1.250    0.000    1.750    3.000 
#    2.250    0.000    0.000    0.000    0.000    0.000 
#    0.000    0.000    0.000    0.000    0.000    0.000 
#
# Total GULP energy -396647.499410 kJ/mol
# GULP energy per Si atom -12395.234357 kJ/mol
# Density = 1.872019 g / cm^3
# Si number density = 18.762900 Si / 1000 Ang^3
#
#
#
# Elastic Constant Matrix: (Units=GPa)
#
#
# Indices 1 2 3 4 5 6 
#
# 1 59.3437 7.9402 5.2890 0.0000 1.7076 0.0000
# 2 7.9402 37.3468 15.6136 0.0000 -2.6883 0.0000
# 3 5.2890 15.6136 55.4857 0.0000 8.1707 0.0000
# 4 0.0000 0.0000 0.0000 32.2175 0.0000 -0.2269
# 5 1.7076 -2.6883 8.1707 0.0000 21.9296 0.0000
# 6 0.0000 0.0000 0.0000 -0.2269 0.0000 28.6656
#
#
#
# Elastic Compliance Matrix: (Units=1/GPa)
#
#
# Indices 1 2 3 4 5 6 
#
# 1 0.017423 -0.003663 -0.000385 0.000000 -0.001662 0.000000
# 2 -0.003663 0.032263 -0.009897 0.000000 0.007928 0.000000
# 3 -0.000385 -0.009897 0.022239 0.000000 -0.009469 0.000000
# 4 0.000000 0.000000 0.000000 0.031041 0.000000 0.000246
# 5 -0.001662 0.007928 -0.009469 0.000000 0.050230 0.000000
# 6 0.000000 0.000000 0.000000 0.000246 0.000000 0.034887
#
#
# Mechanical properties :
#
#
# Convention : Reuss Voigt Hill
#
# Bulk Modulus (GPa) = 22.70938 23.31797 23.01368
# Shear Modulus (GPa) = 21.67775 24.78479 23.23127
#
# Velocity S-wave (km/s) = 3.40273 3.63843 3.52255
# Velocity P-wave (km/s) = 5.25050 5.48685 5.36998
#
# Compressibility (1/GPa) = 0.04403467
#
# Stress axis : x y z
#
# Youngs Moduli (GPa) = 57.39462 30.99517 44.96644
#
# Poissons Ratio (x) = 0.11353 0.01733
# Poissons Ratio (y) = 0.21023 0.44504
# Poissons Ratio (z) = 0.02212 0.30676
#
# Static dielectric constant tensor:
#      x y z
#    x 3.425140 0.000000 0.060140 
#    y 0.000000 3.414710 0.000000 
#    z 0.060140 0.000000 3.506030 
# 
# 
# High freq. dielectric constant tensor:
#      x y z
#    x 1.723010 0.000000 0.006460 
#    y 0.000000 1.720520 0.000000 
#    z 0.006460 0.000000 1.732270 
# 
# From -- ./inp_files/17286.got.cif
#   From: 2010.06.25/outbox.cif.g09.slc.cpg/sg13_9_cif.got.tgz:17286.got - 2010.06.28 04:50:58.
