data_PCOD8119578
_publ_section_title
;
Structure prediction by ZEFSAII (Michael W. Deem and Ramdas Pophale) SiO2 
 PCOD8119578
Probable space group: P 2/C
;
_chemical_formula_sum "Si O2"
_cell_formula_units_Z 26
_cell_length_a 15.857645
_cell_length_b 14.300294
_cell_length_c 8.480303
_cell_angle_alpha 90.000000
_cell_angle_beta 39.682982
_cell_angle_gamma 90.000000
_cell_volume 1227.955513
_symmetry_space_group_name_H-M "P 2/C"
_symmetry_group_IT_number 13
_symmetry_cell_setting 'monoclinic'
loop_
_space_group_symop_operation_xyz
x,y,z
-x,y,1/2-z
-x,-y,-z
x,-y,1/2+z
loop_
_atom_site_type_symbol
_atom_site_label
_atom_site_fract_x
_atom_site_fract_y
_atom_site_fract_z
Si Si1 0.606653 0.881709 0.394139
Si Si2 0.507748 0.698925 0.913531
Si Si3 0.000000 0.959086 0.250000
Si Si4 0.365520 0.440830 0.042872
Si Si5 0.110516 0.121382 0.891210
Si Si6 0.500000 0.041715 0.750000
Si Si7 0.260181 0.383754 0.890113
Si Si8 0.000000 0.728013 0.750000
O O1 0.481267 0.811991 0.614480
O O2 0.745762 0.840822 0.260591
O O3 0.600840 0.896769 0.212293
O O4 0.588761 0.980375 0.505776
O O5 0.500000 0.654194 0.750000
O O6 0.617758 0.643017 0.853885
O O7 0.369758 0.695242 0.207675
O O8 0.093087 0.894454 0.228341
O O9 0.908351 0.022849 0.492222
O O10 0.312380 0.531161 0.208123
O O11 0.500000 0.461322 0.750000
O O12 0.251995 0.412093 0.085083
O O13 0.002598 0.201076 0.096311
O O14 0.119241 0.343240 0.053554
#
# Coordination Sequence:
#
# PCOD8119578 Si02
#       8
#     4   4   2   4   4   2   4   2
#     4  11  21  38  58  86 128 161 201 255 304 360
#     4  11  21  38  64  91 116 157 203 255 305 363
#     4   9  20  38  66  81 116 164 222 251 290 355
#     4  10  22  40  67  90 114 153 206 255 316 365
#     4  10  20  40  59  89 118 168 211 256 299 362
#     4  10  24  36  56  92 124 166 202 250 318 356
#     4  11  22  42  62  90 121 155 198 262 305 376
#     4  11  24  38  60  89 132 164 202 245 314 367
#
# _framework density 21.173407000000001
#
# number of rings (size 3 to 8) (size 9 to 14) (size 15 to 20)
#    0.000    1.538    2.308    4.154    3.231    0.615 
#    2.769    0.000    0.000    0.000    0.000    0.000 
#    0.000    0.000    0.000    0.000    0.000    0.000 
#
# Total GULP energy -322120.614889 kJ/mol
# GULP energy per Si atom -12389.254419 kJ/mol
# Density = 2.112522 g / cm^3
# Si number density = 21.173407 Si / 1000 Ang^3
#
#
#
# Elastic Constant Matrix: (Units=GPa)
#
#
# Indices 1 2 3 4 5 6 
#
# 1 153.0375 55.4686 38.2685 0.0000 28.4153 0.0000
# 2 55.4686 102.6749 26.3426 0.0000 5.8228 0.0000
# 3 38.2685 26.3426 52.6988 0.0000 6.4832 0.0000
# 4 0.0000 0.0000 0.0000 -3.2345 0.0000 -6.1817
# 5 28.4153 5.8228 6.4832 0.0000 34.9406 0.0000
# 6 0.0000 0.0000 0.0000 -6.1817 0.0000 26.3010
#
#
#
# Elastic Compliance Matrix: (Units=1/GPa)
#
#
# Indices 1 2 3 4 5 6 
#
# 1 0.010480 -0.004054 -0.004726 0.000000 -0.006970 0.000000
# 2 -0.004054 0.012765 -0.003665 0.000000 0.001849 0.000000
# 3 -0.004726 -0.003665 0.024245 0.000000 -0.000044 0.000000
# 4 0.000000 0.000000 0.000000 -0.213336 0.000000 -0.050142
# 5 -0.006970 0.001849 -0.000044 0.000000 0.033988 0.000000
# 6 0.000000 0.000000 0.000000 -0.050142 0.000000 0.026236
#
#
# Mechanical properties :
#
#
# Convention : Reuss Voigt Hill
#
# Bulk Modulus (GPa) = 44.24674 60.95227 52.59951
# Shear Modulus (GPa) = -68.30618 24.15686 -22.07466
#
# Velocity S-wave (km/s) = -5.68598 3.38139 -3.23238
# Velocity P-wave (km/s) = 4.70792 6.64039 3.31136
#
# Compressibility (1/GPa) = 0.02260053
#
# Stress axis : x y z
#
# Youngs Moduli (GPa) = 95.42375 78.34105 41.24539
#
# Poissons Ratio (x) = 0.31756 0.19494
# Poissons Ratio (y) = 0.38681 0.15115
# Poissons Ratio (z) = 0.45100 0.28709
#
# Static dielectric constant tensor:
#      x y z
#    x 4.036030 0.000000 0.226020 
#    y 0.000000 3.935030 0.000000 
#    z 0.226020 0.000000 3.637880 
# 
# 
# High freq. dielectric constant tensor:
#      x y z
#    x 1.828150 0.000000 0.023920 
#    y 0.000000 1.839760 0.000000 
#    z 0.023920 0.000000 1.801990 
# 
# From -- ./inp_files/19565.got.cif
#   From: 2010.06.25/outbox.cif.g09.slc.cpg/sg13_10_cif.got.tgz:19565.got - 2010.06.28 04:50:58.
