data_PCOD8119099
_publ_section_title
;
Structure prediction by ZEFSAII (Michael W. Deem and Ramdas Pophale) SiO2 
 PCOD8119099
Probable space group: P 2/C
;
_chemical_formula_sum "Si O2"
_cell_formula_units_Z 32
_cell_length_a 21.645413
_cell_length_b 14.347252
_cell_length_c 15.958176
_cell_angle_alpha 90.000000
_cell_angle_beta 161.122292
_cell_angle_gamma 90.000000
_cell_volume 1603.460700
_symmetry_space_group_name_H-M "P 2/C"
_symmetry_group_IT_number 13
_symmetry_cell_setting 'monoclinic'
loop_
_space_group_symop_operation_xyz
x,y,z
-x,y,1/2-z
-x,-y,-z
x,-y,1/2+z
loop_
_atom_site_type_symbol
_atom_site_label
_atom_site_fract_x
_atom_site_fract_y
_atom_site_fract_z
Si Si1 0.705499 0.657371 0.201939
Si Si2 0.488345 0.865943 0.329615
Si Si3 0.328488 0.506178 0.971229
Si Si4 0.472043 0.165347 0.116839
Si Si5 0.922792 0.388860 0.239425
Si Si6 0.791568 0.004501 0.768448
Si Si7 0.447052 0.666240 0.320449
Si Si8 0.778789 0.022678 0.447161
O O1 0.716571 0.572018 0.153339
O O2 0.593275 0.623020 0.140133
O O3 0.923548 0.676988 0.514421
O O4 0.595683 0.743833 0.020282
O O5 0.500000 0.831270 0.250000
O O6 0.489210 0.775104 0.389319
O O7 0.687804 0.913002 0.604772
O O8 0.309358 0.935990 0.114058
O O9 0.136740 0.522686 0.779645
O O10 0.500000 0.470032 0.250000
O O11 0.381438 0.605161 0.996530
O O12 0.500000 0.192107 0.250000
O O13 0.660712 0.117332 0.317405
O O14 0.298623 0.094182 0.890533
O O15 0.000000 0.428483 0.250000
O O16 0.731375 0.331521 0.973125
O O17 0.765201 0.008680 0.833951
O O18 0.000000 0.000000 0.000000
O O19 0.000000 0.040658 0.750000
#
# Coordination Sequence:
#
# PCOD8119099 Si02
#       8
#     4   4   4   4   4   4   4   4
#     4  11  21  37  60  83 113 155 191 226 285 347
#     4  11  21  36  58  86 114 148 191 238 292 346
#     4  10  20  37  59  85 116 152 190 235 285 338
#     4  11  23  40  58  84 118 153 192 237 282 343
#     4   9  20  36  57  85 116 146 189 243 286 329
#     4  11  22  38  59  84 114 151 191 236 289 347
#     4  10  21  37  57  86 117 146 187 243 288 333
#     4  11  22  39  60  85 116 151 191 238 287 341
#
# _framework density 19.956835999999999
#
# number of rings (size 3 to 8) (size 9 to 14) (size 15 to 20)
#    0.000    1.500    0.000    8.250    0.000    4.500 
#    0.000    1.250    0.000    8.250    0.000    0.000 
#    0.000    0.000    0.000    0.000    0.000    0.000 
#
# Total GULP energy -396628.520497 kJ/mol
# GULP energy per Si atom -12394.641266 kJ/mol
# Density = 1.991141 g / cm^3
# Si number density = 19.956836 Si / 1000 Ang^3
#
#
#
# Elastic Constant Matrix: (Units=GPa)
#
#
# Indices 1 2 3 4 5 6 
#
# 1 105.3522 35.8296 31.8518 0.0000 1.2282 0.0000
# 2 35.8296 115.4547 42.8396 0.0000 4.2532 0.0000
# 3 31.8518 42.8396 99.1236 0.0000 10.7378 0.0000
# 4 0.0000 0.0000 0.0000 16.1961 0.0000 -13.8688
# 5 1.2282 4.2532 10.7378 0.0000 41.9796 0.0000
# 6 0.0000 0.0000 0.0000 -13.8688 0.0000 23.4514
#
#
#
# Elastic Compliance Matrix: (Units=1/GPa)
#
#
# Indices 1 2 3 4 5 6 
#
# 1 0.011113 -0.002527 -0.002542 0.000000 0.000581 0.000000
# 2 -0.002527 0.010891 -0.003891 0.000000 -0.000034 0.000000
# 3 -0.002542 -0.003891 0.012893 0.000000 -0.002829 0.000000
# 4 0.000000 0.000000 0.000000 0.125089 0.000000 0.073976
# 5 0.000581 -0.000034 -0.002829 0.000000 0.024531 0.000000
# 6 0.000000 0.000000 0.000000 0.073976 0.000000 0.086389
#
#
# Mechanical properties :
#
#
# Convention : Reuss Voigt Hill
#
# Bulk Modulus (GPa) = 58.90217 60.10805 59.50511
# Shear Modulus (GPa) = 16.97877 30.28607 23.63242
#
# Velocity S-wave (km/s) = 2.91997 3.89984 3.44492
# Velocity P-wave (km/s) = 6.39900 7.10371 6.76054
#
# Compressibility (1/GPa) = 0.01697730
#
# Stress axis : x y z
#
# Youngs Moduli (GPa) = 89.98375 91.82176 77.55953
#
# Poissons Ratio (x) = 0.23204 0.19714
# Poissons Ratio (y) = 0.22739 0.30179
# Poissons Ratio (z) = 0.22872 0.35728
#
# Static dielectric constant tensor:
#      x y z
#    x 3.893080 0.000000 -0.105340 
#    y 0.000000 3.498270 0.000000 
#    z -0.105340 0.000000 3.526070 
# 
# 
# High freq. dielectric constant tensor:
#      x y z
#    x 1.802890 0.000000 -0.005310 
#    y 0.000000 1.758740 0.000000 
#    z -0.005310 0.000000 1.781450 
# 
# From -- ./inp_files/57895.got.cif
#   From: 2010.06.25/outbox.cif.g09.slc.cpg/sg13_29_cif.got.tgz:57895.got - 2010.06.28 04:50:58.
