data_PCOD8119352
_publ_section_title
;
Structure prediction by ZEFSAII (Michael W. Deem and Ramdas Pophale) SiO2 
 PCOD8119352
Probable space group: P 2/C
;
_chemical_formula_sum "Si O2"
_cell_formula_units_Z 30
_cell_length_a 7.701212
_cell_length_b 9.087000
_cell_length_c 25.193593
_cell_angle_alpha 90.000000
_cell_angle_beta 117.786401
_cell_angle_gamma 90.000000
_cell_volume 1559.773876
_symmetry_space_group_name_H-M "P 2/C"
_symmetry_group_IT_number 13
_symmetry_cell_setting 'monoclinic'
loop_
_space_group_symop_operation_xyz
x,y,z
-x,y,1/2-z
-x,-y,-z
x,-y,1/2+z
loop_
_atom_site_type_symbol
_atom_site_label
_atom_site_fract_x
_atom_site_fract_y
_atom_site_fract_z
Si Si1 0.218832 0.559534 0.040414
Si Si2 0.500000 0.684488 0.250000
Si Si3 0.071974 0.947058 0.566677
Si Si4 0.166428 0.756331 0.133494
Si Si5 0.239451 0.276134 0.439027
Si Si6 0.686016 0.450253 0.210918
Si Si7 0.441702 0.732125 0.602727
Si Si8 0.019097 0.495150 0.336351
O O1 0.233634 0.678981 0.088943
O O2 0.350915 0.422238 0.073586
O O3 0.312475 0.638354 0.002022
O O4 0.000000 0.500000 0.000000
O O5 0.329482 0.785929 0.202347
O O6 0.538578 0.579480 0.205009
O O7 0.276110 0.854593 0.590749
O O8 0.888239 0.862810 0.563925
O O9 0.091602 0.082549 0.609354
O O10 0.000000 0.000000 0.500000
O O11 0.007216 0.652739 0.139412
O O12 0.418051 0.222024 0.426671
O O13 0.084135 0.381055 0.389107
O O14 0.573508 0.301870 0.174612
O O15 0.813906 0.520175 0.182664
O O16 0.822890 0.423141 0.282187
#
# Coordination Sequence:
#
# PCOD8119352 Si02
#       8
#     4   2   4   4   4   4   4   4
#     4  12  19  38  64  92 120 155 207 256 301 354
#     4  10  20  38  62  92 112 156 204 252 310 362
#     4  12  25  43  57  86 135 168 202 244 308 374
#     4  11  21  39  61  86 122 166 197 247 307 364
#     4  11  23  40  64  91 121 160 208 254 308 364
#     4   9  19  36  65  93 116 143 206 265 305 361
#     4  11  23  41  64  94 119 162 205 259 308 360
#     4   9  19  38  64  92 116 152 204 262 310 352
#
# _framework density 19.233557999999999
#
# number of rings (size 3 to 8) (size 9 to 14) (size 15 to 20)
#    0.000    1.333    5.333    0.400    1.867    0.533 
#    4.800    0.000    0.000    0.000    0.000    0.000 
#    0.000    0.000    0.000    0.000    0.000    0.000 
#
# Total GULP energy -371756.189415 kJ/mol
# GULP energy per Si atom -12391.872980 kJ/mol
# Density = 1.918978 g / cm^3
# Si number density = 19.233558 Si / 1000 Ang^3
#
#
#
# Elastic Constant Matrix: (Units=GPa)
#
#
# Indices 1 2 3 4 5 6 
#
# 1 66.1094 26.7398 11.0437 0.0000 -0.8727 0.0000
# 2 26.7398 97.6385 29.9763 0.0000 -1.1773 0.0000
# 3 11.0437 29.9763 75.5783 0.0000 -8.8311 0.0000
# 4 0.0000 0.0000 0.0000 29.0275 0.0000 12.7270
# 5 -0.8727 -1.1773 -8.8311 0.0000 24.4924 0.0000
# 6 0.0000 0.0000 0.0000 12.7270 0.0000 10.6892
#
#
#
# Elastic Compliance Matrix: (Units=1/GPa)
#
#
# Indices 1 2 3 4 5 6 
#
# 1 0.017046 -0.004449 -0.000710 0.000000 0.000137 0.000000
# 2 -0.004449 0.012854 -0.004588 0.000000 -0.001195 0.000000
# 3 -0.000710 -0.004588 0.015791 0.000000 0.005448 0.000000
# 4 0.000000 0.000000 0.000000 0.072076 0.000000 -0.085817
# 5 0.000137 -0.001195 0.005448 0.000000 0.042741 0.000000
# 6 0.000000 0.000000 0.000000 -0.085817 0.000000 0.195731
#
#
# Mechanical properties :
#
#
# Convention : Reuss Voigt Hill
#
# Bulk Modulus (GPa) = 38.17059 41.64952 39.91006
# Shear Modulus (GPa) = 13.00504 24.27958 18.64231
#
# Velocity S-wave (km/s) = 2.60314 3.55682 3.11667
# Velocity P-wave (km/s) = 5.37810 6.21044 5.80920
#
# Compressibility (1/GPa) = 0.02619818
#
# Stress axis : x y z
#
# Youngs Moduli (GPa) = 58.66377 77.79471 63.32566
#
# Poissons Ratio (x) = 0.34608 0.04498
# Poissons Ratio (y) = 0.26097 0.29053
# Poissons Ratio (z) = 0.04167 0.35692
#
# Static dielectric constant tensor:
#      x y z
#    x 3.729900 0.000000 0.119150 
#    y 0.000000 3.329490 0.000000 
#    z 0.119150 0.000000 4.189210 
# 
# 
# High freq. dielectric constant tensor:
#      x y z
#    x 1.754570 0.000000 -0.002440 
#    y 0.000000 1.723320 0.000000 
#    z -0.002440 0.000000 1.771830 
# 
# From -- ./inp_files/91157.got.cif
#   From: 2010.06.25/outbox.cif.g09.slc.cpg/sg13_46_cif.got.tgz:91157.got - 2010.06.28 04:50:58.
