data_PCOD8119483
_publ_section_title
;
Structure prediction by ZEFSAII (Michael W. Deem and Ramdas Pophale) SiO2 
 PCOD8119483
Probable space group: P 2/C
;
_chemical_formula_sum "Si O2"
_cell_formula_units_Z 20
_cell_length_a 8.073314
_cell_length_b 13.859122
_cell_length_c 9.013304
_cell_angle_alpha 90.000000
_cell_angle_beta 83.837898
_cell_angle_gamma 90.000000
_cell_volume 1002.663094
_symmetry_space_group_name_H-M "P 2/C"
_symmetry_group_IT_number 13
_symmetry_cell_setting 'monoclinic'
loop_
_space_group_symop_operation_xyz
x,y,z
-x,y,1/2-z
-x,-y,-z
x,-y,1/2+z
loop_
_atom_site_type_symbol
_atom_site_label
_atom_site_fract_x
_atom_site_fract_y
_atom_site_fract_z
Si Si1 0.858875 0.713700 0.465377
Si Si2 0.693391 0.416766 0.197165
Si Si3 0.807115 0.396846 0.510735
Si Si4 0.038291 0.901590 0.415434
Si Si5 0.680893 0.770837 0.183261
O O1 0.719734 0.680343 0.596972
O O2 0.785931 0.722733 0.307168
O O3 0.009582 0.636598 0.455191
O O4 0.924182 0.819853 0.503540
O O5 0.500000 0.430429 0.250000
O O6 0.802475 0.411846 0.335079
O O7 0.759438 0.505039 0.094773
O O8 0.669986 0.314825 0.563878
O O9 0.229668 0.863853 0.399757
O O10 0.000000 0.920449 0.250000
O O11 0.000000 0.000000 0.500000
O O12 0.500000 0.805937 0.250000
#
# Coordination Sequence:
#
# PCOD8119483 Si02
#       5
#     4   4   4   4   4
#     4  10  22  39  57  81 112 150 191 231 282 343
#     4  12  23  36  55  85 117 150 191 238 280 329
#     4  11  22  36  56  81 114 155 191 231 279 338
#     4   9  20  38  60  83 113 147 184 228 281 344
#     4  10  20  39  61  84 112 148 189 238 284 326
#
# _framework density 19.94688
#
# number of rings (size 3 to 8) (size 9 to 14) (size 15 to 20)
#    0.000    1.600    0.000    6.600    0.000    4.800 
#    0.000    5.000    0.000    0.000    0.000    0.000 
#    0.000    0.000    0.000    0.000    0.000    0.000 
#
# Total GULP energy -247943.372807 kJ/mol
# GULP energy per Si atom -12397.168640 kJ/mol
# Density = 1.990148 g / cm^3
# Si number density = 19.946880 Si / 1000 Ang^3
#
#
#
# Elastic Constant Matrix: (Units=GPa)
#
#
# Indices 1 2 3 4 5 6 
#
# 1 89.2079 49.0949 30.6710 0.0000 -4.6404 0.0000
# 2 49.0949 150.2236 70.0426 0.0000 -19.8360 0.0000
# 3 30.6710 70.0426 104.5183 0.0000 -9.0846 0.0000
# 4 0.0000 0.0000 0.0000 30.1923 0.0000 0.4404
# 5 -4.6404 -19.8360 -9.0846 0.0000 22.0352 0.0000
# 6 0.0000 0.0000 0.0000 0.4404 0.0000 10.3991
#
#
#
# Elastic Compliance Matrix: (Units=1/GPa)
#
#
# Indices 1 2 3 4 5 6 
#
# 1 0.013860 -0.004003 -0.001498 0.000000 -0.001302 0.000000
# 2 -0.004003 0.011751 -0.006071 0.000000 0.007232 0.000000
# 3 -0.001498 -0.006071 0.014078 0.000000 0.000023 0.000000
# 4 0.000000 0.000000 0.000000 0.033142 0.000000 -0.001404
# 5 -0.001302 0.007232 0.000023 0.000000 0.051627 0.000000
# 6 0.000000 0.000000 0.000000 -0.001404 0.000000 0.096222
#
#
# Mechanical properties :
#
#
# Convention : Reuss Voigt Hill
#
# Bulk Modulus (GPa) = 60.44448 71.50742 65.97595
# Shear Modulus (GPa) = 20.05301 25.46806 22.76053
#
# Velocity S-wave (km/s) = 3.17412 3.57710 3.38162
# Velocity P-wave (km/s) = 6.61830 7.27926 6.95663
#
# Compressibility (1/GPa) = 0.01654411
#
# Stress axis : x y z
#
# Youngs Moduli (GPa) = 72.14927 85.10018 71.03309
#
# Poissons Ratio (x) = 0.34069 0.10638
# Poissons Ratio (y) = 0.28884 0.43127
# Poissons Ratio (z) = 0.10805 0.51668
#
# Static dielectric constant tensor:
#      x y z
#    x 3.657710 0.000000 -0.156980 
#    y 0.000000 3.712240 0.000000 
#    z -0.156980 0.000000 3.986330 
# 
# 
# High freq. dielectric constant tensor:
#      x y z
#    x 1.776160 0.000000 -0.010040 
#    y 0.000000 1.770560 0.000000 
#    z -0.010040 0.000000 1.785380 
# 
# From -- ./inp_files/11670.got.cif
#   From: 2010.06.25/outbox.cif.g09.slc.cpg/sg13_6_cif.got.tgz:11670.got - 2010.06.28 04:50:58.
