data_PCOD8119696
_publ_section_title
;
Structure prediction by ZEFSAII (Michael W. Deem and Ramdas Pophale) SiO2 
 PCOD8119696
Probable space group: P 2/C
;
_chemical_formula_sum "Si O2"
_cell_formula_units_Z 22
_cell_length_a 17.829940
_cell_length_b 9.206998
_cell_length_c 14.130584
_cell_angle_alpha 90.000000
_cell_angle_beta 155.847985
_cell_angle_gamma 90.000000
_cell_volume 949.117853
_symmetry_space_group_name_H-M "P 2/C"
_symmetry_group_IT_number 13
_symmetry_cell_setting 'monoclinic'
loop_
_space_group_symop_operation_xyz
x,y,z
-x,y,1/2-z
-x,-y,-z
x,-y,1/2+z
loop_
_atom_site_type_symbol
_atom_site_label
_atom_site_fract_x
_atom_site_fract_y
_atom_site_fract_z
Si Si1 0.500000 0.352278 0.750000
Si Si2 0.086257 0.344032 0.578162
Si Si3 0.274862 0.159646 0.350363
Si Si4 0.188476 0.470975 0.514483
Si Si5 0.193638 0.136496 0.852096
Si Si6 0.788410 0.804755 0.924160
O O1 0.417467 0.253717 0.572896
O O2 0.350306 0.455828 0.625364
O O3 0.928147 0.226544 0.375585
O O4 0.000000 0.500000 0.500000
O O5 0.216750 0.363387 0.636738
O O6 0.211912 0.283129 0.809040
O O7 0.338061 0.155553 0.312049
O O8 0.277621 0.997598 0.393149
O O9 0.170108 0.633938 0.530809
O O10 0.000000 0.421782 0.250000
O O11 0.980289 0.110895 0.630951
O O12 0.300526 0.153554 0.076462
#
# Coordination Sequence:
#
# PCOD8119696 Si02
#       6
#     2   4   4   4   4   4
#     4  12  30  42  68 112 146 190 240 284 356 424
#     4  11  19  40  76 103 132 186 237 293 354 409
#     4  11  24  43  63 102 149 180 236 291 350 429
#     4  12  22  44  73 106 144 182 241 298 349 418
#     4  10  21  38  70 105 134 180 241 281 356 426
#     4  10  20  40  74 101 135 188 234 293 361 409
#
# _framework density 23.179421000000001
#
# number of rings (size 3 to 8) (size 9 to 14) (size 15 to 20)
#    0.000    1.091    7.273    2.182    0.000    5.091 
#    0.000    4.545    0.000    0.000    0.000    0.000 
#    0.000    0.000    0.000    0.000    0.000    0.000 
#
# Total GULP energy -272724.168793 kJ/mol
# GULP energy per Si atom -12396.553127 kJ/mol
# Density = 2.312666 g / cm^3
# Si number density = 23.179421 Si / 1000 Ang^3
#
#
#
# Elastic Constant Matrix: (Units=GPa)
#
#
# Indices 1 2 3 4 5 6 
#
# 1 170.9298 47.2873 54.3747 0.0000 -38.4285 0.0000
# 2 47.2873 97.3495 11.8544 0.0000 -14.8841 0.0000
# 3 54.3747 11.8544 62.8957 0.0000 -24.6937 0.0000
# 4 0.0000 0.0000 0.0000 2.6280 0.0000 -20.3864
# 5 -38.4285 -14.8841 -24.6937 0.0000 53.2113 0.0000
# 6 0.0000 0.0000 0.0000 -20.3864 0.0000 39.1935
#
#
#
# Elastic Compliance Matrix: (Units=1/GPa)
#
#
# Indices 1 2 3 4 5 6 
#
# 1 0.009483 -0.003378 -0.006412 0.000000 0.002928 0.000000
# 2 -0.003378 0.011989 0.001246 0.000000 0.001493 0.000000
# 3 -0.006412 0.001246 0.023877 0.000000 0.006799 0.000000
# 4 0.000000 0.000000 0.000000 -0.125377 0.000000 -0.065215
# 5 0.002928 0.001493 0.006799 0.000000 0.024480 0.000000
# 6 0.000000 0.000000 0.000000 -0.065215 0.000000 -0.008407
#
#
# Mechanical properties :
#
#
# Convention : Reuss Voigt Hill
#
# Bulk Modulus (GPa) = 35.38232 62.02310 48.70271
# Shear Modulus (GPa) = -133.51974 33.51714 -50.00130
#
# Velocity S-wave (km/s) = -7.59788 3.80674 -4.64954
# Velocity P-wave (km/s) = 7.85319 6.79247 2.78703
#
# Compressibility (1/GPa) = 0.02826270
#
# Stress axis : x y z
#
# Youngs Moduli (GPa) = 105.45449 83.40665 41.88164
#
# Poissons Ratio (x) = 0.28173 0.26854
# Poissons Ratio (y) = 0.35620 -0.05221
# Poissons Ratio (z) = 0.67616 -0.10397
#
# Static dielectric constant tensor:
#      x y z
#    x 4.910360 0.000000 -0.656490 
#    y 0.000000 3.967430 0.000000 
#    z -0.656490 0.000000 4.020990 
# 
# 
# High freq. dielectric constant tensor:
#      x y z
#    x 1.936540 0.000000 -0.034820 
#    y 0.000000 1.908310 0.000000 
#    z -0.034820 0.000000 1.884920 
# 
# From -- ./inp_files/55120.got.cif
#   From: 2010.06.25/outbox.cif.g09.slc.cpg/sg13_28_cif.got.tgz:55120.got - 2010.06.28 04:50:58.
