data_PCOD8119037
_publ_section_title
;
Structure prediction by ZEFSAII (Michael W. Deem and Ramdas Pophale) SiO2 
 PCOD8119037
Probable space group: P 2/C
;
_chemical_formula_sum "Si O2"
_cell_formula_units_Z 26
_cell_length_a 19.970438
_cell_length_b 12.191369
_cell_length_c 14.793367
_cell_angle_alpha 90.000000
_cell_angle_beta 18.757649
_cell_angle_gamma 90.000000
_cell_volume 1158.182655
_symmetry_space_group_name_H-M "P 2/C"
_symmetry_group_IT_number 13
_symmetry_cell_setting 'monoclinic'
loop_
_space_group_symop_operation_xyz
x,y,z
-x,y,1/2-z
-x,-y,-z
x,-y,1/2+z
loop_
_atom_site_type_symbol
_atom_site_label
_atom_site_fract_x
_atom_site_fract_y
_atom_site_fract_z
Si Si1 0.264505 0.214566 0.328621
Si Si2 0.193659 0.747732 0.129166
Si Si3 0.759874 0.987650 0.078281
Si Si4 0.000000 0.418122 0.250000
Si Si5 0.500000 0.342618 0.750000
Si Si6 0.662622 0.745885 0.217676
Si Si7 0.822855 0.487376 0.799879
Si Si8 0.500000 0.071976 0.250000
O O1 0.253860 0.248325 0.446636
O O2 0.055246 0.243304 0.541316
O O3 0.307279 0.082836 0.265175
O O4 0.454120 0.279821 0.040206
O O5 0.267573 0.636296 0.084176
O O6 0.315332 0.847380 0.023714
O O7 0.747960 0.866216 0.134213
O O8 0.602652 0.994112 0.193978
O O9 0.000000 0.016858 0.750000
O O10 0.839272 0.343446 0.513609
O O11 0.896270 0.496437 0.309453
O O12 0.376666 0.263749 0.839727
O O13 0.648553 0.422051 0.500751
O O14 0.000000 0.500000 0.500000
#
# Coordination Sequence:
#
# PCOD8119037 Si02
#       8
#     4   4   4   2   2   4   4   2
#     4  10  20  38  62  90 121 161 214 251 319 380
#     4  10  20  38  61  89 124 157 204 273 309 365
#     4  11  20  39  63  92 126 164 207 260 313 377
#     4  10  24  40  62  90 126 170 214 254 320 374
#     4  10  24  40  56  90 122 160 210 258 308 378
#     4  11  22  40  62  85 127 170 203 259 316 375
#     4  11  23  41  63  91 125 163 212 263 315 377
#     4  10  20  36  64  88 124 164 202 256 320 360
#
# _framework density 22.448964
#
# number of rings (size 3 to 8) (size 9 to 14) (size 15 to 20)
#    0.000    1.538    3.846    3.231    0.000    3.692 
#    0.000    4.615    0.000    0.000    0.000    0.000 
#    0.000    0.000    0.000    0.000    0.000    0.000 
#
# Total GULP energy -322341.015194 kJ/mol
# GULP energy per Si atom -12397.731354 kJ/mol
# Density = 2.239787 g / cm^3
# Si number density = 22.448964 Si / 1000 Ang^3
#
#
#
# Elastic Constant Matrix: (Units=GPa)
#
#
# Indices 1 2 3 4 5 6 
#
# 1 43.9117 -0.1524 6.8872 0.0000 -14.0807 0.0000
# 2 -0.1524 82.9428 8.6892 0.0000 10.3414 0.0000
# 3 6.8872 8.6892 127.5810 0.0000 -2.4946 0.0000
# 4 0.0000 0.0000 0.0000 26.3240 0.0000 -4.3907
# 5 -14.0807 10.3414 -2.4946 0.0000 32.5248 0.0000
# 6 0.0000 0.0000 0.0000 -4.3907 0.0000 17.2585
#
#
#
# Elastic Compliance Matrix: (Units=1/GPa)
#
#
# Indices 1 2 3 4 5 6 
#
# 1 0.026767 -0.001320 -0.001122 0.000000 0.011922 0.000000
# 2 -0.001320 0.012731 -0.000888 0.000000 -0.004687 0.000000
# 3 -0.001122 -0.000888 0.007967 0.000000 0.000408 0.000000
# 4 0.000000 0.000000 0.000000 0.039672 0.000000 0.010093
# 5 0.011922 -0.004687 0.000408 0.000000 0.037429 0.000000
# 6 0.000000 0.000000 0.000000 0.010093 0.000000 0.060510
#
#
# Mechanical properties :
#
#
# Convention : Reuss Voigt Hill
#
# Bulk Modulus (GPa) = 24.50538 31.69818 28.10178
# Shear Modulus (GPa) = 24.35022 31.15554 27.75288
#
# Velocity S-wave (km/s) = 3.29704 3.72941 3.51987
# Velocity P-wave (km/s) = 5.04318 5.71799 5.39116
#
# Compressibility (1/GPa) = 0.04080737
#
# Stress axis : x y z
#
# Youngs Moduli (GPa) = 37.35926 78.54540 125.51552
#
# Poissons Ratio (x) = 0.10366 0.14083
# Poissons Ratio (y) = 0.04930 0.11140
# Poissons Ratio (z) = 0.04192 0.06971
#
# Static dielectric constant tensor:
#      x y z
#    x 3.761620 0.000000 -0.356990 
#    y 0.000000 4.113360 0.000000 
#    z -0.356990 0.000000 4.108130 
# 
# 
# High freq. dielectric constant tensor:
#      x y z
#    x 1.856610 0.000000 -0.023070 
#    y 0.000000 1.894810 0.000000 
#    z -0.023070 0.000000 1.888570 
# 
# From -- ./inp_files/57708.got.cif
#   From: 2010.06.25/outbox.cif.g09.slc.cpg/sg13_29_cif.got.tgz:57708.got - 2010.06.28 04:50:58.
