data_PCOD8119519
_publ_section_title
;
Structure prediction by ZEFSAII (Michael W. Deem and Ramdas Pophale) SiO2 
 PCOD8119519
Probable space group: P 2/C
;
_chemical_formula_sum "Si O2"
_cell_formula_units_Z 24
_cell_length_a 19.652052
_cell_length_b 13.501786
_cell_length_c 13.402979
_cell_angle_alpha 90.000000
_cell_angle_beta 159.205288
_cell_angle_gamma 90.000000
_cell_volume 1262.566079
_symmetry_space_group_name_H-M "P 2/C"
_symmetry_group_IT_number 13
_symmetry_cell_setting 'monoclinic'
loop_
_space_group_symop_operation_xyz
x,y,z
-x,y,1/2-z
-x,-y,-z
x,-y,1/2+z
loop_
_atom_site_type_symbol
_atom_site_label
_atom_site_fract_x
_atom_site_fract_y
_atom_site_fract_z
Si Si1 0.127358 0.237375 0.018415
Si Si2 0.500000 0.034105 0.250000
Si Si3 0.132199 0.089245 0.204529
Si Si4 0.919431 0.395179 0.859554
Si Si5 0.496071 0.801058 0.578964
Si Si6 0.079062 0.761568 0.961975
Si Si7 0.500000 0.641793 0.750000
O O1 0.100101 0.159863 0.067481
O O2 0.349195 0.227182 0.292662
O O3 0.000000 0.205272 0.750000
O O4 0.052771 0.344885 0.956075
O O5 0.455826 0.102086 0.287013
O O6 0.661702 0.955574 0.496194
O O7 0.066903 0.149978 0.211859
O O8 0.000000 0.000000 0.000000
O O9 0.701577 0.417735 0.522083
O O10 0.920640 0.325967 0.957805
O O11 0.000000 0.500000 0.000000
O O12 0.489651 0.706225 0.638234
O O13 0.290353 0.811147 0.243247
O O14 0.000000 0.716972 0.750000
#
# Coordination Sequence:
#
# PCOD8119519 Si02
#       7
#     4   2   4   4   4   4   2
#     4  11  22  39  64  90 118 157 204 254 297 363
#     4  11  22  38  61  88 130 166 211 250 295 370
#     4  11  23  39  56  88 122 163 204 250 298 352
#     4  10  22  43  64  93 120 155 203 253 311 366
#     4  10  20  39  64  85 118 167 205 243 303 355
#     4  10  23  42  60  85 127 165 198 255 310 359
#     4   9  18  40  65  84 118 160 193 244 301 362
#
# _framework density 19.008904999999999
#
# number of rings (size 3 to 8) (size 9 to 14) (size 15 to 20)
#    0.000    1.667    3.333    1.000    2.333    3.333 
#    3.000    1.667    0.000    0.000    0.000    0.000 
#    0.000    0.000    0.000    0.000    0.000    0.000 
#
# Total GULP energy -297381.388469 kJ/mol
# GULP energy per Si atom -12390.891186 kJ/mol
# Density = 1.896564 g / cm^3
# Si number density = 19.008905 Si / 1000 Ang^3
#
#
#
# Elastic Constant Matrix: (Units=GPa)
#
#
# Indices 1 2 3 4 5 6 
#
# 1 89.2766 27.8176 47.2488 0.0000 7.5809 0.0000
# 2 27.8176 100.4587 67.2206 0.0000 12.6137 0.0000
# 3 47.2488 67.2206 130.0525 0.0000 -2.7509 0.0000
# 4 0.0000 0.0000 0.0000 30.8122 0.0000 -2.1478
# 5 7.5809 12.6137 -2.7509 0.0000 36.2333 0.0000
# 6 0.0000 0.0000 0.0000 -2.1478 0.0000 16.5154
#
#
#
# Elastic Compliance Matrix: (Units=1/GPa)
#
#
# Indices 1 2 3 4 5 6 
#
# 1 0.014270 -0.000016 -0.005248 0.000000 -0.003379 0.000000
# 2 -0.000016 0.016592 -0.008707 0.000000 -0.006434 0.000000
# 3 -0.005248 -0.008707 0.014206 0.000000 0.005207 0.000000
# 4 0.000000 0.000000 0.000000 0.032752 0.000000 0.004259
# 5 -0.003379 -0.006434 0.005207 0.000000 0.030941 0.000000
# 6 0.000000 0.000000 0.000000 0.004259 0.000000 0.061103
#
#
# Mechanical properties :
#
#
# Convention : Reuss Voigt Hill
#
# Bulk Modulus (GPa) = 58.38205 67.15132 62.76669
# Shear Modulus (GPa) = 24.56829 28.54557 26.55693
#
# Velocity S-wave (km/s) = 3.59898 3.87937 3.74181
# Velocity P-wave (km/s) = 6.93180 7.44775 7.19440
#
# Compressibility (1/GPa) = 0.01712855
#
# Stress axis : x y z
#
# Youngs Moduli (GPa) = 70.07567 60.26843 70.39258
#
# Poissons Ratio (x) = 0.00096 0.36940
# Poissons Ratio (y) = 0.00111 0.61287
# Poissons Ratio (z) = 0.36774 0.52473
#
# Static dielectric constant tensor:
#      x y z
#    x 3.406240 0.000000 -0.229230 
#    y 0.000000 3.224090 0.000000 
#    z -0.229230 0.000000 3.069510 
# 
# 
# High freq. dielectric constant tensor:
#      x y z
#    x 1.740830 0.000000 0.002820 
#    y 0.000000 1.722690 0.000000 
#    z 0.002820 0.000000 1.757570 
# 
# From -- ./inp_files/51412.got.cif
#   From: 2010.06.25/outbox.cif.g09.slc.cpg/sg13_26_cif.got.tgz:51412.got - 2010.06.28 04:50:58.
