data_PCOD8119877
_publ_section_title
;
Structure prediction by ZEFSAII (Michael W. Deem and Ramdas Pophale) SiO2 
 PCOD8119877
Probable space group: P 2/C
;
_chemical_formula_sum "Si O2"
_cell_formula_units_Z 24
_cell_length_a 17.623290
_cell_length_b 11.868589
_cell_length_c 11.840368
_cell_angle_alpha 90.000000
_cell_angle_beta 150.208379
_cell_angle_gamma 90.000000
_cell_volume 1230.478408
_symmetry_space_group_name_H-M "P 2/C"
_symmetry_group_IT_number 13
_symmetry_cell_setting 'monoclinic'
loop_
_space_group_symop_operation_xyz
x,y,z
-x,y,1/2-z
-x,-y,-z
x,-y,1/2+z
loop_
_atom_site_type_symbol
_atom_site_label
_atom_site_fract_x
_atom_site_fract_y
_atom_site_fract_z
Si Si1 0.166451 0.603120 0.737227
Si Si2 0.180729 0.257284 0.466172
Si Si3 0.179055 0.162735 0.858108
Si Si4 0.678841 0.928820 0.495778
Si Si5 0.827159 0.811187 0.894881
Si Si6 0.187170 0.635931 0.205282
O O1 0.239069 0.660489 0.941975
O O2 0.181826 0.678905 0.645270
O O3 0.256730 0.485970 0.829599
O O4 0.987831 0.598544 0.537805
O O5 0.241495 0.133190 0.508837
O O6 0.251944 0.307765 0.673727
O O7 0.000000 0.244692 0.250000
O O8 0.224341 0.276693 0.852130
O O9 0.999298 0.141751 0.608660
O O10 0.232494 0.175921 0.055865
O O11 0.269462 0.057407 0.926366
O O12 0.500000 0.920574 0.250000
O O13 0.721464 0.876747 0.671318
#
# Coordination Sequence:
#
# PCOD8119877 Si02
#       6
#     4   4   4   4   4   4
#     4   8  16  31  53  85 115 140 183 240 285 331
#     4   9  19  34  57  83 112 150 191 233 283 341
#     4  10  21  34  58  85 115 152 189 237 283 338
#     4  11  24  39  58  82 117 156 194 240 284 335
#     4   9  20  37  57  85 113 150 191 235 287 338
#     4   9  17  30  54  85 113 143 187 234 286 336
#
# _framework density 19.50461
#
# number of rings (size 3 to 8) (size 9 to 14) (size 15 to 20)
#    0.000    2.667    0.000    1.500    7.000    0.667 
#    0.000    0.000    0.000    8.000    0.000    0.000 
#    0.000    0.000    0.000    0.000    0.000    0.000 
#
# Total GULP energy -297420.904156 kJ/mol
# GULP energy per Si atom -12392.537673 kJ/mol
# Density = 1.946022 g / cm^3
# Si number density = 19.504610 Si / 1000 Ang^3
#
#
#
# Elastic Constant Matrix: (Units=GPa)
#
#
# Indices 1 2 3 4 5 6 
#
# 1 71.9302 48.5424 45.7555 0.0000 -23.0546 0.0000
# 2 48.5424 135.2808 45.2255 0.0000 -5.5673 0.0000
# 3 45.7555 45.2255 82.5584 0.0000 -16.5843 0.0000
# 4 0.0000 0.0000 0.0000 7.7212 0.0000 -17.6897
# 5 -23.0546 -5.5673 -16.5843 0.0000 24.8751 0.0000
# 6 0.0000 0.0000 0.0000 -17.6897 0.0000 7.1452
#
#
#
# Elastic Compliance Matrix: (Units=1/GPa)
#
#
# Indices 1 2 3 4 5 6 
#
# 1 0.031622 -0.007405 -0.009139 0.000000 0.021558 0.000000
# 2 -0.007405 0.010830 -0.003142 0.000000 -0.006533 0.000000
# 3 -0.009139 -0.003142 0.019693 0.000000 0.003956 0.000000
# 4 0.000000 0.000000 0.000000 -0.027721 0.000000 -0.068630
# 5 0.021558 -0.006533 0.003956 0.000000 0.061356 0.000000
# 6 0.000000 0.000000 0.000000 -0.068630 0.000000 -0.029955
#
#
# Mechanical properties :
#
#
# Convention : Reuss Voigt Hill
#
# Bulk Modulus (GPa) = 43.90595 63.20179 53.55387
# Shear Modulus (GPa) = 44.33082 17.96469 31.14775
#
# Velocity S-wave (km/s) = 4.77260 3.03817 4.00051
# Velocity P-wave (km/s) = 7.27528 6.69187 6.98967
#
# Compressibility (1/GPa) = 0.02277595
#
# Stress axis : x y z
#
# Youngs Moduli (GPa) = 31.62321 92.33316 50.77862
#
# Poissons Ratio (x) = 0.68368 0.46407
# Poissons Ratio (y) = 0.23415 0.15952
# Poissons Ratio (z) = 0.28900 0.29007
#
# Static dielectric constant tensor:
#      x y z
#    x 3.553140 0.000000 -0.374670 
#    y 0.000000 3.822120 0.000000 
#    z -0.374670 0.000000 3.262830 
# 
# 
# High freq. dielectric constant tensor:
#      x y z
#    x 1.748280 0.000000 -0.032990 
#    y 0.000000 1.771860 0.000000 
#    z -0.032990 0.000000 1.722290 
# 
# From -- ./inp_files/33717.got.cif
#   From: 2010.06.25/outbox.cif.g09.slc.cpg/sg13_17_cif.got.tgz:33717.got - 2010.06.28 04:50:58.
