data_PCOD8119495
_publ_section_title
;
Structure prediction by ZEFSAII (Michael W. Deem and Ramdas Pophale) SiO2 
 PCOD8119495
Probable space group: P 2/C
;
_chemical_formula_sum "Si O2"
_cell_formula_units_Z 22
_cell_length_a 18.987592
_cell_length_b 6.529640
_cell_length_c 8.538685
_cell_angle_alpha 90.000000
_cell_angle_beta 71.494907
_cell_angle_gamma 90.000000
_cell_volume 1003.907703
_symmetry_space_group_name_H-M "P 2/C"
_symmetry_group_IT_number 13
_symmetry_cell_setting 'monoclinic'
loop_
_space_group_symop_operation_xyz
x,y,z
-x,y,1/2-z
-x,-y,-z
x,-y,1/2+z
loop_
_atom_site_type_symbol
_atom_site_label
_atom_site_fract_x
_atom_site_fract_y
_atom_site_fract_z
Si Si1 0.727131 0.085010 0.978683
Si Si2 0.726118 0.304658 0.306884
Si Si3 0.395809 0.357504 0.568187
Si Si4 0.052978 0.595481 0.589965
Si Si5 0.151443 0.355036 0.751488
Si Si6 0.500000 0.447940 0.750000
O O1 0.655228 0.165814 0.936547
O O2 0.801469 0.166246 0.843729
O O3 0.727880 0.838159 0.961604
O O4 0.724484 0.153715 0.159653
O O5 0.652803 0.440772 0.362567
O O6 0.798628 0.444899 0.250014
O O7 0.444862 0.304712 0.687208
O O8 0.451964 0.400005 0.389017
O O9 0.090991 0.414569 0.663782
O O10 0.114466 0.718229 0.444126
O O11 0.000000 0.725343 0.750000
O O12 0.000000 0.500000 0.500000
#
# Coordination Sequence:
#
# PCOD8119495 Si02
#       6
#     4   4   4   4   4   2
#     4  11  24  38  61  90 118 152 199 245 289 345
#     4  11  24  38  61  90 118 153 198 245 291 341
#     4  10  22  42  62  85 120 151 199 239 298 346
#     4   9  18  34  62  89 112 157 197 234 290 349
#     4  10  20  39  62  86 118 154 197 241 292 342
#     4  10  20  40  66  80 114 164 188 242 294 356
#
# _framework density 21.914363000000002
#
# number of rings (size 3 to 8) (size 9 to 14) (size 15 to 20)
#    0.000    1.818    3.636    0.000    5.091    0.000 
#    0.000    5.455    0.000   21.818    0.000    0.000 
#    0.000    0.000    0.000    0.000    0.000    0.000 
#
# Total GULP energy -272662.536519 kJ/mol
# GULP energy per Si atom -12393.751660 kJ/mol
# Density = 2.186448 g / cm^3
# Si number density = 21.914363 Si / 1000 Ang^3
#
#
#
# Elastic Constant Matrix: (Units=GPa)
#
#
# Indices 1 2 3 4 5 6 
#
# 1 124.6970 13.4607 39.6054 0.0000 4.6840 0.0000
# 2 13.4607 53.6783 8.5718 0.0000 -3.8403 0.0000
# 3 39.6054 8.5718 120.7102 0.0000 -13.0966 0.0000
# 4 0.0000 0.0000 0.0000 23.2525 0.0000 5.0417
# 5 4.6840 -3.8403 -13.0966 0.0000 42.9326 0.0000
# 6 0.0000 0.0000 0.0000 5.0417 0.0000 6.0427
#
#
#
# Elastic Compliance Matrix: (Units=1/GPa)
#
#
# Indices 1 2 3 4 5 6 
#
# 1 0.009315 -0.001987 -0.003149 0.000000 -0.002155 0.000000
# 2 -0.001987 0.019340 -0.000528 0.000000 0.001786 0.000000
# 3 -0.003149 -0.000528 0.009708 0.000000 0.003258 0.000000
# 4 0.000000 0.000000 0.000000 0.052504 0.000000 -0.043807
# 5 -0.002155 0.001786 0.003258 0.000000 0.024681 0.000000
# 6 0.000000 0.000000 0.000000 -0.043807 0.000000 0.202038
#
#
# Mechanical properties :
#
#
# Convention : Reuss Voigt Hill
#
# Bulk Modulus (GPa) = 36.98795 46.92903 41.95849
# Shear Modulus (GPa) = 14.79612 30.27540 22.53576
#
# Velocity S-wave (km/s) = 2.60124 3.72093 3.21028
# Velocity P-wave (km/s) = 5.09284 6.31836 5.73841
#
# Compressibility (1/GPa) = 0.02703583
#
# Stress axis : x y z
#
# Youngs Moduli (GPa) = 107.35339 51.70676 103.00338
#
# Poissons Ratio (x) = 0.10275 0.32435
# Poissons Ratio (y) = 0.21333 0.05434
# Poissons Ratio (z) = 0.33805 0.02728
#
# Static dielectric constant tensor:
#      x y z
#    x 4.459770 0.000000 -0.207690 
#    y 0.000000 3.354760 0.000000 
#    z -0.207690 0.000000 4.643110 
# 
# 
# High freq. dielectric constant tensor:
#      x y z
#    x 1.887390 0.000000 -0.003260 
#    y 0.000000 1.800710 0.000000 
#    z -0.003260 0.000000 1.891630 
# 
# From -- ./inp_files/22214.got.cif
#   From: 2010.06.25/outbox.cif.g09.slc.cpg/sg13_12_cif.got.tgz:22214.got - 2010.06.28 04:50:58.
