data_PCOD8119834
_publ_section_title
;
Structure prediction by ZEFSAII (Michael W. Deem and Ramdas Pophale) SiO2 
 PCOD8119834
Probable space group: P 2/C
;
_chemical_formula_sum "Si O2"
_cell_formula_units_Z 18
_cell_length_a 6.803771
_cell_length_b 12.877943
_cell_length_c 10.640132
_cell_angle_alpha 90.000000
_cell_angle_beta 113.655776
_cell_angle_gamma 90.000000
_cell_volume 853.936679
_symmetry_space_group_name_H-M "P 2/C"
_symmetry_group_IT_number 13
_symmetry_cell_setting 'monoclinic'
loop_
_space_group_symop_operation_xyz
x,y,z
-x,y,1/2-z
-x,-y,-z
x,-y,1/2+z
loop_
_atom_site_type_symbol
_atom_site_label
_atom_site_fract_x
_atom_site_fract_y
_atom_site_fract_z
Si Si1 0.032856 0.834478 0.536232
Si Si2 0.272700 0.462825 0.487169
Si Si3 0.639131 0.983146 0.411028
Si Si4 0.000000 0.680172 0.750000
Si Si5 0.025553 0.359730 0.614566
O O1 0.803083 0.890847 0.486060
O O2 0.082350 0.756725 0.662586
O O3 0.027899 0.762390 0.410722
O O4 0.228781 0.913116 0.581978
O O5 0.500000 0.500000 0.500000
O O6 0.184978 0.395063 0.348329
O O7 0.256387 0.388246 0.608101
O O8 0.148517 0.567297 0.498747
O O9 0.500000 0.956754 0.250000
O O10 0.500000 0.000000 0.500000
O O11 0.000000 0.393878 0.750000
#
# Coordination Sequence:
#
# PCOD8119834 Si02
#       5
#     4   4   4   2   4
#     4  10  24  42  68  93 133 170 210 277 330 387
#     4  10  22  41  65  93 129 177 219 268 319 388
#     4  11  25  44  68  99 128 169 225 274 334 399
#     4  10  20  46  66  94 134 172 220 262 330 394
#     4  10  22  41  60  95 133 166 215 266 325 388
#
# _framework density 21.078845999999999
#
# number of rings (size 3 to 8) (size 9 to 14) (size 15 to 20)
#    0.000    1.778    1.111    1.333    3.111    8.000 
#    0.000    2.222    0.000    0.000    0.000    0.000 
#    0.000    0.000    0.000    0.000    0.000    0.000 
#
# Total GULP energy -222986.257252 kJ/mol
# GULP energy per Si atom -12388.125403 kJ/mol
# Density = 2.103087 g / cm^3
# Si number density = 21.078846 Si / 1000 Ang^3
#
#
#
# Elastic Constant Matrix: (Units=GPa)
#
#
# Indices 1 2 3 4 5 6 
#
# 1 138.0945 54.1405 60.7471 0.0000 -7.2997 0.0000
# 2 54.1405 139.7221 35.4328 0.0000 3.6176 0.0000
# 3 60.7471 35.4328 120.0085 0.0000 -18.6359 0.0000
# 4 0.0000 0.0000 0.0000 34.4595 0.0000 -3.1380
# 5 -7.2997 3.6176 -18.6359 0.0000 25.1264 0.0000
# 6 0.0000 0.0000 0.0000 -3.1380 0.0000 22.0466
#
#
#
# Elastic Compliance Matrix: (Units=1/GPa)
#
#
# Indices 1 2 3 4 5 6 
#
# 1 0.010288 -0.002896 -0.004322 0.000000 0.000201 0.000000
# 2 -0.002896 0.008782 -0.001643 0.000000 -0.003324 0.000000
# 3 -0.004322 -0.001643 0.012259 0.000000 0.008074 0.000000
# 4 0.000000 0.000000 0.000000 0.029401 0.000000 0.004185
# 5 0.000201 -0.003324 0.008074 0.000000 0.046324 0.000000
# 6 0.000000 0.000000 0.000000 0.004185 0.000000 0.045954
#
#
# Mechanical properties :
#
#
# Convention : Reuss Voigt Hill
#
# Bulk Modulus (GPa) = 73.48679 77.60732 75.54705
# Shear Modulus (GPa) = 28.52806 32.82682 30.67744
#
# Velocity S-wave (km/s) = 3.68285 3.95059 3.81906
# Velocity P-wave (km/s) = 7.28169 7.59652 7.44077
#
# Compressibility (1/GPa) = 0.01360789
#
# Stress axis : x y z
#
# Youngs Moduli (GPa) = 97.19603 113.86958 81.57071
#
# Poissons Ratio (x) = 0.32975 0.35253
# Poissons Ratio (y) = 0.28147 0.13404
# Poissons Ratio (z) = 0.42006 0.18712
#
# Static dielectric constant tensor:
#      x y z
#    x 3.912050 0.000000 -0.472090 
#    y 0.000000 4.200010 0.000000 
#    z -0.472090 0.000000 4.445980 
# 
# 
# High freq. dielectric constant tensor:
#      x y z
#    x 1.814220 0.000000 -0.021720 
#    y 0.000000 1.851730 0.000000 
#    z -0.021720 0.000000 1.824690 
# 
# From -- ./inp_files/25890.got.cif
#   From: 2010.06.25/outbox.cif.g09.slc.cpg/sg13_13_cif.got.tgz:25890.got - 2010.06.28 04:50:58.
