data_PCOD8119500
_publ_section_title
;
Structure prediction by ZEFSAII (Michael W. Deem and Ramdas Pophale) SiO2 
 PCOD8119500
Probable space group: P 2/C
;
_chemical_formula_sum "Si O2"
_cell_formula_units_Z 24
_cell_length_a 8.936699
_cell_length_b 8.808722
_cell_length_c 20.891458
_cell_angle_alpha 90.000000
_cell_angle_beta 47.146928
_cell_angle_gamma 90.000000
_cell_volume 1205.652415
_symmetry_space_group_name_H-M "P 2/C"
_symmetry_group_IT_number 13
_symmetry_cell_setting 'monoclinic'
loop_
_space_group_symop_operation_xyz
x,y,z
-x,y,1/2-z
-x,-y,-z
x,-y,1/2+z
loop_
_atom_site_type_symbol
_atom_site_label
_atom_site_fract_x
_atom_site_fract_y
_atom_site_fract_z
Si Si1 0.933489 0.155662 0.488248
Si Si2 0.930327 0.801713 0.338403
Si Si3 0.278767 0.289723 0.832441
Si Si4 0.795666 0.421573 0.082336
Si Si5 0.297199 0.089435 0.073105
Si Si6 0.565024 0.356623 0.021523
O O1 0.774483 0.237927 0.580892
O O2 0.812003 0.136961 0.459396
O O3 0.140128 0.252308 0.414319
O O4 0.000000 0.000000 0.500000
O O5 0.746687 0.717109 0.427376
O O6 0.000000 0.730305 0.250000
O O7 0.123533 0.785849 0.328224
O O8 0.861370 0.976960 0.344438
O O9 0.500000 0.227222 0.750000
O O10 0.284770 0.475632 0.834624
O O11 0.633939 0.409185 0.071695
O O12 0.000000 0.500000 0.000000
O O13 0.371140 0.242301 0.088280
O O14 0.500000 0.000000 0.000000
O O15 0.500000 0.500000 0.000000
#
# Coordination Sequence:
#
# PCOD8119500 Si02
#       6
#     4   4   4   4   4   4
#     4  11  19  40  67  87 121 168 215 260 305 374
#     4  11  24  42  59  93 133 160 203 265 320 372
#     4  11  24  40  62  94 125 165 209 260 319 366
#     4  10  20  39  62  89 123 162 215 256 300 378
#     4  10  22  38  61  94 122 162 212 253 312 382
#     4  11  21  39  67  94 119 167 211 258 315 378
#
# _framework density 19.906234999999999
#
# number of rings (size 3 to 8) (size 9 to 14) (size 15 to 20)
#    0.000    1.333    5.000    3.000    7.000    0.000 
#    0.000    3.333    0.000    0.000    0.000    0.000 
#    0.000    0.000    0.000    0.000    0.000    0.000 
#
# Total GULP energy -297363.026363 kJ/mol
# GULP energy per Si atom -12390.126098 kJ/mol
# Density = 1.986093 g / cm^3
# Si number density = 19.906235 Si / 1000 Ang^3
#
#
#
# Elastic Constant Matrix: (Units=GPa)
#
#
# Indices 1 2 3 4 5 6 
#
# 1 150.3521 44.7886 14.1952 0.0000 -11.0694 0.0000
# 2 44.7886 110.0974 5.3119 0.0000 -18.4431 0.0000
# 3 14.1952 5.3119 63.1720 0.0000 -11.5784 0.0000
# 4 0.0000 0.0000 0.0000 19.6874 0.0000 2.1738
# 5 -11.0694 -18.4431 -11.5784 0.0000 25.4067 0.0000
# 6 0.0000 0.0000 0.0000 2.1738 0.0000 46.1588
#
#
#
# Elastic Compliance Matrix: (Units=1/GPa)
#
#
# Indices 1 2 3 4 5 6 
#
# 1 0.007709 -0.002974 -0.001377 0.000000 0.000572 0.000000
# 2 -0.002974 0.011505 0.001085 0.000000 0.007550 0.000000
# 3 -0.001377 0.001085 0.017548 0.000000 0.008184 0.000000
# 4 0.000000 0.000000 0.000000 0.051059 0.000000 -0.002405
# 5 0.000572 0.007550 0.008184 0.000000 0.048820 0.000000
# 6 0.000000 0.000000 0.000000 -0.002405 0.000000 0.021778
#
#
# Mechanical properties :
#
#
# Convention : Reuss Voigt Hill
#
# Bulk Modulus (GPa) = 33.08026 50.24587 41.66307
# Shear Modulus (GPa) = 28.56677 35.53898 32.05288
#
# Velocity S-wave (km/s) = 3.79234 4.22989 4.01707
# Velocity P-wave (km/s) = 5.98581 7.01085 6.51851
#
# Compressibility (1/GPa) = 0.03022951
#
# Stress axis : x y z
#
# Youngs Moduli (GPa) = 129.71682 86.91778 56.98599
#
# Poissons Ratio (x) = 0.25848 0.07849
# Poissons Ratio (y) = 0.38575 -0.06181
# Poissons Ratio (z) = 0.17866 -0.09428
#
# Static dielectric constant tensor:
#      x y z
#    x 4.170540 0.000000 -0.481920 
#    y 0.000000 4.667490 0.000000 
#    z -0.481920 0.000000 3.943030 
# 
# 
# High freq. dielectric constant tensor:
#      x y z
#    x 1.795490 0.000000 -0.007500 
#    y 0.000000 1.791300 0.000000 
#    z -0.007500 0.000000 1.740900 
# 
# From -- ./inp_files/75606.got.cif
#   From: 2010.06.25/outbox.cif.g09.slc.cpg/sg13_38_cif.got.tgz:75606.got - 2010.06.28 04:50:58.
