data_PCOD8119076
_publ_section_title
;
Structure prediction by ZEFSAII (Michael W. Deem and Ramdas Pophale) SiO2 
 PCOD8119076
Probable space group: P 2/C
;
_chemical_formula_sum "Si O2"
_cell_formula_units_Z 20
_cell_length_a 14.700962
_cell_length_b 11.534636
_cell_length_c 9.919967
_cell_angle_alpha 90.000000
_cell_angle_beta 144.655215
_cell_angle_gamma 90.000000
_cell_volume 973.105148
_symmetry_space_group_name_H-M "P 2/C"
_symmetry_group_IT_number 13
_symmetry_cell_setting 'monoclinic'
loop_
_space_group_symop_operation_xyz
x,y,z
-x,y,1/2-z
-x,-y,-z
x,-y,1/2+z
loop_
_atom_site_type_symbol
_atom_site_label
_atom_site_fract_x
_atom_site_fract_y
_atom_site_fract_z
Si Si1 0.092228 0.261464 0.729829
Si Si2 0.432313 0.157270 0.528228
Si Si3 0.212070 0.636884 0.752393
Si Si4 0.182235 0.486844 0.957858
Si Si5 0.632027 0.898519 0.021304
O O1 0.209150 0.364942 0.913932
O O2 0.000000 0.214261 0.750000
O O3 0.968461 0.317077 0.473332
O O4 0.198085 0.158171 0.799451
O O5 0.500000 0.202031 0.750000
O O6 0.314970 0.254128 0.332954
O O7 0.574786 0.145512 0.596474
O O8 0.339796 0.036426 0.437242
O O9 0.255863 0.590075 0.955812
O O10 0.248067 0.531083 0.689631
O O11 0.000000 0.514722 0.750000
O O12 0.500000 0.868625 0.750000
#
# Coordination Sequence:
#
# PCOD8119076 Si02
#       5
#     4   4   4   4   4
#     4   9  18  34  61  88 110 146 192 234 278 339
#     4  10  23  39  57  83 119 154 187 232 288 338
#     4  10  20  37  57  83 113 148 194 233 275 336
#     4   9  18  34  56  80 112 148 182 233 290 331
#     4  10  20  40  62  82 116 155 184 228 292 343
#
# _framework density 20.552765000000001
#
# number of rings (size 3 to 8) (size 9 to 14) (size 15 to 20)
#    0.000    2.800    0.000    4.800    0.000    4.000 
#    0.000    6.000    0.000    0.000    0.000    0.000 
#    0.000    0.000    0.000    0.000    0.000    0.000 
#
# Total GULP energy -247820.526547 kJ/mol
# GULP energy per Si atom -12391.026327 kJ/mol
# Density = 2.050599 g / cm^3
# Si number density = 20.552765 Si / 1000 Ang^3
#
#
#
# Elastic Constant Matrix: (Units=GPa)
#
#
# Indices 1 2 3 4 5 6 
#
# 1 109.0901 58.0220 39.5342 0.0000 -8.9211 0.0000
# 2 58.0220 89.3706 33.9803 0.0000 11.4458 0.0000
# 3 39.5342 33.9803 53.3804 0.0000 -7.1746 0.0000
# 4 0.0000 0.0000 0.0000 23.0858 0.0000 1.0006
# 5 -8.9211 11.4458 -7.1746 0.0000 29.6001 0.0000
# 6 0.0000 0.0000 0.0000 1.0006 0.0000 31.6080
#
#
#
# Elastic Compliance Matrix: (Units=1/GPa)
#
#
# Indices 1 2 3 4 5 6 
#
# 1 0.017045 -0.010112 -0.005138 0.000000 0.007802 0.000000
# 2 -0.010112 0.023009 -0.009059 0.000000 -0.014141 0.000000
# 3 -0.005138 -0.009059 0.029530 0.000000 0.009112 0.000000
# 4 0.000000 0.000000 0.000000 0.043376 0.000000 -0.001373
# 5 0.007802 -0.014141 0.009112 0.000000 0.043811 0.000000
# 6 0.000000 0.000000 0.000000 -0.001373 0.000000 0.031681
#
#
# Mechanical properties :
#
#
# Convention : Reuss Voigt Hill
#
# Bulk Modulus (GPa) = 47.69404 57.21268 52.45336
# Shear Modulus (GPa) = 20.48675 24.87908 22.68292
#
# Velocity S-wave (km/s) = 3.16062 3.48300 3.32572
# Velocity P-wave (km/s) = 6.04776 6.63871 6.35011
#
# Compressibility (1/GPa) = 0.02096698
#
# Stress axis : x y z
#
# Youngs Moduli (GPa) = 58.66848 43.46048 33.86340
#
# Poissons Ratio (x) = 0.43945 0.17401
# Poissons Ratio (y) = 0.59323 0.30677
# Poissons Ratio (z) = 0.30147 0.39371
#
# Static dielectric constant tensor:
#      x y z
#    x 3.780740 0.000000 -0.231740 
#    y 0.000000 3.671210 0.000000 
#    z -0.231740 0.000000 3.379460 
# 
# 
# High freq. dielectric constant tensor:
#      x y z
#    x 1.807590 0.000000 -0.016140 
#    y 0.000000 1.798530 0.000000 
#    z -0.016140 0.000000 1.770920 
# 
# From -- ./inp_files/37219.got.cif
#   From: 2010.06.25/outbox.cif.g09.slc.cpg/sg13_19_cif.got.tgz:37219.got - 2010.06.28 04:50:58.
