data_PCOD8119509
_publ_section_title
;
Structure prediction by ZEFSAII (Michael W. Deem and Ramdas Pophale) SiO2 
 PCOD8119509
Probable space group: P 2/C
;
_chemical_formula_sum "Si O2"
_cell_formula_units_Z 30
_cell_length_a 8.809081
_cell_length_b 8.536896
_cell_length_c 27.752795
_cell_angle_alpha 90.000000
_cell_angle_beta 131.045533
_cell_angle_gamma 90.000000
_cell_volume 1574.044199
_symmetry_space_group_name_H-M "P 2/C"
_symmetry_group_IT_number 13
_symmetry_cell_setting 'monoclinic'
loop_
_space_group_symop_operation_xyz
x,y,z
-x,y,1/2-z
-x,-y,-z
x,-y,1/2+z
loop_
_atom_site_type_symbol
_atom_site_label
_atom_site_fract_x
_atom_site_fract_y
_atom_site_fract_z
Si Si1 0.554586 0.264962 0.934985
Si Si2 0.807631 0.757643 0.069061
Si Si3 0.229101 0.265020 0.695419
Si Si4 0.214412 0.566251 0.528295
Si Si5 0.926880 0.059845 0.036858
Si Si6 0.494304 0.885887 0.323567
Si Si7 0.500000 0.449627 0.250000
Si Si8 0.676140 0.786420 0.864707
O O1 0.399998 0.251525 0.946197
O O2 0.604608 0.442398 0.931080
O O3 0.460051 0.179822 0.869422
O O4 0.763202 0.191887 0.995111
O O5 0.989759 0.727386 0.144148
O O6 0.828465 0.923798 0.047647
O O7 0.813375 0.618396 0.032151
O O8 0.315250 0.202596 0.661826
O O9 0.295250 0.142307 0.750322
O O10 0.317516 0.436083 0.728131
O O11 0.288799 0.712136 0.575580
O O12 0.000000 0.500000 0.500000
O O13 0.109098 0.137500 0.105558
O O14 0.000000 0.000000 0.000000
O O15 0.517771 0.072220 0.333412
O O16 0.410782 0.343491 0.189109
#
# Coordination Sequence:
#
# PCOD8119509 Si02
#       8
#     4   4   4   4   4   4   2   4
#     4  12  24  39  60  94 130 161 201 256 329 374
#     4  12  24  39  62  93 128 163 200 260 323 372
#     4  10  21  40  64  88 122 160 219 254 303 370
#     4  12  22  39  63  91 123 162 205 254 309 374
#     4  12  21  40  63  93 120 161 212 256 304 374
#     4  10  20  39  63  88 116 163 215 258 293 365
#     4  10  22  36  60  98 112 152 206 272 298 350
#     4  12  21  36  66  90 119 150 214 263 304 351
#
# _framework density 19.059186
#
# number of rings (size 3 to 8) (size 9 to 14) (size 15 to 20)
#    0.000    0.800    5.333    4.800    0.000    0.533 
#    0.000    0.000    0.000    0.000    0.000    0.000 
#    0.000    0.000    0.000    0.000    0.000    0.000 
#
# Total GULP energy -372030.377023 kJ/mol
# GULP energy per Si atom -12401.012567 kJ/mol
# Density = 1.901581 g / cm^3
# Si number density = 19.059186 Si / 1000 Ang^3
#
#
#
# Elastic Constant Matrix: (Units=GPa)
#
#
# Indices 1 2 3 4 5 6 
#
# 1 99.1814 42.7781 35.9225 0.0000 -4.4792 0.0000
# 2 42.7781 126.0566 46.4545 0.0000 -2.4471 0.0000
# 3 35.9225 46.4545 112.6060 0.0000 1.2917 0.0000
# 4 0.0000 0.0000 0.0000 48.1991 0.0000 -2.4232
# 5 -4.4792 -2.4471 1.2917 0.0000 24.1021 0.0000
# 6 0.0000 0.0000 0.0000 -2.4232 0.0000 24.0592
#
#
#
# Elastic Compliance Matrix: (Units=1/GPa)
#
#
# Indices 1 2 3 4 5 6 
#
# 1 0.012546 -0.003222 -0.002698 0.000000 0.002149 0.000000
# 2 -0.003222 0.010215 -0.003193 0.000000 0.000610 0.000000
# 3 -0.002698 -0.003193 0.011075 0.000000 -0.001419 0.000000
# 4 0.000000 0.000000 0.000000 0.020853 0.000000 0.002100
# 5 0.002149 0.000610 -0.001419 0.000000 0.042027 0.000000
# 6 0.000000 0.000000 0.000000 0.002100 0.000000 0.041776
#
#
# Mechanical properties :
#
#
# Convention : Reuss Voigt Hill
#
# Bulk Modulus (GPa) = 64.06101 65.35048 64.70575
# Shear Modulus (GPa) = 30.87920 33.45135 32.16528
#
# Velocity S-wave (km/s) = 4.02951 4.19397 4.11256
# Velocity P-wave (km/s) = 7.43867 7.60363 7.52160
#
# Compressibility (1/GPa) = 0.01561012
#
# Stress axis : x y z
#
# Youngs Moduli (GPa) = 79.70462 97.89647 90.29477
#
# Poissons Ratio (x) = 0.31539 0.24361
# Poissons Ratio (y) = 0.25678 0.28834
# Poissons Ratio (z) = 0.21504 0.31261
#
# Static dielectric constant tensor:
#      x y z
#    x 3.120760 0.000000 0.063060 
#    y 0.000000 3.759680 0.000000 
#    z 0.063060 0.000000 3.700230 
# 
# 
# High freq. dielectric constant tensor:
#      x y z
#    x 1.705330 0.000000 0.003350 
#    y 0.000000 1.760640 0.000000 
#    z 0.003350 0.000000 1.756670 
# 
# From -- ./inp_files/91300.got.cif
#   From: 2010.06.25/outbox.cif.g09.slc.cpg/sg13_46_cif.got.tgz:91300.got - 2010.06.28 04:50:58.
