data_PCOD8119061
_publ_section_title
;
Structure prediction by ZEFSAII (Michael W. Deem and Ramdas Pophale) SiO2 
 PCOD8119061
Probable space group: P 2/C
;
_chemical_formula_sum "Si O2"
_cell_formula_units_Z 18
_cell_length_a 11.873399
_cell_length_b 7.480542
_cell_length_c 11.027385
_cell_angle_alpha 90.000000
_cell_angle_beta 120.375745
_cell_angle_gamma 90.000000
_cell_volume 844.995631
_symmetry_space_group_name_H-M "P 2/C"
_symmetry_group_IT_number 13
_symmetry_cell_setting 'monoclinic'
loop_
_space_group_symop_operation_xyz
x,y,z
-x,y,1/2-z
-x,-y,-z
x,-y,1/2+z
loop_
_atom_site_type_symbol
_atom_site_label
_atom_site_fract_x
_atom_site_fract_y
_atom_site_fract_z
Si Si1 0.800928 0.198483 0.047294
Si Si2 0.066886 0.304492 0.137213
Si Si3 0.420699 0.500852 0.082666
Si Si4 0.000000 0.634897 0.250000
Si Si5 0.229076 0.200264 0.999188
O O1 0.865064 0.203208 0.214320
O O2 0.925057 0.221693 0.024077
O O3 0.735534 0.008931 0.979830
O O4 0.693584 0.352729 0.979227
O O5 0.036864 0.511725 0.154166
O O6 0.169445 0.282409 0.087834
O O7 0.500000 0.534118 0.250000
O O8 0.500000 0.500000 0.000000
O O9 0.363936 0.301338 0.051726
O O10 0.875581 0.761177 0.162846
#
# Coordination Sequence:
#
# PCOD8119061 Si02
#       5
#     4   4   4   2   4
#     4  10  23  42  64  99 129 162 217 269 323 394
#     4  10  20  41  66 102 131 156 208 270 340 397
#     4  12  28  45  65  90 131 181 228 264 310 380
#     4  10  20  36  68  98 132 162 204 264 346 394
#     4  12  23  40  70  94 129 171 206 270 335 383
#
# _framework density 21.301884999999999
#
# number of rings (size 3 to 8) (size 9 to 14) (size 15 to 20)
#    0.000    1.333    4.444    4.000    0.000    3.556 
#    0.000    0.000    0.000    0.000    0.000    0.000 
#    0.000    0.000    0.000    0.000    0.000    0.000 
#
# Total GULP energy -223087.141875 kJ/mol
# GULP energy per Si atom -12393.730104 kJ/mol
# Density = 2.125340 g / cm^3
# Si number density = 21.301885 Si / 1000 Ang^3
#
#
#
# Elastic Constant Matrix: (Units=GPa)
#
#
# Indices 1 2 3 4 5 6 
#
# 1 118.5434 12.4514 39.9324 0.0000 -1.3477 0.0000
# 2 12.4514 94.8805 18.5030 0.0000 5.5873 0.0000
# 3 39.9324 18.5030 97.2394 0.0000 9.5292 0.0000
# 4 0.0000 0.0000 0.0000 16.8925 0.0000 12.1940
# 5 -1.3477 5.5873 9.5292 0.0000 25.9117 0.0000
# 6 0.0000 0.0000 0.0000 12.1940 0.0000 22.5774
#
#
#
# Elastic Compliance Matrix: (Units=1/GPa)
#
#
# Indices 1 2 3 4 5 6 
#
# 1 0.009932 -0.000618 -0.004175 0.000000 0.002185 0.000000
# 2 -0.000618 0.011053 -0.001673 0.000000 -0.001800 0.000000
# 3 -0.004175 -0.001673 0.012763 0.000000 -0.004550 0.000000
# 4 0.000000 0.000000 0.000000 0.097025 0.000000 -0.052403
# 5 0.002185 -0.001800 -0.004550 0.000000 0.040768 0.000000
# 6 0.000000 0.000000 0.000000 -0.052403 0.000000 0.072595
#
#
# Mechanical properties :
#
#
# Convention : Reuss Voigt Hill
#
# Bulk Modulus (GPa) = 48.04148 50.27077 49.15612
# Shear Modulus (GPa) = 18.93894 29.06143 24.00019
#
# Velocity S-wave (km/s) = 2.98497 3.69760 3.36023
# Velocity P-wave (km/s) = 5.87211 6.47149 6.17907
#
# Compressibility (1/GPa) = 0.02081534
#
# Stress axis : x y z
#
# Youngs Moduli (GPa) = 100.68529 90.47373 78.35308
#
# Poissons Ratio (x) = 0.05590 0.32714
# Poissons Ratio (y) = 0.06221 0.13109
# Poissons Ratio (z) = 0.42039 0.15137
#
# Static dielectric constant tensor:
#      x y z
#    x 3.951280 0.000000 0.035200 
#    y 0.000000 3.873650 0.000000 
#    z 0.035200 0.000000 3.926670 
# 
# 
# High freq. dielectric constant tensor:
#      x y z
#    x 1.834760 0.000000 -0.001760 
#    y 0.000000 1.838600 0.000000 
#    z -0.001760 0.000000 1.836250 
# 
# From -- ./inp_files/32768.got.cif
#   From: 2010.06.25/outbox.cif.g09.slc.cpg/sg13_17_cif.got.tgz:32768.got - 2010.06.28 04:50:58.
