data_PCOD8119819
_publ_section_title
;
Structure prediction by ZEFSAII (Michael W. Deem and Ramdas Pophale) SiO2 
 PCOD8119819
Probable space group: P 2/C
;
_chemical_formula_sum "Si O2"
_cell_formula_units_Z 20
_cell_length_a 8.484670
_cell_length_b 12.092246
_cell_length_c 16.815119
_cell_angle_alpha 90.000000
_cell_angle_beta 146.679396
_cell_angle_gamma 90.000000
_cell_volume 947.697927
_symmetry_space_group_name_H-M "P 2/C"
_symmetry_group_IT_number 13
_symmetry_cell_setting 'monoclinic'
loop_
_space_group_symop_operation_xyz
x,y,z
-x,y,1/2-z
-x,-y,-z
x,-y,1/2+z
loop_
_atom_site_type_symbol
_atom_site_label
_atom_site_fract_x
_atom_site_fract_y
_atom_site_fract_z
Si Si1 0.203856 0.498064 0.660496
Si Si2 0.744817 0.693894 0.700704
Si Si3 0.808037 0.138768 0.864966
Si Si4 0.779759 0.105805 0.321637
Si Si5 0.102682 0.690143 0.379891
O O1 0.500000 0.451283 0.750000
O O2 0.248120 0.619111 0.716970
O O3 0.000000 0.500000 0.500000
O O4 0.069431 0.420839 0.671587
O O5 0.795720 0.821605 0.748022
O O6 0.445656 0.674509 0.528228
O O7 0.000000 0.657873 0.750000
O O8 0.500000 0.196443 0.750000
O O9 0.023852 0.214456 0.907914
O O10 0.756875 0.025148 0.793613
O O11 0.936058 0.120243 0.006212
O O12 0.500000 0.147816 0.250000
O O13 0.000000 0.727446 0.250000
#
# Coordination Sequence:
#
# PCOD8119819 Si02
#       5
#     4   4   4   4   4
#     4  12  25  45  73  95 122 170 220 266 318 383
#     4  12  27  44  65  95 136 173 206 264 331 381
#     4  10  22  40  69  99 124 169 221 267 311 375
#     4  10  20  43  69  92 129 171 219 264 315 377
#     4  12  27  44  64  97 136 167 213 266 322 385
#
# _framework density 21.103770999999998
#
# number of rings (size 3 to 8) (size 9 to 14) (size 15 to 20)
#    0.000    0.800    4.000    3.000    5.600    2.400 
#    0.000    2.000    0.000    0.000    0.000    0.000 
#    0.000    0.000    0.000    0.000    0.000    0.000 
#
# Total GULP energy -248066.983852 kJ/mol
# GULP energy per Si atom -12403.349193 kJ/mol
# Density = 2.105574 g / cm^3
# Si number density = 21.103771 Si / 1000 Ang^3
#
#
#
# Elastic Constant Matrix: (Units=GPa)
#
#
# Indices 1 2 3 4 5 6 
#
# 1 85.5991 18.4153 44.6150 0.0000 21.8035 0.0000
# 2 18.4153 79.9082 18.3489 0.0000 2.6863 0.0000
# 3 44.6150 18.3489 154.7434 0.0000 19.7783 0.0000
# 4 0.0000 0.0000 0.0000 25.9402 0.0000 -0.1493
# 5 21.8035 2.6863 19.7783 0.0000 45.5628 0.0000
# 6 0.0000 0.0000 0.0000 -0.1493 0.0000 20.8109
#
#
#
# Elastic Compliance Matrix: (Units=1/GPa)
#
#
# Indices 1 2 3 4 5 6 
#
# 1 0.015495 -0.002591 -0.003422 0.000000 -0.005777 0.000000
# 2 -0.002591 0.013298 -0.000940 0.000000 0.000864 0.000000
# 3 -0.003422 -0.000940 0.007775 0.000000 -0.001682 0.000000
# 4 0.000000 0.000000 0.000000 0.038552 0.000000 0.000277
# 5 -0.005777 0.000864 -0.001682 0.000000 0.025391 0.000000
# 6 0.000000 0.000000 0.000000 0.000277 0.000000 0.048054
#
#
# Mechanical properties :
#
#
# Convention : Reuss Voigt Hill
#
# Bulk Modulus (GPa) = 44.12603 53.66765 48.89684
# Shear Modulus (GPa) = 29.40735 34.38753 31.89744
#
# Velocity S-wave (km/s) = 3.73696 4.04102 3.89196
# Velocity P-wave (km/s) = 6.29081 6.87450 6.58912
#
# Compressibility (1/GPa) = 0.02266236
#
# Stress axis : x y z
#
# Youngs Moduli (GPa) = 64.53848 75.19748 128.61090
#
# Poissons Ratio (x) = 0.19483 0.44008
# Poissons Ratio (y) = 0.16721 0.12093
# Poissons Ratio (z) = 0.22084 0.07071
#
# Static dielectric constant tensor:
#      x y z
#    x 3.478230 0.000000 0.205290 
#    y 0.000000 4.064070 0.000000 
#    z 0.205290 0.000000 3.861160 
# 
# 
# High freq. dielectric constant tensor:
#      x y z
#    x 1.813600 0.000000 0.015060 
#    y 0.000000 1.830910 0.000000 
#    z 0.015060 0.000000 1.844540 
# 
# From -- ./inp_files/11678.got.cif
#   From: 2010.06.25/outbox.cif.g09.slc.cpg/sg13_6_cif.got.tgz:11678.got - 2010.06.28 04:50:58.
