data_PCOD8119642
_publ_section_title
;
Structure prediction by ZEFSAII (Michael W. Deem and Ramdas Pophale) SiO2 
 PCOD8119642
Probable space group: P 2/C
;
_chemical_formula_sum "Si O2"
_cell_formula_units_Z 24
_cell_length_a 19.817997
_cell_length_b 11.542332
_cell_length_c 13.023933
_cell_angle_alpha 90.000000
_cell_angle_beta 156.605463
_cell_angle_gamma 90.000000
_cell_volume 1182.910894
_symmetry_space_group_name_H-M "P 2/C"
_symmetry_group_IT_number 13
_symmetry_cell_setting 'monoclinic'
loop_
_space_group_symop_operation_xyz
x,y,z
-x,y,1/2-z
-x,-y,-z
x,-y,1/2+z
loop_
_atom_site_type_symbol
_atom_site_label
_atom_site_fract_x
_atom_site_fract_y
_atom_site_fract_z
Si Si1 0.680149 0.587897 0.957869
Si Si2 0.582126 0.666890 0.266138
Si Si3 0.970637 0.265087 0.915987
Si Si4 0.136082 0.164894 0.352337
Si Si5 0.826058 0.088246 0.566175
Si Si6 0.717271 0.708163 0.797345
O O1 0.500000 0.637475 0.750000
O O2 0.664891 0.449978 0.926989
O O3 0.735302 0.631846 0.923477
O O4 0.838146 0.627687 0.252536
O O5 0.500000 0.732142 0.250000
O O6 0.724952 0.745064 0.415000
O O7 0.441848 0.652378 0.982857
O O8 0.852514 0.164266 0.704654
O O9 0.055186 0.211736 0.134665
O O10 0.115700 0.306051 0.039293
O O11 0.000000 0.158871 0.250000
O O12 0.230585 0.039514 0.474897
O O13 0.697678 0.156711 0.308291
O O14 0.000000 0.072406 0.750000
#
# Coordination Sequence:
#
# PCOD8119642 Si02
#       6
#     4   4   4   4   4   4
#     4  10  23  39  61  90 118 156 202 259 296 349
#     4  11  23  41  57  89 126 158 197 247 305 360
#     4  10  20  40  65  84 118 161 205 241 306 365
#     4  11  23  37  58  90 123 156 199 250 299 358
#     4   8  18  37  62  88 112 156 200 247 299 354
#     4  10  20  41  66  85 118 160 201 245 303 367
#
# _framework density 20.288931999999999
#
# number of rings (size 3 to 8) (size 9 to 14) (size 15 to 20)
#    0.000    2.000    1.667    2.500    2.333    2.667 
#    0.000    3.333    0.000    0.000    0.000    0.000 
#    0.000    0.000    0.000    0.000    0.000    0.000 
#
# Total GULP energy -297332.050899 kJ/mol
# GULP energy per Si atom -12388.835454 kJ/mol
# Density = 2.024275 g / cm^3
# Si number density = 20.288932 Si / 1000 Ang^3
#
#
#
# Elastic Constant Matrix: (Units=GPa)
#
#
# Indices 1 2 3 4 5 6 
#
# 1 72.6020 15.9125 13.0994 0.0000 5.5115 0.0000
# 2 15.9125 110.6720 50.0200 0.0000 10.8227 0.0000
# 3 13.0994 50.0200 80.6646 0.0000 3.1887 0.0000
# 4 0.0000 0.0000 0.0000 29.1741 0.0000 0.7863
# 5 5.5115 10.8227 3.1887 0.0000 26.2707 0.0000
# 6 0.0000 0.0000 0.0000 0.7863 0.0000 27.1082
#
#
#
# Elastic Compliance Matrix: (Units=1/GPa)
#
#
# Indices 1 2 3 4 5 6 
#
# 1 0.014485 -0.001153 -0.001544 0.000000 -0.002377 0.000000
# 2 -0.001153 0.013136 -0.007791 0.000000 -0.004224 0.000000
# 3 -0.001544 -0.007791 0.017423 0.000000 0.001419 0.000000
# 4 0.000000 0.000000 0.000000 0.034304 0.000000 -0.000995
# 5 -0.002377 -0.004224 0.001419 0.000000 0.040132 0.000000
# 6 0.000000 0.000000 0.000000 -0.000995 0.000000 0.036918
#
#
# Mechanical properties :
#
#
# Convention : Reuss Voigt Hill
#
# Bulk Modulus (GPa) = 41.54727 46.88914 44.21821
# Shear Modulus (GPa) = 26.96924 28.83771 27.90347
#
# Velocity S-wave (km/s) = 3.64986 3.77417 3.71253
# Velocity P-wave (km/s) = 6.18742 6.49256 6.34183
#
# Compressibility (1/GPa) = 0.02406897
#
# Stress axis : x y z
#
# Youngs Moduli (GPa) = 69.03553 76.12690 57.39524
#
# Poissons Ratio (x) = 0.08775 0.08860
# Poissons Ratio (y) = 0.07957 0.44719
# Poissons Ratio (z) = 0.10656 0.59314
#
# Static dielectric constant tensor:
#      x y z
#    x 5.919320 0.000000 0.046200 
#    y 0.000000 4.096610 0.000000 
#    z 0.046200 0.000000 3.872990 
# 
# 
# High freq. dielectric constant tensor:
#      x y z
#    x 1.792720 0.000000 -0.003070 
#    y 0.000000 1.792250 0.000000 
#    z -0.003070 0.000000 1.783740 
# 
# From -- ./inp_files/57726.got.cif
#   From: 2010.06.25/outbox.cif.g09.slc.cpg/sg13_29_cif.got.tgz:57726.got - 2010.06.28 04:50:58.
