data_PCOD8119593
_publ_section_title
;
Structure prediction by ZEFSAII (Michael W. Deem and Ramdas Pophale) SiO2 
 PCOD8119593
Probable space group: P 2/C
;
_chemical_formula_sum "Si O2"
_cell_formula_units_Z 18
_cell_length_a 11.215569
_cell_length_b 5.038576
_cell_length_c 17.424197
_cell_angle_alpha 90.000000
_cell_angle_beta 128.825584
_cell_angle_gamma 90.000000
_cell_volume 767.099574
_symmetry_space_group_name_H-M "P 2/C"
_symmetry_group_IT_number 13
_symmetry_cell_setting 'monoclinic'
loop_
_space_group_symop_operation_xyz
x,y,z
-x,y,1/2-z
-x,-y,-z
x,-y,1/2+z
loop_
_atom_site_type_symbol
_atom_site_label
_atom_site_fract_x
_atom_site_fract_y
_atom_site_fract_z
Si Si1 0.083152 0.255379 0.627350
Si Si2 0.302409 0.272854 0.419753
Si Si3 0.201050 0.755115 0.599522
Si Si4 0.000000 0.005948 0.750000
Si Si5 0.403584 0.769924 0.548126
O O1 0.170596 0.533512 0.651750
O O2 0.923281 0.258043 0.518583
O O3 0.196776 0.035163 0.639685
O O4 0.055131 0.201843 0.705286
O O5 0.304058 0.567952 0.455557
O O6 0.414971 0.271751 0.391128
O O7 0.131901 0.195866 0.328616
O O8 0.362247 0.070173 0.508575
O O9 0.364180 0.723966 0.622099
#
# Coordination Sequence:
#
# PCOD8119593 Si02
#       5
#     4   4   4   2   4
#     4  10  23  34  62  92 127 160 208 260 323 364
#     4  10  23  36  65  92 127 163 210 265 324 369
#     4  10  20  40  60  89 122 172 208 252 302 407
#     4  12  24  42  60 106 130 164 212 294 320 378
#     4  10  20  42  62  90 121 174 216 251 308 410
#
# _framework density 23.465009999999999
#
# number of rings (size 3 to 8) (size 9 to 14) (size 15 to 20)
#    0.000    1.778    2.222    1.333    6.222    3.556 
#    0.000    1.111    0.000    2.667    0.000    0.000 
#    0.000    0.000    0.000    0.000    0.000    0.000 
#
# Total GULP energy -223253.783613 kJ/mol
# GULP energy per Si atom -12402.987978 kJ/mol
# Density = 2.341160 g / cm^3
# Si number density = 23.465010 Si / 1000 Ang^3
#
#
#
# Elastic Constant Matrix: (Units=GPa)
#
#
# Indices 1 2 3 4 5 6 
#
# 1 168.9700 15.9495 23.9959 0.0000 -25.6363 0.0000
# 2 15.9495 78.0206 -12.0420 0.0000 0.0291 0.0000
# 3 23.9959 -12.0420 32.4782 0.0000 -7.1762 0.0000
# 4 0.0000 0.0000 0.0000 10.8328 0.0000 -3.0760
# 5 -25.6363 0.0291 -7.1762 0.0000 29.8076 0.0000
# 6 0.0000 0.0000 0.0000 -3.0760 0.0000 29.9296
#
#
#
# Elastic Compliance Matrix: (Units=1/GPa)
#
#
# Indices 1 2 3 4 5 6 
#
# 1 0.007728 -0.002419 -0.005426 0.000000 0.005342 0.000000
# 2 -0.002419 0.014398 0.007037 0.000000 -0.000400 0.000000
# 3 -0.005426 0.007037 0.038419 0.000000 0.004576 0.000000
# 4 0.000000 0.000000 0.000000 0.095087 0.000000 0.009773
# 5 0.005342 -0.000400 0.004576 0.000000 0.039245 0.000000
# 6 0.000000 0.000000 0.000000 0.009773 0.000000 0.034416
#
#
# Mechanical properties :
#
#
# Convention : Reuss Voigt Hill
#
# Bulk Modulus (GPa) = 16.96964 37.25283 27.11124
# Shear Modulus (GPa) = 19.95597 30.88505 25.42051
#
# Velocity S-wave (km/s) = 2.91942 3.63191 3.29498
# Velocity P-wave (km/s) = 4.31412 5.78775 5.10439
#
# Compressibility (1/GPa) = 0.05892877
#
# Stress axis : x y z
#
# Youngs Moduli (GPa) = 129.40525 69.45419 26.02879
#
# Poissons Ratio (x) = 0.16802 0.14123
# Poissons Ratio (y) = 0.31306 -0.18317
# Poissons Ratio (z) = 0.70215 -0.48877
#
# Static dielectric constant tensor:
#      x y z
#    x 4.548540 0.000000 -0.128500 
#    y 0.000000 4.316410 0.000000 
#    z -0.128500 0.000000 3.694320 
# 
# 
# High freq. dielectric constant tensor:
#      x y z
#    x 1.950150 0.000000 -0.015230 
#    y 0.000000 1.942200 0.000000 
#    z -0.015230 0.000000 1.880040 
# 
# From -- ./inp_files/64940.got.cif
#   From: 2010.06.25/outbox.cif.g09.slc.cpg/sg13_33_cif.got.tgz:64940.got - 2010.06.28 04:50:58.
