data_PCOD8119315
_publ_section_title
;
Structure prediction by ZEFSAII (Michael W. Deem and Ramdas Pophale) SiO2 
 PCOD8119315
Probable space group: P 2/C
;
_chemical_formula_sum "Si O2"
_cell_formula_units_Z 24
_cell_length_a 8.899443
_cell_length_b 8.619716
_cell_length_c 22.406013
_cell_angle_alpha 90.000000
_cell_angle_beta 132.898976
_cell_angle_gamma 90.000000
_cell_volume 1259.101211
_symmetry_space_group_name_H-M "P 2/C"
_symmetry_group_IT_number 13
_symmetry_cell_setting 'monoclinic'
loop_
_space_group_symop_operation_xyz
x,y,z
-x,y,1/2-z
-x,-y,-z
x,-y,1/2+z
loop_
_atom_site_type_symbol
_atom_site_label
_atom_site_fract_x
_atom_site_fract_y
_atom_site_fract_z
Si Si1 0.313179 0.777727 0.109524
Si Si2 0.214510 0.201740 0.281369
Si Si3 0.446031 0.032872 0.053530
Si Si4 0.482801 0.456853 0.175582
Si Si5 0.276067 0.052154 0.179931
Si Si6 0.850665 0.758252 0.963535
O O1 0.478000 0.638833 0.158071
O O2 0.315038 0.872890 0.172766
O O3 0.380733 0.877226 0.070441
O O4 0.082478 0.711608 0.040557
O O5 0.348835 0.099000 0.361729
O O6 0.323093 0.366546 0.298873
O O7 0.000000 0.251226 0.250000
O O8 0.160562 0.090777 0.209951
O O9 0.261998 0.159324 0.010235
O O10 0.500000 0.000000 0.000000
O O11 0.500000 0.434320 0.250000
O O12 0.271196 0.391852 0.091236
O O13 0.500000 0.133617 0.250000
O O14 0.149120 0.119055 0.090484
#
# Coordination Sequence:
#
# PCOD8119315 Si02
#       6
#     4   4   4   4   4   4
#     4  11  23  35  65  92 118 151 206 259 295 346
#     4  11  23  38  62  85 122 164 199 237 307 369
#     4  10  22  38  58  89 125 156 195 248 300 355
#     4  11  21  41  62  87 121 155 204 251 299 358
#     4  11  17  39  61  88 114 155 207 251 287 344
#     4  10  20  38  61  88 119 157 199 242 303 360
#
# _framework density 19.061216999999999
#
# number of rings (size 3 to 8) (size 9 to 14) (size 15 to 20)
#    0.000    1.333    6.667    3.000    4.667    0.000 
#    0.000    5.833    0.000    0.000    0.000    0.000 
#    0.000    0.000    0.000    0.000    0.000    0.000 
#
# Total GULP energy -297436.538902 kJ/mol
# GULP energy per Si atom -12393.189121 kJ/mol
# Density = 1.901783 g / cm^3
# Si number density = 19.061217 Si / 1000 Ang^3
#
#
#
# Elastic Constant Matrix: (Units=GPa)
#
#
# Indices 1 2 3 4 5 6 
#
# 1 130.6376 53.2180 57.3055 0.0000 -1.3813 0.0000
# 2 53.2180 118.3800 29.9543 0.0000 -10.5049 0.0000
# 3 57.3055 29.9543 70.9093 0.0000 -8.4022 0.0000
# 4 0.0000 0.0000 0.0000 24.9566 0.0000 -0.2161
# 5 -1.3813 -10.5049 -8.4022 0.0000 32.8280 0.0000
# 6 0.0000 0.0000 0.0000 -0.2161 0.0000 19.4153
#
#
#
# Elastic Compliance Matrix: (Units=1/GPa)
#
#
# Indices 1 2 3 4 5 6 
#
# 1 0.013394 -0.003881 -0.009555 0.000000 -0.003124 0.000000
# 2 -0.003881 0.010721 -0.001037 0.000000 0.003002 0.000000
# 3 -0.009555 -0.001037 0.022869 0.000000 0.005120 0.000000
# 4 0.000000 0.000000 0.000000 0.040073 0.000000 0.000446
# 5 -0.003124 0.003002 0.005120 0.000000 0.032601 0.000000
# 6 0.000000 0.000000 0.000000 0.000446 0.000000 0.051511
#
#
# Mechanical properties :
#
#
# Convention : Reuss Voigt Hill
#
# Bulk Modulus (GPa) = 55.43739 66.76471 61.10105
# Shear Modulus (GPa) = 24.25672 27.40324 25.82998
#
# Velocity S-wave (km/s) = 3.57118 3.79574 3.68517
# Velocity P-wave (km/s) = 6.79348 7.36972 7.08746
#
# Compressibility (1/GPa) = 0.01803837
#
# Stress axis : x y z
#
# Youngs Moduli (GPa) = 74.65916 93.27736 43.72667
#
# Poissons Ratio (x) = 0.36199 0.41782
# Poissons Ratio (y) = 0.28973 0.04534
# Poissons Ratio (z) = 0.71340 0.09671
#
# Static dielectric constant tensor:
#      x y z
#    x 3.359780 0.000000 0.001850 
#    y 0.000000 3.555120 0.000000 
#    z 0.001850 0.000000 3.570120 
# 
# 
# High freq. dielectric constant tensor:
#      x y z
#    x 1.722080 0.000000 0.005620 
#    y 0.000000 1.738190 0.000000 
#    z 0.005620 0.000000 1.750330 
# 
# From -- ./inp_files/46200.got.cif
#   From: 2010.06.25/outbox.cif.g09.slc.cpg/sg13_24_cif.got.tgz:46200.got - 2010.06.28 04:50:58.
