data_PCOD8119685
_publ_section_title
;
Structure prediction by ZEFSAII (Michael W. Deem and Ramdas Pophale) SiO2 
 PCOD8119685
Probable space group: P 2/C
;
_chemical_formula_sum "Si O2"
_cell_formula_units_Z 28
_cell_length_a 13.818476
_cell_length_b 9.063008
_cell_length_c 19.078742
_cell_angle_alpha 90.000000
_cell_angle_beta 149.815663
_cell_angle_gamma 90.000000
_cell_volume 1201.332987
_symmetry_space_group_name_H-M "P 2/C"
_symmetry_group_IT_number 13
_symmetry_cell_setting 'monoclinic'
loop_
_space_group_symop_operation_xyz
x,y,z
-x,y,1/2-z
-x,-y,-z
x,-y,1/2+z
loop_
_atom_site_type_symbol
_atom_site_label
_atom_site_fract_x
_atom_site_fract_y
_atom_site_fract_z
Si Si1 0.183643 0.793139 0.141611
Si Si2 0.313784 0.077222 0.964217
Si Si3 0.223398 0.585620 0.371186
Si Si4 0.291405 0.021203 0.106426
Si Si5 0.407043 0.547045 0.337224
Si Si6 0.192982 0.282124 0.143087
Si Si7 0.761413 0.954391 0.723602
O O1 0.380513 0.702779 0.279671
O O2 0.162696 0.892633 0.058923
O O3 0.135278 0.904347 0.175564
O O4 0.010696 0.675221 0.021028
O O5 0.278223 0.247122 0.922969
O O6 0.209778 0.971499 0.841926
O O7 0.225514 0.043105 0.984988
O O8 0.537326 0.037993 0.104847
O O9 0.266865 0.554282 0.317087
O O10 0.367782 0.477691 0.504967
O O11 0.000000 0.551298 0.250000
O O12 0.500000 0.952974 0.250000
O O13 0.293771 0.171725 0.151875
O O14 0.332000 0.420281 0.238641
O O15 0.162946 0.202185 0.200359
#
# Coordination Sequence:
#
# PCOD8119685 Si02
#       7
#     4   4   4   4   4   4   4
#     4  11  23  42  67  98 143 182 224 280 364 407
#     4  11  21  39  72  99 138 177 238 292 347 409
#     4  11  25  44  73 103 137 186 240 291 354 430
#     4  11  21  40  66 104 136 175 238 292 338 419
#     4  11  24  49  68 100 144 189 228 296 349 426
#     4  11  23  43  69  96 138 189 230 278 356 424
#     4  10  20  40  69 101 131 183 224 289 357 411
#
# _framework density 23.307444
#
# number of rings (size 3 to 8) (size 9 to 14) (size 15 to 20)
#    0.000    1.143    5.714    2.143    2.000    1.143 
#    2.571    0.714    0.000    0.857    0.000    0.000 
#    0.000    0.000    0.000    0.000    0.000    0.000 
#
# Total GULP energy -346978.676143 kJ/mol
# GULP energy per Si atom -12392.095577 kJ/mol
# Density = 2.325440 g / cm^3
# Si number density = 23.307444 Si / 1000 Ang^3
#
#
#
# Elastic Constant Matrix: (Units=GPa)
#
#
# Indices 1 2 3 4 5 6 
#
# 1 117.2690 28.6556 40.6722 0.0000 -23.3826 0.0000
# 2 28.6556 85.9080 20.9701 0.0000 -12.4988 0.0000
# 3 40.6722 20.9701 104.7647 0.0000 -4.7333 0.0000
# 4 0.0000 0.0000 0.0000 42.2691 0.0000 -6.9298
# 5 -23.3826 -12.4988 -4.7333 0.0000 41.0738 0.0000
# 6 0.0000 0.0000 0.0000 -6.9298 0.0000 17.1722
#
#
#
# Elastic Compliance Matrix: (Units=1/GPa)
#
#
# Indices 1 2 3 4 5 6 
#
# 1 0.011433 -0.002102 -0.003772 0.000000 0.005434 0.000000
# 2 -0.002102 0.013134 -0.001695 0.000000 0.002605 0.000000
# 3 -0.003772 -0.001695 0.011287 0.000000 -0.001363 0.000000
# 4 0.000000 0.000000 0.000000 0.025334 0.000000 0.010223
# 5 0.005434 0.002605 -0.001363 0.000000 0.028076 0.000000
# 6 0.000000 0.000000 0.000000 0.010223 0.000000 0.062359
#
#
# Mechanical properties :
#
#
# Convention : Reuss Voigt Hill
#
# Bulk Modulus (GPa) = 48.27321 54.28195 51.27758
# Shear Modulus (GPa) = 28.79057 34.61261 31.70159
#
# Velocity S-wave (km/s) = 3.51843 3.85781 3.69202
# Velocity P-wave (km/s) = 6.10428 6.57143 6.34216
#
# Compressibility (1/GPa) = 0.02071542
#
# Stress axis : x y z
#
# Youngs Moduli (GPa) = 87.46656 76.13637 88.59410
#
# Poissons Ratio (x) = 0.16005 0.33420
# Poissons Ratio (y) = 0.18387 0.15019
# Poissons Ratio (z) = 0.32995 0.12907
#
# Static dielectric constant tensor:
#      x y z
#    x 4.106810 0.000000 -0.129710 
#    y 0.000000 4.020320 0.000000 
#    z -0.129710 0.000000 4.650680 
# 
# 
# High freq. dielectric constant tensor:
#      x y z
#    x 1.899350 0.000000 -0.014790 
#    y 0.000000 1.906000 0.000000 
#    z -0.014790 0.000000 1.950200 
# 
# From -- ./inp_files/79993.got.cif
#   From: 2010.06.25/outbox.cif.g09.slc.cpg/sg13_40_cif.got.tgz:79993.got - 2010.06.28 04:50:58.
