data_PCOD8119658
_publ_section_title
;
Structure prediction by ZEFSAII (Michael W. Deem and Ramdas Pophale) SiO2 
 PCOD8119658
Probable space group: P 2/C
;
_chemical_formula_sum "Si O2"
_cell_formula_units_Z 20
_cell_length_a 6.476402
_cell_length_b 16.717622
_cell_length_c 9.087691
_cell_angle_alpha 90.000000
_cell_angle_beta 76.756827
_cell_angle_gamma 90.000000
_cell_volume 957.758733
_symmetry_space_group_name_H-M "P 2/C"
_symmetry_group_IT_number 13
_symmetry_cell_setting 'monoclinic'
loop_
_space_group_symop_operation_xyz
x,y,z
-x,y,1/2-z
-x,-y,-z
x,-y,1/2+z
loop_
_atom_site_type_symbol
_atom_site_label
_atom_site_fract_x
_atom_site_fract_y
_atom_site_fract_z
Si Si1 0.655102 0.250198 0.101491
Si Si2 0.000000 0.700348 0.750000
Si Si3 0.374086 0.394893 0.056554
Si Si4 0.843836 0.969798 0.901365
Si Si5 0.542661 0.117393 0.905000
Si Si6 0.500000 0.471578 0.750000
O O1 0.500000 0.214823 0.250000
O O2 0.884437 0.249670 0.141046
O O3 0.578587 0.339062 0.062191
O O4 0.663887 0.188811 0.966332
O O5 0.160943 0.649899 0.627403
O O6 0.364527 0.473724 0.160654
O O7 0.364502 0.415989 0.883830
O O8 0.000000 0.935703 0.750000
O O9 0.696607 0.041471 0.866596
O O10 0.683511 0.900929 0.981049
O O11 0.000000 0.000000 0.000000
O O12 0.500000 0.149935 0.750000
#
# Coordination Sequence:
#
# PCOD8119658 Si02
#       6
#     4   2   4   4   4   2
#     4  10  23  42  63  92 132 172 209 264 320 378
#     4  10  20  44  64  92 126 170 220 254 318 390
#     4  10  21  41  62  93 129 167 212 262 319 381
#     4  11  24  44  66  97 128 166 213 262 322 381
#     4  11  25  43  67  96 131 167 216 269 313 377
#     4  10  20  40  66  92 130 164 206 272 322 372
#
# _framework density 20.882085
#
# number of rings (size 3 to 8) (size 9 to 14) (size 15 to 20)
#    0.000    1.600    5.000    0.000    4.200    4.000 
#    1.800    0.000    0.000    0.000    0.000    0.000 
#    0.000    0.000    0.000    0.000    0.000    0.000 
#
# Total GULP energy -247893.354857 kJ/mol
# GULP energy per Si atom -12394.667743 kJ/mol
# Density = 2.083456 g / cm^3
# Si number density = 20.882085 Si / 1000 Ang^3
#
#
#
# Elastic Constant Matrix: (Units=GPa)
#
#
# Indices 1 2 3 4 5 6 
#
# 1 136.7429 38.3585 62.2593 0.0000 8.4986 0.0000
# 2 38.3585 81.1261 55.2274 0.0000 8.3166 0.0000
# 3 62.2593 55.2274 179.3788 0.0000 12.1866 0.0000
# 4 0.0000 0.0000 0.0000 52.6540 0.0000 31.3090
# 5 8.4986 8.3166 12.1866 0.0000 36.1141 0.0000
# 6 0.0000 0.0000 0.0000 31.3090 0.0000 37.7207
#
#
#
# Elastic Compliance Matrix: (Units=1/GPa)
#
#
# Indices 1 2 3 4 5 6 
#
# 1 0.009162 -0.002688 -0.002301 0.000000 -0.000761 0.000000
# 2 -0.002688 0.016529 -0.004033 0.000000 -0.001813 0.000000
# 3 -0.002301 -0.004033 0.007691 0.000000 -0.001125 0.000000
# 4 0.000000 0.000000 0.000000 0.037500 0.000000 -0.031126
# 5 -0.000761 -0.001813 -0.001125 0.000000 0.028666 0.000000
# 6 0.000000 0.000000 0.000000 -0.031126 0.000000 0.052346
#
#
# Mechanical properties :
#
#
# Convention : Reuss Voigt Hill
#
# Bulk Modulus (GPa) = 65.19221 78.77091 71.98156
# Shear Modulus (GPa) = 28.56348 41.39127 34.97737
#
# Velocity S-wave (km/s) = 3.70245 4.45696 4.09711
# Velocity P-wave (km/s) = 7.04021 8.01808 7.54500
#
# Compressibility (1/GPa) = 0.01533926
#
# Stress axis : x y z
#
# Youngs Moduli (GPa) = 109.14976 60.50147 130.01515
#
# Poissons Ratio (x) = 0.16261 0.29913
# Poissons Ratio (y) = 0.29336 0.52433
# Poissons Ratio (z) = 0.25112 0.24399
#
# Static dielectric constant tensor:
#      x y z
#    x 3.750580 0.000000 0.100680 
#    y 0.000000 3.661020 0.000000 
#    z 0.100680 0.000000 5.012090 
# 
# 
# High freq. dielectric constant tensor:
#      x y z
#    x 1.812900 0.000000 0.009410 
#    y 0.000000 1.808290 0.000000 
#    z 0.009410 0.000000 1.830000 
# 
# From -- ./inp_files/9466.got.cif
#   From: 2010.06.25/outbox.cif.g09.slc.cpg/sg13_5_cif.got.tgz:9466.got - 2010.06.28 04:50:58.
