data_PCOD8119702
_publ_section_title
;
Structure prediction by ZEFSAII (Michael W. Deem and Ramdas Pophale) SiO2 
 PCOD8119702
Probable space group: P 2/C
;
_chemical_formula_sum "Si O2"
_cell_formula_units_Z 30
_cell_length_a 12.237482
_cell_length_b 6.627788
_cell_length_c 19.085000
_cell_angle_alpha 90.000000
_cell_angle_beta 115.416309
_cell_angle_gamma 90.000000
_cell_volume 1398.115647
_symmetry_space_group_name_H-M "P 2/C"
_symmetry_group_IT_number 13
_symmetry_cell_setting 'monoclinic'
loop_
_space_group_symop_operation_xyz
x,y,z
-x,y,1/2-z
-x,-y,-z
x,-y,1/2+z
loop_
_atom_site_type_symbol
_atom_site_label
_atom_site_fract_x
_atom_site_fract_y
_atom_site_fract_z
Si Si1 0.664470 0.370081 0.233257
Si Si2 0.879142 0.497884 0.584265
Si Si3 0.000000 0.023496 0.750000
Si Si4 0.230385 0.831763 0.863436
Si Si5 0.201593 0.738121 0.060181
Si Si6 0.606258 0.597451 0.872251
Si Si7 0.878172 0.338024 0.810672
Si Si8 0.734910 0.117154 0.508172
O O1 0.705744 0.182639 0.195202
O O2 0.535357 0.450253 0.171072
O O3 0.655713 0.304460 0.312593
O O4 0.760372 0.548770 0.249545
O O5 0.776004 0.609976 0.602444
O O6 0.891703 0.615565 0.514343
O O7 0.841736 0.266137 0.561387
O O8 0.009625 0.494507 0.657601
O O9 0.904570 0.155151 0.766741
O O10 0.911836 0.890343 0.677746
O O11 0.304800 0.988443 0.933694
O O12 0.328556 0.615931 0.096635
O O13 0.142438 0.756897 0.119246
O O14 0.217644 0.963925 0.037368
O O15 0.628107 0.752180 0.942738
#
# Coordination Sequence:
#
# PCOD8119702 Si02
#       8
#     4   4   2   4   4   4   4   4
#     4  10  22  41  65  90 128 169 210 254 321 360
#     4  10  20  41  60  90 127 159 205 257 310 383
#     4  12  24  38  58  96 130 158 210 256 312 382
#     4  11  23  39  61  91 127 170 203 258 316 373
#     4   9  21  38  65  89 121 162 206 261 312 365
#     4   9  21  44  63  92 124 164 216 266 295 372
#     4  11  21  38  63  90 124 167 201 259 317 372
#     4  10  21  41  64  92 128 160 214 257 307 370
#
# _framework density 21.457453000000001
#
# number of rings (size 3 to 8) (size 9 to 14) (size 15 to 20)
#    0.000    1.867    1.333    2.000    1.867    1.067 
#    4.800    7.333    0.000    0.000    0.000    0.000 
#    0.000    0.000    0.000    0.000    0.000    0.000 
#
# Total GULP energy -371937.820457 kJ/mol
# GULP energy per Si atom -12397.927349 kJ/mol
# Density = 2.140862 g / cm^3
# Si number density = 21.457453 Si / 1000 Ang^3
#
#
#
# Elastic Constant Matrix: (Units=GPa)
#
#
# Indices 1 2 3 4 5 6 
#
# 1 87.4945 40.0196 42.7177 0.0000 3.2414 0.0000
# 2 40.0196 106.3033 42.4030 0.0000 -2.0614 0.0000
# 3 42.7177 42.4030 107.0484 0.0000 -3.8814 0.0000
# 4 0.0000 0.0000 0.0000 10.6086 0.0000 6.5006
# 5 3.2414 -2.0614 -3.8814 0.0000 38.0708 0.0000
# 6 0.0000 0.0000 0.0000 6.5006 0.0000 18.1721
#
#
#
# Elastic Compliance Matrix: (Units=1/GPa)
#
#
# Indices 1 2 3 4 5 6 
#
# 1 0.015662 -0.004054 -0.004718 0.000000 -0.002034 0.000000
# 2 -0.004054 0.012222 -0.003199 0.000000 0.000681 0.000000
# 3 -0.004718 -0.003199 0.012546 0.000000 0.001508 0.000000
# 4 0.000000 0.000000 0.000000 0.120726 0.000000 -0.043187
# 5 -0.002034 0.000681 0.001508 0.000000 0.026631 0.000000
# 6 0.000000 0.000000 0.000000 -0.043187 0.000000 0.070479
#
#
# Mechanical properties :
#
#
# Convention : Reuss Voigt Hill
#
# Bulk Modulus (GPa) = 60.64629 61.23631 60.94130
# Shear Modulus (GPa) = 17.37895 25.08402 21.23148
#
# Velocity S-wave (km/s) = 2.84901 3.42279 3.14900
# Velocity P-wave (km/s) = 6.25678 6.64989 6.45633
#
# Compressibility (1/GPa) = 0.01648905
#
# Stress axis : x y z
#
# Youngs Moduli (GPa) = 63.84732 81.81666 79.70556
#
# Poissons Ratio (x) = 0.33167 0.37606
# Poissons Ratio (y) = 0.25883 0.25498
# Poissons Ratio (z) = 0.30124 0.26174
#
# Static dielectric constant tensor:
#      x y z
#    x 3.575330 0.000000 -0.079820 
#    y 0.000000 3.747280 0.000000 
#    z -0.079820 0.000000 4.237980 
# 
# 
# High freq. dielectric constant tensor:
#      x y z
#    x 1.814780 0.000000 -0.004670 
#    y 0.000000 1.835020 0.000000 
#    z -0.004670 0.000000 1.866400 
# 
# From -- ./inp_files/77557.got.cif
#   From: 2010.06.25/outbox.cif.g09.slc.cpg/sg13_39_cif.got.tgz:77557.got - 2010.06.28 04:50:58.
