data_PCOD8119373
_publ_section_title
;
Structure prediction by ZEFSAII (Michael W. Deem and Ramdas Pophale) SiO2 
 PCOD8119373
Probable space group: P 2/C
;
_chemical_formula_sum "Si O2"
_cell_formula_units_Z 30
_cell_length_a 9.892224
_cell_length_b 5.302364
_cell_length_c 27.495666
_cell_angle_alpha 90.000000
_cell_angle_beta 69.131712
_cell_angle_gamma 90.000000
_cell_volume 1347.601172
_symmetry_space_group_name_H-M "P 2/C"
_symmetry_group_IT_number 13
_symmetry_cell_setting 'monoclinic'
loop_
_space_group_symop_operation_xyz
x,y,z
-x,y,1/2-z
-x,-y,-z
x,-y,1/2+z
loop_
_atom_site_type_symbol
_atom_site_label
_atom_site_fract_x
_atom_site_fract_y
_atom_site_fract_z
Si Si1 0.328888 0.685380 0.772046
Si Si2 0.321064 0.932830 0.478930
Si Si3 0.798306 0.302748 0.318164
Si Si4 0.372897 0.949617 0.581568
Si Si5 0.822180 0.801398 0.187679
Si Si6 0.885126 0.668833 0.383022
Si Si7 0.000000 0.088919 0.750000
Si Si8 0.850044 0.541659 0.493299
O O1 0.500000 0.708284 0.750000
O O2 0.273109 0.648896 0.724461
O O3 0.280909 0.439684 0.809509
O O4 0.264866 0.936631 0.805420
O O5 0.462534 0.969588 0.427235
O O6 0.245049 0.678992 0.470010
O O7 0.371344 0.853410 0.526626
O O8 0.217566 0.179395 0.489491
O O9 0.891931 0.529720 0.329473
O O10 0.670091 0.261165 0.373771
O O11 0.914699 0.078095 0.300975
O O12 0.258301 0.169645 0.600993
O O13 0.959476 0.811949 0.133046
O O14 0.880484 0.756351 0.235444
O O15 0.871884 0.492828 0.432541
O O16 0.000000 0.500000 0.500000
#
# Coordination Sequence:
#
# PCOD8119373 Si02
#       8
#     4   4   4   4   4   4   2   4
#     4  11  26  44  60  88 133 168 207 257 320 374
#     4  10  23  42  65  94 129 164 210 262 323 371
#     4  11  21  39  65  92 127 163 212 262 312 375
#     4  10  22  38  66  95 126 159 211 269 312 376
#     4  11  22  41  65  91 124 166 208 262 310 381
#     4  11  22  39  68  96 126 161 221 261 319 376
#     4  10  20  38  64 102 122 160 214 270 318 358
#     4  11  24  44  65  93 132 169 209 263 318 381
#
# _framework density 22.261779000000001
#
# number of rings (size 3 to 8) (size 9 to 14) (size 15 to 20)
#    0.000    1.333    2.667    3.200    3.733    2.133 
#    4.800    0.000    0.000    0.000    0.000    0.000 
#    0.000    0.000    0.000    0.000    0.000    0.000 
#
# Total GULP energy -371786.457351 kJ/mol
# GULP energy per Si atom -12392.881912 kJ/mol
# Density = 2.221111 g / cm^3
# Si number density = 22.261779 Si / 1000 Ang^3
#
#
#
# Elastic Constant Matrix: (Units=GPa)
#
#
# Indices 1 2 3 4 5 6 
#
# 1 123.2450 47.7048 28.2838 0.0000 -32.0847 0.0000
# 2 47.7048 126.0748 18.3650 0.0000 -19.8368 0.0000
# 3 28.2838 18.3650 66.8293 0.0000 -26.0568 0.0000
# 4 0.0000 0.0000 0.0000 28.1547 0.0000 -8.7034
# 5 -32.0847 -19.8368 -26.0568 0.0000 40.1639 0.0000
# 6 0.0000 0.0000 0.0000 -8.7034 0.0000 33.0485
#
#
#
# Elastic Compliance Matrix: (Units=1/GPa)
#
#
# Indices 1 2 3 4 5 6 
#
# 1 0.011342 -0.003043 -0.001362 0.000000 0.006674 0.000000
# 2 -0.003043 0.009462 -0.000586 0.000000 0.001862 0.000000
# 3 -0.001362 -0.000586 0.020298 0.000000 0.011791 0.000000
# 4 0.000000 0.000000 0.000000 0.038666 0.000000 0.010183
# 5 0.006674 0.001862 0.011791 0.000000 0.038799 0.000000
# 6 0.000000 0.000000 0.000000 0.010183 0.000000 0.032940
#
#
# Mechanical properties :
#
#
# Convention : Reuss Voigt Hill
#
# Bulk Modulus (GPa) = 32.13412 56.09515 44.11463
# Shear Modulus (GPa) = 29.09314 35.05979 32.07647
#
# Velocity S-wave (km/s) = 3.61898 3.97279 3.80001
# Velocity P-wave (km/s) = 5.65055 6.80417 6.25402
#
# Compressibility (1/GPa) = 0.03111957
#
# Stress axis : x y z
#
# Youngs Moduli (GPa) = 88.16978 105.69046 49.26493
#
# Poissons Ratio (x) = 0.32163 0.06708
# Poissons Ratio (y) = 0.26831 0.02888
# Poissons Ratio (z) = 0.12006 0.06196
#
# Static dielectric constant tensor:
#      x y z
#    x 4.013630 0.000000 -0.261510 
#    y 0.000000 4.038380 0.000000 
#    z -0.261510 0.000000 4.265930 
# 
# 
# High freq. dielectric constant tensor:
#      x y z
#    x 1.871800 0.000000 -0.025630 
#    y 0.000000 1.877820 0.000000 
#    z -0.025630 0.000000 1.871080 
# 
# From -- ./inp_files/95628.got.cif
#   From: 2010.06.25/outbox.cif.g09.slc.cpg/sg13_48_cif.got.tgz:95628.got - 2010.06.28 04:50:58.
