data_PCOD8119503
_publ_section_title
;
Structure prediction by ZEFSAII (Michael W. Deem and Ramdas Pophale) SiO2 
 PCOD8119503
Probable space group: P 2/C
;
_chemical_formula_sum "Si O2"
_cell_formula_units_Z 18
_cell_length_a 13.401241
_cell_length_b 9.431705
_cell_length_c 8.775866
_cell_angle_alpha 90.000000
_cell_angle_beta 45.864410
_cell_angle_gamma 90.000000
_cell_volume 796.094191
_symmetry_space_group_name_H-M "P 2/C"
_symmetry_group_IT_number 13
_symmetry_cell_setting 'monoclinic'
loop_
_space_group_symop_operation_xyz
x,y,z
-x,y,1/2-z
-x,-y,-z
x,-y,1/2+z
loop_
_atom_site_type_symbol
_atom_site_label
_atom_site_fract_x
_atom_site_fract_y
_atom_site_fract_z
Si Si1 0.943681 0.778350 0.470482
Si Si2 0.500000 0.527417 0.750000
Si Si3 0.655270 0.330261 0.354873
Si Si4 0.360447 0.947448 0.470137
Si Si5 0.177733 0.911110 0.390186
O O1 0.823279 0.674581 0.660539
O O2 0.000000 0.718347 0.250000
O O3 0.065317 0.789436 0.469504
O O4 0.890172 0.937672 0.500220
O O5 0.609980 0.433864 0.538750
O O6 0.410553 0.625406 0.734598
O O7 0.599154 0.172082 0.449364
O O8 0.500000 0.011912 0.250000
O O9 0.263829 0.867137 0.448082
O O10 0.279788 0.076341 0.635758
#
# Coordination Sequence:
#
# PCOD8119503 Si02
#       5
#     4   2   4   4   4
#     4  10  20  39  62  96 125 180 202 250 315 389
#     4  10  22  50  66  92 120 164 214 298 306 358
#     4  10  23  41  73  87 124 163 223 262 333 356
#     4  11  21  38  60 101 125 176 204 255 310 391
#     4  10  21  36  61  88 144 164 206 246 308 385
#
# _framework density 22.610391
#
# number of rings (size 3 to 8) (size 9 to 14) (size 15 to 20)
#    0.000    1.778    3.333    0.667    0.000    1.778 
#    8.000    1.111    0.000    0.000    0.000    0.000 
#    0.000    0.000    0.000    0.000    0.000    0.000 
#
# Total GULP energy -223194.475620 kJ/mol
# GULP energy per Si atom -12399.693090 kJ/mol
# Density = 2.255893 g / cm^3
# Si number density = 22.610391 Si / 1000 Ang^3
#
#
#
# Elastic Constant Matrix: (Units=GPa)
#
#
# Indices 1 2 3 4 5 6 
#
# 1 146.0221 42.9350 62.1821 0.0000 2.4622 0.0000
# 2 42.9350 46.6280 41.9634 0.0000 -8.2773 0.0000
# 3 62.1821 41.9634 182.1793 0.0000 -10.9405 0.0000
# 4 0.0000 0.0000 0.0000 27.3998 0.0000 -9.2906
# 5 2.4622 -8.2773 -10.9405 0.0000 36.1077 0.0000
# 6 0.0000 0.0000 0.0000 -9.2906 0.0000 34.4047
#
#
#
# Elastic Compliance Matrix: (Units=1/GPa)
#
#
# Indices 1 2 3 4 5 6 
#
# 1 0.010064 -0.008274 -0.001716 0.000000 -0.003103 0.000000
# 2 -0.008274 0.034559 -0.004712 0.000000 0.007059 0.000000
# 3 -0.001716 -0.004712 0.007234 0.000000 0.001229 0.000000
# 4 0.000000 0.000000 0.000000 0.040175 0.000000 0.010849
# 5 -0.003103 0.007059 0.001229 0.000000 0.029897 0.000000
# 6 0.000000 0.000000 0.000000 0.010849 0.000000 0.031995
#
#
# Mechanical properties :
#
#
# Convention : Reuss Voigt Hill
#
# Bulk Modulus (GPa) = 44.53708 74.33227 59.43468
# Shear Modulus (GPa) = 26.20384 34.76570 30.48477
#
# Velocity S-wave (km/s) = 3.40800 3.92548 3.67585
# Velocity P-wave (km/s) = 5.93518 7.31385 6.66028
#
# Compressibility (1/GPa) = 0.02245320
#
# Stress axis : x y z
#
# Youngs Moduli (GPa) = 99.36534 28.93626 138.23758
#
# Poissons Ratio (x) = 0.23941 0.23716
# Poissons Ratio (y) = 0.82211 0.65143
# Poissons Ratio (z) = 0.17047 0.13636
#
# Static dielectric constant tensor:
#      x y z
#    x 4.256000 0.000000 -0.083560 
#    y 0.000000 3.484130 0.000000 
#    z -0.083560 0.000000 4.458670 
# 
# 
# High freq. dielectric constant tensor:
#      x y z
#    x 1.901710 0.000000 0.002930 
#    y 0.000000 1.830330 0.000000 
#    z 0.002930 0.000000 1.917680 
# 
# From -- ./inp_files/11361.got.cif
#   From: 2010.06.25/outbox.cif.g09.slc.cpg/sg13_6_cif.got.tgz:11361.got - 2010.06.28 04:50:58.
