data_PCOD8119945
_publ_section_title
;
Structure prediction by ZEFSAII (Michael W. Deem and Ramdas Pophale) SiO2 
 PCOD8119945
Probable space group: P 2/C
;
_chemical_formula_sum "Si O2"
_cell_formula_units_Z 32
_cell_length_a 14.031654
_cell_length_b 9.392722
_cell_length_c 13.478457
_cell_angle_alpha 90.000000
_cell_angle_beta 61.829838
_cell_angle_gamma 90.000000
_cell_volume 1565.983489
_symmetry_space_group_name_H-M "P 2/C"
_symmetry_group_IT_number 13
_symmetry_cell_setting 'monoclinic'
loop_
_space_group_symop_operation_xyz
x,y,z
-x,y,1/2-z
-x,-y,-z
x,-y,1/2+z
loop_
_atom_site_type_symbol
_atom_site_label
_atom_site_fract_x
_atom_site_fract_y
_atom_site_fract_z
Si Si1 0.259939 0.191590 0.738471
Si Si2 0.013154 0.540599 0.882795
Si Si3 0.360879 0.370585 0.070518
Si Si4 0.844535 0.973597 0.036762
Si Si5 0.242614 0.074805 0.126501
Si Si6 0.170485 0.434352 0.663250
Si Si7 0.057868 0.858315 0.855417
Si Si8 0.449168 0.589668 0.170274
O O1 0.185669 0.154761 0.871107
O O2 0.195126 0.272022 0.681667
O O3 0.360042 0.286611 0.725293
O O4 0.299026 0.046492 0.665915
O O5 0.926087 0.445699 0.867238
O O6 0.133627 0.507562 0.784982
O O7 0.997998 0.707833 0.877101
O O8 0.000000 0.500000 0.000000
O O9 0.310851 0.216507 0.112541
O O10 0.272818 0.480745 0.068320
O O11 0.399565 0.441395 0.154862
O O12 0.459938 0.351691 0.947855
O O13 0.852690 0.119902 0.098612
O O14 0.757177 0.972662 0.989965
O O15 0.960863 0.964668 0.926880
O O16 0.118284 0.103761 0.222696
O O17 0.500000 0.553216 0.250000
#
# Coordination Sequence:
#
# PCOD8119945 Si02
#       8
#     4   4   4   4   4   4   4   4
#     4  10  23  41  58  92 120 159 208 249 308 375
#     4  11  22  35  59  87 123 162 206 249 294 358
#     4  10  21  40  63  90 114 159 201 252 312 361
#     4  10  21  36  60  82 123 166 202 247 306 354
#     4  11  21  38  63  84 126 158 199 257 302 365
#     4  10  22  39  57  87 125 158 202 250 306 351
#     4  10  21  36  53  90 116 163 211 239 296 366
#     4  10  22  42  66  87 119 155 204 257 316 369
#
# _framework density 20.434443000000002
#
# number of rings (size 3 to 8) (size 9 to 14) (size 15 to 20)
#    0.000    1.750    1.250    2.625    3.500    2.500 
#    4.500    4.375    0.000    0.000    0.000    0.000 
#    0.000    0.000    0.000    0.000    0.000    0.000 
#
# Total GULP energy -396555.552656 kJ/mol
# GULP energy per Si atom -12392.361020 kJ/mol
# Density = 2.038793 g / cm^3
# Si number density = 20.434443 Si / 1000 Ang^3
#
#
#
# Elastic Constant Matrix: (Units=GPa)
#
#
# Indices 1 2 3 4 5 6 
#
# 1 95.0340 37.6084 45.0477 0.0000 10.7500 0.0000
# 2 37.6084 88.2929 32.0235 0.0000 11.4916 0.0000
# 3 45.0477 32.0235 95.9392 0.0000 9.9956 0.0000
# 4 0.0000 0.0000 0.0000 24.1921 0.0000 -1.3911
# 5 10.7500 11.4916 9.9956 0.0000 38.5244 0.0000
# 6 0.0000 0.0000 0.0000 -1.3911 0.0000 26.5438
#
#
#
# Elastic Compliance Matrix: (Units=1/GPa)
#
#
# Indices 1 2 3 4 5 6 
#
# 1 0.014937 -0.004187 -0.005460 0.000000 -0.001503 0.000000
# 2 -0.004187 0.014361 -0.002573 0.000000 -0.002448 0.000000
# 3 -0.005460 -0.002573 0.013985 0.000000 -0.001338 0.000000
# 4 0.000000 0.000000 0.000000 0.041461 0.000000 0.002173
# 5 -0.001503 -0.002448 -0.001338 0.000000 0.027454 0.000000
# 6 0.000000 0.000000 0.000000 0.002173 0.000000 0.037787
#
#
# Mechanical properties :
#
#
# Convention : Reuss Voigt Hill
#
# Bulk Modulus (GPa) = 53.06420 56.51392 54.78906
# Shear Modulus (GPa) = 27.66931 28.82449 28.24690
#
# Velocity S-wave (km/s) = 3.68374 3.75985 3.72199
# Velocity P-wave (km/s) = 6.64211 6.82384 6.73359
#
# Compressibility (1/GPa) = 0.01884510
#
# Stress axis : x y z
#
# Youngs Moduli (GPa) = 66.94617 69.63309 71.50566
#
# Poissons Ratio (x) = 0.29154 0.39040
# Poissons Ratio (y) = 0.28029 0.18396
# Poissons Ratio (z) = 0.36550 0.17914
#
# Static dielectric constant tensor:
#      x y z
#    x 3.652660 0.000000 0.051940 
#    y 0.000000 3.920890 0.000000 
#    z 0.051940 0.000000 3.973010 
# 
# 
# High freq. dielectric constant tensor:
#      x y z
#    x 1.784750 0.000000 0.004840 
#    y 0.000000 1.792310 0.000000 
#    z 0.004840 0.000000 1.809020 
# 
# From -- ./inp_files/53047.got.cif
#   From: 2010.06.25/outbox.cif.g09.slc.cpg/sg13_27_cif.got.tgz:53047.got - 2010.06.28 04:50:58.
