data_PCOD8119202
_publ_section_title
;
Structure prediction by ZEFSAII (Michael W. Deem and Ramdas Pophale) SiO2 
 PCOD8119202
Probable space group: P 2/C
;
_chemical_formula_sum "Si O2"
_cell_formula_units_Z 32
_cell_length_a 7.605197
_cell_length_b 11.986102
_cell_length_c 15.590508
_cell_angle_alpha 90.000000
_cell_angle_beta 100.527490
_cell_angle_gamma 90.000000
_cell_volume 1397.256555
_symmetry_space_group_name_H-M "P 2/C"
_symmetry_group_IT_number 13
_symmetry_cell_setting 'monoclinic'
loop_
_space_group_symop_operation_xyz
x,y,z
-x,y,1/2-z
-x,-y,-z
x,-y,1/2+z
loop_
_atom_site_type_symbol
_atom_site_label
_atom_site_fract_x
_atom_site_fract_y
_atom_site_fract_z
Si Si1 0.072709 0.123557 0.521141
Si Si2 0.791386 0.912167 0.753216
Si Si3 0.780679 0.465265 0.072708
Si Si4 0.794559 0.541946 0.888491
Si Si5 0.785829 0.391736 0.731800
Si Si6 0.736945 0.785773 0.916943
Si Si7 0.188795 0.846420 0.223320
Si Si8 0.653236 0.217236 0.086756
O O1 0.163613 0.147228 0.619317
O O2 0.224268 0.145346 0.464607
O O3 0.905861 0.209435 0.496935
O O4 0.000000 0.000000 0.500000
O O5 0.763722 0.882507 0.849859
O O6 0.679056 0.828163 0.685325
O O7 0.000000 0.903506 0.750000
O O8 0.717836 0.039473 0.735125
O O9 0.712793 0.556375 0.136316
O O10 0.699311 0.346844 0.089748
O O11 0.992774 0.459287 0.093610
O O12 0.714917 0.499803 0.972235
O O13 0.716568 0.466271 0.805252
O O14 0.730137 0.667783 0.867455
O O15 0.706181 0.266394 0.739374
O O16 0.000000 0.389341 0.750000
O O17 0.554942 0.802481 0.954794
O O18 0.000000 0.839294 0.250000
#
# Coordination Sequence:
#
# PCOD8119202 Si02
#       8
#     4   4   4   4   4   4   4   4
#     4  12  23  45  69  98 136 175 223 277 340 396
#     4  11  20  43  66  96 135 176 223 275 331 394
#     4  10  20  38  64  96 130 176 219 275 334 395
#     4  10  20  37  64  94 132 172 221 270 332 398
#     4   9  19  33  60  99 126 166 227 267 327 403
#     4  12  25  40  70 103 132 176 221 276 335 399
#     4  10  21  38  68  98 127 176 224 271 338 403
#     4  12  25  42  71 100 135 173 226 278 329 403
#
# _framework density 22.902023
#
# number of rings (size 3 to 8) (size 9 to 14) (size 15 to 20)
#    0.000    1.250    3.750    2.625    5.250    2.000 
#    0.000    0.000    0.000    3.000    0.000    0.000 
#    0.000    0.000    0.000    0.000    0.000    0.000 
#
# Total GULP energy -396805.666239 kJ/mol
# GULP energy per Si atom -12400.177070 kJ/mol
# Density = 2.284990 g / cm^3
# Si number density = 22.902023 Si / 1000 Ang^3
#
#
#
# Elastic Constant Matrix: (Units=GPa)
#
#
# Indices 1 2 3 4 5 6 
#
# 1 58.1340 33.9185 32.8056 0.0000 -12.9577 0.0000
# 2 33.9185 184.0384 46.9523 0.0000 -17.9363 0.0000
# 3 32.8056 46.9523 117.6639 0.0000 -14.9602 0.0000
# 4 0.0000 0.0000 0.0000 41.4975 0.0000 -7.5627
# 5 -12.9577 -17.9363 -14.9602 0.0000 13.4795 0.0000
# 6 0.0000 0.0000 0.0000 -7.5627 0.0000 2.9459
#
#
#
# Elastic Compliance Matrix: (Units=1/GPa)
#
#
# Indices 1 2 3 4 5 6 
#
# 1 0.024145 -0.001854 -0.003906 0.000000 0.016408 0.000000
# 2 -0.001854 0.006681 -0.001450 0.000000 0.005498 0.000000
# 3 -0.003906 -0.001450 0.010995 0.000000 0.006519 0.000000
# 4 0.000000 0.000000 0.000000 0.045285 0.000000 0.116258
# 5 0.016408 0.005498 0.006519 0.000000 0.104511 0.000000
# 6 0.000000 0.000000 0.000000 0.116258 0.000000 0.637923
#
#
# Mechanical properties :
#
#
# Convention : Reuss Voigt Hill
#
# Bulk Modulus (GPa) = 36.49474 65.24326 50.86900
# Shear Modulus (GPa) = 5.86102 27.99524 16.92813
#
# Velocity S-wave (km/s) = 1.60148 3.50006 2.72169
# Velocity P-wave (km/s) = 4.40334 6.69953 5.66891
#
# Compressibility (1/GPa) = 0.02740121
#
# Stress axis : x y z
#
# Youngs Moduli (GPa) = 41.41678 149.67366 90.94924
#
# Poissons Ratio (x) = 0.27755 0.35521
# Poissons Ratio (y) = 0.07680 0.13187
# Poissons Ratio (z) = 0.16176 0.21702
#
# Static dielectric constant tensor:
#      x y z
#    x 3.869830 0.000000 -0.237160 
#    y 0.000000 4.662090 0.000000 
#    z -0.237160 0.000000 4.141230 
# 
# 
# High freq. dielectric constant tensor:
#      x y z
#    x 1.879950 0.000000 -0.018350 
#    y 0.000000 1.923200 0.000000 
#    z -0.018350 0.000000 1.902750 
# 
# From -- ./inp_files/47248.got.cif
#   From: 2010.06.25/outbox.cif.g09.slc.cpg/sg13_24_cif.got.tgz:47248.got - 2010.06.28 04:50:58.
