data_PCOD8119390
_publ_section_title
;
Structure prediction by ZEFSAII (Michael W. Deem and Ramdas Pophale) SiO2 
 PCOD8119390
Probable space group: P 2/C
;
_chemical_formula_sum "Si O2"
_cell_formula_units_Z 26
_cell_length_a 19.075822
_cell_length_b 9.186164
_cell_length_c 9.201522
_cell_angle_alpha 90.000000
_cell_angle_beta 129.430256
_cell_angle_gamma 90.000000
_cell_volume 1245.427428
_symmetry_space_group_name_H-M "P 2/C"
_symmetry_group_IT_number 13
_symmetry_cell_setting 'monoclinic'
loop_
_space_group_symop_operation_xyz
x,y,z
-x,y,1/2-z
-x,-y,-z
x,-y,1/2+z
loop_
_atom_site_type_symbol
_atom_site_label
_atom_site_fract_x
_atom_site_fract_y
_atom_site_fract_z
Si Si1 0.397838 0.610938 0.568341
Si Si2 0.000000 0.148426 0.250000
Si Si3 0.753040 0.829766 0.049782
Si Si4 0.794412 0.898977 0.431830
Si Si5 0.934726 0.607072 0.837795
Si Si6 0.317993 0.384980 0.663963
Si Si7 0.164760 0.587509 0.512620
O O1 0.500000 0.634662 0.750000
O O2 0.339774 0.739332 0.566251
O O3 0.363302 0.449039 0.575766
O O4 0.393765 0.637642 0.388721
O O5 0.097768 0.068229 0.394019
O O6 0.011356 0.245373 0.120957
O O7 0.832477 0.724283 0.093432
O O8 0.739019 0.964646 0.922135
O O9 0.782866 0.889716 0.244848
O O10 0.749490 0.754741 0.448976
O O11 0.857075 0.640300 0.853390
O O12 0.900984 0.536190 0.642056
O O13 0.000000 0.500000 0.000000
O O14 0.261440 0.514707 0.661257
#
# Coordination Sequence:
#
# PCOD8119390 Si02
#       7
#     4   2   4   4   4   4   4
#     4  10  21  40  67  97 120 150 197 253 304 375
#     4  12  24  36  60  84 126 156 224 250 286 350
#     4  10  25  42  61  85 126 163 200 248 312 362
#     4  11  24  43  57  87 122 170 202 253 298 357
#     4  12  20  35  57  87 117 156 209 264 293 345
#     4  10  20  38  64  90 125 154 195 249 309 364
#     4  11  21  37  60  85 117 163 202 244 319 347
#
# _framework density 20.876366999999998
#
# number of rings (size 3 to 8) (size 9 to 14) (size 15 to 20)
#    0.000    1.231    3.077    4.154    2.154    1.846 
#    2.769    3.846    0.000    0.000    0.000    0.000 
#    0.000    0.000    0.000    0.000    0.000    0.000 
#
# Total GULP energy -322102.020867 kJ/mol
# GULP energy per Si atom -12388.539264 kJ/mol
# Density = 2.082885 g / cm^3
# Si number density = 20.876367 Si / 1000 Ang^3
#
#
#
# Elastic Constant Matrix: (Units=GPa)
#
#
# Indices 1 2 3 4 5 6 
#
# 1 61.9229 24.9130 14.3574 0.0000 2.7832 0.0000
# 2 24.9130 93.3240 15.4402 0.0000 -3.3061 0.0000
# 3 14.3574 15.4402 73.6818 0.0000 11.4954 0.0000
# 4 0.0000 0.0000 0.0000 25.4584 0.0000 -10.1946
# 5 2.7832 -3.3061 11.4954 0.0000 39.4669 0.0000
# 6 0.0000 0.0000 0.0000 -10.1946 0.0000 29.9914
#
#
#
# Elastic Compliance Matrix: (Units=1/GPa)
#
#
# Indices 1 2 3 4 5 6 
#
# 1 0.018622 -0.004589 -0.002517 0.000000 -0.000965 0.000000
# 2 -0.004589 0.012339 -0.001994 0.000000 0.001938 0.000000
# 3 -0.002517 -0.001994 0.015168 0.000000 -0.004407 0.000000
# 4 0.000000 0.000000 0.000000 0.045469 0.000000 0.015456
# 5 -0.000965 0.001938 -0.004407 0.000000 0.026852 0.000000
# 6 0.000000 0.000000 0.000000 0.015456 0.000000 0.038597
#
#
# Mechanical properties :
#
#
# Convention : Reuss Voigt Hill
#
# Bulk Modulus (GPa) = 35.80369 37.59444 36.69907
# Shear Modulus (GPa) = 27.09224 30.59789 28.84506
#
# Velocity S-wave (km/s) = 3.60633 3.83256 3.72117
# Velocity P-wave (km/s) = 5.87609 6.13449 6.00668
#
# Compressibility (1/GPa) = 0.02793008
#
# Stress axis : x y z
#
# Youngs Moduli (GPa) = 53.69922 81.04428 65.92985
#
# Poissons Ratio (x) = 0.37192 0.16591
# Poissons Ratio (y) = 0.24643 0.13145
# Poissons Ratio (z) = 0.13513 0.16159
#
# Static dielectric constant tensor:
#      x y z
#    x 3.276300 0.000000 0.432150 
#    y 0.000000 3.565300 0.000000 
#    z 0.432150 0.000000 3.075690 
# 
# 
# High freq. dielectric constant tensor:
#      x y z
#    x 1.816680 0.000000 -0.012290 
#    y 0.000000 1.800410 0.000000 
#    z -0.012290 0.000000 1.816120 
# 
# From -- ./inp_files/22727.got.cif
#   From: 2010.06.25/outbox.cif.g09.slc.cpg/sg13_12_cif.got.tgz:22727.got - 2010.06.28 04:50:58.
