data_PCOD8119132
_publ_section_title
;
Structure prediction by ZEFSAII (Michael W. Deem and Ramdas Pophale) SiO2 
 PCOD8119132
Probable space group: P 2/C
;
_chemical_formula_sum "Si O2"
_cell_formula_units_Z 28
_cell_length_a 24.271596
_cell_length_b 8.461067
_cell_length_c 20.972818
_cell_angle_alpha 90.000000
_cell_angle_beta 159.605780
_cell_angle_gamma 90.000000
_cell_volume 1500.911171
_symmetry_space_group_name_H-M "P 2/C"
_symmetry_group_IT_number 13
_symmetry_cell_setting 'monoclinic'
loop_
_space_group_symop_operation_xyz
x,y,z
-x,y,1/2-z
-x,-y,-z
x,-y,1/2+z
loop_
_atom_site_type_symbol
_atom_site_label
_atom_site_fract_x
_atom_site_fract_y
_atom_site_fract_z
Si Si1 0.434402 0.290837 0.785614
Si Si2 0.338483 0.415578 0.810015
Si Si3 0.370382 0.430391 0.061003
Si Si4 0.168583 0.302878 0.397383
Si Si5 0.208701 0.784741 0.286889
Si Si6 0.097822 0.646677 0.582171
Si Si7 0.246463 0.854997 0.854397
O O1 0.340456 0.309623 0.749274
O O2 0.533493 0.449938 0.879632
O O3 0.307869 0.241536 0.594931
O O4 0.564364 0.153983 0.932016
O O5 0.282739 0.295877 0.804671
O O6 0.226464 0.567061 0.675715
O O7 0.500000 0.500000 0.000000
O O8 0.500000 0.359157 0.250000
O O9 0.223374 0.522517 0.934407
O O10 0.296703 0.284339 0.943673
O O11 0.158783 0.182961 0.326556
O O12 0.000000 0.310979 0.250000
O O13 0.219465 0.971771 0.298298
O O14 0.019406 0.758229 0.084638
O O15 0.182406 0.732406 0.732832
O O16 0.000000 0.500000 0.500000
#
# Coordination Sequence:
#
# PCOD8119132 Si02
#       7
#     4   4   4   4   4   4   4
#     4  10  20  37  61  86 114 154 199 241 285 355
#     4  11  19  37  62  89 115 149 206 240 283 350
#     4   9  19  38  57  82 110 149 201 239 284 348
#     4  10  22  37  62  83 109 155 206 248 280 347
#     4  11  23  36  60  86 121 157 182 249 310 349
#     4  10  21  37  61  83 115 154 194 242 288 349
#     4  11  22  40  55  85 125 155 192 235 313 364
#
# _framework density 18.655335000000001
#
# number of rings (size 3 to 8) (size 9 to 14) (size 15 to 20)
#    0.000    1.714    2.857    4.286    6.000    1.714 
#    0.000    0.714    0.000    0.000    0.000    0.000 
#    0.000    0.000    0.000    0.000    0.000    0.000 
#
# Total GULP energy -347017.848693 kJ/mol
# GULP energy per Si atom -12393.494596 kJ/mol
# Density = 1.861287 g / cm^3
# Si number density = 18.655335 Si / 1000 Ang^3
#
#
#
# Elastic Constant Matrix: (Units=GPa)
#
#
# Indices 1 2 3 4 5 6 
#
# 1 106.9615 32.9491 36.6724 0.0000 8.7354 0.0000
# 2 32.9491 81.9673 31.5779 0.0000 4.2554 0.0000
# 3 36.6724 31.5779 109.9573 0.0000 8.0752 0.0000
# 4 0.0000 0.0000 0.0000 26.0720 0.0000 -4.3215
# 5 8.7354 4.2554 8.0752 0.0000 35.4283 0.0000
# 6 0.0000 0.0000 0.0000 -4.3215 0.0000 19.2026
#
#
#
# Elastic Compliance Matrix: (Units=1/GPa)
#
#
# Indices 1 2 3 4 5 6 
#
# 1 0.011496 -0.003487 -0.002700 0.000000 -0.001800 0.000000
# 2 -0.003487 0.014796 -0.003070 0.000000 -0.000218 0.000000
# 3 -0.002700 -0.003070 0.010985 0.000000 -0.001469 0.000000
# 4 0.000000 0.000000 0.000000 0.039842 0.000000 0.008966
# 5 -0.001800 -0.000218 -0.001469 0.000000 0.029031 0.000000
# 6 0.000000 0.000000 0.000000 0.008966 0.000000 0.054094
#
#
# Mechanical properties :
#
#
# Convention : Reuss Voigt Hill
#
# Bulk Modulus (GPa) = 53.30218 55.69833 54.50026
# Shear Modulus (GPa) = 27.02510 29.31967 28.17238
#
# Velocity S-wave (km/s) = 3.81025 3.96871 3.89028
# Velocity P-wave (km/s) = 6.92758 7.13598 7.03255
#
# Compressibility (1/GPa) = 0.01876096
#
# Stress axis : x y z
#
# Youngs Moduli (GPa) = 86.98407 67.58627 91.03619
#
# Poissons Ratio (x) = 0.23571 0.24584
# Poissons Ratio (y) = 0.30336 0.27948
# Poissons Ratio (z) = 0.23490 0.20749
#
# Static dielectric constant tensor:
#      x y z
#    x 3.515300 0.000000 0.032440 
#    y 0.000000 3.211740 0.000000 
#    z 0.032440 0.000000 4.035110 
# 
# 
# High freq. dielectric constant tensor:
#      x y z
#    x 1.719850 0.000000 -0.004390 
#    y 0.000000 1.699290 0.000000 
#    z -0.004390 0.000000 1.748260 
# 
# From -- ./inp_files/82206.got.cif
#   From: 2010.06.25/outbox.cif.g09.slc.cpg/sg13_42_cif.got.tgz:82206.got - 2010.06.28 04:50:58.
