data_PCOD8119532
_publ_section_title
;
Structure prediction by ZEFSAII (Michael W. Deem and Ramdas Pophale) SiO2 
 PCOD8119532
Probable space group: P 2/C
;
_chemical_formula_sum "Si O2"
_cell_formula_units_Z 26
_cell_length_a 19.591615
_cell_length_b 8.923330
_cell_length_c 8.521758
_cell_angle_alpha 90.000000
_cell_angle_beta 129.459754
_cell_angle_gamma 90.000000
_cell_volume 1150.227472
_symmetry_space_group_name_H-M "P 2/C"
_symmetry_group_IT_number 13
_symmetry_cell_setting 'monoclinic'
loop_
_space_group_symop_operation_xyz
x,y,z
-x,y,1/2-z
-x,-y,-z
x,-y,1/2+z
loop_
_atom_site_type_symbol
_atom_site_label
_atom_site_fract_x
_atom_site_fract_y
_atom_site_fract_z
Si Si1 0.000000 0.795880 0.750000
Si Si2 0.951623 0.730783 0.010404
Si Si3 0.597121 0.099348 0.326051
Si Si4 0.756636 0.710728 0.137514
Si Si5 0.323183 0.142189 0.368032
Si Si6 0.778420 0.419637 0.333588
Si Si7 0.852884 0.977143 0.413358
O O1 0.909364 0.894420 0.631849
O O2 0.994229 0.700874 0.575626
O O3 0.000000 0.714046 0.250000
O O4 0.872578 0.612490 0.892790
O O5 0.917959 0.900242 0.935566
O O6 0.500000 0.115769 0.250000
O O7 0.657100 0.227092 0.492834
O O8 0.596705 0.123786 0.138794
O O9 0.641171 0.935770 0.423035
O O10 0.759236 0.595750 0.287034
O O11 0.826099 0.848012 0.249112
O O12 0.780619 0.615506 0.020179
O O13 0.297144 0.315235 0.360003
O O14 0.237029 0.060551 0.161234
#
# Coordination Sequence:
#
# PCOD8119532 Si02
#       7
#     2   4   4   4   4   4   4
#     4  12  24  34  68  92 122 168 222 260 338 356
#     4  11  24  42  61  93 127 163 222 284 316 374
#     4  10  20  39  64  96 126 154 204 262 317 383
#     4  10  23  42  61  89 123 171 208 256 323 385
#     4   9  21  36  64  91 124 161 201 259 319 373
#     4  10  23  41  62  83 127 167 212 255 318 385
#     4  10  22  38  63  90 122 162 214 265 316 378
#
# _framework density 22.604223999999999
#
# number of rings (size 3 to 8) (size 9 to 14) (size 15 to 20)
#    0.000    1.846    0.769    1.846   12.923    1.231 
#    1.385    5.385    0.000    0.000    0.000    0.000 
#    0.000    0.000    0.000    0.000    0.000    0.000 
#
# Total GULP energy -322116.056420 kJ/mol
# GULP energy per Si atom -12389.079093 kJ/mol
# Density = 2.255278 g / cm^3
# Si number density = 22.604224 Si / 1000 Ang^3
#
#
#
# Elastic Constant Matrix: (Units=GPa)
#
#
# Indices 1 2 3 4 5 6 
#
# 1 75.2477 -13.1426 14.2981 0.0000 -2.9489 0.0000
# 2 -13.1426 70.2480 13.7978 0.0000 -4.2003 0.0000
# 3 14.2981 13.7978 69.5158 0.0000 -9.9634 0.0000
# 4 0.0000 0.0000 0.0000 25.9026 0.0000 -0.6700
# 5 -2.9489 -4.2003 -9.9634 0.0000 34.1163 0.0000
# 6 0.0000 0.0000 0.0000 -0.6700 0.0000 11.6766
#
#
#
# Elastic Compliance Matrix: (Units=1/GPa)
#
#
# Indices 1 2 3 4 5 6 
#
# 1 0.014607 0.003479 -0.003603 0.000000 0.000639 0.000000
# 2 0.003479 0.015674 -0.003660 0.000000 0.001162 0.000000
# 3 -0.003603 -0.003660 0.016431 0.000000 0.004037 0.000000
# 4 0.000000 0.000000 0.000000 0.038664 0.000000 0.002219
# 5 0.000639 0.001162 0.004037 0.000000 0.030689 0.000000
# 6 0.000000 0.000000 0.000000 0.002219 0.000000 0.085769
#
#
# Mechanical properties :
#
#
# Convention : Reuss Voigt Hill
#
# Bulk Modulus (GPa) = 25.54732 27.21312 26.38022
# Shear Modulus (GPa) = 22.47691 27.67632 25.07662
#
# Velocity S-wave (km/s) = 3.15678 3.50292 3.33435
# Velocity P-wave (km/s) = 4.96121 5.33158 5.14972
#
# Compressibility (1/GPa) = 0.03914305
#
# Stress axis : x y z
#
# Youngs Moduli (GPa) = 68.46165 63.79798 60.85918
#
# Poissons Ratio (x) = -0.22193 0.21929
# Poissons Ratio (y) = -0.23816 0.22275
# Poissons Ratio (z) = 0.24669 0.23351
#
# Static dielectric constant tensor:
#      x y z
#    x 3.825550 0.000000 0.072010 
#    y 0.000000 4.101500 0.000000 
#    z 0.072010 0.000000 4.005070 
# 
# 
# High freq. dielectric constant tensor:
#      x y z
#    x 1.881370 0.000000 -0.004970 
#    y 0.000000 1.880130 0.000000 
#    z -0.004970 0.000000 1.883800 
# 
# From -- ./inp_files/23008.got.cif
#   From: 2010.06.25/outbox.cif.g09.slc.cpg/sg13_12_cif.got.tgz:23008.got - 2010.06.28 04:50:58.
