data_PCOD8119236
_publ_section_title
;
Structure prediction by ZEFSAII (Michael W. Deem and Ramdas Pophale) SiO2 
 PCOD8119236
Probable space group: P 2/C
;
_chemical_formula_sum "Si O2"
_cell_formula_units_Z 18
_cell_length_a 10.640093
_cell_length_b 9.952255
_cell_length_c 9.959432
_cell_angle_alpha 90.000000
_cell_angle_beta 106.203590
_cell_angle_gamma 90.000000
_cell_volume 1012.739284
_symmetry_space_group_name_H-M "P 2/C"
_symmetry_group_IT_number 13
_symmetry_cell_setting 'monoclinic'
loop_
_space_group_symop_operation_xyz
x,y,z
-x,y,1/2-z
-x,-y,-z
x,-y,1/2+z
loop_
_atom_site_type_symbol
_atom_site_label
_atom_site_fract_x
_atom_site_fract_y
_atom_site_fract_z
Si Si1 0.101614 0.369654 0.666468
Si Si2 0.500000 0.998053 0.750000
Si Si3 0.743138 0.123822 0.721612
Si Si4 0.242120 0.098719 0.077724
Si Si5 0.071318 0.671235 0.639255
O O1 0.229950 0.278280 0.729246
O O2 0.137816 0.526592 0.689814
O O3 0.000000 0.326137 0.750000
O O4 0.042189 0.340233 0.503947
O O5 0.401179 0.902836 0.635967
O O6 0.586844 0.094948 0.679174
O O7 0.798595 0.089582 0.590150
O O8 0.815254 0.027646 0.853704
O O9 0.188769 0.234580 0.127314
O O10 0.000000 0.728600 0.750000
#
# Coordination Sequence:
#
# PCOD8119236 Si02
#       5
#     4   2   4   4   4
#     4  10  20  38  57  81 116 146 180 230 284 334
#     4   8  22  36  58  82 116 142 192 232 272 322
#     4  10  21  37  60  81 114 148 185 233 279 323
#     4  10  21  38  58  81 116 148 185 232 278 323
#     4  10  22  36  57  84 114 147 182 226 282 339
#
# _framework density 17.773578000000001
#
# number of rings (size 3 to 8) (size 9 to 14) (size 15 to 20)
#    1.333    0.889    2.222    0.667    3.111    1.778 
#    0.000    1.111    0.000    2.667    0.000    0.000 
#    0.000    0.000    0.000    0.000    0.000    0.000 
#
# Total GULP energy -223031.399526 kJ/mol
# GULP energy per Si atom -12390.633307 kJ/mol
# Density = 1.773312 g / cm^3
# Si number density = 17.773578 Si / 1000 Ang^3
#
#
#
# Elastic Constant Matrix: (Units=GPa)
#
#
# Indices 1 2 3 4 5 6 
#
# 1 76.5534 56.9800 27.8126 0.0000 -11.1623 0.0000
# 2 56.9800 109.1195 43.5859 0.0000 -10.1187 0.0000
# 3 27.8126 43.5859 128.6470 0.0000 -21.2794 0.0000
# 4 0.0000 0.0000 0.0000 22.0350 0.0000 -6.6480
# 5 -11.1623 -10.1187 -21.2794 0.0000 23.1507 0.0000
# 6 0.0000 0.0000 0.0000 -6.6480 0.0000 23.9866
#
#
#
# Elastic Compliance Matrix: (Units=1/GPa)
#
#
# Indices 1 2 3 4 5 6 
#
# 1 0.022104 -0.010963 -0.000111 0.000000 0.005764 0.000000
# 2 -0.010963 0.016085 -0.003291 0.000000 -0.001281 0.000000
# 3 -0.000111 -0.003291 0.010219 0.000000 0.007901 0.000000
# 4 0.000000 0.000000 0.000000 0.049523 0.000000 0.013726
# 5 0.005764 -0.001281 0.007901 0.000000 0.052677 0.000000
# 6 0.000000 0.000000 0.000000 0.013726 0.000000 0.045494
#
#
# Mechanical properties :
#
#
# Convention : Reuss Voigt Hill
#
# Bulk Modulus (GPa) = 50.82130 63.45299 57.13714
# Shear Modulus (GPa) = 21.60834 26.23054 23.91944
#
# Velocity S-wave (km/s) = 3.49055 3.84580 3.67248
# Velocity P-wave (km/s) = 6.70083 7.44973 7.08518
#
# Compressibility (1/GPa) = 0.01967679
#
# Stress axis : x y z
#
# Youngs Moduli (GPa) = 45.24141 62.16985 97.85487
#
# Poissons Ratio (x) = 0.68159 0.01085
# Poissons Ratio (y) = 0.49600 0.32207
# Poissons Ratio (z) = 0.00502 0.20462
#
# Static dielectric constant tensor:
#      x y z
#    x 2.962840 0.000000 -0.106970 
#    y 0.000000 3.260600 0.000000 
#    z -0.106970 0.000000 3.391860 
# 
# 
# High freq. dielectric constant tensor:
#      x y z
#    x 1.655840 0.000000 -0.012700 
#    y 0.000000 1.681070 0.000000 
#    z -0.012700 0.000000 1.703220 
# 
# From -- ./inp_files/14524.got.cif
#   From: 2010.06.25/outbox.cif.g09.slc.cpg/sg13_8_cif.got.tgz:14524.got - 2010.06.28 04:50:58.
