data_PCOD8119448
_publ_section_title
;
Structure prediction by ZEFSAII (Michael W. Deem and Ramdas Pophale) SiO2 
 PCOD8119448
Probable space group: P 2/C
;
_chemical_formula_sum "Si O2"
_cell_formula_units_Z 32
_cell_length_a 14.645474
_cell_length_b 11.774755
_cell_length_c 14.725030
_cell_angle_alpha 90.000000
_cell_angle_beta 143.446993
_cell_angle_gamma 90.000000
_cell_volume 1512.312546
_symmetry_space_group_name_H-M "P 2/C"
_symmetry_group_IT_number 13
_symmetry_cell_setting 'monoclinic'
loop_
_space_group_symop_operation_xyz
x,y,z
-x,y,1/2-z
-x,-y,-z
x,-y,1/2+z
loop_
_atom_site_type_symbol
_atom_site_label
_atom_site_fract_x
_atom_site_fract_y
_atom_site_fract_z
Si Si1 0.179617 0.498795 0.406689
Si Si2 0.324956 0.482253 0.335448
Si Si3 0.811430 0.653339 0.414306
Si Si4 0.178682 0.031092 0.874851
Si Si5 0.854323 0.718413 0.872828
Si Si6 0.843473 0.259385 0.571582
Si Si7 0.674572 0.891509 0.360697
Si Si8 0.827849 0.971481 0.831030
O O1 0.245791 0.452420 0.366837
O O2 0.228898 0.418757 0.528799
O O3 0.248768 0.624733 0.481064
O O4 0.000000 0.504986 0.250000
O O5 0.500000 0.500000 0.500000
O O6 0.258712 0.592886 0.231075
O O7 0.287988 0.369543 0.246939
O O8 0.736205 0.775971 0.365929
O O9 0.994430 0.662921 0.550756
O O10 0.252632 0.147564 0.975295
O O11 0.000000 0.031168 0.750000
O O12 0.215046 0.032549 0.797229
O O13 0.241976 0.921494 0.978235
O O14 0.811486 0.838363 0.793586
O O15 0.890672 0.747234 0.005120
O O16 0.000000 0.259962 0.750000
O O17 0.500000 0.880258 0.250000
O O18 0.706748 0.989327 0.311198
O O19 0.000000 0.000000 0.000000
#
# Coordination Sequence:
#
# PCOD8119448 Si02
#       8
#     4   4   4   4   4   4   4   4
#     4  11  23  42  70 101 134 183 234 282 346 420
#     4  12  29  46  66 106 147 183 235 296 367 420
#     4  12  25  45  75  99 142 186 243 292 349 433
#     4  11  22  42  72 104 138 185 241 292 349 426
#     4  12  22  46  76 103 137 188 244 297 343 430
#     4  10  20  38  69 104 133 172 235 295 343 402
#     4  12  29  46  68 107 149 187 236 304 368 424
#     4  12  23  45  76 108 140 189 247 295 353 432
#
# _framework density 21.159645999999999
#
# number of rings (size 3 to 8) (size 9 to 14) (size 15 to 20)
#    0.000    0.500    6.250    2.625    5.250    1.000 
#    2.250    0.000    0.000    0.000    0.000    0.000 
#    0.000    0.000    0.000    0.000    0.000    0.000 
#
# Total GULP energy -396759.688915 kJ/mol
# GULP energy per Si atom -12398.740279 kJ/mol
# Density = 2.111149 g / cm^3
# Si number density = 21.159646 Si / 1000 Ang^3
#
#
#
# Elastic Constant Matrix: (Units=GPa)
#
#
# Indices 1 2 3 4 5 6 
#
# 1 102.3993 24.7686 56.7028 0.0000 -19.4770 0.0000
# 2 24.7686 140.2573 50.5702 0.0000 0.7161 0.0000
# 3 56.7028 50.5702 90.3782 0.0000 -6.1828 0.0000
# 4 0.0000 0.0000 0.0000 35.0765 0.0000 -8.8813
# 5 -19.4770 0.7161 -6.1828 0.0000 43.9061 0.0000
# 6 0.0000 0.0000 0.0000 -8.8813 0.0000 28.2708
#
#
#
# Elastic Compliance Matrix: (Units=1/GPa)
#
#
# Indices 1 2 3 4 5 6 
#
# 1 0.016404 0.000803 -0.010344 0.000000 0.005807 0.000000
# 2 0.000803 0.009003 -0.005581 0.000000 -0.000577 0.000000
# 3 -0.010344 -0.005581 0.020567 0.000000 -0.001601 0.000000
# 4 0.000000 0.000000 0.000000 0.030973 0.000000 0.009730
# 5 0.005807 -0.000577 -0.001601 0.000000 0.025136 0.000000
# 6 0.000000 0.000000 0.000000 0.009730 0.000000 0.038429
#
#
# Mechanical properties :
#
#
# Convention : Reuss Voigt Hill
#
# Bulk Modulus (GPa) = 63.56805 66.34645 64.95725
# Shear Modulus (GPa) = 28.40939 34.85024 31.62981
#
# Velocity S-wave (km/s) = 3.66815 4.06275 3.87048
# Velocity P-wave (km/s) = 6.93165 7.30966 7.12316
#
# Compressibility (1/GPa) = 0.01573117
#
# Stress axis : x y z
#
# Youngs Moduli (GPa) = 60.96177 111.07330 48.62095
#
# Poissons Ratio (x) = -0.08919 0.50292
# Poissons Ratio (y) = -0.04895 0.27134
# Poissons Ratio (z) = 0.63057 0.61988
#
# Static dielectric constant tensor:
#      x y z
#    x 3.766080 0.000000 -0.312880 
#    y 0.000000 4.724700 0.000000 
#    z -0.312880 0.000000 3.609890 
# 
# 
# High freq. dielectric constant tensor:
#      x y z
#    x 1.826630 0.000000 -0.029600 
#    y 0.000000 1.849360 0.000000 
#    z -0.029600 0.000000 1.812950 
# 
# From -- ./inp_files/53723.got.cif
#   From: 2010.06.25/outbox.cif.g09.slc.cpg/sg13_27_cif.got.tgz:53723.got - 2010.06.28 04:50:58.
