data_PCOD8119291
_publ_section_title
;
Structure prediction by ZEFSAII (Michael W. Deem and Ramdas Pophale) SiO2 
 PCOD8119291
Probable space group: P 2/C
;
_chemical_formula_sum "Si O2"
_cell_formula_units_Z 28
_cell_length_a 32.572965
_cell_length_b 8.559735
_cell_length_c 32.192104
_cell_angle_alpha 90.000000
_cell_angle_beta 171.229729
_cell_angle_gamma 90.000000
_cell_volume 1368.548130
_symmetry_space_group_name_H-M "P 2/C"
_symmetry_group_IT_number 13
_symmetry_cell_setting 'monoclinic'
loop_
_space_group_symop_operation_xyz
x,y,z
-x,y,1/2-z
-x,-y,-z
x,-y,1/2+z
loop_
_atom_site_type_symbol
_atom_site_label
_atom_site_fract_x
_atom_site_fract_y
_atom_site_fract_z
Si Si1 0.154682 0.578828 0.030489
Si Si2 0.500000 0.355413 0.250000
Si Si3 0.347028 0.573395 0.509177
Si Si4 0.847013 0.926607 0.184865
Si Si5 0.011775 0.358163 0.480350
Si Si6 0.000000 0.144570 0.750000
Si Si7 0.654706 0.921176 0.278898
Si Si8 0.511784 0.141837 0.543209
O O1 0.396116 0.457141 0.263351
O O2 0.249990 0.750002 0.112635
O O3 0.894501 0.542405 0.742945
O O4 0.075347 0.568336 0.999210
O O5 0.577544 0.460143 0.367307
O O6 0.750000 0.249991 0.485591
O O7 0.250003 0.750000 0.405182
O O8 0.922446 0.960154 0.212209
O O9 0.103857 0.957138 0.471096
O O10 0.605476 0.042401 0.953920
O O11 0.000000 0.500000 0.500000
O O12 0.250005 0.250006 0.734833
O O13 0.750005 0.249994 0.216849
O O14 0.575358 0.931663 0.151494
O O15 0.500000 0.000000 0.500000
#
# Coordination Sequence:
#
# PCOD8119291 Si02
#       8
#     4   2   4   4   4   2   4   4
#     4  11  23  41  61  89 127 160 191 247 311 356
#     4  10  20  38  60  90 124 154 198 260 304 336
#     4  11  22  39  65  91 116 160 209 248 290 356
#     4  11  22  39  65  91 116 160 209 248 290 356
#     4  11  24  43  64  90 123 161 199 248 302 356
#     4  10  20  38  60  90 124 154 198 260 304 336
#     4  11  23  41  61  89 127 160 191 247 311 356
#     4  11  24  43  64  90 123 161 199 248 302 356
#
# _framework density 20.459638999999999
#
# number of rings (size 3 to 8) (size 9 to 14) (size 15 to 20)
#    0.000    1.143    0.000    9.429    0.000    3.429 
#    0.000    2.857    0.000    3.429    0.000    0.000 
#    0.000    0.000    0.000    0.000    0.000    0.000 
#
# Total GULP energy -347314.253653 kJ/mol
# GULP energy per Si atom -12404.080488 kJ/mol
# Density = 2.041307 g / cm^3
# Si number density = 20.459639 Si / 1000 Ang^3
#
#
#
# Elastic Constant Matrix: (Units=GPa)
#
#
# Indices 1 2 3 4 5 6 
#
# 1 167.5153 104.8288 93.6581 0.0000 2.4370 0.0000
# 2 104.8288 100.0550 64.4477 0.0000 -5.3001 0.0000
# 3 93.6581 64.4477 181.6498 0.0000 -0.5947 0.0000
# 4 0.0000 0.0000 0.0000 58.8173 0.0000 -2.2085
# 5 2.4370 -5.3001 -0.5947 0.0000 45.8269 0.0000
# 6 0.0000 0.0000 0.0000 -2.2085 0.0000 75.6325
#
#
#
# Elastic Compliance Matrix: (Units=1/GPa)
#
#
# Indices 1 2 3 4 5 6 
#
# 1 0.019385 -0.018191 -0.003551 0.000000 -0.003181 0.000000
# 2 -0.018191 0.030121 -0.001293 0.000000 0.004434 0.000000
# 3 -0.003551 -0.001293 0.007795 0.000000 0.000140 0.000000
# 4 0.000000 0.000000 0.000000 0.017020 0.000000 0.000497
# 5 -0.003181 0.004434 0.000140 0.000000 0.022505 0.000000
# 6 0.000000 0.000000 0.000000 0.000497 0.000000 0.013236
#
#
# Mechanical properties :
#
#
# Convention : Reuss Voigt Hill
#
# Bulk Modulus (GPa) = 89.03909 108.34328 98.69118
# Shear Modulus (GPa) = 31.27388 48.47438 39.87413
#
# Velocity S-wave (km/s) = 3.91393 4.87279 4.41944
# Velocity P-wave (km/s) = 8.00244 9.20480 8.62460
#
# Compressibility (1/GPa) = 0.01123102
#
# Stress axis : x y z
#
# Youngs Moduli (GPa) = 51.58589 33.19922 128.28179
#
# Poissons Ratio (x) = 0.60393 0.45557
# Poissons Ratio (y) = 0.93840 0.16586
# Poissons Ratio (z) = 0.18320 0.04292
#
# Static dielectric constant tensor:
#      x y z
#    x 3.778000 0.000000 0.037550 
#    y 0.000000 4.058570 0.000000 
#    z 0.037550 0.000000 4.064150 
# 
# 
# High freq. dielectric constant tensor:
#      x y z
#    x 1.805150 0.000000 0.003460 
#    y 0.000000 1.791110 0.000000 
#    z 0.003460 0.000000 1.831560 
# 
# From -- ./inp_files/98018.got.cif
#   From: 2010.06.25/outbox.cif.g09.slc.cpg/sg13_50_cif.got.tgz:98018.got - 2010.06.28 04:50:58.
