data_PCOD8119978
_publ_section_title
;
Structure prediction by ZEFSAII (Michael W. Deem and Ramdas Pophale) SiO2 
 PCOD8119978
Probable space group: P 2/C
;
_chemical_formula_sum "Si O2"
_cell_formula_units_Z 30
_cell_length_a 14.883321
_cell_length_b 12.070551
_cell_length_c 17.836961
_cell_angle_alpha 90.000000
_cell_angle_beta 153.059445
_cell_angle_gamma 90.000000
_cell_volume 1451.807757
_symmetry_space_group_name_H-M "P 2/C"
_symmetry_group_IT_number 13
_symmetry_cell_setting 'monoclinic'
loop_
_space_group_symop_operation_xyz
x,y,z
-x,y,1/2-z
-x,-y,-z
x,-y,1/2+z
loop_
_atom_site_type_symbol
_atom_site_label
_atom_site_fract_x
_atom_site_fract_y
_atom_site_fract_z
Si Si1 0.334928 0.495412 0.484279
Si Si2 0.510197 0.293413 0.175511
Si Si3 0.907142 0.150483 0.308158
Si Si4 0.958716 0.087629 0.806038
Si Si5 0.539789 0.829022 0.002009
Si Si6 0.000000 0.326246 0.250000
Si Si7 0.942152 0.251831 0.491746
Si Si8 0.304849 0.612523 0.311937
O O1 0.359421 0.602793 0.555602
O O2 0.187140 0.404834 0.408994
O O3 0.248855 0.530750 0.338859
O O4 0.558271 0.449422 0.646030
O O5 0.500000 0.244478 0.250000
O O6 0.447587 0.190739 0.077574
O O7 0.740604 0.321242 0.328703
O O8 0.671590 0.122572 0.130104
O O9 0.983504 0.178745 0.448363
O O10 0.959713 0.251161 0.292349
O O11 0.023193 0.039622 0.368117
O O12 0.726449 0.093002 0.658207
O O13 0.000000 0.120979 0.750000
O O14 0.073902 0.172520 0.946619
O O15 0.559315 0.710689 0.055854
O O16 0.110169 0.344029 0.626144
#
# Coordination Sequence:
#
# PCOD8119978 Si02
#       8
#     4   4   4   4   4   2   4   4
#     4  10  22  37  61  84 121 163 205 248 301 371
#     4  10  21  36  55  91 121 153 200 256 309 361
#     4  11  22  41  61  90 123 169 204 255 308 370
#     4  11  21  38  66  93 119 160 209 255 312 375
#     4   9  19  38  61  84 121 160 203 252 306 370
#     4  12  24  40  64  88 126 164 218 252 296 368
#     4  10  23  38  62  89 126 157 202 260 313 358
#     4   9  19  39  59  85 116 160 205 243 307 368
#
# _framework density 20.663893999999999
#
# number of rings (size 3 to 8) (size 9 to 14) (size 15 to 20)
#    0.000    1.867    2.000    1.600    3.733    1.600 
#    2.400    0.000    0.000    3.200    0.000    0.000 
#    0.000    0.000    0.000    0.000    0.000    0.000 
#
# Total GULP energy -371881.794846 kJ/mol
# GULP energy per Si atom -12396.059828 kJ/mol
# Density = 2.061686 g / cm^3
# Si number density = 20.663894 Si / 1000 Ang^3
#
#
#
# Elastic Constant Matrix: (Units=GPa)
#
#
# Indices 1 2 3 4 5 6 
#
# 1 77.4131 21.8990 12.0257 0.0000 -13.4900 0.0000
# 2 21.8990 86.5836 19.7458 0.0000 5.8343 0.0000
# 3 12.0257 19.7458 80.8149 0.0000 2.6949 0.0000
# 4 0.0000 0.0000 0.0000 18.2989 0.0000 3.4465
# 5 -13.4900 5.8343 2.6949 0.0000 26.3479 0.0000
# 6 0.0000 0.0000 0.0000 3.4465 0.0000 21.2244
#
#
#
# Elastic Compliance Matrix: (Units=1/GPa)
#
#
# Indices 1 2 3 4 5 6 
#
# 1 0.016015 -0.004304 -0.001642 0.000000 0.009320 0.000000
# 2 -0.004304 0.013542 -0.002503 0.000000 -0.004946 0.000000
# 3 -0.001642 -0.002503 0.013285 0.000000 -0.001645 0.000000
# 4 0.000000 0.000000 0.000000 0.056372 0.000000 -0.009154
# 5 0.009320 -0.004946 -0.001645 0.000000 0.043989 0.000000
# 6 0.000000 0.000000 0.000000 -0.009154 0.000000 0.048602
#
#
# Mechanical properties :
#
#
# Convention : Reuss Voigt Hill
#
# Bulk Modulus (GPa) = 38.54693 39.12805 38.83749
# Shear Modulus (GPa) = 23.00416 25.91697 24.46056
#
# Velocity S-wave (km/s) = 3.34017 3.54533 3.44428
# Velocity P-wave (km/s) = 5.79399 5.97794 5.88668
#
# Compressibility (1/GPa) = 0.02594241
#
# Stress axis : x y z
#
# Youngs Moduli (GPa) = 62.44340 73.84256 75.27355
#
# Poissons Ratio (x) = 0.31781 0.12362
# Poissons Ratio (y) = 0.26875 0.18844
# Poissons Ratio (z) = 0.10255 0.18486
#
# Static dielectric constant tensor:
#      x y z
#    x 3.640020 0.000000 -0.042840 
#    y 0.000000 3.606640 0.000000 
#    z -0.042840 0.000000 3.764140 
# 
# 
# High freq. dielectric constant tensor:
#      x y z
#    x 1.801670 0.000000 0.000510 
#    y 0.000000 1.806940 0.000000 
#    z 0.000510 0.000000 1.804080 
# 
# From -- ./inp_files/64443.got.cif
#   From: 2010.06.25/outbox.cif.g09.slc.cpg/sg13_33_cif.got.tgz:64443.got - 2010.06.28 04:50:58.
