data_PCOD8119358
_publ_section_title
;
Structure prediction by ZEFSAII (Michael W. Deem and Ramdas Pophale) SiO2 
 PCOD8119358
Probable space group: P 2/C
;
_chemical_formula_sum "Si O2"
_cell_formula_units_Z 24
_cell_length_a 13.476263
_cell_length_b 6.433010
_cell_length_c 12.935408
_cell_angle_alpha 90.000000
_cell_angle_beta 92.090965
_cell_angle_gamma 90.000000
_cell_volume 1120.661801
_symmetry_space_group_name_H-M "P 2/C"
_symmetry_group_IT_number 13
_symmetry_cell_setting 'monoclinic'
loop_
_space_group_symop_operation_xyz
x,y,z
-x,y,1/2-z
-x,-y,-z
x,-y,1/2+z
loop_
_atom_site_type_symbol
_atom_site_label
_atom_site_fract_x
_atom_site_fract_y
_atom_site_fract_z
Si Si1 0.153537 0.454731 0.610931
Si Si2 0.338000 0.791831 0.104027
Si Si3 0.914417 0.125763 0.052916
Si Si4 0.000000 0.650101 0.750000
Si Si5 0.500000 0.392651 0.750000
Si Si6 0.602009 0.491729 0.064581
Si Si7 0.745541 0.171603 0.492028
O O1 0.247306 0.324575 0.658855
O O2 0.103587 0.331062 0.515267
O O3 0.185282 0.679866 0.572149
O O4 0.077804 0.492557 0.701044
O O5 0.439189 0.756130 0.170316
O O6 0.319109 0.036504 0.092267
O O7 0.339212 0.698540 0.985766
O O8 0.945766 0.197986 0.167599
O O9 0.815976 0.982573 0.060667
O O10 0.000000 0.000000 0.000000
O O11 0.425554 0.537307 0.815057
O O12 0.500000 0.500000 0.000000
O O13 0.667928 0.701777 0.059579
#
# Coordination Sequence:
#
# PCOD8119358 Si02
#       7
#     4   4   4   2   2   4   4
#     4  10  23  43  62  94 135 170 220 279 328 398
#     4   9  21  40  63  89 127 172 211 272 331 391
#     4  11  24  44  64  97 134 172 226 273 330 400
#     4  12  24  40  70  98 128 190 220 270 348 390
#     4  10  20  38  62  96 122 164 222 268 326 404
#     4   9  20  39  61  86 125 167 209 268 329 382
#     4  10  21  42  63  89 139 169 213 278 333 385
#
# _framework density 21.415918000000001
#
# number of rings (size 3 to 8) (size 9 to 14) (size 15 to 20)
#    0.000    2.000    1.667    0.500    0.000    8.667 
#    0.000   11.667    0.000    0.000    0.000    0.000 
#    0.000    0.000    0.000    0.000    0.000    0.000 
#
# Total GULP energy -297504.336403 kJ/mol
# GULP energy per Si atom -12396.014017 kJ/mol
# Density = 2.136717 g / cm^3
# Si number density = 21.415918 Si / 1000 Ang^3
#
#
#
# Elastic Constant Matrix: (Units=GPa)
#
#
# Indices 1 2 3 4 5 6 
#
# 1 120.0812 50.4289 59.6772 0.0000 -14.1126 0.0000
# 2 50.4289 121.1169 54.0123 0.0000 -6.9046 0.0000
# 3 59.6772 54.0123 126.4535 0.0000 -11.7371 0.0000
# 4 0.0000 0.0000 0.0000 11.2418 0.0000 6.3730
# 5 -14.1126 -6.9046 -11.7371 0.0000 46.7873 0.0000
# 6 0.0000 0.0000 0.0000 6.3730 0.0000 32.8051
#
#
#
# Elastic Compliance Matrix: (Units=1/GPa)
#
#
# Indices 1 2 3 4 5 6 
#
# 1 0.011885 -0.002982 -0.004139 0.000000 0.002106 0.000000
# 2 -0.002982 0.010956 -0.003282 0.000000 -0.000106 0.000000
# 3 -0.004139 -0.003282 0.011367 0.000000 0.001119 0.000000
# 4 0.000000 0.000000 0.000000 0.099963 0.000000 -0.019420
# 5 0.002106 -0.000106 0.001119 0.000000 0.022274 0.000000
# 6 0.000000 0.000000 0.000000 -0.019420 0.000000 0.034256
#
#
# Mechanical properties :
#
#
# Convention : Reuss Voigt Hill
#
# Bulk Modulus (GPa) = 74.62490 77.32094 75.97292
# Shear Modulus (GPa) = 23.15090 31.73571 27.44330
#
# Velocity S-wave (km/s) = 3.29144 3.85369 3.58361
# Velocity P-wave (km/s) = 7.02609 7.48225 7.25775
#
# Compressibility (1/GPa) = 0.01340035
#
# Stress axis : x y z
#
# Youngs Moduli (GPa) = 84.14012 91.27596 87.97213
#
# Poissons Ratio (x) = 0.27222 0.36416
# Poissons Ratio (y) = 0.25094 0.28872
# Poissons Ratio (z) = 0.34830 0.29956
#
# Static dielectric constant tensor:
#      x y z
#    x 4.276810 0.000000 -0.212980 
#    y 0.000000 3.887800 0.000000 
#    z -0.212980 0.000000 3.972930 
# 
# 
# High freq. dielectric constant tensor:
#      x y z
#    x 1.867090 0.000000 -0.005670 
#    y 0.000000 1.834870 0.000000 
#    z -0.005670 0.000000 1.818220 
# 
# From -- ./inp_files/51904.got.cif
#   From: 2010.06.25/outbox.cif.g09.slc.cpg/sg13_26_cif.got.tgz:51904.got - 2010.06.28 04:50:58.
