data_PCOD8119529
_publ_section_title
;
Structure prediction by ZEFSAII (Michael W. Deem and Ramdas Pophale) SiO2 
 PCOD8119529
Probable space group: P 2/C
;
_chemical_formula_sum "Si O2"
_cell_formula_units_Z 32
_cell_length_a 27.868007
_cell_length_b 9.100061
_cell_length_c 10.230985
_cell_angle_alpha 90.000000
_cell_angle_beta 142.035754
_cell_angle_gamma 90.000000
_cell_volume 1596.108977
_symmetry_space_group_name_H-M "P 2/C"
_symmetry_group_IT_number 13
_symmetry_cell_setting 'monoclinic'
loop_
_space_group_symop_operation_xyz
x,y,z
-x,y,1/2-z
-x,-y,-z
x,-y,1/2+z
loop_
_atom_site_type_symbol
_atom_site_label
_atom_site_fract_x
_atom_site_fract_y
_atom_site_fract_z
Si Si1 0.413254 0.344693 0.571684
Si Si2 0.707547 0.581980 0.263404
Si Si3 0.349066 0.183605 0.671716
Si Si4 0.337055 0.875128 0.733913
Si Si5 0.849919 0.452489 0.701380
Si Si6 0.783623 0.782187 0.221730
Si Si7 0.910585 0.648267 0.066507
Si Si8 0.786623 0.899000 0.800934
O O1 0.500000 0.412789 0.750000
O O2 0.347906 0.471481 0.436591
O O3 0.407170 0.242407 0.686112
O O4 0.401001 0.241299 0.419177
O O5 0.652346 0.697588 0.216546
O O6 0.759401 0.493457 0.479640
O O7 0.769121 0.662167 0.302402
O O8 0.261928 0.155498 0.429257
O O9 0.379945 0.030605 0.799224
O O10 0.300624 0.816558 0.521476
O O11 0.267646 0.892673 0.689030
O O12 0.846191 0.288934 0.756313
O O13 0.898103 0.451586 0.669302
O O14 0.888149 0.564482 0.885501
O O15 0.818410 0.934711 0.351769
O O16 0.000000 0.695240 0.250000
O O17 0.860588 0.795169 0.976234
#
# Coordination Sequence:
#
# PCOD8119529 Si02
#       8
#     4   4   4   4   4   4   4   4
#     4  11  25  40  58  93 130 162 201 256 322 377
#     4  12  21  39  66  94 121 162 215 260 310 367
#     4  10  21  39  64  88 116 161 211 257 303 364
#     4  10  20  40  64  88 119 160 215 261 304 368
#     4  12  22  41  66  95 126 168 220 257 305 381
#     4  11  21  36  68  94 114 157 222 266 301 358
#     4  12  25  42  63  96 135 169 201 260 329 379
#     4  10  20  39  64  92 116 159 213 261 301 367
#
# _framework density 20.048756999999998
#
# number of rings (size 3 to 8) (size 9 to 14) (size 15 to 20)
#    0.000    1.000    6.250    1.875    0.000    1.000 
#    0.000    1.875    0.000    0.000    0.000    0.000 
#    0.000    0.000    0.000    0.000    0.000    0.000 
#
# Total GULP energy -396857.773541 kJ/mol
# GULP energy per Si atom -12401.805423 kJ/mol
# Density = 2.000312 g / cm^3
# Si number density = 20.048757 Si / 1000 Ang^3
#
#
#
# Elastic Constant Matrix: (Units=GPa)
#
#
# Indices 1 2 3 4 5 6 
#
# 1 74.9020 36.1298 35.2049 0.0000 -6.7778 0.0000
# 2 36.1298 113.7334 32.6069 0.0000 -3.8430 0.0000
# 3 35.2049 32.6069 71.1430 0.0000 4.2526 0.0000
# 4 0.0000 0.0000 0.0000 22.6453 0.0000 -7.1966
# 5 -6.7778 -3.8430 4.2526 0.0000 25.9860 0.0000
# 6 0.0000 0.0000 0.0000 -7.1966 0.0000 36.5772
#
#
#
# Elastic Compliance Matrix: (Units=1/GPa)
#
#
# Indices 1 2 3 4 5 6 
#
# 1 0.019572 -0.003613 -0.008385 0.000000 0.005943 0.000000
# 2 -0.003613 0.010925 -0.003292 0.000000 0.001212 0.000000
# 3 -0.008385 -0.003292 0.020070 0.000000 -0.005958 0.000000
# 4 0.000000 0.000000 0.000000 0.047105 0.000000 0.009268
# 5 0.005943 0.001212 -0.005958 0.000000 0.041187 0.000000
# 6 0.000000 0.000000 0.000000 0.009268 0.000000 0.029163
#
#
# Mechanical properties :
#
#
# Convention : Reuss Voigt Hill
#
# Bulk Modulus (GPa) = 50.02835 51.96240 50.99538
# Shear Modulus (GPa) = 24.35903 27.43081 25.89492
#
# Velocity S-wave (km/s) = 3.48945 3.70294 3.59778
# Velocity P-wave (km/s) = 6.42204 6.65257 6.53832
#
# Compressibility (1/GPa) = 0.01998867
#
# Stress axis : x y z
#
# Youngs Moduli (GPa) = 51.09320 91.53397 49.82520
#
# Poissons Ratio (x) = 0.33070 0.41776
# Poissons Ratio (y) = 0.18459 0.16402
# Poissons Ratio (z) = 0.42839 0.30131
#
# Static dielectric constant tensor:
#      x y z
#    x 3.619820 0.000000 -0.314670 
#    y 0.000000 3.816770 0.000000 
#    z -0.314670 0.000000 3.405060 
# 
# 
# High freq. dielectric constant tensor:
#      x y z
#    x 1.781420 0.000000 -0.026330 
#    y 0.000000 1.794920 0.000000 
#    z -0.026330 0.000000 1.750850 
# 
# From -- ./inp_files/42783.got.cif
#   From: 2010.06.25/outbox.cif.g09.slc.cpg/sg13_22_cif.got.tgz:42783.got - 2010.06.28 04:50:58.
