data_PCOD8119223
_publ_section_title
;
Structure prediction by ZEFSAII (Michael W. Deem and Ramdas Pophale) SiO2 
 PCOD8119223
Probable space group: P 2/C
;
_chemical_formula_sum "Si O2"
_cell_formula_units_Z 24
_cell_length_a 14.393588
_cell_length_b 12.171600
_cell_length_c 15.819121
_cell_angle_alpha 90.000000
_cell_angle_beta 157.741372
_cell_angle_gamma 90.000000
_cell_volume 1049.772724
_symmetry_space_group_name_H-M "P 2/C"
_symmetry_group_IT_number 13
_symmetry_cell_setting 'monoclinic'
loop_
_space_group_symop_operation_xyz
x,y,z
-x,y,1/2-z
-x,-y,-z
x,-y,1/2+z
loop_
_atom_site_type_symbol
_atom_site_label
_atom_site_fract_x
_atom_site_fract_y
_atom_site_fract_z
Si Si1 0.720901 0.102799 0.872591
Si Si2 0.000000 0.021824 0.250000
Si Si3 0.476230 0.898657 0.600220
Si Si4 0.275739 0.581116 0.810219
Si Si5 0.054963 0.394043 0.941903
Si Si6 0.500000 0.712508 0.750000
Si Si7 0.372150 0.239432 0.861653
O O1 0.500000 0.127256 0.750000
O O2 0.739546 0.203296 0.822603
O O3 0.689529 0.988467 0.793986
O O4 0.967279 0.095812 0.137476
O O5 0.766230 0.945022 0.060516
O O6 0.539957 0.785152 0.700311
O O7 0.441192 0.870974 0.471982
O O8 0.201365 0.608251 0.652535
O O9 0.048425 0.517435 0.664530
O O10 0.500000 0.500000 0.000000
O O11 0.374968 0.691567 0.939851
O O12 0.252276 0.362156 0.035029
O O13 0.831296 0.307334 0.757749
#
# Coordination Sequence:
#
# PCOD8119223 Si02
#       7
#     4   2   4   4   4   2   4
#     4  10  23  40  60  89 136 177 221 267 312 394
#     4  10  20  38  54  86 142 174 218 272 312 372
#     4  11  21  37  60  98 134 167 215 273 317 399
#     4   9  20  42  64  90 126 168 208 278 327 389
#     4  10  22  38  67  95 131 165 214 279 333 396
#     4  12  20  40  64 102 132 168 216 272 348 370
#     4  11  22  38  68  94 129 175 220 267 338 388
#
# _framework density 22.862092000000001
#
# number of rings (size 3 to 8) (size 9 to 14) (size 15 to 20)
#    0.000    1.667    4.167    1.500    0.000    3.333 
#    0.000    0.000   20.167    0.000    0.000    0.000 
#    0.000    0.000    0.000    0.000    0.000    0.000 
#
# Total GULP energy -297494.829695 kJ/mol
# GULP energy per Si atom -12395.617904 kJ/mol
# Density = 2.281006 g / cm^3
# Si number density = 22.862092 Si / 1000 Ang^3
#
#
#
# Elastic Constant Matrix: (Units=GPa)
#
#
# Indices 1 2 3 4 5 6 
#
# 1 61.0594 41.1221 16.8505 0.0000 0.2212 0.0000
# 2 41.1221 97.3159 46.3213 0.0000 0.6618 0.0000
# 3 16.8505 46.3213 113.0987 0.0000 -9.7779 0.0000
# 4 0.0000 0.0000 0.0000 24.7734 0.0000 -3.6018
# 5 0.2212 0.6618 -9.7779 0.0000 41.6362 0.0000
# 6 0.0000 0.0000 0.0000 -3.6018 0.0000 27.9379
#
#
#
# Elastic Compliance Matrix: (Units=1/GPa)
#
#
# Indices 1 2 3 4 5 6 
#
# 1 0.022937 -0.010031 0.000709 0.000000 0.000204 0.000000
# 2 -0.010031 0.017239 -0.005701 0.000000 -0.001559 0.000000
# 3 0.000709 -0.005701 0.011308 0.000000 0.002742 0.000000
# 4 0.000000 0.000000 0.000000 0.041137 0.000000 0.005303
# 5 0.000204 -0.001559 0.002742 0.000000 0.024685 0.000000
# 6 0.000000 0.000000 0.000000 0.005303 0.000000 0.036477
#
#
# Mechanical properties :
#
#
# Convention : Reuss Voigt Hill
#
# Bulk Modulus (GPa) = 46.64697 53.34018 49.99358
# Shear Modulus (GPa) = 26.18146 30.01485 28.09816
#
# Velocity S-wave (km/s) = 3.38774 3.62728 3.50955
# Velocity P-wave (km/s) = 5.97915 6.39725 6.19173
#
# Compressibility (1/GPa) = 0.02143762
#
# Stress axis : x y z
#
# Youngs Moduli (GPa) = 43.59807 58.00951 88.43190
#
# Poissons Ratio (x) = 0.58189 -0.06266
# Poissons Ratio (y) = 0.43733 0.50412
# Poissons Ratio (z) = -0.03089 0.33069
#
# Static dielectric constant tensor:
#      x y z
#    x 3.674620 0.000000 -0.215060 
#    y 0.000000 4.301760 0.000000 
#    z -0.215060 0.000000 4.397940 
# 
# 
# High freq. dielectric constant tensor:
#      x y z
#    x 1.865840 0.000000 -0.006790 
#    y 0.000000 1.899520 0.000000 
#    z -0.006790 0.000000 1.920730 
# 
# From -- ./inp_files/69884.got.cif
#   From: 2010.06.25/outbox.cif.g09.slc.cpg/sg13_35_cif.got.tgz:69884.got - 2010.06.28 04:50:58.
