data_PCOD8119946
_publ_section_title
;
Structure prediction by ZEFSAII (Michael W. Deem and Ramdas Pophale) SiO2 
 PCOD8119946
Probable space group: P 2/C
;
_chemical_formula_sum "Si O2"
_cell_formula_units_Z 22
_cell_length_a 9.028692
_cell_length_b 16.530906
_cell_length_c 7.631210
_cell_angle_alpha 90.000000
_cell_angle_beta 86.333424
_cell_angle_gamma 90.000000
_cell_volume 1136.645477
_symmetry_space_group_name_H-M "P 2/C"
_symmetry_group_IT_number 13
_symmetry_cell_setting 'monoclinic'
loop_
_space_group_symop_operation_xyz
x,y,z
-x,y,1/2-z
-x,-y,-z
x,-y,1/2+z
loop_
_atom_site_type_symbol
_atom_site_label
_atom_site_fract_x
_atom_site_fract_y
_atom_site_fract_z
Si Si1 0.339750 0.236125 0.821592
Si Si2 0.888017 0.101833 0.618807
Si Si3 0.705141 0.609449 0.377565
Si Si4 0.000000 0.052832 0.250000
Si Si5 0.173048 0.538882 0.785214
Si Si6 0.588779 0.362553 0.418299
O O1 0.500000 0.209119 0.750000
O O2 0.261551 0.150669 0.849050
O O3 0.267212 0.297846 0.684042
O O4 0.345511 0.280067 0.008955
O O5 0.000000 0.143596 0.750000
O O6 0.939678 0.108778 0.411592
O O7 0.872334 0.006648 0.675608
O O8 0.808694 0.586651 0.534729
O O9 0.758769 0.552256 0.212447
O O10 0.529102 0.597579 0.434954
O O11 0.271654 0.579412 0.625271
O O12 0.000000 0.538971 0.750000
O O13 0.500000 0.340621 0.250000
#
# Coordination Sequence:
#
# PCOD8119946 Si02
#       6
#     4   4   4   2   4   4
#     4  10  21  38  57  83 115 149 189 238 285 335
#     4   9  18  38  65  87 122 148 186 227 280 346
#     4  10  21  36  54  72 110 154 191 233 295 339
#     4   8  18  40  64  92 116 154 186 214 280 366
#     4  11  21  34  53  78 108 144 202 251 279 326
#     4   9  20  38  52  74 107 154 195 233 286 349
#
# _framework density 19.355198999999999
#
# number of rings (size 3 to 8) (size 9 to 14) (size 15 to 20)
#    0.545    1.818    0.000    2.182    0.000    7.273 
#   11.455    0.909    0.000    0.000    0.000    0.000 
#    0.000    0.000    0.000    0.000    0.000    0.000 
#
# Total GULP energy -272559.862166 kJ/mol
# GULP energy per Si atom -12389.084644 kJ/mol
# Density = 1.931115 g / cm^3
# Si number density = 19.355199 Si / 1000 Ang^3
#
#
#
# Elastic Constant Matrix: (Units=GPa)
#
#
# Indices 1 2 3 4 5 6 
#
# 1 102.6391 56.8466 38.0904 0.0000 -12.5594 0.0000
# 2 56.8466 90.2252 40.8733 0.0000 -14.1839 0.0000
# 3 38.0904 40.8733 129.9361 0.0000 -2.3665 0.0000
# 4 0.0000 0.0000 0.0000 15.6625 0.0000 -12.6194
# 5 -12.5594 -14.1839 -2.3665 0.0000 17.9766 0.0000
# 6 0.0000 0.0000 0.0000 -12.6194 0.0000 26.8462
#
#
#
# Elastic Compliance Matrix: (Units=1/GPa)
#
#
# Indices 1 2 3 4 5 6 
#
# 1 0.015530 -0.008301 -0.001867 0.000000 0.004054 0.000000
# 2 -0.008301 0.019297 -0.003473 0.000000 0.008969 0.000000
# 3 -0.001867 -0.003473 0.009285 0.000000 -0.002823 0.000000
# 4 0.000000 0.000000 0.000000 0.102769 0.000000 0.048308
# 5 0.004054 0.008969 -0.002823 0.000000 0.065165 0.000000
# 6 0.000000 0.000000 0.000000 0.048308 0.000000 0.059957
#
#
# Mechanical properties :
#
#
# Convention : Reuss Voigt Hill
#
# Bulk Modulus (GPa) = 59.42656 66.04678 62.73667
# Shear Modulus (GPa) = 16.39903 24.56305 20.48104
#
# Velocity S-wave (km/s) = 2.91394 3.56626 3.25648
# Velocity P-wave (km/s) = 6.48778 7.15229 6.82812
#
# Compressibility (1/GPa) = 0.01682749
#
# Stress axis : x y z
#
# Youngs Moduli (GPa) = 64.39337 51.82157 107.70442
#
# Poissons Ratio (x) = 0.43018 0.20112
# Poissons Ratio (y) = 0.53454 0.37409
# Poissons Ratio (z) = 0.12024 0.17999
#
# Static dielectric constant tensor:
#      x y z
#    x 3.360080 0.000000 0.004230 
#    y 0.000000 3.208110 0.000000 
#    z 0.004230 0.000000 3.961580 
# 
# 
# High freq. dielectric constant tensor:
#      x y z
#    x 1.735550 0.000000 0.003950 
#    y 0.000000 1.723040 0.000000 
#    z 0.003950 0.000000 1.776240 
# 
# From -- ./inp_files/12419.got.cif
#   From: 2010.06.25/outbox.cif.g09.slc.cpg/sg13_7_cif.got.tgz:12419.got - 2010.06.28 04:50:58.
