data_PCOD8119462
_publ_section_title
;
Structure prediction by ZEFSAII (Michael W. Deem and Ramdas Pophale) SiO2 
 PCOD8119462
Probable space group: P 2/C
;
_chemical_formula_sum "Si O2"
_cell_formula_units_Z 30
_cell_length_a 15.600145
_cell_length_b 14.511201
_cell_length_c 17.097927
_cell_angle_alpha 90.000000
_cell_angle_beta 23.476565
_cell_angle_gamma 90.000000
_cell_volume 1541.936092
_symmetry_space_group_name_H-M "P 2/C"
_symmetry_group_IT_number 13
_symmetry_cell_setting 'monoclinic'
loop_
_space_group_symop_operation_xyz
x,y,z
-x,y,1/2-z
-x,-y,-z
x,-y,1/2+z
loop_
_atom_site_type_symbol
_atom_site_label
_atom_site_fract_x
_atom_site_fract_y
_atom_site_fract_z
Si Si1 0.607597 0.297609 0.580265
Si Si2 0.000000 0.567664 0.750000
Si Si3 0.520954 0.159680 0.436775
Si Si4 0.391076 0.900587 0.468066
Si Si5 0.893243 0.068666 0.769089
Si Si6 0.513822 0.355244 0.981511
Si Si7 0.795635 0.020133 0.117779
Si Si8 0.131919 0.501952 0.806310
O O1 0.500000 0.329050 0.750000
O O2 0.803286 0.364991 0.406829
O O3 0.667441 0.189176 0.534723
O O4 0.456297 0.315670 0.631607
O O5 0.994793 0.510984 0.838397
O O6 0.633315 0.125470 0.421115
O O7 0.273049 0.126052 0.643507
O O8 0.517056 0.270030 0.432834
O O9 0.662364 0.112588 0.251155
O O10 0.222350 0.980960 0.593573
O O11 0.635417 0.933129 0.247027
O O12 0.000000 0.128491 0.750000
O O13 0.106917 0.036586 0.547364
O O14 0.301434 0.415513 0.171698
O O15 0.733961 0.407968 0.816547
O O16 0.000000 0.000000 0.000000
O O17 0.000000 0.500000 0.000000
#
# Coordination Sequence:
#
# PCOD8119462 Si02
#       8
#     4   2   4   4   4   4   4   4
#     4  10  21  35  55  89 124 149 181 239 295 350
#     4  10  22  38  60  92 118 144 196 240 290 372
#     4  10  20  39  56  81 112 149 199 237 280 344
#     4  10  21  34  53  83 113 152 192 232 283 346
#     4  11  23  35  54  79 115 150 194 245 278 324
#     4   9  21  39  60  86 120 147 193 245 285 359
#     4  11  19  36  59  76 107 162 197 225 284 338
#     4  10  20  40  66  89 116 157 189 237 311 364
#
# _framework density 19.456059
#
# number of rings (size 3 to 8) (size 9 to 14) (size 15 to 20)
#    0.000    1.867    2.667    1.600    2.800    2.667 
#    3.600    0.000    2.933    0.000    0.000    0.000 
#    0.000    0.000    0.000    0.000    0.000    0.000 
#
# Total GULP energy -371643.832381 kJ/mol
# GULP energy per Si atom -12388.127746 kJ/mol
# Density = 1.941178 g / cm^3
# Si number density = 19.456059 Si / 1000 Ang^3
#
#
#
# Elastic Constant Matrix: (Units=GPa)
#
#
# Indices 1 2 3 4 5 6 
#
# 1 87.2618 29.3390 28.7308 0.0000 11.7663 0.0000
# 2 29.3390 107.8045 27.5449 0.0000 -6.1647 0.0000
# 3 28.7308 27.5449 99.5305 0.0000 5.8172 0.0000
# 4 0.0000 0.0000 0.0000 16.6746 0.0000 0.3754
# 5 11.7663 -6.1647 5.8172 0.0000 20.5608 0.0000
# 6 0.0000 0.0000 0.0000 0.3754 0.0000 29.8917
#
#
#
# Elastic Compliance Matrix: (Units=1/GPa)
#
#
# Indices 1 2 3 4 5 6 
#
# 1 0.014844 -0.003859 -0.002697 0.000000 -0.008888 0.000000
# 2 -0.003859 0.011292 -0.002377 0.000000 0.006267 0.000000
# 3 -0.002697 -0.002377 0.011627 0.000000 -0.002459 0.000000
# 4 0.000000 0.000000 0.000000 0.059988 0.000000 -0.000753
# 5 -0.008888 0.006267 -0.002459 0.000000 0.056297 0.000000
# 6 0.000000 0.000000 0.000000 -0.000753 0.000000 0.033464
#
#
# Mechanical properties :
#
#
# Convention : Reuss Voigt Hill
#
# Bulk Modulus (GPa) = 50.26137 51.75845 51.00991
# Shear Modulus (GPa) = 23.58359 27.35757 25.47058
#
# Velocity S-wave (km/s) = 3.48537 3.75390 3.62212
# Velocity P-wave (km/s) = 6.48740 6.74162 6.61573
#
# Compressibility (1/GPa) = 0.01989600
#
# Stress axis : x y z
#
# Youngs Moduli (GPa) = 67.36826 88.55820 86.00314
#
# Poissons Ratio (x) = 0.34173 0.23199
# Poissons Ratio (y) = 0.25996 0.20446
# Poissons Ratio (z) = 0.18172 0.21054
#
# Static dielectric constant tensor:
#      x y z
#    x 4.365850 0.000000 0.562870 
#    y 0.000000 3.604270 0.000000 
#    z 0.562870 0.000000 3.953370 
# 
# 
# High freq. dielectric constant tensor:
#      x y z
#    x 1.761960 0.000000 0.001800 
#    y 0.000000 1.744950 0.000000 
#    z 0.001800 0.000000 1.759090 
# 
# From -- ./inp_files/70044.got.cif
#   From: 2010.06.25/outbox.cif.g09.slc.cpg/sg13_36_cif.got.tgz:70044.got - 2010.06.28 04:50:58.
