data_PCOD8119510
_publ_section_title
;
Structure prediction by ZEFSAII (Michael W. Deem and Ramdas Pophale) SiO2 
 PCOD8119510
Probable space group: P 2/C
;
_chemical_formula_sum "Si O2"
_cell_formula_units_Z 18
_cell_length_a 16.494271
_cell_length_b 5.125573
_cell_length_c 24.293100
_cell_angle_alpha 90.000000
_cell_angle_beta 26.756624
_cell_angle_gamma 90.000000
_cell_volume 924.624920
_symmetry_space_group_name_H-M "P 2/C"
_symmetry_group_IT_number 13
_symmetry_cell_setting 'monoclinic'
loop_
_space_group_symop_operation_xyz
x,y,z
-x,y,1/2-z
-x,-y,-z
x,-y,1/2+z
loop_
_atom_site_type_symbol
_atom_site_label
_atom_site_fract_x
_atom_site_fract_y
_atom_site_fract_z
Si Si1 0.213540 0.423749 0.531713
Si Si2 0.993645 0.057091 0.364244
Si Si3 0.187588 0.027527 0.355531
Si Si4 0.000000 0.814198 0.250000
Si Si5 0.416610 0.479489 0.740905
O O1 0.159963 0.368476 0.628280
O O2 0.426297 0.466987 0.398773
O O3 0.109484 0.671152 0.570941
O O4 0.150323 0.172917 0.533737
O O5 0.154593 0.065609 0.310421
O O6 0.076611 0.996687 0.253091
O O7 0.284321 0.276838 0.322382
O O8 0.310159 0.776062 0.288280
O O9 0.000000 0.000000 0.500000
O O10 0.500000 0.435228 0.750000
#
# Coordination Sequence:
#
# PCOD8119510 Si02
#       5
#     4   4   4   2   4
#     4  10  20  39  63  89 117 163 204 241 299 361
#     4  10  20  39  63  89 118 163 204 242 299 362
#     4  12  24  40  62  93 125 160 201 252 306 361
#     4   8  22  36  70  82 120 166 206 236 308 356
#     4  12  24  40  62  93 125 159 200 252 307 362
#
# _framework density 19.467352999999999
#
# number of rings (size 3 to 8) (size 9 to 14) (size 15 to 20)
#    1.333    0.000    0.000    7.333    0.000    0.000 
#    0.000    2.222    0.000    0.000    0.000    0.000 
#    0.000    0.000    0.000    0.000    0.000    0.000 
#
# Total GULP energy -223120.508513 kJ/mol
# GULP energy per Si atom -12395.583806 kJ/mol
# Density = 1.942304 g / cm^3
# Si number density = 19.467353 Si / 1000 Ang^3
#
#
#
# Elastic Constant Matrix: (Units=GPa)
#
#
# Indices 1 2 3 4 5 6 
#
# 1 123.3959 9.7172 7.6937 0.0000 -3.3962 0.0000
# 2 9.7172 92.5019 -15.2551 0.0000 -12.9869 0.0000
# 3 7.6937 -15.2551 87.9269 0.0000 8.3430 0.0000
# 4 0.0000 0.0000 0.0000 29.7840 0.0000 -10.0345
# 5 -3.3962 -12.9869 8.3430 0.0000 30.2409 0.0000
# 6 0.0000 0.0000 0.0000 -10.0345 0.0000 24.6262
#
#
#
# Elastic Compliance Matrix: (Units=1/GPa)
#
#
# Indices 1 2 3 4 5 6 
#
# 1 0.008258 -0.000913 -0.000957 0.000000 0.000799 0.000000
# 2 -0.000913 0.011820 0.001703 0.000000 0.004504 0.000000
# 3 -0.000957 0.001703 0.012007 0.000000 -0.002689 0.000000
# 4 0.000000 0.000000 0.000000 0.038918 0.000000 0.015858
# 5 0.000799 0.004504 -0.002689 0.000000 0.035833 0.000000
# 6 0.000000 0.000000 0.000000 0.015858 0.000000 0.047069
#
#
# Mechanical properties :
#
#
# Convention : Reuss Voigt Hill
#
# Bulk Modulus (GPa) = 31.49452 34.23736 32.86594
# Shear Modulus (GPa) = 30.33583 37.04148 33.68866
#
# Velocity S-wave (km/s) = 3.95180 4.36678 4.16447
# Velocity P-wave (km/s) = 6.08569 6.56127 6.32795
#
# Compressibility (1/GPa) = 0.03175155
#
# Stress axis : x y z
#
# Youngs Moduli (GPa) = 121.10133 84.60468 83.28179
#
# Poissons Ratio (x) = 0.07725 0.07968
# Poissons Ratio (y) = 0.11057 -0.14185
# Poissons Ratio (z) = 0.11587 -0.14410
#
# Static dielectric constant tensor:
#      x y z
#    x 3.549630 0.000000 0.038280 
#    y 0.000000 3.680880 0.000000 
#    z 0.038280 0.000000 3.562500 
# 
# 
# High freq. dielectric constant tensor:
#      x y z
#    x 1.751530 0.000000 0.008750 
#    y 0.000000 1.780690 0.000000 
#    z 0.008750 0.000000 1.745990 
# 
# From -- ./inp_files/41952.got.cif
#   From: 2010.06.25/outbox.cif.g09.slc.cpg/sg13_21_cif.got.tgz:41952.got - 2010.06.28 04:50:58.
