data_PCOD8119695
_publ_section_title
;
Structure prediction by ZEFSAII (Michael W. Deem and Ramdas Pophale) SiO2 
 PCOD8119695
Probable space group: P 2/C
;
_chemical_formula_sum "Si O2"
_cell_formula_units_Z 16
_cell_length_a 8.079935
_cell_length_b 7.526705
_cell_length_c 18.539648
_cell_angle_alpha 90.000000
_cell_angle_beta 37.670983
_cell_angle_gamma 90.000000
_cell_volume 689.041194
_symmetry_space_group_name_H-M "P 2/C"
_symmetry_group_IT_number 13
_symmetry_cell_setting 'monoclinic'
loop_
_space_group_symop_operation_xyz
x,y,z
-x,y,1/2-z
-x,-y,-z
x,-y,1/2+z
loop_
_atom_site_type_symbol
_atom_site_label
_atom_site_fract_x
_atom_site_fract_y
_atom_site_fract_z
Si Si1 0.500000 0.342824 0.750000
Si Si2 0.923924 0.209310 0.973666
Si Si3 0.100805 0.830273 0.567304
Si Si4 0.000000 0.326085 0.250000
Si Si5 0.468813 0.483266 0.910902
O O1 0.539875 0.475011 0.802590
O O2 0.758213 0.215554 0.653881
O O3 0.803547 0.034195 0.976404
O O4 0.773072 0.377669 0.992397
O O5 0.897522 0.211574 0.070379
O O6 0.951663 0.797639 0.695877
O O7 0.371900 0.709364 0.471702
O O8 0.740310 0.450866 0.357263
#
# Coordination Sequence:
#
# PCOD8119695 Si02
#       5
#     2   4   4   2   4
#     4  10  20  40  72  94 118 168 214 260 312 370
#     4  10  22  42  65  91 123 165 216 259 304 372
#     4  10  23  41  63  91 125 165 211 262 312 370
#     4  12  24  38  64  96 132 172 204 256 324 374
#     4  11  22  41  63  92 129 165 208 257 311 374
#
# _framework density 23.220673000000001
#
# number of rings (size 3 to 8) (size 9 to 14) (size 15 to 20)
#    0.000    1.500    0.000    6.750    0.000    7.000 
#    0.000    8.750    0.000    0.000    0.000    0.000 
#    0.000    0.000    0.000    0.000    0.000    0.000 
#
# Total GULP energy -198378.983989 kJ/mol
# GULP energy per Si atom -12398.686499 kJ/mol
# Density = 2.316782 g / cm^3
# Si number density = 23.220673 Si / 1000 Ang^3
#
#
#
# Elastic Constant Matrix: (Units=GPa)
#
#
# Indices 1 2 3 4 5 6 
#
# 1 98.7300 58.1044 53.3738 0.0000 8.3056 0.0000
# 2 58.1044 143.0040 51.5113 0.0000 -0.8902 0.0000
# 3 53.3738 51.5113 91.2546 0.0000 -0.8157 0.0000
# 4 0.0000 0.0000 0.0000 21.1363 0.0000 -4.1662
# 5 8.3056 -0.8902 -0.8157 0.0000 39.6081 0.0000
# 6 0.0000 0.0000 0.0000 -4.1662 0.0000 19.7455
#
#
#
# Elastic Compliance Matrix: (Units=1/GPa)
#
#
# Indices 1 2 3 4 5 6 
#
# 1 0.017051 -0.004202 -0.007636 0.000000 -0.003827 0.000000
# 2 -0.004202 0.009813 -0.003073 0.000000 0.001038 0.000000
# 3 -0.007636 -0.003073 0.017176 0.000000 0.001886 0.000000
# 4 0.000000 0.000000 0.000000 0.049365 0.000000 0.010416
# 5 -0.003827 0.001038 0.001886 0.000000 0.026112 0.000000
# 6 0.000000 0.000000 0.000000 0.010416 0.000000 0.052842
#
#
# Mechanical properties :
#
#
# Convention : Reuss Voigt Hill
#
# Bulk Modulus (GPa) = 70.32107 73.21860 71.76983
# Shear Modulus (GPa) = 24.16408 27.43125 25.79767
#
# Velocity S-wave (km/s) = 3.22938 3.44078 3.33675
# Velocity P-wave (km/s) = 6.65242 6.88370 6.76905
#
# Compressibility (1/GPa) = 0.01422049
#
# Stress axis : x y z
#
# Youngs Moduli (GPa) = 58.64743 101.90357 58.22224
#
# Poissons Ratio (x) = 0.42815 0.44456
# Poissons Ratio (y) = 0.24641 0.17890
# Poissons Ratio (z) = 0.44780 0.31311
#
# Static dielectric constant tensor:
#      x y z
#    x 4.201150 0.000000 0.306710 
#    y 0.000000 4.053320 0.000000 
#    z 0.306710 0.000000 4.067020 
# 
# 
# High freq. dielectric constant tensor:
#      x y z
#    x 1.916390 0.000000 0.020400 
#    y 0.000000 1.914390 0.000000 
#    z 0.020400 0.000000 1.911890 
# 
# From -- ./inp_files/27418.got.cif
#   From: 2010.06.25/outbox.cif.g09.slc.cpg/sg13_14_cif.got.tgz:27418.got - 2010.06.28 04:50:58.
