data_PCOD8119625
_publ_section_title
;
Structure prediction by ZEFSAII (Michael W. Deem and Ramdas Pophale) SiO2 
 PCOD8119625
Probable space group: P 2/C
;
_chemical_formula_sum "Si O2"
_cell_formula_units_Z 20
_cell_length_a 21.785151
_cell_length_b 8.833566
_cell_length_c 16.693535
_cell_angle_alpha 90.000000
_cell_angle_beta 16.708620
_cell_angle_gamma 90.000000
_cell_volume 923.612433
_symmetry_space_group_name_H-M "P 2/C"
_symmetry_group_IT_number 13
_symmetry_cell_setting 'monoclinic'
loop_
_space_group_symop_operation_xyz
x,y,z
-x,y,1/2-z
-x,-y,-z
x,-y,1/2+z
loop_
_atom_site_type_symbol
_atom_site_label
_atom_site_fract_x
_atom_site_fract_y
_atom_site_fract_z
Si Si1 0.213145 0.734949 0.337409
Si Si2 0.590818 0.250057 0.740572
Si Si3 0.108018 0.493431 0.694423
Si Si4 0.197611 0.902915 0.659417
Si Si5 0.300503 0.245682 0.554926
O O1 0.378743 0.767448 0.202115
O O2 0.345743 0.701960 0.090247
O O3 0.060410 0.599546 0.551702
O O4 0.054506 0.874659 0.516247
O O5 0.675552 0.412404 0.600004
O O6 0.731226 0.118180 0.522342
O O7 0.341919 0.217956 0.030850
O O8 0.128208 0.355948 0.730850
O O9 0.000000 0.426218 0.750000
O O10 0.229839 0.073178 0.645878
O O11 0.500000 0.270485 0.250000
#
# Coordination Sequence:
#
# PCOD8119625 Si02
#       5
#     4   4   4   4   4
#     4  10  22  41  66  86 120 167 207 241 301 372
#     4   9  19  41  66  88 115 164 210 239 297 376
#     4   9  21  41  63  88 120 165 206 246 306 362
#     4  10  20  40  63  90 121 160 203 247 311 357
#     4  12  24  39  57  97 128 151 200 264 306 347
#
# _framework density 21.654105000000001
#
# number of rings (size 3 to 8) (size 9 to 14) (size 15 to 20)
#    0.000    2.000    2.000    3.000    5.600    2.400 
#    3.600    2.000    0.000    0.000    0.000    0.000 
#    0.000    0.000    0.000    0.000    0.000    0.000 
#
# Total GULP energy -247834.891377 kJ/mol
# GULP energy per Si atom -12391.744569 kJ/mol
# Density = 2.160482 g / cm^3
# Si number density = 21.654105 Si / 1000 Ang^3
#
#
#
# Elastic Constant Matrix: (Units=GPa)
#
#
# Indices 1 2 3 4 5 6 
#
# 1 195.6270 59.4480 46.8813 0.0000 30.1837 0.0000
# 2 59.4480 62.8312 9.7715 0.0000 -5.9061 0.0000
# 3 46.8813 9.7715 55.3073 0.0000 23.2125 0.0000
# 4 0.0000 0.0000 0.0000 4.5627 0.0000 1.4250
# 5 30.1837 -5.9061 23.2125 0.0000 39.6805 0.0000
# 6 0.0000 0.0000 0.0000 1.4250 0.0000 32.0367
#
#
#
# Elastic Compliance Matrix: (Units=1/GPa)
#
#
# Indices 1 2 3 4 5 6 
#
# 1 0.009956 -0.009425 -0.003985 0.000000 -0.006645 0.000000
# 2 -0.009425 0.026235 -0.001715 0.000000 0.012077 0.000000
# 3 -0.003985 -0.001715 0.027299 0.000000 -0.013193 0.000000
# 4 0.000000 0.000000 0.000000 0.222257 0.000000 -0.009886
# 5 -0.006645 0.012077 -0.013193 0.000000 0.039771 0.000000
# 6 0.000000 0.000000 0.000000 -0.009886 0.000000 0.031654
#
#
# Mechanical properties :
#
#
# Convention : Reuss Voigt Hill
#
# Bulk Modulus (GPa) = 30.08422 60.66303 45.37363
# Shear Modulus (GPa) = 12.54697 28.43363 20.49030
#
# Velocity S-wave (km/s) = 2.40974 3.62758 3.07946
# Velocity P-wave (km/s) = 4.65464 6.75434 5.80030
#
# Compressibility (1/GPa) = 0.03324001
#
# Stress axis : x y z
#
# Youngs Moduli (GPa) = 100.44041 38.11708 36.63109
#
# Poissons Ratio (x) = 0.35925 0.14599
# Poissons Ratio (y) = 0.94664 0.06282
# Poissons Ratio (z) = 0.40030 0.06537
#
# Static dielectric constant tensor:
#      x y z
#    x 4.226130 0.000000 -0.003190 
#    y 0.000000 3.864640 0.000000 
#    z -0.003190 0.000000 3.852290 
# 
# 
# High freq. dielectric constant tensor:
#      x y z
#    x 1.860110 0.000000 0.009700 
#    y 0.000000 1.837860 0.000000 
#    z 0.009700 0.000000 1.835010 
# 
# From -- ./inp_files/57128.got.cif
#   From: 2010.06.25/outbox.cif.g09.slc.cpg/sg13_29_cif.got.tgz:57128.got - 2010.06.28 04:50:58.
