data_PCOD8119893
_publ_section_title
;
Structure prediction by ZEFSAII (Michael W. Deem and Ramdas Pophale) SiO2 
 PCOD8119893
Probable space group: P 2/C
;
_chemical_formula_sum "Si O2"
_cell_formula_units_Z 24
_cell_length_a 13.612958
_cell_length_b 11.295392
_cell_length_c 8.711335
_cell_angle_alpha 90.000000
_cell_angle_beta 115.001817
_cell_angle_gamma 90.000000
_cell_volume 1213.969613
_symmetry_space_group_name_H-M "P 2/C"
_symmetry_group_IT_number 13
_symmetry_cell_setting 'monoclinic'
loop_
_space_group_symop_operation_xyz
x,y,z
-x,y,1/2-z
-x,-y,-z
x,-y,1/2+z
loop_
_atom_site_type_symbol
_atom_site_label
_atom_site_fract_x
_atom_site_fract_y
_atom_site_fract_z
Si Si1 0.385041 0.146656 0.239649
Si Si2 0.382889 0.898351 0.099163
Si Si3 0.798743 0.719812 0.013942
Si Si4 0.800194 0.745229 0.367416
Si Si5 0.914492 0.471773 0.068657
Si Si6 0.990265 0.872417 0.062641
O O1 0.500000 0.185009 0.250000
O O2 0.391693 0.113306 0.422373
O O3 0.343444 0.030270 0.119359
O O4 0.310619 0.262154 0.156995
O O5 0.500000 0.870860 0.250000
O O6 0.294910 0.805325 0.099696
O O7 0.770341 0.756494 0.168806
O O8 0.848260 0.589881 0.066932
O O9 0.877472 0.804596 0.965290
O O10 0.818633 0.615209 0.450664
O O11 0.916861 0.803849 0.466590
O O12 0.000000 0.422580 0.250000
O O13 0.000000 0.500000 0.000000
O O14 0.000000 0.876878 0.250000
O O15 0.000000 0.000000 0.000000
#
# Coordination Sequence:
#
# PCOD8119893 Si02
#       6
#     4   4   4   4   4   4
#     4  11  23  41  66  92 125 163 204 253 312 368
#     4  11  23  41  65  93 124 163 205 253 310 370
#     4  11  22  40  60  87 124 162 206 254 304 365
#     4  11  23  39  61  88 124 162 207 253 305 367
#     4  12  23  42  64  89 125 169 209 254 308 366
#     4  10  21  35  53  83 120 155 193 246 302 360
#
# _framework density 19.769853000000001
#
# number of rings (size 3 to 8) (size 9 to 14) (size 15 to 20)
#    0.000    1.000    3.333    5.500    2.333    4.667 
#    0.000    0.833    0.000    4.000    0.000    0.000 
#    0.000    0.000    0.000    0.000    0.000    0.000 
#
# Total GULP energy -297331.264626 kJ/mol
# GULP energy per Si atom -12388.802693 kJ/mol
# Density = 1.972486 g / cm^3
# Si number density = 19.769853 Si / 1000 Ang^3
#
#
#
# Elastic Constant Matrix: (Units=GPa)
#
#
# Indices 1 2 3 4 5 6 
#
# 1 125.5496 41.6878 41.9256 0.0000 -4.5755 0.0000
# 2 41.6878 78.1346 17.5299 0.0000 9.9552 0.0000
# 3 41.9256 17.5299 101.5986 0.0000 0.8963 0.0000
# 4 0.0000 0.0000 0.0000 36.6645 0.0000 6.6410
# 5 -4.5755 9.9552 0.8963 0.0000 33.7069 0.0000
# 6 0.0000 0.0000 0.0000 6.6410 0.0000 27.3791
#
#
#
# Elastic Compliance Matrix: (Units=1/GPa)
#
#
# Indices 1 2 3 4 5 6 
#
# 1 0.011149 -0.005538 -0.003674 0.000000 0.003247 0.000000
# 2 -0.005538 0.016590 -0.000527 0.000000 -0.005637 0.000000
# 3 -0.003674 -0.000527 0.011455 0.000000 -0.000648 0.000000
# 4 0.000000 0.000000 0.000000 0.028528 0.000000 -0.006920
# 5 0.003247 -0.005637 -0.000648 0.000000 0.031790 0.000000
# 6 0.000000 0.000000 0.000000 -0.006920 0.000000 0.038203
#
#
# Mechanical properties :
#
#
# Convention : Reuss Voigt Hill
#
# Bulk Modulus (GPa) = 50.72064 56.39659 53.55862
# Shear Modulus (GPa) = 30.53159 33.15939 31.84549
#
# Velocity S-wave (km/s) = 3.93409 4.09989 4.01784
# Velocity P-wave (km/s) = 6.80788 7.14147 6.97667
#
# Compressibility (1/GPa) = 0.01971584
#
# Stress axis : x y z
#
# Youngs Moduli (GPa) = 89.69482 60.27849 87.29493
#
# Poissons Ratio (x) = 0.33381 0.32071
# Poissons Ratio (y) = 0.49671 0.04604
# Poissons Ratio (z) = 0.32953 0.03179
#
# Static dielectric constant tensor:
#      x y z
#    x 3.755610 0.000000 -0.057710 
#    y 0.000000 3.310710 0.000000 
#    z -0.057710 0.000000 3.323930 
# 
# 
# High freq. dielectric constant tensor:
#      x y z
#    x 1.783260 0.000000 -0.010190 
#    y 0.000000 1.761040 0.000000 
#    z -0.010190 0.000000 1.777880 
# 
# From -- ./inp_files/15960.got.cif
#   From: 2010.06.25/outbox.cif.g09.slc.cpg/sg13_8_cif.got.tgz:15960.got - 2010.06.28 04:50:58.
