data_PCOD8119811
_publ_section_title
;
Structure prediction by ZEFSAII (Michael W. Deem and Ramdas Pophale) SiO2 
 PCOD8119811
Probable space group: P 2/C
;
_chemical_formula_sum "Si O2"
_cell_formula_units_Z 26
_cell_length_a 28.942211
_cell_length_b 6.302407
_cell_length_c 13.842799
_cell_angle_alpha 90.000000
_cell_angle_beta 149.580668
_cell_angle_gamma 90.000000
_cell_volume 1278.472009
_symmetry_space_group_name_H-M "P 2/C"
_symmetry_group_IT_number 13
_symmetry_cell_setting 'monoclinic'
loop_
_space_group_symop_operation_xyz
x,y,z
-x,y,1/2-z
-x,-y,-z
x,-y,1/2+z
loop_
_atom_site_type_symbol
_atom_site_label
_atom_site_fract_x
_atom_site_fract_y
_atom_site_fract_z
Si Si1 0.787252 0.129539 0.357776
Si Si2 0.228804 0.488478 0.038454
Si Si3 0.895288 0.255113 0.044608
Si Si4 0.366945 0.161228 0.979831
Si Si5 0.228925 0.513354 0.313910
Si Si6 0.437265 0.494269 0.979789
Si Si7 0.500000 0.824381 0.250000
O O1 0.803184 0.252646 0.487463
O O2 0.762183 0.290748 0.225850
O O3 0.880520 0.998418 0.506157
O O4 0.707881 0.952958 0.223122
O O5 0.331939 0.496171 0.261528
O O6 0.165573 0.661720 0.975943
O O7 0.219768 0.530904 0.909748
O O8 0.000000 0.310268 0.250000
O O9 0.862385 0.369346 0.887007
O O10 0.416323 0.978301 0.131651
O O11 0.318853 0.341125 0.959216
O O12 0.444928 0.275021 0.054071
O O13 0.500000 0.500000 0.000000
O O14 0.468556 0.690068 0.101720
#
# Coordination Sequence:
#
# PCOD8119811 Si02
#       7
#     4   4   4   4   4   4   2
#     4  10  20  43  65  90 131 174 210 262 329 377
#     4  11  23  43  66  98 133 169 215 268 328 380
#     4  10  23  44  69  98 130 169 216 266 327 392
#     4  11  22  43  61  90 132 175 217 265 317 378
#     4  10  23  41  69  95 132 167 210 270 326 383
#     4  12  27  41  64  98 133 173 219 269 318 383
#     4  12  26  42  64  92 130 178 226 268 314 378
#
# _framework density 20.336774999999999
#
# number of rings (size 3 to 8) (size 9 to 14) (size 15 to 20)
#    0.000    1.231    6.154    0.462    6.462    7.385 
#    0.000    1.538    0.000    0.000    0.000    0.000 
#    0.000    0.000    0.000    0.000    0.000    0.000 
#
# Total GULP energy -322246.115335 kJ/mol
# GULP energy per Si atom -12394.081359 kJ/mol
# Density = 2.029049 g / cm^3
# Si number density = 20.336775 Si / 1000 Ang^3
#
#
#
# Elastic Constant Matrix: (Units=GPa)
#
#
# Indices 1 2 3 4 5 6 
#
# 1 124.5740 54.8477 66.8002 0.0000 -14.0827 0.0000
# 2 54.8477 131.0316 50.8571 0.0000 2.2067 0.0000
# 3 66.8002 50.8571 115.6666 0.0000 12.8646 0.0000
# 4 0.0000 0.0000 0.0000 26.0626 0.0000 2.6490
# 5 -14.0827 2.2067 12.8646 0.0000 30.6715 0.0000
# 6 0.0000 0.0000 0.0000 2.6490 0.0000 14.1786
#
#
#
# Elastic Compliance Matrix: (Units=1/GPa)
#
#
# Indices 1 2 3 4 5 6 
#
# 1 0.015312 -0.003244 -0.008627 0.000000 0.010882 0.000000
# 2 -0.003244 0.009924 -0.002355 0.000000 -0.001216 0.000000
# 3 -0.008627 -0.002355 0.015823 0.000000 -0.010428 0.000000
# 4 0.000000 0.000000 0.000000 0.039112 0.000000 -0.007307
# 5 0.010882 -0.001216 -0.010428 0.000000 0.042061 0.000000
# 6 0.000000 0.000000 0.000000 -0.007307 0.000000 0.071894
#
#
# Mechanical properties :
#
#
# Convention : Reuss Voigt Hill
#
# Bulk Modulus (GPa) = 79.31834 79.58693 79.45263
# Shear Modulus (GPa) = 22.04779 27.43369 24.74074
#
# Velocity S-wave (km/s) = 3.29619 3.67682 3.49169
# Velocity P-wave (km/s) = 7.31940 7.56603 7.44373
#
# Compressibility (1/GPa) = 0.01260742
#
# Stress axis : x y z
#
# Youngs Moduli (GPa) = 65.30856 100.76465 63.19943
#
# Poissons Ratio (x) = 0.32691 0.54521
# Poissons Ratio (y) = 0.21188 0.14881
# Poissons Ratio (z) = 0.56341 0.23726
#
# Static dielectric constant tensor:
#      x y z
#    x 2.774910 0.000000 -0.115930 
#    y 0.000000 4.078920 0.000000 
#    z -0.115930 0.000000 3.753500 
# 
# 
# High freq. dielectric constant tensor:
#      x y z
#    x 1.763310 0.000000 0.000610 
#    y 0.000000 1.817540 0.000000 
#    z 0.000610 0.000000 1.797580 
# 
# From -- ./inp_files/59790.got.cif
#   From: 2010.06.25/outbox.cif.g09.slc.cpg/sg13_30_cif.got.tgz:59790.got - 2010.06.28 04:50:58.
