data_PCOD8119526
_publ_section_title
;
Structure prediction by ZEFSAII (Michael W. Deem and Ramdas Pophale) SiO2 
 PCOD8119526
Probable space group: P 2/C
;
_chemical_formula_sum "Si O2"
_cell_formula_units_Z 24
_cell_length_a 9.836371
_cell_length_b 8.638932
_cell_length_c 14.610118
_cell_angle_alpha 90.000000
_cell_angle_beta 71.654572
_cell_angle_gamma 90.000000
_cell_volume 1178.407590
_symmetry_space_group_name_H-M "P 2/C"
_symmetry_group_IT_number 13
_symmetry_cell_setting 'monoclinic'
loop_
_space_group_symop_operation_xyz
x,y,z
-x,y,1/2-z
-x,-y,-z
x,-y,1/2+z
loop_
_atom_site_type_symbol
_atom_site_label
_atom_site_fract_x
_atom_site_fract_y
_atom_site_fract_z
Si Si1 0.365077 0.143657 0.218788
Si Si2 0.400676 0.852312 0.510633
Si Si3 0.590468 0.780638 0.316398
Si Si4 0.919128 0.694673 0.673586
Si Si5 0.098284 0.850585 0.484811
Si Si6 0.122478 0.340298 0.795176
O O1 0.500000 0.197926 0.250000
O O2 0.372072 0.223190 0.116317
O O3 0.222795 0.199362 0.301180
O O4 0.363748 0.959677 0.205312
O O5 0.493790 0.740436 0.425729
O O6 0.253225 0.898134 0.491431
O O7 0.500000 0.000000 0.500000
O O8 0.500000 0.722913 0.250000
O O9 0.732268 0.679073 0.293001
O O10 0.882121 0.515591 0.670206
O O11 0.000000 0.732982 0.750000
O O12 0.023233 0.729021 0.567447
O O13 0.116620 0.775944 0.381501
O O14 0.000000 0.000000 0.500000
O O15 0.000000 0.296466 0.750000
#
# Coordination Sequence:
#
# PCOD8119526 Si02
#       6
#     4   4   4   4   4   4
#     4  10  22  39  65  94 124 163 214 267 315 373
#     4  10  22  39  63  95 127 155 211 265 319 368
#     4  10  20  39  64  90 127 161 209 266 312 368
#     4  11  24  44  64  91 134 173 209 260 320 385
#     4  12  25  41  70  96 125 170 216 268 319 370
#     4  11  26  42  63  94 131 172 214 258 318 385
#
# _framework density 20.366467
#
# number of rings (size 3 to 8) (size 9 to 14) (size 15 to 20)
#    0.000    1.333    3.333    1.500    9.333    2.000 
#    0.000    0.833    0.000    0.000    0.000    0.000 
#    0.000    0.000    0.000    0.000    0.000    0.000 
#
# Total GULP energy -297614.554564 kJ/mol
# GULP energy per Si atom -12400.606440 kJ/mol
# Density = 2.032011 g / cm^3
# Si number density = 20.366467 Si / 1000 Ang^3
#
#
#
# Elastic Constant Matrix: (Units=GPa)
#
#
# Indices 1 2 3 4 5 6 
#
# 1 172.7171 47.2593 48.9559 0.0000 -4.9164 0.0000
# 2 47.2593 56.7835 15.6085 0.0000 1.2863 0.0000
# 3 48.9559 15.6085 112.2403 0.0000 -4.4548 0.0000
# 4 0.0000 0.0000 0.0000 17.9062 0.0000 9.2839
# 5 -4.9164 1.2863 -4.4548 0.0000 40.9150 0.0000
# 6 0.0000 0.0000 0.0000 9.2839 0.0000 -17.5064
#
#
#
# Elastic Compliance Matrix: (Units=1/GPa)
#
#
# Indices 1 2 3 4 5 6 
#
# 1 0.008269 -0.006156 -0.002715 0.000000 0.000892 0.000000
# 2 -0.006156 0.022924 -0.000563 0.000000 -0.001522 0.000000
# 3 -0.002715 -0.000563 0.010204 0.000000 0.000802 0.000000
# 4 0.000000 0.000000 0.000000 0.043803 0.000000 0.023229
# 5 0.000892 -0.001522 0.000802 0.000000 0.024683 0.000000
# 6 0.000000 0.000000 0.000000 0.023229 0.000000 -0.044803
#
#
# Mechanical properties :
#
#
# Convention : Reuss Voigt Hill
#
# Bulk Modulus (GPa) = 44.38980 62.82092 53.60536
# Shear Modulus (GPa) = 54.66983 23.59077 39.13030
#
# Velocity S-wave (km/s) = 5.18665 3.40709 4.38803
# Velocity P-wave (km/s) = 7.59680 6.81102 7.21461
#
# Compressibility (1/GPa) = 0.02252770
#
# Stress axis : x y z
#
# Youngs Moduli (GPa) = 120.92931 43.62324 98.00110
#
# Poissons Ratio (x) = 0.26855 0.26611
# Poissons Ratio (y) = 0.74445 0.05519
# Poissons Ratio (z) = 0.32837 0.02456
#
# Static dielectric constant tensor:
#      x y z
#    x 3.897550 0.000000 -0.125860 
#    y 0.000000 3.349810 0.000000 
#    z -0.125860 0.000000 4.387190 
# 
# 
# High freq. dielectric constant tensor:
#      x y z
#    x 1.816300 0.000000 -0.006170 
#    y 0.000000 1.763850 0.000000 
#    z -0.006170 0.000000 1.816320 
# 
# From -- ./inp_files/46026.got.cif
#   From: 2010.06.25/outbox.cif.g09.slc.cpg/sg13_24_cif.got.tgz:46026.got - 2010.06.28 04:50:58.
