data_PCOD8119740
_publ_section_title
;
Structure prediction by ZEFSAII (Michael W. Deem and Ramdas Pophale) SiO2 
 PCOD8119740
Probable space group: P 2/C
;
_chemical_formula_sum "Si O2"
_cell_formula_units_Z 26
_cell_length_a 15.816273
_cell_length_b 7.692919
_cell_length_c 15.997432
_cell_angle_alpha 90.000000
_cell_angle_beta 35.407972
_cell_angle_gamma 90.000000
_cell_volume 1127.768642
_symmetry_space_group_name_H-M "P 2/C"
_symmetry_group_IT_number 13
_symmetry_cell_setting 'monoclinic'
loop_
_space_group_symop_operation_xyz
x,y,z
-x,y,1/2-z
-x,-y,-z
x,-y,1/2+z
loop_
_atom_site_type_symbol
_atom_site_label
_atom_site_fract_x
_atom_site_fract_y
_atom_site_fract_z
Si Si1 0.536019 0.389811 0.635783
Si Si2 0.271948 0.212097 0.770812
Si Si3 0.365854 0.283276 0.518523
Si Si4 0.675945 0.841637 0.811051
Si Si5 0.000000 0.744384 0.750000
Si Si6 0.016639 0.338537 0.424548
Si Si7 0.294714 0.069913 0.023772
O O1 0.500000 0.491883 0.750000
O O2 0.386047 0.357106 0.708177
O O3 0.653236 0.515838 0.494718
O O4 0.611332 0.208612 0.604751
O O5 0.256071 0.250824 0.684350
O O6 0.328776 0.016374 0.741001
O O7 0.118012 0.215288 0.942505
O O8 0.539252 0.277931 0.397952
O O9 0.325143 0.135531 0.481431
O O10 0.649548 0.896044 0.927307
O O11 0.829282 0.745432 0.675516
O O12 0.992205 0.628336 0.670099
O O13 0.128575 0.883809 0.642901
O O14 0.000000 0.500000 0.500000
#
# Coordination Sequence:
#
# PCOD8119740 Si02
#       7
#     4   4   4   4   2   4   4
#     4  12  24  37  63  96 135 173 224 275 341 401
#     4  11  21  41  67  97 126 174 228 277 339 406
#     4  11  22  41  70  99 125 173 231 278 338 413
#     4  10  20  41  68  96 126 174 227 274 341 417
#     4  10  24  44  68  94 142 188 222 280 366 404
#     4  11  24  40  69 100 140 182 232 284 341 416
#     4  10  21  42  65  92 131 175 215 284 341 406
#
# _framework density 23.054373999999999
#
# number of rings (size 3 to 8) (size 9 to 14) (size 15 to 20)
#    0.000    1.231    3.077    3.692    4.308    0.615 
#    2.769    0.769   10.154    0.000    0.000    0.000 
#    0.000    0.000    0.000    0.000    0.000    0.000 
#
# Total GULP energy -322143.203871 kJ/mol
# GULP energy per Si atom -12390.123226 kJ/mol
# Density = 2.300190 g / cm^3
# Si number density = 23.054374 Si / 1000 Ang^3
#
#
#
# Elastic Constant Matrix: (Units=GPa)
#
#
# Indices 1 2 3 4 5 6 
#
# 1 71.3141 33.0719 25.6144 0.0000 0.7646 0.0000
# 2 33.0719 98.1202 26.7528 0.0000 14.1740 0.0000
# 3 25.6144 26.7528 122.0891 0.0000 -1.5514 0.0000
# 4 0.0000 0.0000 0.0000 32.3094 0.0000 -3.6842
# 5 0.7646 14.1740 -1.5514 0.0000 34.9051 0.0000
# 6 0.0000 0.0000 0.0000 -3.6842 0.0000 19.7460
#
#
#
# Elastic Compliance Matrix: (Units=1/GPa)
#
#
# Indices 1 2 3 4 5 6 
#
# 1 0.017407 -0.005452 -0.002435 0.000000 0.001724 0.000000
# 2 -0.005452 0.013306 -0.001840 0.000000 -0.005366 0.000000
# 3 -0.002435 -0.001840 0.009120 0.000000 0.001206 0.000000
# 4 0.000000 0.000000 0.000000 0.031624 0.000000 0.005900
# 5 0.001724 -0.005366 0.001206 0.000000 0.030844 0.000000
# 6 0.000000 0.000000 0.000000 0.005900 0.000000 0.051744
#
#
# Mechanical properties :
#
#
# Convention : Reuss Voigt Hill
#
# Bulk Modulus (GPa) = 49.07219 51.37798 50.22509
# Shear Modulus (GPa) = 27.73264 31.13103 29.43183
#
# Velocity S-wave (km/s) = 3.47208 3.67867 3.57687
# Velocity P-wave (km/s) = 6.11600 6.35432 6.23630
#
# Compressibility (1/GPa) = 0.02037814
#
# Stress axis : x y z
#
# Youngs Moduli (GPa) = 57.44745 75.15376 109.64671
#
# Poissons Ratio (x) = 0.40976 0.26703
# Poissons Ratio (y) = 0.31322 0.20175
# Poissons Ratio (z) = 0.13991 0.13828
#
# Static dielectric constant tensor:
#      x y z
#    x 4.041850 0.000000 0.032990 
#    y 0.000000 4.349400 0.000000 
#    z 0.032990 0.000000 4.478390 
# 
# 
# High freq. dielectric constant tensor:
#      x y z
#    x 1.890750 0.000000 -0.006760 
#    y 0.000000 1.906870 0.000000 
#    z -0.006760 0.000000 1.922000 
# 
# From -- ./inp_files/53285.got.cif
#   From: 2010.06.25/outbox.cif.g09.slc.cpg/sg13_27_cif.got.tgz:53285.got - 2010.06.28 04:50:58.
