data_PCOD8119961
_publ_section_title
;
Structure prediction by ZEFSAII (Michael W. Deem and Ramdas Pophale) SiO2 
 PCOD8119961
Probable space group: P 2/C
;
_chemical_formula_sum "Si O2"
_cell_formula_units_Z 32
_cell_length_a 16.362550
_cell_length_b 18.876060
_cell_length_c 5.159864
_cell_angle_alpha 90.000000
_cell_angle_beta 94.654436
_cell_angle_gamma 90.000000
_cell_volume 1588.422469
_symmetry_space_group_name_H-M "P 2/C"
_symmetry_group_IT_number 13
_symmetry_cell_setting 'monoclinic'
loop_
_space_group_symop_operation_xyz
x,y,z
-x,y,1/2-z
-x,-y,-z
x,-y,1/2+z
loop_
_atom_site_type_symbol
_atom_site_label
_atom_site_fract_x
_atom_site_fract_y
_atom_site_fract_z
Si Si1 0.595031 0.044423 0.764206
Si Si2 0.180833 0.327105 0.141920
Si Si3 0.173976 0.831690 0.681884
Si Si4 0.091805 0.030860 0.050704
Si Si5 0.714749 0.327272 0.829249
Si Si6 0.720149 0.167232 0.787540
Si Si7 0.095430 0.463890 0.251106
Si Si8 0.403742 0.455608 0.724163
O O1 0.500000 0.065458 0.750000
O O2 0.644827 0.115960 0.821652
O O3 0.618129 0.010836 0.494660
O O4 0.141488 0.248542 0.142722
O O5 0.252288 0.336514 0.371183
O O6 0.108809 0.381671 0.190862
O O7 0.214907 0.343267 0.864571
O O8 0.097384 0.885317 0.614109
O O9 0.243132 0.848219 0.486396
O O10 0.209845 0.843326 0.977389
O O11 0.137592 0.011940 0.794007
O O12 0.000000 0.000000 0.000000
O O13 0.683959 0.246800 0.785596
O O14 0.639077 0.379601 0.769425
O O15 0.135992 0.488036 0.533339
O O16 0.000000 0.479674 0.250000
O O17 0.500000 0.440393 0.750000
O O18 0.376356 0.496609 0.459224
#
# Coordination Sequence:
#
# PCOD8119961 Si02
#       8
#     4   4   4   4   4   4   4   4
#     4  10  21  36  54  80 110 139 182 229 271 327
#     4  10  21  37  56  82 110 143 182 228 275 323
#     4  10  21  37  56  80 112 141 182 224 270 327
#     4  10  21  37  56  79 110 140 176 226 265 317
#     4  10  21  36  56  81 112 142 188 227 268 328
#     4  10  21  36  56  81 108 146 181 225 274 326
#     4  10  21  37  57  81 110 139 179 224 271 329
#     4  10  21  36  54  80 114 149 187 229 276 329
#
# _framework density 20.145772999999998
#
# number of rings (size 3 to 8) (size 9 to 14) (size 15 to 20)
#    0.000    2.000    0.000    3.000    0.000    6.500 
#    2.250    0.000    5.500    9.000    0.000    0.000 
#    0.000    0.000    0.000    0.000    0.000    0.000 
#
# Total GULP energy -396744.459659 kJ/mol
# GULP energy per Si atom -12398.264364 kJ/mol
# Density = 2.009992 g / cm^3
# Si number density = 20.145773 Si / 1000 Ang^3
#
#
#
# Elastic Constant Matrix: (Units=GPa)
#
#
# Indices 1 2 3 4 5 6 
#
# 1 36.3977 53.5659 18.7474 0.0000 -1.0311 0.0000
# 2 53.5659 154.7245 41.6571 0.0000 0.2840 0.0000
# 3 18.7474 41.6571 130.3713 0.0000 -4.4504 0.0000
# 4 0.0000 0.0000 0.0000 29.1097 0.0000 1.8183
# 5 -1.0311 0.2840 -4.4504 0.0000 14.5715 0.0000
# 6 0.0000 0.0000 0.0000 1.8183 0.0000 37.7820
#
#
#
# Elastic Compliance Matrix: (Units=1/GPa)
#
#
# Indices 1 2 3 4 5 6 
#
# 1 0.056717 -0.019127 -0.001915 0.000000 0.003801 0.000000
# 2 -0.019127 0.013532 -0.001646 0.000000 -0.002120 0.000000
# 3 -0.001915 -0.001646 0.008557 0.000000 0.002510 0.000000
# 4 0.000000 0.000000 0.000000 0.034456 0.000000 -0.001658
# 5 0.003801 -0.002120 0.002510 0.000000 0.069704 0.000000
# 6 0.000000 0.000000 0.000000 -0.001658 0.000000 0.026547
#
#
# Mechanical properties :
#
#
# Convention : Reuss Voigt Hill
#
# Bulk Modulus (GPa) = 29.91180 61.04824 45.48002
# Shear Modulus (GPa) = 18.79470 30.12752 24.46111
#
# Velocity S-wave (km/s) = 3.05771 3.87133 3.48833
# Velocity P-wave (km/s) = 5.22935 7.09591 6.23290
#
# Compressibility (1/GPa) = 0.03343162
#
# Stress axis : x y z
#
# Youngs Moduli (GPa) = 17.63137 73.89948 116.86012
#
# Poissons Ratio (x) = 1.41348 0.22373
# Poissons Ratio (y) = 0.33724 0.19232
# Poissons Ratio (z) = 0.03376 0.12162
#
# Static dielectric constant tensor:
#      x y z
#    x 3.103610 0.000000 0.330390 
#    y 0.000000 3.771190 0.000000 
#    z 0.330390 0.000000 2.407140 
# 
# 
# High freq. dielectric constant tensor:
#      x y z
#    x 1.747140 0.000000 -0.005060 
#    y 0.000000 1.796340 0.000000 
#    z -0.005060 0.000000 1.819150 
# 
# From -- ./inp_files/5361.got.cif
#   From: 2010.06.25/outbox.cif.g09.slc.cpg/sg13_3_cif.got.tgz:5361.got - 2010.06.28 04:50:58.
