data_PCOD8119682
_publ_section_title
;
Structure prediction by ZEFSAII (Michael W. Deem and Ramdas Pophale) SiO2 
 PCOD8119682
Probable space group: P 2/C
;
_chemical_formula_sum "Si O2"
_cell_formula_units_Z 28
_cell_length_a 24.998883
_cell_length_b 8.697804
_cell_length_c 9.262553
_cell_angle_alpha 90.000000
_cell_angle_beta 38.363442
_cell_angle_gamma 90.000000
_cell_volume 1249.988495
_symmetry_space_group_name_H-M "P 2/C"
_symmetry_group_IT_number 13
_symmetry_cell_setting 'monoclinic'
loop_
_space_group_symop_operation_xyz
x,y,z
-x,y,1/2-z
-x,-y,-z
x,-y,1/2+z
loop_
_atom_site_type_symbol
_atom_site_label
_atom_site_fract_x
_atom_site_fract_y
_atom_site_fract_z
Si Si1 0.979696 0.850742 0.630363
Si Si2 0.439581 0.034347 0.996524
Si Si3 0.865045 0.641514 0.234495
Si Si4 0.618858 0.698290 0.404523
Si Si5 0.700077 0.708707 0.700386
Si Si6 0.822941 0.660053 0.991565
Si Si7 0.634989 0.472244 0.605366
O O1 0.039521 0.709383 0.451667
O O2 0.000000 0.893289 0.750000
O O3 0.878965 0.807972 0.826015
O O4 0.000000 0.000000 0.500000
O O5 0.405409 0.872236 0.007399
O O6 0.361628 0.147358 0.198753
O O7 0.500000 0.115972 0.750000
O O8 0.500000 0.000000 0.000000
O O9 0.798802 0.757007 0.461528
O O10 0.861203 0.477363 0.317300
O O11 0.837178 0.622581 0.128198
O O12 0.581842 0.588809 0.612733
O O13 0.722434 0.690196 0.175527
O O14 0.580126 0.640326 0.329735
O O15 0.688192 0.575268 0.605530
O O16 0.691096 0.637090 0.880127
#
# Coordination Sequence:
#
# PCOD8119682 Si02
#       7
#     4   4   4   4   4   4   4
#     4  10  25  42  58  98 138 172 210 259 309 373
#     4  12  28  46  62  93 132 169 212 268 338 395
#     4  11  21  40  68  95 128 165 217 264 311 374
#     4  11  21  42  68  93 128 168 213 268 326 387
#     4  11  21  42  68  93 126 168 215 264 327 386
#     4  11  21  40  68  95 128 166 216 262 315 371
#     4  10  20  40  68  97 122 158 220 268 308 390
#
# _framework density 22.400205
#
# number of rings (size 3 to 8) (size 9 to 14) (size 15 to 20)
#    0.000    1.143    4.286    2.143    2.000    1.143 
#    0.000   14.286    0.000    0.000    0.000    0.000 
#    0.000    0.000    0.000    0.000    0.000    0.000 
#
# Total GULP energy -346948.537061 kJ/mol
# GULP energy per Si atom -12391.019181 kJ/mol
# Density = 2.234922 g / cm^3
# Si number density = 22.400205 Si / 1000 Ang^3
#
#
#
# Elastic Constant Matrix: (Units=GPa)
#
#
# Indices 1 2 3 4 5 6 
#
# 1 69.0364 34.4100 36.1363 0.0000 8.4060 0.0000
# 2 34.4100 106.3262 41.7205 0.0000 -1.6583 0.0000
# 3 36.1363 41.7205 98.1955 0.0000 20.5648 0.0000
# 4 0.0000 0.0000 0.0000 15.9260 0.0000 0.7108
# 5 8.4060 -1.6583 20.5648 0.0000 34.5600 0.0000
# 6 0.0000 0.0000 0.0000 0.7108 0.0000 21.0868
#
#
#
# Elastic Compliance Matrix: (Units=1/GPa)
#
#
# Indices 1 2 3 4 5 6 
#
# 1 0.019488 -0.004434 -0.004856 0.000000 -0.002063 0.000000
# 2 -0.004434 0.012770 -0.004738 0.000000 0.004511 0.000000
# 3 -0.004856 -0.004738 0.015747 0.000000 -0.008416 0.000000
# 4 0.000000 0.000000 0.000000 0.062885 0.000000 -0.002120
# 5 -0.002063 0.004511 -0.008416 0.000000 0.034662 0.000000
# 6 0.000000 0.000000 0.000000 -0.002120 0.000000 0.047494
#
#
# Mechanical properties :
#
#
# Convention : Reuss Voigt Hill
#
# Bulk Modulus (GPa) = 50.12991 55.34351 52.73671
# Shear Modulus (GPa) = 21.95387 25.06731 23.51059
#
# Velocity S-wave (km/s) = 3.13401 3.34887 3.24322
# Velocity P-wave (km/s) = 5.96019 6.30187 6.13341
#
# Compressibility (1/GPa) = 0.01994817
#
# Stress axis : x y z
#
# Youngs Moduli (GPa) = 51.31379 78.31141 63.50600
#
# Poissons Ratio (x) = 0.34721 0.30837
# Poissons Ratio (y) = 0.22751 0.30092
# Poissons Ratio (z) = 0.24917 0.37108
#
# Static dielectric constant tensor:
#      x y z
#    x 4.212400 0.000000 0.260420 
#    y 0.000000 4.092790 0.000000 
#    z 0.260420 0.000000 4.179790 
# 
# 
# High freq. dielectric constant tensor:
#      x y z
#    x 1.875760 0.000000 0.012350 
#    y 0.000000 1.875270 0.000000 
#    z 0.012350 0.000000 1.904250 
# 
# From -- ./inp_files/24514.got.cif
#   From: 2010.06.25/outbox.cif.g09.slc.cpg/sg13_13_cif.got.tgz:24514.got - 2010.06.28 04:50:58.
