data_PCOD8119119
_publ_section_title
;
Structure prediction by ZEFSAII (Michael W. Deem and Ramdas Pophale) SiO2 
 PCOD8119119
Probable space group: P 2/C
;
_chemical_formula_sum "Si O2"
_cell_formula_units_Z 28
_cell_length_a 22.644600
_cell_length_b 12.269935
_cell_length_c 9.145106
_cell_angle_alpha 90.000000
_cell_angle_beta 30.898775
_cell_angle_gamma 90.000000
_cell_volume 1304.834647
_symmetry_space_group_name_H-M "P 2/C"
_symmetry_group_IT_number 13
_symmetry_cell_setting 'monoclinic'
loop_
_space_group_symop_operation_xyz
x,y,z
-x,y,1/2-z
-x,-y,-z
x,-y,1/2+z
loop_
_atom_site_type_symbol
_atom_site_label
_atom_site_fract_x
_atom_site_fract_y
_atom_site_fract_z
Si Si1 0.880035 0.549578 0.444243
Si Si2 0.540138 0.269135 0.009011
Si Si3 0.879704 0.791680 0.360990
Si Si4 0.318309 0.063047 0.710029
Si Si5 0.236225 0.383839 0.027325
Si Si6 0.129977 0.159445 0.289378
Si Si7 0.335900 0.859005 0.843610
O O1 0.914541 0.664635 0.297968
O O2 0.812613 0.470446 0.481593
O O3 0.786215 0.569697 0.766440
O O4 0.000000 0.498094 0.250000
O O5 0.602835 0.153683 0.885447
O O6 0.625735 0.362242 0.767483
O O7 0.500000 0.313620 0.250000
O O8 0.428215 0.240314 0.148902
O O9 0.835967 0.841132 0.609821
O O10 0.783737 0.802393 0.442195
O O11 0.993159 0.855512 0.066133
O O12 0.317898 0.079250 0.536762
O O13 0.371050 0.945854 0.643073
O O14 0.192690 0.066788 0.057941
O O15 0.169387 0.272976 0.133882
#
# Coordination Sequence:
#
# PCOD8119119 Si02
#       7
#     4   4   4   4   4   4   4
#     4  11  21  39  63  95 120 160 206 249 311 376
#     4   9  21  42  60  86 124 161 205 261 301 358
#     4  10  20  37  60  86 126 161 203 250 309 360
#     4  10  21  38  61  88 117 157 209 250 307 359
#     4  10  21  39  63  92 122 158 205 257 304 362
#     4   9  19  39  57  87 125 157 200 261 301 360
#     4  11  22  38  62  89 118 164 202 253 303 368
#
# _framework density 21.458656999999999
#
# number of rings (size 3 to 8) (size 9 to 14) (size 15 to 20)
#    0.000    2.000    2.857    1.714    0.000    4.571 
#    0.000   13.571    0.000    0.000    0.000    0.000 
#    0.000    0.000    0.000    0.000    0.000    0.000 
#
# Total GULP energy -347061.511259 kJ/mol
# GULP energy per Si atom -12395.053974 kJ/mol
# Density = 2.140982 g / cm^3
# Si number density = 21.458657 Si / 1000 Ang^3
#
#
#
# Elastic Constant Matrix: (Units=GPa)
#
#
# Indices 1 2 3 4 5 6 
#
# 1 100.6006 14.4011 38.2355 0.0000 -22.4199 0.0000
# 2 14.4011 22.3841 12.5686 0.0000 2.2932 0.0000
# 3 38.2355 12.5686 130.2222 0.0000 -6.5387 0.0000
# 4 0.0000 0.0000 0.0000 35.7113 0.0000 9.3927
# 5 -22.4199 2.2932 -6.5387 0.0000 29.4545 0.0000
# 6 0.0000 0.0000 0.0000 9.3927 0.0000 37.0193
#
#
#
# Elastic Compliance Matrix: (Units=1/GPa)
#
#
# Indices 1 2 3 4 5 6 
#
# 1 0.014895 -0.009110 -0.002922 0.000000 0.011398 0.000000
# 2 -0.009110 0.053471 -0.003077 0.000000 -0.011780 0.000000
# 3 -0.002922 -0.003077 0.008833 0.000000 -0.000024 0.000000
# 4 0.000000 0.000000 0.000000 0.030005 0.000000 -0.007613
# 5 0.011398 -0.011780 -0.000024 0.000000 0.043539 0.000000
# 6 0.000000 0.000000 0.000000 -0.007613 0.000000 0.028945
#
#
# Mechanical properties :
#
#
# Convention : Reuss Voigt Hill
#
# Bulk Modulus (GPa) = 21.28573 42.62417 31.95495
# Shear Modulus (GPa) = 22.16650 32.97047 27.56849
#
# Velocity S-wave (km/s) = 3.21750 3.92403 3.58820
# Velocity P-wave (km/s) = 4.87278 6.35902 5.66486
#
# Compressibility (1/GPa) = 0.04697984
#
# Stress axis : x y z
#
# Youngs Moduli (GPa) = 67.13569 18.70186 113.21265
#
# Poissons Ratio (x) = 0.17038 0.33079
# Poissons Ratio (y) = 0.61162 0.34841
# Poissons Ratio (z) = 0.19616 0.05755
#
# Static dielectric constant tensor:
#      x y z
#    x 3.708050 0.000000 0.009560 
#    y 0.000000 3.791120 0.000000 
#    z 0.009560 0.000000 4.573060 
# 
# 
# High freq. dielectric constant tensor:
#      x y z
#    x 1.830580 0.000000 -0.002020 
#    y 0.000000 1.824130 0.000000 
#    z -0.002020 0.000000 1.854100 
# 
# From -- ./inp_files/23611.got.cif
#   From: 2010.06.25/outbox.cif.g09.slc.cpg/sg13_12_cif.got.tgz:23611.got - 2010.06.28 04:50:58.
