data_PCOD8119547
_publ_section_title
;
Structure prediction by ZEFSAII (Michael W. Deem and Ramdas Pophale) SiO2 
 PCOD8119547
Probable space group: P 2/C
;
_chemical_formula_sum "Si O2"
_cell_formula_units_Z 20
_cell_length_a 11.412536
_cell_length_b 13.839690
_cell_length_c 17.351330
_cell_angle_alpha 90.000000
_cell_angle_beta 20.059368
_cell_angle_gamma 90.000000
_cell_volume 939.998925
_symmetry_space_group_name_H-M "P 2/C"
_symmetry_group_IT_number 13
_symmetry_cell_setting 'monoclinic'
loop_
_space_group_symop_operation_xyz
x,y,z
-x,y,1/2-z
-x,-y,-z
x,-y,1/2+z
loop_
_atom_site_type_symbol
_atom_site_label
_atom_site_fract_x
_atom_site_fract_y
_atom_site_fract_z
Si Si1 0.453137 0.742141 0.609734
Si Si2 0.881732 0.932087 0.504777
Si Si3 0.821296 0.930718 0.785678
Si Si4 0.157189 0.395833 0.413187
Si Si5 0.875074 0.257159 0.703391
O O1 0.264955 0.845702 0.722478
O O2 0.215576 0.658603 0.794686
O O3 0.560098 0.718630 0.455054
O O4 0.781138 0.751579 0.460120
O O5 0.500000 0.888919 0.750000
O O6 0.154139 0.845012 0.323413
O O7 0.000000 0.000000 0.500000
O O8 0.880853 0.000958 0.431089
O O9 0.000000 0.883462 0.750000
O O10 0.500000 0.000000 0.000000
O O11 0.500000 0.404903 0.250000
O O12 0.000000 0.500000 0.500000
O O13 0.880907 0.338803 0.634845
#
# Coordination Sequence:
#
# PCOD8119547 Si02
#       5
#     4   4   4   4   4
#     4  10  21  40  64  89 122 167 206 256 316 378
#     4  12  23  36  58  89 124 168 210 255 311 373
#     4  12  23  39  60  91 130 169 213 259 309 376
#     4  10  22  43  65  92 121 158 206 264 323 382
#     4  10  20  39  66  86 119 165 211 252 313 386
#
# _framework density 21.276619
#
# number of rings (size 3 to 8) (size 9 to 14) (size 15 to 20)
#    0.000    1.200    2.000    6.600    0.000    0.800 
#    3.600    1.000    0.000    0.000    0.000    0.000 
#    0.000    0.000    0.000    0.000    0.000    0.000 
#
# Total GULP energy -247879.442047 kJ/mol
# GULP energy per Si atom -12393.972102 kJ/mol
# Density = 2.122819 g / cm^3
# Si number density = 21.276619 Si / 1000 Ang^3
#
#
#
# Elastic Constant Matrix: (Units=GPa)
#
#
# Indices 1 2 3 4 5 6 
#
# 1 76.3056 55.4347 32.8171 0.0000 24.8657 0.0000
# 2 55.4347 179.9384 58.9712 0.0000 33.5889 0.0000
# 3 32.8171 58.9712 99.5740 0.0000 38.7312 0.0000
# 4 0.0000 0.0000 0.0000 41.2684 0.0000 4.6274
# 5 24.8657 33.5889 38.7312 0.0000 37.7335 0.0000
# 6 0.0000 0.0000 0.0000 4.6274 0.0000 36.4932
#
#
#
# Elastic Compliance Matrix: (Units=1/GPa)
#
#
# Indices 1 2 3 4 5 6 
#
# 1 0.019060 -0.004127 -0.000634 0.000000 -0.008236 0.000000
# 2 -0.004127 0.008036 -0.002787 0.000000 -0.001573 0.000000
# 3 -0.000634 -0.002787 0.017936 0.000000 -0.015511 0.000000
# 4 0.000000 0.000000 0.000000 0.024581 0.000000 -0.003117
# 5 -0.008236 -0.001573 -0.015511 0.000000 0.049250 0.000000
# 6 0.000000 0.000000 0.000000 -0.003117 0.000000 0.027798
#
#
# Mechanical properties :
#
#
# Convention : Reuss Voigt Hill
#
# Bulk Modulus (GPa) = 33.40573 72.25156 52.82864
# Shear Modulus (GPa) = 29.11466 37.00534 33.06000
#
# Velocity S-wave (km/s) = 3.70319 4.17495 3.94613
# Velocity P-wave (km/s) = 5.83263 7.56784 6.75617
#
# Compressibility (1/GPa) = 0.02993498
#
# Stress axis : x y z
#
# Youngs Moduli (GPa) = 52.46685 124.44224 55.75423
#
# Poissons Ratio (x) = 0.51353 0.03536
# Poissons Ratio (y) = 0.21651 0.15540
# Poissons Ratio (z) = 0.03328 0.34686
#
# Static dielectric constant tensor:
#      x y z
#    x 4.140080 0.000000 0.517350 
#    y 0.000000 3.871440 0.000000 
#    z 0.517350 0.000000 4.228420 
# 
# 
# High freq. dielectric constant tensor:
#      x y z
#    x 1.831210 0.000000 0.029970 
#    y 0.000000 1.823420 0.000000 
#    z 0.029970 0.000000 1.832270 
# 
# From -- ./inp_files/66779.got.cif
#   From: 2010.06.25/outbox.cif.g09.slc.cpg/sg13_34_cif.got.tgz:66779.got - 2010.06.28 04:50:58.
