data_PCOD8119787
_publ_section_title
;
Structure prediction by ZEFSAII (Michael W. Deem and Ramdas Pophale) SiO2 
 PCOD8119787
Probable space group: P 2/C
;
_chemical_formula_sum "Si O2"
_cell_formula_units_Z 30
_cell_length_a 16.866384
_cell_length_b 9.169940
_cell_length_c 26.920286
_cell_angle_alpha 90.000000
_cell_angle_beta 20.091881
_cell_angle_gamma 90.000000
_cell_volume 1430.304621
_symmetry_space_group_name_H-M "P 2/C"
_symmetry_group_IT_number 13
_symmetry_cell_setting 'monoclinic'
loop_
_space_group_symop_operation_xyz
x,y,z
-x,y,1/2-z
-x,-y,-z
x,-y,1/2+z
loop_
_atom_site_type_symbol
_atom_site_label
_atom_site_fract_x
_atom_site_fract_y
_atom_site_fract_z
Si Si1 0.716031 0.045957 0.563019
Si Si2 0.194273 0.933564 0.737911
Si Si3 0.614014 0.726618 0.631949
Si Si4 0.256891 0.327817 0.269283
Si Si5 0.000000 0.143660 0.250000
Si Si6 0.133611 0.655968 0.339576
Si Si7 0.083408 0.160681 0.964667
Si Si8 0.535812 0.828144 0.069033
O O1 0.711724 0.144582 0.615409
O O2 0.603994 0.139507 0.585409
O O3 0.987553 0.005799 0.393994
O O4 0.569016 0.900172 0.656648
O O5 0.247271 0.764563 0.723315
O O6 0.099200 0.949862 0.737660
O O7 0.428858 0.026207 0.606538
O O8 0.500000 0.663899 0.750000
O O9 0.513393 0.652433 0.640967
O O10 0.883194 0.698509 0.468522
O O11 0.133627 0.482124 0.338136
O O12 0.138344 0.240990 0.383664
O O13 0.770170 0.230239 0.403808
O O14 0.183948 0.738975 0.361634
O O15 0.338972 0.704976 0.181528
O O16 0.000000 0.000000 0.000000
#
# Coordination Sequence:
#
# PCOD8119787 Si02
#       8
#     4   4   4   4   2   4   4   4
#     4  10  21  35  61  92 123 170 210 256 316 377
#     4  10  20  42  68  91 125 161 214 276 331 382
#     4  12  22  36  62  88 131 176 216 253 307 370
#     4  11  24  40  62  92 136 176 212 260 313 389
#     4  10  24  40  70 100 122 150 222 284 338 374
#     4  12  25  40  61  94 135 175 217 259 314 387
#     4  11  20  38  60  91 129 174 216 260 302 362
#     4  11  22  41  65  93 125 163 213 272 327 384
#
# _framework density 20.974553
#
# number of rings (size 3 to 8) (size 9 to 14) (size 15 to 20)
#    0.000    1.067    5.333    1.600    1.867    3.200 
#    0.000    0.667    0.000    1.600    0.000    0.000 
#    0.000    0.000    0.000    0.000    0.000    0.000 
#
# Total GULP energy -371725.000014 kJ/mol
# GULP energy per Si atom -12390.833334 kJ/mol
# Density = 2.092681 g / cm^3
# Si number density = 20.974553 Si / 1000 Ang^3
#
#
#
# Elastic Constant Matrix: (Units=GPa)
#
#
# Indices 1 2 3 4 5 6 
#
# 1 113.5309 26.2514 20.7101 0.0000 -12.0917 0.0000
# 2 26.2514 103.9753 28.0002 0.0000 6.9848 0.0000
# 3 20.7101 28.0002 127.0100 0.0000 -12.9589 0.0000
# 4 0.0000 0.0000 0.0000 16.1800 0.0000 -2.4846
# 5 -12.0917 6.9848 -12.9589 0.0000 25.3428 0.0000
# 6 0.0000 0.0000 0.0000 -2.4846 0.0000 12.8735
#
#
#
# Elastic Compliance Matrix: (Units=1/GPa)
#
#
# Indices 1 2 3 4 5 6 
#
# 1 0.010109 -0.002779 -0.000491 0.000000 0.005338 0.000000
# 2 -0.002779 0.011428 -0.002662 0.000000 -0.005837 0.000000
# 3 -0.000491 -0.002662 0.009064 0.000000 0.005134 0.000000
# 4 0.000000 0.000000 0.000000 0.063692 0.000000 0.012293
# 5 0.005338 -0.005837 0.005134 0.000000 0.046240 0.000000
# 6 0.000000 0.000000 0.000000 0.012293 0.000000 0.080052
#
#
# Mechanical properties :
#
#
# Convention : Reuss Voigt Hill
#
# Bulk Modulus (GPa) = 53.36772 54.93773 54.15273
# Shear Modulus (GPa) = 20.94735 28.84957 24.89846
#
# Velocity S-wave (km/s) = 3.16365 3.71274 3.44914
# Velocity P-wave (km/s) = 6.23251 6.68047 6.46037
#
# Compressibility (1/GPa) = 0.01873792
#
# Stress axis : x y z
#
# Youngs Moduli (GPa) = 98.92422 87.50365 110.32479
#
# Poissons Ratio (x) = 0.24313 0.05419
# Poissons Ratio (y) = 0.27486 0.29367
# Poissons Ratio (z) = 0.04859 0.23292
#
# Static dielectric constant tensor:
#      x y z
#    x 3.923620 0.000000 -0.128960 
#    y 0.000000 3.558540 0.000000 
#    z -0.128960 0.000000 4.103230 
# 
# 
# High freq. dielectric constant tensor:
#      x y z
#    x 1.821050 0.000000 -0.023580 
#    y 0.000000 1.783840 0.000000 
#    z -0.023580 0.000000 1.834970 
# 
# From -- ./inp_files/97339.got.cif
#   From: 2010.06.25/outbox.cif.g09.slc.cpg/sg13_49_cif.got.tgz:97339.got - 2010.06.28 04:50:58.
