data_PCOD8119101
_publ_section_title
;
Structure prediction by ZEFSAII (Michael W. Deem and Ramdas Pophale) SiO2 
 PCOD8119101
Probable space group: P 2/C
;
_chemical_formula_sum "Si O2"
_cell_formula_units_Z 30
_cell_length_a 14.289852
_cell_length_b 11.669771
_cell_length_c 9.551691
_cell_angle_alpha 90.000000
_cell_angle_beta 110.807386
_cell_angle_gamma 90.000000
_cell_volume 1488.948549
_symmetry_space_group_name_H-M "P 2/C"
_symmetry_group_IT_number 13
_symmetry_cell_setting 'monoclinic'
loop_
_space_group_symop_operation_xyz
x,y,z
-x,y,1/2-z
-x,-y,-z
x,-y,1/2+z
loop_
_atom_site_type_symbol
_atom_site_label
_atom_site_fract_x
_atom_site_fract_y
_atom_site_fract_z
Si Si1 0.083664 0.900874 0.177658
Si Si2 0.744017 0.747648 0.806024
Si Si3 0.500000 0.971938 0.250000
Si Si4 0.948000 0.841052 0.866152
Si Si5 0.417714 0.582189 0.826733
Si Si6 0.453925 0.327490 0.876812
Si Si7 0.288633 0.838037 0.405717
Si Si8 0.623784 0.918652 0.573172
O O1 0.181235 0.829507 0.273524
O O2 0.000000 0.900142 0.250000
O O3 0.106749 0.034325 0.154339
O O4 0.039275 0.834066 0.022449
O O5 0.864194 0.744677 0.854639
O O6 0.693453 0.621901 0.777366
O O7 0.701086 0.819005 0.651412
O O8 0.714071 0.796784 0.938819
O O9 0.561174 0.890638 0.394790
O O10 0.441200 0.058410 0.321438
O O11 0.000000 0.811208 0.750000
O O12 0.500000 0.584864 0.750000
O O13 0.403505 0.452763 0.873211
O O14 0.455372 0.674646 0.963046
O O15 0.500000 0.310514 0.750000
O O16 0.371873 0.229357 0.860407
O O17 0.313965 0.970013 0.431219
#
# Coordination Sequence:
#
# PCOD8119101 Si02
#       8
#     4   4   2   4   4   4   4   4
#     4  10  20  37  59  87 125 161 202 244 300 368
#     4  12  23  39  64  88 121 167 206 247 307 368
#     4  10  24  36  46  76 130 164 184 244 300 358
#     4  10  22  37  59  88 125 159 198 253 300 359
#     4  10  22  42  65  87 121 161 208 250 306 363
#     4  10  24  42  62  91 118 161 210 258 300 356
#     4  12  23  38  63  89 123 163 210 250 298 367
#     4  11  24  35  54  87 125 160 207 239 299 372
#
# _framework density 20.148444000000001
#
# number of rings (size 3 to 8) (size 9 to 14) (size 15 to 20)
#    0.000    1.333    5.333    0.000    5.600    2.133 
#    0.000    0.000    0.000    1.600    0.000    0.000 
#    0.000    0.000    0.000    0.000    0.000    0.000 
#
# Total GULP energy -371885.404754 kJ/mol
# GULP energy per Si atom -12396.180158 kJ/mol
# Density = 2.010259 g / cm^3
# Si number density = 20.148444 Si / 1000 Ang^3
#
#
#
# Elastic Constant Matrix: (Units=GPa)
#
#
# Indices 1 2 3 4 5 6 
#
# 1 86.6434 15.9435 30.1982 0.0000 11.3985 0.0000
# 2 15.9435 27.0644 9.6799 0.0000 14.0612 0.0000
# 3 30.1982 9.6799 128.8349 0.0000 5.4907 0.0000
# 4 0.0000 0.0000 0.0000 15.5353 0.0000 3.9292
# 5 11.3985 14.0612 5.4907 0.0000 34.1507 0.0000
# 6 0.0000 0.0000 0.0000 3.9292 0.0000 15.3318
#
#
#
# Elastic Compliance Matrix: (Units=1/GPa)
#
#
# Indices 1 2 3 4 5 6 
#
# 1 0.013865 -0.006389 -0.002703 0.000000 -0.001562 0.000000
# 2 -0.006389 0.050918 -0.001536 0.000000 -0.018586 0.000000
# 3 -0.002703 -0.001536 0.008504 0.000000 0.000167 0.000000
# 4 0.000000 0.000000 0.000000 0.068831 0.000000 -0.017640
# 5 -0.001562 -0.018586 0.000167 0.000000 0.037429 0.000000
# 6 0.000000 0.000000 0.000000 -0.017640 0.000000 0.069745
#
#
# Mechanical properties :
#
#
# Convention : Reuss Voigt Hill
#
# Bulk Modulus (GPa) = 19.21967 39.35399 29.28683
# Shear Modulus (GPa) = 17.36762 25.45162 21.40962
#
# Velocity S-wave (km/s) = 2.93914 3.55802 3.26328
# Velocity P-wave (km/s) = 4.59106 6.03769 5.36337
#
# Compressibility (1/GPa) = 0.05203004
#
# Stress axis : x y z
#
# Youngs Moduli (GPa) = 72.12423 19.63933 117.59495
#
# Poissons Ratio (x) = 0.12548 0.31789
# Poissons Ratio (y) = 0.46081 0.18063
# Poissons Ratio (z) = 0.19497 0.03017
#
# Static dielectric constant tensor:
#      x y z
#    x 3.560300 0.000000 -0.007830 
#    y 0.000000 3.582840 0.000000 
#    z -0.007830 0.000000 3.556670 
# 
# 
# High freq. dielectric constant tensor:
#      x y z
#    x 1.776940 0.000000 -0.003490 
#    y 0.000000 1.755410 0.000000 
#    z -0.003490 0.000000 1.812480 
# 
# From -- ./inp_files/19068.got.cif
#   From: 2010.06.25/outbox.cif.g09.slc.cpg/sg13_10_cif.got.tgz:19068.got - 2010.06.28 04:50:58.
