data_PCOD8119137
_publ_section_title
;
Structure prediction by ZEFSAII (Michael W. Deem and Ramdas Pophale) SiO2 
 PCOD8119137
Probable space group: P 2/C
;
_chemical_formula_sum "Si O2"
_cell_formula_units_Z 28
_cell_length_a 22.485519
_cell_length_b 12.256737
_cell_length_c 27.437368
_cell_angle_alpha 90.000000
_cell_angle_beta 11.171169
_cell_angle_gamma 90.000000
_cell_volume 1465.011817
_symmetry_space_group_name_H-M "P 2/C"
_symmetry_group_IT_number 13
_symmetry_cell_setting 'monoclinic'
loop_
_space_group_symop_operation_xyz
x,y,z
-x,y,1/2-z
-x,-y,-z
x,-y,1/2+z
loop_
_atom_site_type_symbol
_atom_site_label
_atom_site_fract_x
_atom_site_fract_y
_atom_site_fract_z
Si Si1 0.104767 0.202966 0.937943
Si Si2 0.887720 0.403357 0.056289
Si Si3 0.850890 0.484449 0.979301
Si Si4 0.545317 0.870779 0.513497
Si Si5 0.832336 0.263885 0.501989
Si Si6 0.785149 0.671970 0.379377
Si Si7 0.624085 0.886276 0.958835
O O1 0.164130 0.254284 0.942806
O O2 0.397734 0.133155 0.686255
O O3 0.075475 0.296653 0.920795
O O4 0.798341 0.129084 0.187456
O O5 0.530245 0.377242 0.347810
O O6 0.960181 0.436781 0.942997
O O7 0.000000 0.500000 0.000000
O O8 0.056090 0.429281 0.773817
O O9 0.500000 0.456977 0.250000
O O10 0.919135 0.612412 0.919852
O O11 0.744110 0.773125 0.375838
O O12 0.541910 0.854805 0.458160
O O13 0.709751 0.985712 0.392490
O O14 0.500000 0.230876 0.750000
O O15 0.067213 0.184479 0.284998
O O16 0.000000 0.715398 0.250000
#
# Coordination Sequence:
#
# PCOD8119137 Si02
#       7
#     4   4   4   4   4   4   4
#     4  10  20  37  61  88 115 153 197 241 291 355
#     4  11  22  37  60  92 119 153 201 240 289 361
#     4  11  22  39  60  85 124 158 188 243 298 356
#     4   9  21  40  61  90 117 146 204 252 283 357
#     4  10  23  38  54  87 123 151 199 243 285 353
#     4  11  23  40  61  87 123 158 195 248 306 353
#     4  10  20  40  65  84 116 161 195 243 305 341
#
# _framework density 19.112473000000001
#
# number of rings (size 3 to 8) (size 9 to 14) (size 15 to 20)
#    0.000    1.714    2.857    1.286    2.000    1.143 
#    2.571    0.714    0.000    0.000    0.000    0.000 
#    0.000    0.000    0.000    0.000    0.000    0.000 
#
# Total GULP energy -347270.173052 kJ/mol
# GULP energy per Si atom -12402.506180 kJ/mol
# Density = 1.906897 g / cm^3
# Si number density = 19.112473 Si / 1000 Ang^3
#
#
#
# Elastic Constant Matrix: (Units=GPa)
#
#
# Indices 1 2 3 4 5 6 
#
# 1 60.6909 28.3477 21.6168 0.0000 -7.1973 0.0000
# 2 28.3477 106.6166 49.1807 0.0000 -4.0346 0.0000
# 3 21.6168 49.1807 82.3816 0.0000 -3.8597 0.0000
# 4 0.0000 0.0000 0.0000 31.0666 0.0000 1.3902
# 5 -7.1973 -4.0346 -3.8597 0.0000 31.7667 0.0000
# 6 0.0000 0.0000 0.0000 1.3902 0.0000 7.4611
#
#
#
# Elastic Compliance Matrix: (Units=1/GPa)
#
#
# Indices 1 2 3 4 5 6 
#
# 1 0.019665 -0.003849 -0.002692 0.000000 0.003640 0.000000
# 2 -0.003849 0.013713 -0.007177 0.000000 -0.000002 0.000000
# 3 -0.002692 -0.007177 0.017156 0.000000 0.000563 0.000000
# 4 0.000000 0.000000 0.000000 0.032460 0.000000 -0.006048
# 5 0.003640 -0.000002 0.000563 0.000000 0.032372 0.000000
# 6 0.000000 0.000000 0.000000 -0.006048 0.000000 0.135155
#
#
# Mechanical properties :
#
#
# Convention : Reuss Voigt Hill
#
# Bulk Modulus (GPa) = 43.29210 49.77550 46.53380
# Shear Modulus (GPa) = 17.50357 24.09514 20.79935
#
# Velocity S-wave (km/s) = 3.02953 3.55449 3.30246
# Velocity P-wave (km/s) = 5.91082 6.55331 6.24034
#
# Compressibility (1/GPa) = 0.02309890
#
# Stress axis : x y z
#
# Youngs Moduli (GPa) = 50.85121 72.92189 58.28975
#
# Poissons Ratio (x) = 0.28070 0.15689
# Poissons Ratio (y) = 0.19574 0.41833
# Poissons Ratio (z) = 0.13687 0.52334
#
# Static dielectric constant tensor:
#      x y z
#    x 3.595190 0.000000 -0.019350 
#    y 0.000000 3.517930 0.000000 
#    z -0.019350 0.000000 3.451570 
# 
# 
# High freq. dielectric constant tensor:
#      x y z
#    x 1.747390 0.000000 0.002050 
#    y 0.000000 1.750450 0.000000 
#    z 0.002050 0.000000 1.740080 
# 
# From -- ./inp_files/73686.got.cif
#   From: 2010.06.25/outbox.cif.g09.slc.cpg/sg13_37_cif.got.tgz:73686.got - 2010.06.28 04:50:58.
