data_PCOD8119020
_publ_section_title
;
Structure prediction by ZEFSAII (Michael W. Deem and Ramdas Pophale) SiO2 
 PCOD8119020
Probable space group: P 2/C
;
_chemical_formula_sum "Si O2"
_cell_formula_units_Z 26
_cell_length_a 10.963329
_cell_length_b 8.743475
_cell_length_c 14.388600
_cell_angle_alpha 90.000000
_cell_angle_beta 61.488163
_cell_angle_gamma 90.000000
_cell_volume 1211.978280
_symmetry_space_group_name_H-M "P 2/C"
_symmetry_group_IT_number 13
_symmetry_cell_setting 'monoclinic'
loop_
_space_group_symop_operation_xyz
x,y,z
-x,y,1/2-z
-x,-y,-z
x,-y,1/2+z
loop_
_atom_site_type_symbol
_atom_site_label
_atom_site_fract_x
_atom_site_fract_y
_atom_site_fract_z
Si Si1 0.625528 0.637584 0.150694
Si Si2 0.623570 0.318015 0.258467
Si Si3 0.092645 0.789158 0.402680
Si Si4 0.448617 0.247964 0.014458
Si Si5 0.280219 0.062297 0.558236
Si Si6 0.000000 0.168279 0.750000
Si Si7 0.842290 0.125795 0.094540
O O1 0.500000 0.724940 0.250000
O O2 0.645192 0.473419 0.191564
O O3 0.766557 0.728318 0.108104
O O4 0.584488 0.633651 0.057001
O O5 0.500000 0.228047 0.250000
O O6 0.581530 0.344412 0.380713
O O7 0.759660 0.214697 0.204223
O O8 0.050450 0.722196 0.316769
O O9 0.969731 0.761412 0.520989
O O10 0.100136 0.971561 0.380663
O O11 0.345076 0.104264 0.049225
O O12 0.608471 0.191007 0.949466
O O13 0.253140 0.087689 0.459157
O O14 0.135230 0.071336 0.667389
#
# Coordination Sequence:
#
# PCOD8119020 Si02
#       7
#     4   4   4   4   4   2   4
#     4  11  25  42  63  93 129 174 212 266 318 391
#     4  11  24  41  63  93 131 173 214 264 323 384
#     4  10  21  39  63  92 127 160 217 263 325 380
#     4  11  22  42  65  99 129 170 217 269 327 386
#     4  10  20  37  68  99 125 162 217 273 327 379
#     4  10  20  36  62  98 124 164 204 270 324 380
#     4  10  20  40  65  91 125 165 211 276 318 382
#
# _framework density 21.452528000000001
#
# number of rings (size 3 to 8) (size 9 to 14) (size 15 to 20)
#    0.000    1.538    3.077    1.846    0.000    4.923 
#    5.538    0.000    0.000    0.000    0.000    0.000 
#    0.000    0.000    0.000    0.000    0.000    0.000 
#
# Total GULP energy -322205.461745 kJ/mol
# GULP energy per Si atom -12392.517759 kJ/mol
# Density = 2.140370 g / cm^3
# Si number density = 21.452528 Si / 1000 Ang^3
#
#
#
# Elastic Constant Matrix: (Units=GPa)
#
#
# Indices 1 2 3 4 5 6 
#
# 1 121.0705 17.3676 59.9646 0.0000 -9.0337 0.0000
# 2 17.3676 50.2751 33.2917 0.0000 -5.0818 0.0000
# 3 59.9646 33.2917 152.2076 0.0000 0.9830 0.0000
# 4 0.0000 0.0000 0.0000 510.5863 0.0000 506.3212
# 5 -9.0337 -5.0818 0.9830 0.0000 48.3038 0.0000
# 6 0.0000 0.0000 0.0000 506.3212 0.0000 547.7332
#
#
#
# Elastic Compliance Matrix: (Units=1/GPa)
#
#
# Indices 1 2 3 4 5 6 
#
# 1 0.010486 -0.000796 -0.003970 0.000000 0.001958 0.000000
# 2 -0.000796 0.023638 -0.004873 0.000000 0.002437 0.000000
# 3 -0.003970 -0.004873 0.009209 0.000000 -0.001442 0.000000
# 4 0.000000 0.000000 0.000000 0.023504 0.000000 -0.021727
# 5 0.001958 0.002437 -0.001442 0.000000 0.021354 0.000000
# 6 0.000000 0.000000 0.000000 -0.021727 0.000000 0.021910
#
#
# Mechanical properties :
#
#
# Convention : Reuss Voigt Hill
#
# Bulk Modulus (GPa) = 41.56742 60.53343 51.05042
# Shear Modulus (GPa) = 36.39097 235.51997 135.95547
#
# Velocity S-wave (km/s) = 4.12314 10.48928 7.96948
# Velocity P-wave (km/s) = 6.48734 13.22795 10.41787
#
# Compressibility (1/GPa) = 0.02405730
#
# Stress axis : x y z
#
# Youngs Moduli (GPa) = 95.36462 42.30409 108.58965
#
# Poissons Ratio (x) = 0.03366 0.43107
# Poissons Ratio (y) = 0.07589 0.52911
# Poissons Ratio (z) = 0.37857 0.20613
#
# Static dielectric constant tensor:
#      x y z
#    x 4.262360 0.000000 -0.154330 
#    y 0.000000 3.393040 0.000000 
#    z -0.154330 0.000000 4.107630 
# 
# 
# High freq. dielectric constant tensor:
#      x y z
#    x 1.863940 0.000000 -0.003860 
#    y 0.000000 1.796290 0.000000 
#    z -0.003860 0.000000 1.858240 
# 
# From -- ./inp_files/49887.got.cif
#   From: 2010.06.25/outbox.cif.g09.slc.cpg/sg13_25_cif.got.tgz:49887.got - 2010.06.28 04:50:58.
