data_PCOD8119486
_publ_section_title
;
Structure prediction by ZEFSAII (Michael W. Deem and Ramdas Pophale) SiO2 
 PCOD8119486
Probable space group: P 2/C
;
_chemical_formula_sum "Si O2"
_cell_formula_units_Z 32
_cell_length_a 15.529611
_cell_length_b 7.672156
_cell_length_c 24.374544
_cell_angle_alpha 90.000000
_cell_angle_beta 148.322959
_cell_angle_gamma 90.000000
_cell_volume 1525.042315
_symmetry_space_group_name_H-M "P 2/C"
_symmetry_group_IT_number 13
_symmetry_cell_setting 'monoclinic'
loop_
_space_group_symop_operation_xyz
x,y,z
-x,y,1/2-z
-x,-y,-z
x,-y,1/2+z
loop_
_atom_site_type_symbol
_atom_site_label
_atom_site_fract_x
_atom_site_fract_y
_atom_site_fract_z
Si Si1 0.571278 0.777242 0.939853
Si Si2 0.145368 0.542718 0.619217
Si Si3 0.412826 0.238641 0.760984
Si Si4 0.010577 0.303246 0.155126
Si Si5 0.156817 0.423774 0.859211
Si Si6 0.380912 0.837487 0.736249
Si Si7 0.318826 0.842920 0.013190
Si Si8 0.308098 0.718938 0.884669
O O1 0.456815 0.719034 0.827439
O O2 0.478949 0.757873 0.947481
O O3 0.619503 0.964888 0.944359
O O4 0.742408 0.678282 0.040399
O O5 0.269348 0.379529 0.689523
O O6 0.071840 0.575680 0.639443
O O7 0.219225 0.724822 0.635946
O O8 0.000000 0.500000 0.500000
O O9 0.500000 0.262781 0.750000
O O10 0.549597 0.276796 0.882576
O O11 0.339542 0.040523 0.727248
O O12 0.163853 0.203548 0.267047
O O13 0.925418 0.413967 0.156061
O O14 0.863082 0.172212 0.057974
O O15 0.274675 0.510200 0.875976
O O16 0.000000 0.313301 0.750000
O O17 0.500000 0.829072 0.750000
O O18 0.320038 0.813706 0.948977
#
# Coordination Sequence:
#
# PCOD8119486 Si02
#       8
#     4   4   4   4   4   4   4   4
#     4  11  21  38  63  92 120 169 217 260 323 387
#     4  12  25  40  67  96 122 171 216 258 329 388
#     4  10  23  45  65  94 129 167 220 268 318 384
#     4  10  22  40  56  92 130 160 205 265 319 378
#     4   9  21  35  56  86 125 167 203 257 319 371
#     4  10  24  43  66  94 128 167 216 273 327 378
#     4  10  22  38  64  90 125 172 207 261 325 386
#     4  10  20  39  61  87 128 164 212 267 317 381
#
# _framework density 20.983024
#
# number of rings (size 3 to 8) (size 9 to 14) (size 15 to 20)
#    0.000    1.750    1.250    3.000    5.250    3.500 
#    2.250    0.000    0.000    0.000    0.000    0.000 
#    0.000    0.000    0.000    0.000    0.000    0.000 
#
# Total GULP energy -396466.736182 kJ/mol
# GULP energy per Si atom -12389.585506 kJ/mol
# Density = 2.093527 g / cm^3
# Si number density = 20.983024 Si / 1000 Ang^3
#
#
#
# Elastic Constant Matrix: (Units=GPa)
#
#
# Indices 1 2 3 4 5 6 
#
# 1 84.4571 33.9432 25.7711 0.0000 2.0234 0.0000
# 2 33.9432 71.8831 44.7639 0.0000 11.0089 0.0000
# 3 25.7711 44.7639 127.5937 0.0000 4.0934 0.0000
# 4 0.0000 0.0000 0.0000 27.6525 0.0000 -4.8597
# 5 2.0234 11.0089 4.0934 0.0000 29.0745 0.0000
# 6 0.0000 0.0000 0.0000 -4.8597 0.0000 55.6217
#
#
#
# Elastic Compliance Matrix: (Units=1/GPa)
#
#
# Indices 1 2 3 4 5 6 
#
# 1 0.014733 -0.006811 -0.000639 0.000000 0.001643 0.000000
# 2 -0.006811 0.022012 -0.006122 0.000000 -0.006999 0.000000
# 3 -0.000639 -0.006122 0.010084 0.000000 0.000943 0.000000
# 4 0.000000 0.000000 0.000000 0.036727 0.000000 0.003209
# 5 0.001643 -0.006999 0.000943 0.000000 0.036797 0.000000
# 6 0.000000 0.000000 0.000000 0.003209 0.000000 0.018259
#
#
# Mechanical properties :
#
#
# Convention : Reuss Voigt Hill
#
# Bulk Modulus (GPa) = 50.80026 54.76560 52.78293
# Shear Modulus (GPa) = 29.01602 34.43345 31.72473
#
# Velocity S-wave (km/s) = 3.72268 4.05534 3.89256
# Velocity P-wave (km/s) = 6.53762 6.93428 6.73887
#
# Compressibility (1/GPa) = 0.01968494
#
# Stress axis : x y z
#
# Youngs Moduli (GPa) = 67.87393 45.42989 99.16588
#
# Poissons Ratio (x) = 0.30941 0.06337
# Poissons Ratio (y) = 0.46227 0.60713
# Poissons Ratio (z) = 0.04338 0.27814
#
# Static dielectric constant tensor:
#      x y z
#    x 3.835340 0.000000 0.076180 
#    y 0.000000 3.730710 0.000000 
#    z 0.076180 0.000000 4.933290 
# 
# 
# High freq. dielectric constant tensor:
#      x y z
#    x 1.822040 0.000000 -0.003620 
#    y 0.000000 1.797280 0.000000 
#    z -0.003620 0.000000 1.846920 
# 
# From -- ./inp_files/87419.got.cif
#   From: 2010.06.25/outbox.cif.g09.slc.cpg/sg13_44_cif.got.tgz:87419.got - 2010.06.28 04:50:58.
