data_PCOD8119514
_publ_section_title
;
Structure prediction by ZEFSAII (Michael W. Deem and Ramdas Pophale) SiO2 
 PCOD8119514
Probable space group: P 2/C
;
_chemical_formula_sum "Si O2"
_cell_formula_units_Z 30
_cell_length_a 11.835136
_cell_length_b 8.446230
_cell_length_c 22.082199
_cell_angle_alpha 90.000000
_cell_angle_beta 44.167944
_cell_angle_gamma 90.000000
_cell_volume 1538.027546
_symmetry_space_group_name_H-M "P 2/C"
_symmetry_group_IT_number 13
_symmetry_cell_setting 'monoclinic'
loop_
_space_group_symop_operation_xyz
x,y,z
-x,y,1/2-z
-x,-y,-z
x,-y,1/2+z
loop_
_atom_site_type_symbol
_atom_site_label
_atom_site_fract_x
_atom_site_fract_y
_atom_site_fract_z
Si Si1 0.000000 0.417116 0.250000
Si Si2 0.079754 0.178904 0.322287
Si Si3 0.716719 0.632146 0.411007
Si Si4 0.986754 0.830813 0.324516
Si Si5 0.143033 0.334367 0.000508
Si Si6 0.093203 0.390881 0.887735
Si Si7 0.635528 0.639056 0.745791
Si Si8 0.529605 0.548872 0.085151
O O1 0.917149 0.309474 0.231191
O O2 0.863937 0.514896 0.337578
O O3 0.258258 0.201502 0.282990
O O4 0.937963 0.201475 0.426228
O O5 0.048970 0.008021 0.306036
O O6 0.794037 0.796129 0.408715
O O7 0.607183 0.661309 0.393136
O O8 0.606438 0.560095 0.504730
O O9 0.000000 0.772258 0.250000
O O10 0.092272 0.723260 0.329840
O O11 0.071515 0.506606 0.046085
O O12 0.106084 0.289973 0.944808
O O13 0.336618 0.337698 0.935742
O O14 0.247818 0.504917 0.826498
O O15 0.500000 0.688738 0.750000
O O16 0.550240 0.572086 0.837756
#
# Coordination Sequence:
#
# PCOD8119514 Si02
#       8
#     2   4   4   4   4   4   4   4
#     4  12  18  40  62  88 118 162 222 256 296 368
#     4  11  24  38  62  90 128 168 205 248 320 386
#     4  11  22  35  66  89 119 161 217 260 305 360
#     4  12  23  40  62  89 127 170 209 252 312 384
#     4  10  20  39  63  92 121 158 216 264 301 370
#     4  10  21  39  65  92 117 164 218 255 305 373
#     4  11  21  38  65  91 120 157 208 268 312 363
#     4  11  20  35  62  97 120 149 210 275 306 347
#
# _framework density 19.505503000000001
#
# number of rings (size 3 to 8) (size 9 to 14) (size 15 to 20)
#    0.000    1.067    6.667    1.600    0.000    0.533 
#    0.000    1.333    2.933    0.000    0.000    0.000 
#    0.000    0.000    0.000    0.000    0.000    0.000 
#
# Total GULP energy -371836.990384 kJ/mol
# GULP energy per Si atom -12394.566346 kJ/mol
# Density = 1.946111 g / cm^3
# Si number density = 19.505503 Si / 1000 Ang^3
#
#
#
# Elastic Constant Matrix: (Units=GPa)
#
#
# Indices 1 2 3 4 5 6 
#
# 1 140.5471 42.5297 31.0670 0.0000 -9.0809 0.0000
# 2 42.5297 64.3496 23.8905 0.0000 -5.3915 0.0000
# 3 31.0670 23.8905 79.4402 0.0000 2.6706 0.0000
# 4 0.0000 0.0000 0.0000 15.6451 0.0000 0.0788
# 5 -9.0809 -5.3915 2.6706 0.0000 44.3783 0.0000
# 6 0.0000 0.0000 0.0000 0.0788 0.0000 29.5075
#
#
#
# Elastic Compliance Matrix: (Units=1/GPa)
#
#
# Indices 1 2 3 4 5 6 
#
# 1 0.009246 -0.005218 -0.002093 0.000000 0.001384 0.000000
# 2 -0.005218 0.020707 -0.004244 0.000000 0.001703 0.000000
# 3 -0.002093 -0.004244 0.014745 0.000000 -0.001831 0.000000
# 4 0.000000 0.000000 0.000000 0.063919 0.000000 -0.000171
# 5 0.001384 0.001703 -0.001831 0.000000 0.023134 0.000000
# 6 0.000000 0.000000 0.000000 -0.000171 0.000000 0.033890
#
#
# Mechanical properties :
#
#
# Convention : Reuss Voigt Hill
#
# Bulk Modulus (GPa) = 46.32314 53.25683 49.78999
# Shear Modulus (GPa) = 25.51719 30.36283 27.94001
#
# Velocity S-wave (km/s) = 3.62083 3.94969 3.78883
# Velocity P-wave (km/s) = 6.42502 6.93995 6.68744
#
# Compressibility (1/GPa) = 0.02158748
#
# Stress axis : x y z
#
# Youngs Moduli (GPa) = 108.15390 48.29286 67.82139
#
# Poissons Ratio (x) = 0.25198 0.14197
# Poissons Ratio (y) = 0.56432 0.28784
# Poissons Ratio (z) = 0.22639 0.20496
#
# Static dielectric constant tensor:
#      x y z
#    x 4.136860 0.000000 -0.063020 
#    y 0.000000 3.109730 0.000000 
#    z -0.063020 0.000000 3.821270 
# 
# 
# High freq. dielectric constant tensor:
#      x y z
#    x 1.787640 0.000000 0.007020 
#    y 0.000000 1.707760 0.000000 
#    z 0.007020 0.000000 1.769400 
# 
# From -- ./inp_files/86347.got.cif
#   From: 2010.06.25/outbox.cif.g09.slc.cpg/sg13_44_cif.got.tgz:86347.got - 2010.06.28 04:50:58.
