data_PCOD8119528
_publ_section_title
;
Structure prediction by ZEFSAII (Michael W. Deem and Ramdas Pophale) SiO2 
 PCOD8119528
Probable space group: P 2/C
;
_chemical_formula_sum "Si O2"
_cell_formula_units_Z 20
_cell_length_a 17.526939
_cell_length_b 5.126848
_cell_length_c 25.975043
_cell_angle_alpha 90.000000
_cell_angle_beta 22.703608
_cell_angle_gamma 90.000000
_cell_volume 900.865059
_symmetry_space_group_name_H-M "P 2/C"
_symmetry_group_IT_number 13
_symmetry_cell_setting 'monoclinic'
loop_
_space_group_symop_operation_xyz
x,y,z
-x,y,1/2-z
-x,-y,-z
x,-y,1/2+z
loop_
_atom_site_type_symbol
_atom_site_label
_atom_site_fract_x
_atom_site_fract_y
_atom_site_fract_z
Si Si1 0.796743 0.544985 0.402262
Si Si2 0.845758 0.681514 0.489938
Si Si3 0.434971 0.966470 0.482411
Si Si4 0.201650 0.937558 0.313709
Si Si5 0.193099 0.181811 0.930714
O O1 0.823728 0.585826 0.445830
O O2 0.738514 0.825903 0.416695
O O3 0.000000 0.453464 0.250000
O O4 0.635942 0.324398 0.488187
O O5 0.741656 0.459640 0.588699
O O6 0.079946 0.714133 0.357944
O O7 0.734381 0.952029 0.574876
O O8 0.500000 0.000000 0.500000
O O9 0.618417 0.043559 0.332028
O O10 0.286325 0.838498 0.315774
O O11 0.048018 0.172304 0.422419
#
# Coordination Sequence:
#
# PCOD8119528 Si02
#       5
#     4   4   4   4   4
#     4  12  27  44  64  92 131 171 209 262 331 375
#     4  10  20  39  64  91 125 170 205 248 319 372
#     4  12  27  43  67  96 124 164 221 269 309 375
#     4   9  22  38  69  93 127 162 220 247 309 374
#     4   9  20  36  69  92 126 168 207 247 314 380
#
# _framework density 22.200883999999999
#
# number of rings (size 3 to 8) (size 9 to 14) (size 15 to 20)
#    1.200    0.400    0.000    4.200    5.600    0.000 
#    0.000    6.000    0.000    0.000    0.000    0.000 
#    0.000    0.000    0.000    0.000    0.000    0.000 
#
# Total GULP energy -247860.645372 kJ/mol
# GULP energy per Si atom -12393.032269 kJ/mol
# Density = 2.215035 g / cm^3
# Si number density = 22.200884 Si / 1000 Ang^3
#
#
#
# Elastic Constant Matrix: (Units=GPa)
#
#
# Indices 1 2 3 4 5 6 
#
# 1 147.3277 25.6639 32.3965 0.0000 19.4765 0.0000
# 2 25.6639 111.1149 2.8556 0.0000 -6.9242 0.0000
# 3 32.3965 2.8556 85.8683 0.0000 18.3688 0.0000
# 4 0.0000 0.0000 0.0000 1.2714 0.0000 7.4447
# 5 19.4765 -6.9242 18.3688 0.0000 25.8530 0.0000
# 6 0.0000 0.0000 0.0000 7.4447 0.0000 35.1536
#
#
#
# Elastic Compliance Matrix: (Units=1/GPa)
#
#
# Indices 1 2 3 4 5 6 
#
# 1 0.008318 -0.002217 -0.001883 0.000000 -0.005522 0.000000
# 2 -0.002217 0.009813 -0.000483 0.000000 0.004642 0.000000
# 3 -0.001883 -0.000483 0.014265 0.000000 -0.008846 0.000000
# 4 0.000000 0.000000 0.000000 -3.277115 0.000000 0.694012
# 5 -0.005522 0.004642 -0.008846 0.000000 0.050369 0.000000
# 6 0.000000 0.000000 0.000000 0.694012 0.000000 -0.118528
#
#
# Mechanical properties :
#
#
# Convention : Reuss Voigt Hill
#
# Bulk Modulus (GPa) = 43.04787 51.79366 47.42077
# Shear Modulus (GPa) = -1.51700 31.34859 14.91579
#
# Velocity S-wave (km/s) = -0.82752 3.76179 2.59483
# Velocity P-wave (km/s) = 4.30339 6.49987 5.51215
#
# Compressibility (1/GPa) = 0.02322995
#
# Stress axis : x y z
#
# Youngs Moduli (GPa) = 120.22308 101.90180 70.10376
#
# Poissons Ratio (x) = 0.22590 0.13202
# Poissons Ratio (y) = 0.26652 0.03385
# Poissons Ratio (z) = 0.22640 0.04921
#
# Static dielectric constant tensor:
#      x y z
#    x 3.871040 0.000000 0.069150 
#    y 0.000000 3.984600 0.000000 
#    z 0.069150 0.000000 3.681190 
# 
# 
# High freq. dielectric constant tensor:
#      x y z
#    x 1.885890 0.000000 0.012200 
#    y 0.000000 1.871800 0.000000 
#    z 0.012200 0.000000 1.854250 
# 
# From -- ./inp_files/93123.got.cif
#   From: 2010.06.25/outbox.cif.g09.slc.cpg/sg13_47_cif.got.tgz:93123.got - 2010.06.28 04:50:58.
