data_PCOD8119792
_publ_section_title
;
Structure prediction by ZEFSAII (Michael W. Deem and Ramdas Pophale) SiO2 
 PCOD8119792
Probable space group: P 2/C
;
_chemical_formula_sum "Si O2"
_cell_formula_units_Z 22
_cell_length_a 12.002629
_cell_length_b 11.920849
_cell_length_c 14.103814
_cell_angle_alpha 90.000000
_cell_angle_beta 150.731567
_cell_angle_gamma 90.000000
_cell_volume 986.601741
_symmetry_space_group_name_H-M "P 2/C"
_symmetry_group_IT_number 13
_symmetry_cell_setting 'monoclinic'
loop_
_space_group_symop_operation_xyz
x,y,z
-x,y,1/2-z
-x,-y,-z
x,-y,1/2+z
loop_
_atom_site_type_symbol
_atom_site_label
_atom_site_fract_x
_atom_site_fract_y
_atom_site_fract_z
Si Si1 0.500000 0.347477 0.750000
Si Si2 0.163840 0.832723 0.045808
Si Si3 0.913493 0.325556 0.491503
Si Si4 0.000000 0.060796 0.250000
Si Si5 0.494386 0.014461 0.108155
Si Si6 0.311130 0.482396 0.784287
Si Si7 0.500000 0.208965 0.250000
O O1 0.713914 0.264933 0.924468
O O2 0.442570 0.425164 0.795323
O O3 0.344692 0.924184 0.219867
O O4 0.031025 0.785958 0.037645
O O5 0.970831 0.874686 0.828661
O O6 0.791408 0.397128 0.318441
O O7 0.724934 0.287764 0.429237
O O8 0.111687 0.404682 0.681661
O O9 0.230849 0.994505 0.442266
O O10 0.551998 0.137250 0.192983
O O11 0.500000 0.000000 0.000000
O O12 0.500000 0.500000 0.000000
#
# Coordination Sequence:
#
# PCOD8119792 Si02
#       7
#     2   4   4   2   4   4   2
#     4  10  20  42  68  94 142 164 228 286 334 414
#     4  11  23  44  66 102 132 183 234 276 340 420
#     4  10  25  43  69  98 140 176 231 286 338 419
#     4  12  22  42  70  94 134 184 222 278 344 392
#     4  12  27  44  67 102 143 179 231 285 333 418
#     4  10  23  46  68 102 134 175 229 291 348 404
#     4  12  24  48  64 104 146 178 228 282 348 410
#
# _framework density 22.298765
#
# number of rings (size 3 to 8) (size 9 to 14) (size 15 to 20)
#    0.000    1.091    3.636    1.636    5.091    4.364 
#    0.000    7.273    0.000    0.000    0.000    0.000 
#    0.000    0.000    0.000    0.000    0.000    0.000 
#
# Total GULP energy -272566.226166 kJ/mol
# GULP energy per Si atom -12389.373917 kJ/mol
# Density = 2.224801 g / cm^3
# Si number density = 22.298765 Si / 1000 Ang^3
#
#
#
# Elastic Constant Matrix: (Units=GPa)
#
#
# Indices 1 2 3 4 5 6 
#
# 1 95.3564 43.5431 43.9734 0.0000 9.8713 0.0000
# 2 43.5431 102.6451 57.2158 0.0000 9.0794 0.0000
# 3 43.9734 57.2158 163.0371 0.0000 1.9235 0.0000
# 4 0.0000 0.0000 0.0000 19.2558 0.0000 14.1260
# 5 9.8713 9.0794 1.9235 0.0000 49.9266 0.0000
# 6 0.0000 0.0000 0.0000 14.1260 0.0000 28.9282
#
#
#
# Elastic Compliance Matrix: (Units=1/GPa)
#
#
# Indices 1 2 3 4 5 6 
#
# 1 0.013686 -0.004475 -0.002099 0.000000 -0.001811 0.000000
# 2 -0.004475 0.013786 -0.003614 0.000000 -0.001483 0.000000
# 3 -0.002099 -0.003614 0.007959 0.000000 0.000766 0.000000
# 4 0.000000 0.000000 0.000000 0.080920 0.000000 -0.039514
# 5 -0.001811 -0.001483 0.000766 0.000000 0.020628 0.000000
# 6 0.000000 0.000000 0.000000 -0.039514 0.000000 0.053864
#
#
# Mechanical properties :
#
#
# Convention : Reuss Voigt Hill
#
# Bulk Modulus (GPa) = 66.42447 72.27813 69.35130
# Shear Modulus (GPa) = 23.12267 34.04253 28.58260
#
# Velocity S-wave (km/s) = 3.22366 3.91148 3.58411
# Velocity P-wave (km/s) = 6.61128 7.27210 6.94955
#
# Compressibility (1/GPa) = 0.01505469
#
# Stress axis : x y z
#
# Youngs Moduli (GPa) = 73.06611 72.53613 125.64537
#
# Poissons Ratio (x) = 0.32463 0.26378
# Poissons Ratio (y) = 0.32700 0.45402
# Poissons Ratio (z) = 0.15340 0.26211
#
# Static dielectric constant tensor:
#      x y z
#    x 3.982140 0.000000 0.289670 
#    y 0.000000 4.592650 0.000000 
#    z 0.289670 0.000000 4.188400 
# 
# 
# High freq. dielectric constant tensor:
#      x y z
#    x 1.872690 0.000000 0.025110 
#    y 0.000000 1.882940 0.000000 
#    z 0.025110 0.000000 1.885950 
# 
# From -- ./inp_files/51133.got.cif
#   From: 2010.06.25/outbox.cif.g09.slc.cpg/sg13_26_cif.got.tgz:51133.got - 2010.06.28 04:50:58.
