data_PCOD8119010
_publ_section_title
;
Structure prediction by ZEFSAII (Michael W. Deem and Ramdas Pophale) SiO2 
 PCOD8119010
Probable space group: P 2/C
;
_chemical_formula_sum "Si O2"
_cell_formula_units_Z 18
_cell_length_a 6.435575
_cell_length_b 10.455929
_cell_length_c 13.751435
_cell_angle_alpha 90.000000
_cell_angle_beta 84.817936
_cell_angle_gamma 90.000000
_cell_volume 921.550803
_symmetry_space_group_name_H-M "P 2/C"
_symmetry_group_IT_number 13
_symmetry_cell_setting 'monoclinic'
loop_
_space_group_symop_operation_xyz
x,y,z
-x,y,1/2-z
-x,-y,-z
x,-y,1/2+z
loop_
_atom_site_type_symbol
_atom_site_label
_atom_site_fract_x
_atom_site_fract_y
_atom_site_fract_z
Si Si1 0.500000 0.688836 0.750000
Si Si2 0.401674 0.141316 0.087055
Si Si3 0.815969 0.087077 0.969946
Si Si4 0.879872 0.458224 0.154433
Si Si5 0.102715 0.695523 0.476966
O O1 0.637737 0.778300 0.814272
O O2 0.345780 0.602756 0.819532
O O3 0.300833 0.999260 0.106580
O O4 0.648212 0.123031 0.060172
O O5 0.298346 0.215602 0.999454
O O6 0.921228 0.220003 0.931886
O O7 0.000000 0.000000 0.000000
O O8 0.827956 0.592537 0.105076
O O9 0.000000 0.481184 0.250000
O O10 0.017741 0.369787 0.078798
#
# Coordination Sequence:
#
# PCOD8119010 Si02
#       5
#     2   4   4   4   4
#     4  12  22  36  60  96 120 158 214 252 300 368
#     4  10  20  36  62  89 118 155 205 251 299 365
#     4   9  19  38  60  85 114 157 198 246 310 361
#     4  11  23  38  59  90 122 160 204 254 302 367
#     4  10  21  39  62  85 123 162 198 250 311 360
#
# _framework density 19.532294
#
# number of rings (size 3 to 8) (size 9 to 14) (size 15 to 20)
#    0.000    1.778    4.444    0.000    0.000    2.667 
#    0.000    6.667    0.000    0.000    0.000    0.000 
#    0.000    0.000    0.000    0.000    0.000    0.000 
#
# Total GULP energy -223081.365153 kJ/mol
# GULP energy per Si atom -12393.409175 kJ/mol
# Density = 1.948784 g / cm^3
# Si number density = 19.532294 Si / 1000 Ang^3
#
#
#
# Elastic Constant Matrix: (Units=GPa)
#
#
# Indices 1 2 3 4 5 6 
#
# 1 94.6862 45.9951 34.4955 0.0000 -4.2331 0.0000
# 2 45.9951 133.2662 60.3092 0.0000 0.6834 0.0000
# 3 34.4955 60.3092 90.2709 0.0000 2.8623 0.0000
# 4 0.0000 0.0000 0.0000 13.1430 0.0000 3.5853
# 5 -4.2331 0.6834 2.8623 0.0000 26.3478 0.0000
# 6 0.0000 0.0000 0.0000 3.5853 0.0000 38.5780
#
#
#
# Elastic Compliance Matrix: (Units=1/GPa)
#
#
# Indices 1 2 3 4 5 6 
#
# 1 0.013355 -0.003263 -0.003005 0.000000 0.002557 0.000000
# 2 -0.003263 0.011559 -0.006472 0.000000 -0.000121 0.000000
# 3 -0.003005 -0.006472 0.016617 0.000000 -0.002120 0.000000
# 4 0.000000 0.000000 0.000000 0.078065 0.000000 -0.007255
# 5 0.002557 -0.000121 -0.002120 0.000000 0.038598 0.000000
# 6 0.000000 0.000000 0.000000 -0.007255 0.000000 0.026596
#
#
# Mechanical properties :
#
#
# Convention : Reuss Voigt Hill
#
# Bulk Modulus (GPa) = 62.29524 66.64701 64.47113
# Shear Modulus (GPa) = 23.18891 27.44202 25.31546
#
# Velocity S-wave (km/s) = 3.44933 3.75234 3.60402
# Velocity P-wave (km/s) = 6.91567 7.27798 7.09914
#
# Compressibility (1/GPa) = 0.01605259
#
# Stress axis : x y z
#
# Youngs Moduli (GPa) = 74.87811 86.50965 60.17873
#
# Poissons Ratio (x) = 0.28225 0.18082
# Poissons Ratio (y) = 0.24430 0.38948
# Poissons Ratio (z) = 0.22499 0.55990
#
# Static dielectric constant tensor:
#      x y z
#    x 3.756150 0.000000 0.083960 
#    y 0.000000 4.090050 0.000000 
#    z 0.083960 0.000000 3.225690 
# 
# 
# High freq. dielectric constant tensor:
#      x y z
#    x 1.772790 0.000000 0.003300 
#    y 0.000000 1.783000 0.000000 
#    z 0.003300 0.000000 1.720000 
# 
# From -- ./inp_files/25692.got.cif
#   From: 2010.06.25/outbox.cif.g09.slc.cpg/sg13_13_cif.got.tgz:25692.got - 2010.06.28 04:50:58.
