data_PCOD8119460
_publ_section_title
;
Structure prediction by ZEFSAII (Michael W. Deem and Ramdas Pophale) SiO2 
 PCOD8119460
Probable space group: P 2/C
;
_chemical_formula_sum "Si O2"
_cell_formula_units_Z 28
_cell_length_a 17.580100
_cell_length_b 8.697523
_cell_length_c 8.531399
_cell_angle_alpha 90.000000
_cell_angle_beta 84.253576
_cell_angle_gamma 90.000000
_cell_volume 1297.923957
_symmetry_space_group_name_H-M "P 2/C"
_symmetry_group_IT_number 13
_symmetry_cell_setting 'monoclinic'
loop_
_space_group_symop_operation_xyz
x,y,z
-x,y,1/2-z
-x,-y,-z
x,-y,1/2+z
loop_
_atom_site_type_symbol
_atom_site_label
_atom_site_fract_x
_atom_site_fract_y
_atom_site_fract_z
Si Si1 0.360932 0.926863 0.483635
Si Si2 0.989857 0.319557 0.524225
Si Si3 0.601426 0.378896 0.931564
Si Si4 0.894055 0.826195 0.286072
Si Si5 0.716708 0.177412 0.796692
Si Si6 0.000000 0.101903 0.250000
Si Si7 0.581847 0.307844 0.281965
Si Si8 0.500000 0.158859 0.750000
O O1 0.293032 0.872796 0.381971
O O2 0.368919 0.815341 0.631929
O O3 0.437654 0.943695 0.359560
O O4 0.336209 0.086721 0.565527
O O5 0.918813 0.304124 0.657252
O O6 0.000000 0.500000 0.500000
O O7 0.067993 0.233800 0.561333
O O8 0.965715 0.220272 0.381355
O O9 0.682536 0.349388 0.824351
O O10 0.570693 0.548715 0.901769
O O11 0.538523 0.260850 0.876772
O O12 0.620443 0.361542 0.112069
O O13 0.804150 0.837015 0.326241
O O14 0.928753 0.990211 0.221150
O O15 0.500000 0.238488 0.250000
#
# Coordination Sequence:
#
# PCOD8119460 Si02
#       8
#     4   4   4   4   4   2   4   2
#     4  11  25  42  64  91 132 169 228 280 335 403
#     4  10  21  42  70 105 133 171 224 275 316 397
#     4  11  22  40  65  92 129 163 223 274 337 404
#     4  10  22  42  68  96 140 176 220 265 331 412
#     4  11  26  44  60  97 137 171 216 277 340 402
#     4  10  20  38  74 100 128 180 224 260 324 394
#     4  12  22  43  69  91 120 173 225 282 338 399
#     4  10  20  40  64  94 118 178 216 288 324 392
#
# _framework density 21.572911999999999
#
# number of rings (size 3 to 8) (size 9 to 14) (size 15 to 20)
#    0.000    1.429    2.143    5.571    4.000    2.286 
#   11.571    0.000    0.000    0.000    0.000    0.000 
#    0.000    0.000    0.000    0.000    0.000    0.000 
#
# Total GULP energy -346956.722932 kJ/mol
# GULP energy per Si atom -12391.311533 kJ/mol
# Density = 2.152381 g / cm^3
# Si number density = 21.572912 Si / 1000 Ang^3
#
#
#
# Elastic Constant Matrix: (Units=GPa)
#
#
# Indices 1 2 3 4 5 6 
#
# 1 120.2937 29.6477 19.7665 0.0000 -3.3974 0.0000
# 2 29.6477 95.7219 27.7471 0.0000 -7.4244 0.0000
# 3 19.7665 27.7471 108.0679 0.0000 6.9224 0.0000
# 4 0.0000 0.0000 0.0000 35.4553 0.0000 -4.2613
# 5 -3.3974 -7.4244 6.9224 0.0000 21.8449 0.0000
# 6 0.0000 0.0000 0.0000 -4.2613 0.0000 12.3441
#
#
#
# Elastic Compliance Matrix: (Units=1/GPa)
#
#
# Indices 1 2 3 4 5 6 
#
# 1 0.009120 -0.002432 -0.001104 0.000000 0.000942 0.000000
# 2 -0.002432 0.012463 -0.003064 0.000000 0.004829 0.000000
# 3 -0.001104 -0.003064 0.010534 0.000000 -0.004551 0.000000
# 4 0.000000 0.000000 0.000000 0.029425 0.000000 0.010158
# 5 0.000942 0.004829 -0.004551 0.000000 0.049007 0.000000
# 6 0.000000 0.000000 0.000000 0.010158 0.000000 0.084517
#
#
# Mechanical properties :
#
#
# Convention : Reuss Voigt Hill
#
# Bulk Modulus (GPa) = 52.86428 53.15625 53.01027
# Shear Modulus (GPa) = 23.30211 30.39032 26.84621
#
# Velocity S-wave (km/s) = 3.29014 3.75737 3.53149
# Velocity P-wave (km/s) = 6.24432 6.59678 6.42297
#
# Compressibility (1/GPa) = 0.01891636
#
# Stress axis : x y z
#
# Youngs Moduli (GPa) = 109.64499 80.23798 94.93284
#
# Poissons Ratio (x) = 0.19512 0.10482
# Poissons Ratio (y) = 0.26662 0.29092
# Poissons Ratio (z) = 0.12107 0.24589
#
# Static dielectric constant tensor:
#      x y z
#    x 3.521110 0.000000 -0.010530 
#    y 0.000000 3.906360 0.000000 
#    z -0.010530 0.000000 3.999540 
# 
# 
# High freq. dielectric constant tensor:
#      x y z
#    x 1.811460 0.000000 0.005740 
#    y 0.000000 1.848870 0.000000 
#    z 0.005740 0.000000 1.868980 
# 
# From -- ./inp_files/21191.got.cif
#   From: 2010.06.25/outbox.cif.g09.slc.cpg/sg13_11_cif.got.tgz:21191.got - 2010.06.28 04:50:58.
