data_PCOD8119097
_publ_section_title
;
Structure prediction by ZEFSAII (Michael W. Deem and Ramdas Pophale) SiO2 
 PCOD8119097
Probable space group: P 2/C
;
_chemical_formula_sum "Si O2"
_cell_formula_units_Z 24
_cell_length_a 23.006527
_cell_length_b 9.033439
_cell_length_c 17.357627
_cell_angle_alpha 90.000000
_cell_angle_beta 19.708835
_cell_angle_gamma 90.000000
_cell_volume 1216.561770
_symmetry_space_group_name_H-M "P 2/C"
_symmetry_group_IT_number 13
_symmetry_cell_setting 'monoclinic'
loop_
_space_group_symop_operation_xyz
x,y,z
-x,y,1/2-z
-x,-y,-z
x,-y,1/2+z
loop_
_atom_site_type_symbol
_atom_site_label
_atom_site_fract_x
_atom_site_fract_y
_atom_site_fract_z
Si Si1 0.337720 0.909856 0.230416
Si Si2 0.329156 0.573108 0.244413
Si Si3 0.316455 0.574179 0.440255
Si Si4 0.001482 0.374545 0.839864
Si Si5 0.010438 0.937356 0.072795
Si Si6 0.169980 0.130582 0.089797
O O1 0.325578 0.740555 0.215476
O O2 0.326210 0.913595 0.337881
O O3 0.183901 0.001774 0.389385
O O4 0.500000 0.000000 0.000000
O O5 0.350028 0.574170 0.308656
O O6 0.154107 0.484989 0.442591
O O7 0.500000 0.500000 0.000000
O O8 0.500000 0.550818 0.250000
O O9 0.224314 0.729928 0.574608
O O10 0.185345 0.446842 0.630301
O O11 0.986831 0.238674 0.917921
O O12 0.000000 0.330765 0.750000
O O13 0.854557 0.997811 0.319760
O O14 0.000000 0.000000 0.000000
O O15 0.000000 0.170309 0.250000
#
# Coordination Sequence:
#
# PCOD8119097 Si02
#       6
#     4   4   4   4   4   4
#     4  10  20  37  59  84 115 153 192 231 285 354
#     4  10  21  37  60  86 113 151 194 232 283 352
#     4  10  21  37  59  86 113 146 188 237 290 337
#     4  10  20  39  61  81 114 156 193 232 287 353
#     4  11  23  37  57  85 113 148 193 241 290 336
#     4   9  19  39  59  78 112 154 189 229 288 354
#
# _framework density 19.727727000000002
#
# number of rings (size 3 to 8) (size 9 to 14) (size 15 to 20)
#    0.000    2.000    0.000    6.000    0.000    6.667 
#    0.000    3.333    0.000    0.000    0.000    0.000 
#    0.000    0.000    0.000    0.000    0.000    0.000 
#
# Total GULP energy -297418.790361 kJ/mol
# GULP energy per Si atom -12392.449598 kJ/mol
# Density = 1.968283 g / cm^3
# Si number density = 19.727727 Si / 1000 Ang^3
#
#
#
# Elastic Constant Matrix: (Units=GPa)
#
#
# Indices 1 2 3 4 5 6 
#
# 1 56.8826 52.3400 27.3605 0.0000 -7.3640 0.0000
# 2 52.3400 171.4238 78.4091 0.0000 -0.6774 0.0000
# 3 27.3605 78.4091 122.6013 0.0000 1.1817 0.0000
# 4 0.0000 0.0000 0.0000 43.8574 0.0000 5.0893
# 5 -7.3640 -0.6774 1.1817 0.0000 31.3052 0.0000
# 6 0.0000 0.0000 0.0000 5.0893 0.0000 20.6601
#
#
#
# Elastic Compliance Matrix: (Units=1/GPa)
#
#
# Indices 1 2 3 4 5 6 
#
# 1 0.025574 -0.007277 -0.001110 0.000000 0.005900 0.000000
# 2 -0.007277 0.010321 -0.004964 0.000000 -0.001301 0.000000
# 3 -0.001110 -0.004964 0.011587 0.000000 -0.000806 0.000000
# 4 0.000000 0.000000 0.000000 0.023472 0.000000 -0.005782
# 5 0.005900 -0.001301 -0.000806 0.000000 0.033334 0.000000
# 6 0.000000 0.000000 0.000000 -0.005782 0.000000 0.049827
#
#
# Mechanical properties :
#
#
# Convention : Reuss Voigt Hill
#
# Bulk Modulus (GPa) = 48.12578 74.12521 61.12550
# Shear Modulus (GPa) = 26.63211 32.01775 29.32493
#
# Velocity S-wave (km/s) = 3.67820 4.03300 3.85968
# Velocity P-wave (km/s) = 6.51819 7.70340 7.13545
#
# Compressibility (1/GPa) = 0.02077888
#
# Stress axis : x y z
#
# Youngs Moduli (GPa) = 39.10216 96.89092 86.30570
#
# Poissons Ratio (x) = 0.70511 0.09579
# Poissons Ratio (y) = 0.28456 0.42843
# Poissons Ratio (z) = 0.04340 0.48097
#
# Static dielectric constant tensor:
#      x y z
#    x 3.088810 0.000000 -0.021480 
#    y 0.000000 2.827210 0.000000 
#    z -0.021480 0.000000 3.267080 
# 
# 
# High freq. dielectric constant tensor:
#      x y z
#    x 1.741300 0.000000 0.006460 
#    y 0.000000 1.781310 0.000000 
#    z 0.006460 0.000000 1.783470 
# 
# From -- ./inp_files/71246.got.cif
#   From: 2010.06.25/outbox.cif.g09.slc.cpg/sg13_36_cif.got.tgz:71246.got - 2010.06.28 04:50:58.
