data_PCOD8119205
_publ_section_title
;
Structure prediction by ZEFSAII (Michael W. Deem and Ramdas Pophale) SiO2 
 PCOD8119205
Probable space group: P 2/C
;
_chemical_formula_sum "Si O2"
_cell_formula_units_Z 20
_cell_length_a 10.988117
_cell_length_b 10.433385
_cell_length_c 12.890549
_cell_angle_alpha 90.000000
_cell_angle_beta 34.227791
_cell_angle_gamma 90.000000
_cell_volume 831.247723
_symmetry_space_group_name_H-M "P 2/C"
_symmetry_group_IT_number 13
_symmetry_cell_setting 'monoclinic'
loop_
_space_group_symop_operation_xyz
x,y,z
-x,y,1/2-z
-x,-y,-z
x,-y,1/2+z
loop_
_atom_site_type_symbol
_atom_site_label
_atom_site_fract_x
_atom_site_fract_y
_atom_site_fract_z
Si Si1 0.206912 0.509743 0.923335
Si Si2 0.000000 0.048812 0.750000
Si Si3 0.000000 0.626983 0.750000
Si Si4 0.881763 0.210436 0.031008
Si Si5 0.627640 0.262702 0.760271
Si Si6 0.282890 0.837785 0.646185
O O1 0.165284 0.459040 0.068806
O O2 0.256724 0.660601 0.895745
O O3 0.389145 0.419876 0.738809
O O4 0.000000 0.500000 0.000000
O O5 0.797707 0.962708 0.857315
O O6 0.904907 0.134128 0.908815
O O7 0.866909 0.714302 0.764917
O O8 0.118964 0.228079 0.916930
O O9 0.732836 0.133276 0.219272
O O10 0.500000 0.203989 0.750000
O O11 0.521916 0.203175 0.938782
#
# Coordination Sequence:
#
# PCOD8119205 Si02
#       6
#     4   2   2   4   4   4
#     4  10  20  37  64  98 134 174 218 283 347 410
#     4  11  25  46  70  96 147 193 228 286 336 411
#     4  11  17  38  64  94 131 177 222 270 350 411
#     4  11  24  46  66  99 141 183 226 285 351 404
#     4  11  21  39  70 105 131 176 229 286 345 407
#     4  11  22  40  69  97 128 186 236 271 337 411
#
# _framework density 24.060217000000002
#
# number of rings (size 3 to 8) (size 9 to 14) (size 15 to 20)
#    0.000    1.200    6.000    2.400    0.000    1.600 
#    0.000    3.000    0.000    0.000    0.000    0.000 
#    0.000    0.000    0.000    0.000    0.000    0.000 
#
# Total GULP energy -247816.201022 kJ/mol
# GULP energy per Si atom -12390.810051 kJ/mol
# Density = 2.400545 g / cm^3
# Si number density = 24.060217 Si / 1000 Ang^3
#
#
#
# Elastic Constant Matrix: (Units=GPa)
#
#
# Indices 1 2 3 4 5 6 
#
# 1 85.1612 44.6812 47.5626 0.0000 40.0188 0.0000
# 2 44.6812 124.0793 49.0194 0.0000 24.5232 0.0000
# 3 47.5626 49.0194 152.0107 0.0000 37.8258 0.0000
# 4 0.0000 0.0000 0.0000 18.5807 0.0000 49.6913
# 5 40.0188 24.5232 37.8258 0.0000 40.7019 0.0000
# 6 0.0000 0.0000 0.0000 49.6913 0.0000 -41.7566
#
#
#
# Elastic Compliance Matrix: (Units=1/GPa)
#
#
# Indices 1 2 3 4 5 6 
#
# 1 0.023995 -0.004232 -0.001180 0.000000 -0.019946 0.000000
# 2 -0.004232 0.010416 -0.001962 0.000000 -0.000291 0.000000
# 3 -0.001180 -0.001962 0.009103 0.000000 -0.006117 0.000000
# 4 0.000000 0.000000 0.000000 0.012868 0.000000 0.015313
# 5 -0.019946 -0.000291 -0.006117 0.000000 0.050040 0.000000
# 6 0.000000 0.000000 0.000000 0.015313 0.000000 -0.005726
#
#
# Mechanical properties :
#
#
# Convention : Reuss Voigt Hill
#
# Bulk Modulus (GPa) = 34.76484 71.53084 53.14784
# Shear Modulus (GPa) = 39.98973 18.17108 29.08040
#
# Velocity S-wave (km/s) = 4.08127 2.75113 3.48034
# Velocity P-wave (km/s) = 6.05718 6.31554 6.18771
#
# Compressibility (1/GPa) = 0.02876469
#
# Stress axis : x y z
#
# Youngs Moduli (GPa) = 41.67585 96.00451 109.85930
#
# Poissons Ratio (x) = 0.40633 0.12960
# Poissons Ratio (y) = 0.17639 0.21558
# Poissons Ratio (z) = 0.04916 0.18839
#
# Static dielectric constant tensor:
#      x y z
#    x 4.276120 0.000000 0.153120 
#    y 0.000000 7.809130 0.000000 
#    z 0.153120 0.000000 3.661750 
# 
# 
# High freq. dielectric constant tensor:
#      x y z
#    x 1.945810 0.000000 0.013030 
#    y 0.000000 1.951830 0.000000 
#    z 0.013030 0.000000 1.952270 
# 
# From -- ./inp_files/51090.got.cif
#   From: 2010.06.25/outbox.cif.g09.slc.cpg/sg13_26_cif.got.tgz:51090.got - 2010.06.28 04:50:58.
