data_PCOD8119603
_publ_section_title
;
Structure prediction by ZEFSAII (Michael W. Deem and Ramdas Pophale) SiO2 
 PCOD8119603
Probable space group: P 2/C
;
_chemical_formula_sum "Si O2"
_cell_formula_units_Z 30
_cell_length_a 15.253690
_cell_length_b 12.092729
_cell_length_c 8.151336
_cell_angle_alpha 90.000000
_cell_angle_beta 74.280418
_cell_angle_gamma 90.000000
_cell_volume 1447.349886
_symmetry_space_group_name_H-M "P 2/C"
_symmetry_group_IT_number 13
_symmetry_cell_setting 'monoclinic'
loop_
_space_group_symop_operation_xyz
x,y,z
-x,y,1/2-z
-x,-y,-z
x,-y,1/2+z
loop_
_atom_site_type_symbol
_atom_site_label
_atom_site_fract_x
_atom_site_fract_y
_atom_site_fract_z
Si Si1 0.000000 0.769353 0.750000
Si Si2 0.482489 0.679140 0.081051
Si Si3 0.964650 0.616452 0.453999
Si Si4 0.189877 0.859822 0.691184
Si Si5 0.407558 0.544156 0.693145
Si Si6 0.285338 0.028671 0.849528
Si Si7 0.646980 0.158650 0.984302
Si Si8 0.761518 0.328882 0.102144
O O1 0.996663 0.701526 0.579687
O O2 0.914831 0.851183 0.805582
O O3 0.500000 0.732267 0.250000
O O4 0.404480 0.582905 0.135456
O O5 0.447641 0.773784 0.974329
O O6 0.577551 0.626281 0.969580
O O7 0.854849 0.613377 0.497979
O O8 0.000000 0.644018 0.250000
O O9 0.000000 0.500000 0.500000
O O10 0.250825 0.889518 0.505548
O O11 0.223401 0.740722 0.739128
O O12 0.200869 0.959744 0.816268
O O13 0.500000 0.562348 0.750000
O O14 0.314355 0.575983 0.831334
O O15 0.337059 0.106228 0.699304
O O16 0.358466 0.938348 0.878510
O O17 0.729327 0.243337 0.979258
#
# Coordination Sequence:
#
# PCOD8119603 Si02
#       8
#     2   4   4   4   4   4   4   4
#     4  10  22  42  60  94 126 164 216 270 330 388
#     4  10  22  37  61  92 127 161 207 260 313 385
#     4  11  24  44  62  93 137 173 219 265 320 405
#     4   9  20  38  61  88 120 161 210 266 324 382
#     4  10  20  41  60  91 129 157 205 261 304 383
#     4   9  20  38  62  86 121 159 215 269 313 383
#     4  10  20  40  61  89 122 167 214 261 323 375
#     4  10  22  39  66  91 125 175 206 259 334 377
#
# _framework density 20.727537000000002
#
# number of rings (size 3 to 8) (size 9 to 14) (size 15 to 20)
#    0.000    2.133    2.000    0.000    3.733    1.600 
#    0.000    0.667    0.000    0.000    0.000    0.000 
#    0.000    0.000    0.000    0.000    0.000    0.000 
#
# Total GULP energy -371786.029221 kJ/mol
# GULP energy per Si atom -12392.867641 kJ/mol
# Density = 2.068036 g / cm^3
# Si number density = 20.727537 Si / 1000 Ang^3
#
#
#
# Elastic Constant Matrix: (Units=GPa)
#
#
# Indices 1 2 3 4 5 6 
#
# 1 97.2504 40.4877 34.5448 0.0000 -6.2190 0.0000
# 2 40.4877 92.2406 36.4090 0.0000 -6.8139 0.0000
# 3 34.5448 36.4090 108.5825 0.0000 4.4557 0.0000
# 4 0.0000 0.0000 0.0000 23.7889 0.0000 -0.7455
# 5 -6.2190 -6.8139 4.4557 0.0000 32.3462 0.0000
# 6 0.0000 0.0000 0.0000 -0.7455 0.0000 28.7791
#
#
#
# Elastic Compliance Matrix: (Units=1/GPa)
#
#
# Indices 1 2 3 4 5 6 
#
# 1 0.013309 -0.004602 -0.002772 0.000000 0.001971 0.000000
# 2 -0.004602 0.014431 -0.003483 0.000000 0.002635 0.000000
# 3 -0.002772 -0.003483 0.011376 0.000000 -0.002834 0.000000
# 4 0.000000 0.000000 0.000000 0.042071 0.000000 0.001090
# 5 0.001971 0.002635 -0.002834 0.000000 0.032240 0.000000
# 6 0.000000 0.000000 0.000000 0.001090 0.000000 0.034776
#
#
# Mechanical properties :
#
#
# Convention : Reuss Voigt Hill
#
# Bulk Modulus (GPa) = 57.46556 57.88407 57.67482
# Shear Modulus (GPa) = 28.45497 29.42498 28.93997
#
# Velocity S-wave (km/s) = 3.70916 3.77186 3.74064
# Velocity P-wave (km/s) = 6.79178 6.85244 6.82218
#
# Compressibility (1/GPa) = 0.01740173
#
# Stress axis : x y z
#
# Youngs Moduli (GPa) = 75.13445 69.29719 87.90776
#
# Poissons Ratio (x) = 0.31892 0.24368
# Poissons Ratio (y) = 0.34578 0.30616
# Poissons Ratio (z) = 0.20828 0.24134
#
# Static dielectric constant tensor:
#      x y z
#    x 3.751810 0.000000 0.275480 
#    y 0.000000 3.832890 0.000000 
#    z 0.275480 0.000000 3.960500 
# 
# 
# High freq. dielectric constant tensor:
#      x y z
#    x 1.799220 0.000000 0.022750 
#    y 0.000000 1.812400 0.000000 
#    z 0.022750 0.000000 1.813660 
# 
# From -- ./inp_files/19004.got.cif
#   From: 2010.06.25/outbox.cif.g09.slc.cpg/sg13_10_cif.got.tgz:19004.got - 2010.06.28 04:50:58.
