data_PCOD8119069
_publ_section_title
;
Structure prediction by ZEFSAII (Michael W. Deem and Ramdas Pophale) SiO2 
 PCOD8119069
Probable space group: P 2/C
;
_chemical_formula_sum "Si O2"
_cell_formula_units_Z 28
_cell_length_a 18.319848
_cell_length_b 11.259603
_cell_length_c 20.503141
_cell_angle_alpha 90.000000
_cell_angle_beta 19.030925
_cell_angle_gamma 90.000000
_cell_volume 1379.073561
_symmetry_space_group_name_H-M "P 2/C"
_symmetry_group_IT_number 13
_symmetry_cell_setting 'monoclinic'
loop_
_space_group_symop_operation_xyz
x,y,z
-x,y,1/2-z
-x,-y,-z
x,-y,1/2+z
loop_
_atom_site_type_symbol
_atom_site_label
_atom_site_fract_x
_atom_site_fract_y
_atom_site_fract_z
Si Si1 0.655436 0.797981 0.714326
Si Si2 0.176093 0.766853 0.721079
Si Si3 0.350476 0.802718 0.215279
Si Si4 0.228198 0.966782 0.772963
Si Si5 0.061846 0.636185 0.944796
Si Si6 0.213302 0.887588 0.025340
Si Si7 0.268268 0.148465 0.929785
O O1 0.640097 0.878721 0.790880
O O2 0.747974 0.669641 0.661726
O O3 0.832307 0.841093 0.509602
O O4 0.408419 0.804994 0.891609
O O5 0.402556 0.742521 0.488508
O O6 0.185184 0.902146 0.740882
O O7 0.154941 0.666679 0.794272
O O8 0.950641 0.771740 0.866579
O O9 0.270721 0.866447 0.349210
O O10 0.166308 0.708132 0.348344
O O11 0.364909 0.909116 0.148743
O O12 0.000000 0.000000 0.000000
O O13 0.000000 0.500000 0.000000
O O14 0.000000 0.870120 0.250000
O O15 0.278192 0.026581 0.963355
O O16 0.500000 0.218239 0.750000
#
# Coordination Sequence:
#
# PCOD8119069 Si02
#       7
#     4   4   4   4   4   4   4
#     4  10  20  37  55  86 120 149 192 235 299 350
#     4  10  23  33  58  88 112 154 192 232 303 351
#     4  11  21  36  56  87 119 147 192 241 289 359
#     4  11  16  34  52  83 123 145 175 233 301 361
#     4  10  23  43  63  83 113 156 206 260 296 333
#     4  11  22  33  54  88 121 158 188 225 288 364
#     4  11  21  34  51  83 126 154 183 222 284 358
#
# _framework density 20.303485999999999
#
# number of rings (size 3 to 8) (size 9 to 14) (size 15 to 20)
#    0.000    1.429    7.143    0.429    4.000    2.857 
#    0.000    0.000   12.571    0.000    0.000    0.000 
#    0.000    0.000    0.000    0.000    0.000    0.000 
#
# Total GULP energy -346865.678978 kJ/mol
# GULP energy per Si atom -12388.059964 kJ/mol
# Density = 2.025727 g / cm^3
# Si number density = 20.303486 Si / 1000 Ang^3
#
#
#
# Elastic Constant Matrix: (Units=GPa)
#
#
# Indices 1 2 3 4 5 6 
#
# 1 53.4073 19.6080 29.2791 0.0000 -14.2622 0.0000
# 2 19.6080 104.2685 27.4973 0.0000 -7.4996 0.0000
# 3 29.2791 27.4973 138.5625 0.0000 -7.5410 0.0000
# 4 0.0000 0.0000 0.0000 15.4707 0.0000 -3.9768
# 5 -14.2622 -7.4996 -7.5410 0.0000 33.3553 0.0000
# 6 0.0000 0.0000 0.0000 -3.9768 0.0000 18.5718
#
#
#
# Elastic Compliance Matrix: (Units=1/GPa)
#
#
# Indices 1 2 3 4 5 6 
#
# 1 0.024391 -0.002868 -0.004103 0.000000 0.008857 0.000000
# 2 -0.002868 0.010571 -0.001447 0.000000 0.000823 0.000000
# 3 -0.004103 -0.001447 0.008361 0.000000 -0.000189 0.000000
# 4 0.000000 0.000000 0.000000 0.068403 0.000000 0.014647
# 5 0.008857 0.000823 -0.000189 0.000000 0.033910 0.000000
# 6 0.000000 0.000000 0.000000 0.014647 0.000000 0.056981
#
#
# Mechanical properties :
#
#
# Convention : Reuss Voigt Hill
#
# Bulk Modulus (GPa) = 37.75354 49.88967 43.82160
# Shear Modulus (GPa) = 21.90274 28.13650 25.01962
#
# Velocity S-wave (km/s) = 3.28802 3.72667 3.51420
# Velocity P-wave (km/s) = 5.74889 6.56831 6.17222
#
# Compressibility (1/GPa) = 0.02648758
#
# Stress axis : x y z
#
# Youngs Moduli (GPa) = 40.99790 94.60086 119.60635
#
# Poissons Ratio (x) = 0.27130 0.49074
# Poissons Ratio (y) = 0.11758 0.17306
# Poissons Ratio (z) = 0.16821 0.13688
#
# Static dielectric constant tensor:
#      x y z
#    x 3.437030 0.000000 -0.522160 
#    y 0.000000 3.397380 0.000000 
#    z -0.522160 0.000000 3.715520 
# 
# 
# High freq. dielectric constant tensor:
#      x y z
#    x 1.791110 0.000000 -0.009620 
#    y 0.000000 1.726090 0.000000 
#    z -0.009620 0.000000 1.815570 
# 
# From -- ./inp_files/81036.got.cif
#   From: 2010.06.25/outbox.cif.g09.slc.cpg/sg13_41_cif.got.tgz:81036.got - 2010.06.28 04:50:58.
