data_PCOD8119991
_publ_section_title
;
Structure prediction by ZEFSAII (Michael W. Deem and Ramdas Pophale) SiO2 
 PCOD8119991
Probable space group: P 2/C
;
_chemical_formula_sum "Si O2"
_cell_formula_units_Z 22
_cell_length_a 9.154949
_cell_length_b 12.216692
_cell_length_c 8.560367
_cell_angle_alpha 90.000000
_cell_angle_beta 96.185389
_cell_angle_gamma 90.000000
_cell_volume 951.845132
_symmetry_space_group_name_H-M "P 2/C"
_symmetry_group_IT_number 13
_symmetry_cell_setting 'monoclinic'
loop_
_space_group_symop_operation_xyz
x,y,z
-x,y,1/2-z
-x,-y,-z
x,-y,1/2+z
loop_
_atom_site_type_symbol
_atom_site_label
_atom_site_fract_x
_atom_site_fract_y
_atom_site_fract_z
Si Si1 0.277059 0.931231 0.645740
Si Si2 0.289680 0.147456 0.497139
Si Si3 0.000000 0.545652 0.750000
Si Si4 0.977531 0.150392 0.578482
Si Si5 0.546038 0.275453 0.425145
Si Si6 0.836704 0.373645 0.525616
O O1 0.279505 0.908254 0.827581
O O2 0.377098 0.842869 0.571519
O O3 0.112558 0.928437 0.550370
O O4 0.339825 0.053192 0.624641
O O5 0.129409 0.191425 0.521091
O O6 0.400838 0.251955 0.514099
O O7 0.884787 0.474316 0.637586
O O8 0.902235 0.618583 0.856435
O O9 0.000000 0.090907 0.750000
O O10 0.888734 0.260655 0.606157
O O11 0.500000 0.317790 0.250000
O O12 0.657893 0.367269 0.504198
#
# Coordination Sequence:
#
# PCOD8119991 Si02
#       6
#     4   4   2   4   4   4
#     4  10  21  36  57  89 125 172 218 250 299 364
#     4  11  21  37  61  88 130 173 210 263 306 358
#     4  10  22  42  76  90 122 156 210 272 320 394
#     4  11  22  37  61  91 126 164 222 261 303 370
#     4   9  21  38  61  91 131 165 209 250 316 382
#     4  10  22  42  68  97 119 160 210 259 328 382
#
# _framework density 23.113002999999999
#
# number of rings (size 3 to 8) (size 9 to 14) (size 15 to 20)
#    0.000    1.818    0.909    2.727    7.636    0.000 
#    0.000    8.182    0.000    0.000    0.000    0.000 
#    0.000    0.000    0.000    0.000    0.000    0.000 
#
# Total GULP energy -272766.776425 kJ/mol
# GULP energy per Si atom -12398.489838 kJ/mol
# Density = 2.306040 g / cm^3
# Si number density = 23.113003 Si / 1000 Ang^3
#
#
#
# Elastic Constant Matrix: (Units=GPa)
#
#
# Indices 1 2 3 4 5 6 
#
# 1 150.0303 12.3172 46.9703 0.0000 8.2845 0.0000
# 2 12.3172 35.5458 16.7694 0.0000 8.9301 0.0000
# 3 46.9703 16.7694 98.1070 0.0000 4.8508 0.0000
# 4 0.0000 0.0000 0.0000 23.3881 0.0000 3.3347
# 5 8.2845 8.9301 4.8508 0.0000 33.9925 0.0000
# 6 0.0000 0.0000 0.0000 3.3347 0.0000 34.7806
#
#
#
# Elastic Compliance Matrix: (Units=1/GPa)
#
#
# Indices 1 2 3 4 5 6 
#
# 1 0.007922 -0.000737 -0.003607 0.000000 -0.001223 0.000000
# 2 -0.000737 0.032605 -0.004840 0.000000 -0.007695 0.000000
# 3 -0.003607 -0.004840 0.012730 0.000000 0.000334 0.000000
# 4 0.000000 0.000000 0.000000 0.043349 0.000000 -0.004156
# 5 -0.001223 -0.007695 0.000334 0.000000 0.031690 0.000000
# 6 0.000000 0.000000 0.000000 -0.004156 0.000000 0.029150
#
#
# Mechanical properties :
#
#
# Convention : Reuss Voigt Hill
#
# Bulk Modulus (GPa) = 28.66057 48.42189 38.54123
# Shear Modulus (GPa) = 26.67462 32.27397 29.47430
#
# Velocity S-wave (km/s) = 3.40088 3.74084 3.57490
# Velocity P-wave (km/s) = 5.27716 6.29715 5.80958
#
# Compressibility (1/GPa) = 0.03489115
#
# Stress axis : x y z
#
# Youngs Moduli (GPa) = 126.22370 30.67051 78.55171
#
# Poissons Ratio (x) = 0.02259 0.28331
# Poissons Ratio (y) = 0.09298 0.38019
# Poissons Ratio (z) = 0.45524 0.14844
#
# Static dielectric constant tensor:
#      x y z
#    x 4.577480 0.000000 0.194260 
#    y 0.000000 3.821540 0.000000 
#    z 0.194260 0.000000 4.172390 
# 
# 
# High freq. dielectric constant tensor:
#      x y z
#    x 1.921960 0.000000 0.009980 
#    y 0.000000 1.884140 0.000000 
#    z 0.009980 0.000000 1.912720 
# 
# From -- ./inp_files/12268.got.cif
#   From: 2010.06.25/outbox.cif.g09.slc.cpg/sg13_7_cif.got.tgz:12268.got - 2010.06.28 04:50:58.
