data_PCOD8119499
_publ_section_title
;
Structure prediction by ZEFSAII (Michael W. Deem and Ramdas Pophale) SiO2 
 PCOD8119499
Probable space group: P 2/C
;
_chemical_formula_sum "Si O2"
_cell_formula_units_Z 30
_cell_length_a 17.548211
_cell_length_b 6.340314
_cell_length_c 13.690731
_cell_angle_alpha 90.000000
_cell_angle_beta 114.332447
_cell_angle_gamma 90.000000
_cell_volume 1387.936847
_symmetry_space_group_name_H-M "P 2/C"
_symmetry_group_IT_number 13
_symmetry_cell_setting 'monoclinic'
loop_
_space_group_symop_operation_xyz
x,y,z
-x,y,1/2-z
-x,-y,-z
x,-y,1/2+z
loop_
_atom_site_type_symbol
_atom_site_label
_atom_site_fract_x
_atom_site_fract_y
_atom_site_fract_z
Si Si1 0.309393 0.726896 0.746899
Si Si2 0.477363 0.627800 0.895857
Si Si3 0.616915 0.069150 0.396746
Si Si4 0.912787 0.238952 0.256661
Si Si5 0.159416 0.988290 0.618306
Si Si6 0.790756 0.043890 0.574034
Si Si7 0.500000 0.283641 0.750000
Si Si8 0.814017 0.623902 0.253729
O O1 0.388338 0.747910 0.861616
O O2 0.347406 0.752719 0.658040
O O3 0.242274 0.913455 0.723556
O O4 0.264516 0.504919 0.745547
O O5 0.544898 0.810388 0.916666
O O6 0.464288 0.444131 0.810358
O O7 0.500000 0.500000 0.000000
O O8 0.693096 0.988076 0.505055
O O9 0.577302 0.863273 0.324725
O O10 0.917814 0.121922 0.365295
O O11 0.838197 0.149420 0.149499
O O12 0.893304 0.481931 0.266472
O O13 0.000000 0.207259 0.250000
O O14 0.163713 0.920472 0.507647
O O15 0.156103 0.236824 0.637635
O O16 0.794086 0.250154 0.643698
#
# Coordination Sequence:
#
# PCOD8119499 Si02
#       8
#     4   4   4   4   4   4   2   4
#     4  10  20  39  62  88 129 164 213 262 309 369
#     4  12  25  40  63  94 126 175 224 267 316 375
#     4  11  23  43  61  94 133 172 217 264 319 373
#     4  10  23  44  66  98 131 157 208 264 318 392
#     4   9  22  40  66  93 127 171 204 260 320 376
#     4  10  23  41  67  95 129 168 218 257 315 386
#     4  12  24  42  64  88 136 176 210 278 320 360
#     4  10  22  40  64  95 127 169 208 263 320 371
#
# _framework density 21.614816000000001
#
# number of rings (size 3 to 8) (size 9 to 14) (size 15 to 20)
#    0.000    1.600    2.667    0.800    3.733   10.667 
#    2.400    1.333    0.000    0.000    0.000    0.000 
#    0.000    0.000    0.000    0.000    0.000    0.000 
#
# Total GULP energy -371705.465005 kJ/mol
# GULP energy per Si atom -12390.182167 kJ/mol
# Density = 2.156562 g / cm^3
# Si number density = 21.614816 Si / 1000 Ang^3
#
#
#
# Elastic Constant Matrix: (Units=GPa)
#
#
# Indices 1 2 3 4 5 6 
#
# 1 85.0932 27.0930 2.4462 0.0000 -9.1104 0.0000
# 2 27.0930 101.3574 25.8462 0.0000 0.7414 0.0000
# 3 2.4462 25.8462 59.4435 0.0000 -6.1144 0.0000
# 4 0.0000 0.0000 0.0000 8.3929 0.0000 1.9366
# 5 -9.1104 0.7414 -6.1144 0.0000 27.6710 0.0000
# 6 0.0000 0.0000 0.0000 1.9366 0.0000 22.9468
#
#
#
# Elastic Compliance Matrix: (Units=1/GPa)
#
#
# Indices 1 2 3 4 5 6 
#
# 1 0.013536 -0.004096 0.001733 0.000000 0.004949 0.000000
# 2 -0.004096 0.012389 -0.005516 0.000000 -0.002900 0.000000
# 3 0.001733 -0.005516 0.019671 0.000000 0.005065 0.000000
# 4 0.000000 0.000000 0.000000 0.121515 0.000000 -0.010255
# 5 0.004949 -0.002900 0.005065 0.000000 0.038965 0.000000
# 6 0.000000 0.000000 0.000000 -0.010255 0.000000 0.044444
#
#
# Mechanical properties :
#
#
# Convention : Reuss Voigt Hill
#
# Bulk Modulus (GPa) = 33.51574 39.62944 36.57259
# Shear Modulus (GPa) = 18.10115 24.50272 21.30193
#
# Velocity S-wave (km/s) = 2.89700 3.37056 3.14271
# Velocity P-wave (km/s) = 5.17008 5.78980 5.48869
#
# Compressibility (1/GPa) = 0.02983672
#
# Stress axis : x y z
#
# Youngs Moduli (GPa) = 73.87622 80.71707 50.83649
#
# Poissons Ratio (x) = 0.33065 -0.08811
# Poissons Ratio (y) = 0.30263 0.28044
# Poissons Ratio (z) = -0.12804 0.44527
#
# Static dielectric constant tensor:
#      x y z
#    x 4.010920 0.000000 -0.147520 
#    y 0.000000 3.537320 0.000000 
#    z -0.147520 0.000000 3.811910 
# 
# 
# High freq. dielectric constant tensor:
#      x y z
#    x 1.860360 0.000000 -0.012580 
#    y 0.000000 1.850420 0.000000 
#    z -0.012580 0.000000 1.837640 
# 
# From -- ./inp_files/54457.got.cif
#   From: 2010.06.25/outbox.cif.g09.slc.cpg/sg13_28_cif.got.tgz:54457.got - 2010.06.28 04:50:58.
