data_PCOD8119116
_publ_section_title
;
Structure prediction by ZEFSAII (Michael W. Deem and Ramdas Pophale) SiO2 
 PCOD8119116
Probable space group: P 2/C
;
_chemical_formula_sum "Si O2"
_cell_formula_units_Z 28
_cell_length_a 8.610384
_cell_length_b 15.786415
_cell_length_c 13.448040
_cell_angle_alpha 90.000000
_cell_angle_beta 128.727676
_cell_angle_gamma 90.000000
_cell_volume 1426.037877
_symmetry_space_group_name_H-M "P 2/C"
_symmetry_group_IT_number 13
_symmetry_cell_setting 'monoclinic'
loop_
_space_group_symop_operation_xyz
x,y,z
-x,y,1/2-z
-x,-y,-z
x,-y,1/2+z
loop_
_atom_site_type_symbol
_atom_site_label
_atom_site_fract_x
_atom_site_fract_y
_atom_site_fract_z
Si Si1 0.179084 0.249007 0.108361
Si Si2 0.968212 0.434129 0.398221
Si Si3 0.561699 0.112908 0.983329
Si Si4 0.477597 0.260792 0.402923
Si Si5 0.990674 0.922143 0.571964
Si Si6 0.387589 0.022272 0.304994
Si Si7 0.326609 0.440258 0.392502
O O1 0.071963 0.339754 0.076747
O O2 0.311103 0.228510 0.258727
O O3 0.305795 0.251451 0.058410
O O4 0.026752 0.170387 0.036618
O O5 0.788127 0.468102 0.255165
O O6 0.000000 0.500000 0.500000
O O7 0.169693 0.426965 0.416919
O O8 0.540801 0.212368 0.998013
O O9 0.494550 0.070040 0.060475
O O10 0.781512 0.083120 0.042142
O O11 0.410809 0.079286 0.836683
O O12 0.446280 0.356865 0.415897
O O13 0.161675 0.946090 0.718922
O O14 0.000000 0.000000 0.500000
O O15 0.500000 0.048590 0.250000
O O16 0.500000 0.500000 0.500000
#
# Coordination Sequence:
#
# PCOD8119116 Si02
#       7
#     4   4   4   4   4   4   4
#     4  10  21  36  59  87 119 154 196 251 288 350
#     4  10  21  39  64  94 125 153 198 245 302 363
#     4  11  23  36  61  82 114 159 196 251 301 343
#     4  10  20  37  60  86 117 152 202 241 294 352
#     4  12  23  37  59  84 118 156 200 246 296 351
#     4  11  22  39  55  82 115 151 201 246 299 348
#     4  10  21  38  64  93 122 159 194 244 300 363
#
# _framework density 19.634820999999999
#
# number of rings (size 3 to 8) (size 9 to 14) (size 15 to 20)
#    0.000    1.429    2.857    3.000    2.000    2.857 
#    0.000    1.429    0.000    1.714    0.000    0.000 
#    0.000    0.000    0.000    0.000    0.000    0.000 
#
# Total GULP energy -346997.787639 kJ/mol
# GULP energy per Si atom -12392.778130 kJ/mol
# Density = 1.959013 g / cm^3
# Si number density = 19.634821 Si / 1000 Ang^3
#
#
#
# Elastic Constant Matrix: (Units=GPa)
#
#
# Indices 1 2 3 4 5 6 
#
# 1 121.6170 60.7617 41.3928 0.0000 -5.9282 0.0000
# 2 60.7617 116.6391 53.9723 0.0000 1.5483 0.0000
# 3 41.3928 53.9723 65.6691 0.0000 -0.5376 0.0000
# 4 0.0000 0.0000 0.0000 41.6993 0.0000 -3.9281
# 5 -5.9282 1.5483 -0.5376 0.0000 28.1987 0.0000
# 6 0.0000 0.0000 0.0000 -3.9281 0.0000 38.4160
#
#
#
# Elastic Compliance Matrix: (Units=1/GPa)
#
#
# Indices 1 2 3 4 5 6 
#
# 1 0.011875 -0.004467 -0.003792 0.000000 0.002669 0.000000
# 2 -0.004467 0.015542 -0.009975 0.000000 -0.001983 0.000000
# 3 -0.003792 -0.009975 0.025818 0.000000 0.000243 0.000000
# 4 0.000000 0.000000 0.000000 0.024214 0.000000 0.002476
# 5 0.002669 -0.001983 0.000243 0.000000 0.036137 0.000000
# 6 0.000000 0.000000 0.000000 0.002476 0.000000 0.026284
#
#
# Mechanical properties :
#
#
# Convention : Reuss Voigt Hill
#
# Bulk Modulus (GPa) = 59.63618 68.46431 64.05024
# Shear Modulus (GPa) = 27.48349 31.51601 29.49975
#
# Velocity S-wave (km/s) = 3.74536 4.01073 3.88031
# Velocity P-wave (km/s) = 7.01015 7.50949 7.26411
#
# Compressibility (1/GPa) = 0.01676834
#
# Stress axis : x y z
#
# Youngs Moduli (GPa) = 84.21048 64.34060 38.73273
#
# Poissons Ratio (x) = 0.28740 0.14687
# Poissons Ratio (y) = 0.37616 0.38634
# Poissons Ratio (z) = 0.31932 0.64177
#
# Static dielectric constant tensor:
#      x y z
#    x 3.821910 0.000000 0.055430 
#    y 0.000000 3.812870 0.000000 
#    z 0.055430 0.000000 3.836520 
# 
# 
# High freq. dielectric constant tensor:
#      x y z
#    x 1.779700 0.000000 -0.009440 
#    y 0.000000 1.772100 0.000000 
#    z -0.009440 0.000000 1.740680 
# 
# From -- ./inp_files/30477.got.cif
#   From: 2010.06.25/outbox.cif.g09.slc.cpg/sg13_16_cif.got.tgz:30477.got - 2010.06.28 04:50:58.
