data_PCOD8119967
_publ_section_title
;
Structure prediction by ZEFSAII (Michael W. Deem and Ramdas Pophale) SiO2 
 PCOD8119967
Probable space group: P 2/C
;
_chemical_formula_sum "Si O2"
_cell_formula_units_Z 28
_cell_length_a 8.830913
_cell_length_b 32.193292
_cell_length_c 5.166523
_cell_angle_alpha 90.000000
_cell_angle_beta 115.489624
_cell_angle_gamma 90.000000
_cell_volume 1325.852206
_symmetry_space_group_name_H-M "P 2/C"
_symmetry_group_IT_number 13
_symmetry_cell_setting 'monoclinic'
loop_
_space_group_symop_operation_xyz
x,y,z
-x,y,1/2-z
-x,-y,-z
x,-y,1/2+z
loop_
_atom_site_type_symbol
_atom_site_label
_atom_site_fract_x
_atom_site_fract_y
_atom_site_fract_z
Si Si1 0.805142 0.840761 0.599935
Si Si2 0.394857 0.240977 0.422903
Si Si3 0.696820 0.477788 0.367383
Si Si4 0.108847 0.399011 0.076151
Si Si5 0.312486 0.018002 0.890809
Si Si6 0.110760 0.695656 0.580782
Si Si7 0.195846 0.892698 0.400215
O O1 0.706359 0.798389 0.551119
O O2 0.757244 0.860412 0.289708
O O3 0.000000 0.829335 0.750000
O O4 0.756134 0.872751 0.790235
O O5 0.500000 0.227127 0.250000
O O6 0.275771 0.276931 0.226591
O O7 0.500000 0.257357 0.750000
O O8 0.500000 0.483078 0.250000
O O9 0.773782 0.492515 0.698651
O O10 0.734161 0.430115 0.318660
O O11 0.174140 0.351765 0.107050
O O12 0.000000 0.406288 0.250000
O O13 0.000000 0.410457 0.750000
O O14 0.310330 0.066921 0.943293
O O15 0.218280 0.006431 0.554606
O O16 0.500000 0.000000 0.000000
O O17 0.000000 0.703099 0.750000
O O18 0.000000 0.708528 0.250000
O O19 0.000000 0.905192 0.250000
#
# Coordination Sequence:
#
# PCOD8119967 Si02
#       7
#     4   4   4   4   4   4   4
#     4  10  22  42  64  88 121 162 200 243 302 365
#     4  12  25  42  62 100 130 157 206 258 311 367
#     4  10  21  36  54  80 118 161 201 248 313 379
#     4  10  21  37  59  88 115 151 211 259 305 364
#     4  10  21  38  54  84 116 152 192 235 294 353
#     4  10  22  42  66  89 123 171 208 252 313 382
#     4  10  21  39  63  87 114 155 205 244 286 354
#
# _framework density 21.118493000000001
#
# number of rings (size 3 to 8) (size 9 to 14) (size 15 to 20)
#    0.000    1.714    0.000    3.857    0.000    4.571 
#   15.429    2.143    0.000    0.000    0.000    0.000 
#    0.000    0.000    0.000    0.000    0.000    0.000 
#
# Total GULP energy -347175.797940 kJ/mol
# GULP energy per Si atom -12399.135641 kJ/mol
# Density = 2.107043 g / cm^3
# Si number density = 21.118493 Si / 1000 Ang^3
#
#
#
# Elastic Constant Matrix: (Units=GPa)
#
#
# Indices 1 2 3 4 5 6 
#
# 1 81.0090 66.0782 56.8178 0.0000 -23.3823 0.0000
# 2 66.0782 135.1140 42.1381 0.0000 1.5093 0.0000
# 3 56.8178 42.1381 132.2185 0.0000 -34.8842 0.0000
# 4 0.0000 0.0000 0.0000 33.9236 0.0000 -5.9708
# 5 -23.3823 1.5093 -34.8842 0.0000 35.0318 0.0000
# 6 0.0000 0.0000 0.0000 -5.9708 0.0000 37.9221
#
#
#
# Elastic Compliance Matrix: (Units=1/GPa)
#
#
# Indices 1 2 3 4 5 6 
#
# 1 0.032904 -0.014833 -0.004678 0.000000 0.017942 0.000000
# 2 -0.014833 0.015344 -0.001767 0.000000 -0.012321 0.000000
# 3 -0.004678 -0.001767 0.012659 0.000000 0.009559 0.000000
# 4 0.000000 0.000000 0.000000 0.030318 0.000000 0.004774
# 5 0.017942 -0.012321 0.009559 0.000000 0.050571 0.000000
# 6 0.000000 0.000000 0.000000 0.004774 0.000000 0.027121
#
#
# Mechanical properties :
#
#
# Convention : Reuss Voigt Hill
#
# Bulk Modulus (GPa) = 54.49590 75.37885 64.93737
# Shear Modulus (GPa) = 22.97905 33.59599 28.28752
#
# Velocity S-wave (km/s) = 3.30222 3.99285 3.66384
# Velocity P-wave (km/s) = 6.35613 7.55168 6.97955
#
# Compressibility (1/GPa) = 0.01835000
#
# Stress axis : x y z
#
# Youngs Moduli (GPa) = 30.39177 65.17234 78.99715
#
# Poissons Ratio (x) = 0.96670 0.36958
# Poissons Ratio (y) = 0.45080 0.13956
# Poissons Ratio (z) = 0.14219 0.11514
#
# Static dielectric constant tensor:
#      x y z
#    x 3.631090 0.000000 -0.062750 
#    y 0.000000 3.772710 0.000000 
#    z -0.062750 0.000000 3.558450 
# 
# 
# High freq. dielectric constant tensor:
#      x y z
#    x 1.824990 0.000000 -0.027580 
#    y 0.000000 1.831120 0.000000 
#    z -0.027580 0.000000 1.841980 
# 
# From -- ./inp_files/2738.got.cif
#   From: 2010.06.25/outbox.cif.g09.slc.cpg/sg13_2_cif.got.tgz:2738.got - 2010.06.28 04:50:58.
