data_PCOD8119469
_publ_section_title
;
Structure prediction by ZEFSAII (Michael W. Deem and Ramdas Pophale) SiO2 
 PCOD8119469
Probable space group: P 2/C
;
_chemical_formula_sum "Si O2"
_cell_formula_units_Z 30
_cell_length_a 14.486074
_cell_length_b 8.422482
_cell_length_c 22.207911
_cell_angle_alpha 90.000000
_cell_angle_beta 146.916438
_cell_angle_gamma 90.000000
_cell_volume 1479.043825
_symmetry_space_group_name_H-M "P 2/C"
_symmetry_group_IT_number 13
_symmetry_cell_setting 'monoclinic'
loop_
_space_group_symop_operation_xyz
x,y,z
-x,y,1/2-z
-x,-y,-z
x,-y,1/2+z
loop_
_atom_site_type_symbol
_atom_site_label
_atom_site_fract_x
_atom_site_fract_y
_atom_site_fract_z
Si Si1 0.819114 0.237930 0.622618
Si Si2 0.168272 0.134971 0.379562
Si Si3 0.732982 0.388621 0.455135
Si Si4 0.531641 0.176491 0.036062
Si Si5 0.221480 0.244114 0.540117
Si Si6 0.610410 0.222433 0.217100
Si Si7 0.500000 0.970332 0.250000
Si Si8 0.074352 0.672871 0.549459
O O1 0.816091 0.355134 0.564651
O O2 0.647259 0.274602 0.568280
O O3 0.000000 0.276048 0.750000
O O4 0.800102 0.053244 0.595447
O O5 0.320462 0.232212 0.429024
O O6 0.147059 0.200542 0.434586
O O7 0.000000 0.167942 0.250000
O O8 0.732543 0.571094 0.436348
O O9 0.540432 0.337002 0.346614
O O10 0.840121 0.278533 0.467112
O O11 0.598288 0.174854 0.140865
O O12 0.500000 0.000000 0.000000
O O13 0.381045 0.139397 0.644286
O O14 0.077446 0.212349 0.512082
O O15 0.782586 0.320928 0.320449
O O16 0.606987 0.070650 0.259782
O O17 0.000000 0.500000 0.500000
#
# Coordination Sequence:
#
# PCOD8119469 Si02
#       8
#     4   4   4   4   4   4   2   4
#     4   9  19  37  60  87 114 161 208 251 309 371
#     4  10  20  39  59  84 124 155 204 264 308 359
#     4  10  21  41  63  83 127 165 205 253 307 379
#     4   9  18  35  60  87 119 156 204 252 308 365
#     4  11  25  39  58  94 124 161 205 257 313 361
#     4  11  21  41  66  89 120 170 205 249 320 374
#     4  12  24  38  62  92 128 158 202 258 314 374
#     4  10  22  39  61  88 120 166 206 248 306 372
#
# _framework density 20.283373999999998
#
# number of rings (size 3 to 8) (size 9 to 14) (size 15 to 20)
#    0.000    1.867    1.333    3.200    3.733    1.067 
#    9.600    2.667    0.000    0.000    0.000    0.000 
#    0.000    0.000    0.000    0.000    0.000    0.000 
#
# Total GULP energy -371738.130472 kJ/mol
# GULP energy per Si atom -12391.271016 kJ/mol
# Density = 2.023721 g / cm^3
# Si number density = 20.283374 Si / 1000 Ang^3
#
#
#
# Elastic Constant Matrix: (Units=GPa)
#
#
# Indices 1 2 3 4 5 6 
#
# 1 66.1205 23.7385 28.8098 0.0000 10.3060 0.0000
# 2 23.7385 58.9171 43.1516 0.0000 -3.9134 0.0000
# 3 28.8098 43.1516 134.1145 0.0000 8.3459 0.0000
# 4 0.0000 0.0000 0.0000 32.1732 0.0000 -3.9840
# 5 10.3060 -3.9134 8.3459 0.0000 32.5819 0.0000
# 6 0.0000 0.0000 0.0000 -3.9840 0.0000 21.1060
#
#
#
# Elastic Compliance Matrix: (Units=1/GPa)
#
#
# Indices 1 2 3 4 5 6 
#
# 1 0.019362 -0.007191 -0.001434 0.000000 -0.006621 0.000000
# 2 -0.007191 0.025567 -0.007128 0.000000 0.007171 0.000000
# 3 -0.001434 -0.007128 0.010246 0.000000 -0.003027 0.000000
# 4 0.000000 0.000000 0.000000 0.031826 0.000000 0.006007
# 5 -0.006621 0.007171 -0.003027 0.000000 0.034423 0.000000
# 6 0.000000 0.000000 0.000000 0.006007 0.000000 0.048514
#
#
# Mechanical properties :
#
#
# Convention : Reuss Voigt Hill
#
# Bulk Modulus (GPa) = 42.24658 50.06133 46.15395
# Shear Modulus (GPa) = 23.88536 28.06903 25.97719
#
# Velocity S-wave (km/s) = 3.43532 3.72404 3.58259
# Velocity P-wave (km/s) = 6.05050 6.57464 6.31801
#
# Compressibility (1/GPa) = 0.02367056
#
# Stress axis : x y z
#
# Youngs Moduli (GPa) = 51.64676 39.11251 97.59882
#
# Poissons Ratio (x) = 0.28127 0.13991
# Poissons Ratio (y) = 0.37140 0.69567
# Poissons Ratio (z) = 0.07404 0.27879
#
# Static dielectric constant tensor:
#      x y z
#    x 4.343290 0.000000 0.361720 
#    y 0.000000 3.417940 0.000000 
#    z 0.361720 0.000000 3.915190 
# 
# 
# High freq. dielectric constant tensor:
#      x y z
#    x 1.806550 0.000000 0.008820 
#    y 0.000000 1.768340 0.000000 
#    z 0.008820 0.000000 1.804410 
# 
# From -- ./inp_files/87312.got.cif
#   From: 2010.06.25/outbox.cif.g09.slc.cpg/sg13_44_cif.got.tgz:87312.got - 2010.06.28 04:50:58.
