data_PCOD8119835
_publ_section_title
;
Structure prediction by ZEFSAII (Michael W. Deem and Ramdas Pophale) SiO2 
 PCOD8119835
Probable space group: P 2/C
;
_chemical_formula_sum "Si O2"
_cell_formula_units_Z 30
_cell_length_a 20.491945
_cell_length_b 6.988888
_cell_length_c 17.651623
_cell_angle_alpha 90.000000
_cell_angle_beta 34.768016
_cell_angle_gamma 90.000000
_cell_volume 1441.601008
_symmetry_space_group_name_H-M "P 2/C"
_symmetry_group_IT_number 13
_symmetry_cell_setting 'monoclinic'
loop_
_space_group_symop_operation_xyz
x,y,z
-x,y,1/2-z
-x,-y,-z
x,-y,1/2+z
loop_
_atom_site_type_symbol
_atom_site_label
_atom_site_fract_x
_atom_site_fract_y
_atom_site_fract_z
Si Si1 0.256240 0.079375 0.470127
Si Si2 0.039602 0.911811 0.386444
Si Si3 0.500000 0.207566 0.250000
Si Si4 0.855306 0.612004 0.530349
Si Si5 0.452732 0.691381 0.957610
Si Si6 0.320862 0.636519 0.666250
Si Si7 0.274153 0.015264 0.626249
Si Si8 0.070675 0.216543 0.109125
O O1 0.393786 0.071420 0.326305
O O2 0.210855 0.275791 0.474114
O O3 0.233232 0.066665 0.580843
O O4 0.191673 0.895439 0.498922
O O5 0.974996 0.716056 0.431471
O O6 0.175161 0.876776 0.267851
O O7 0.000000 0.000000 0.500000
O O8 0.019937 0.074516 0.342380
O O9 0.532756 0.342307 0.147015
O O10 0.781876 0.594923 0.677517
O O11 0.892448 0.401200 0.472330
O O12 0.573179 0.700661 0.883659
O O13 0.361563 0.541355 0.077265
O O14 0.398571 0.899283 0.024109
O O15 0.280847 0.793516 0.643251
O O16 0.000000 0.283947 0.250000
#
# Coordination Sequence:
#
# PCOD8119835 Si02
#       8
#     4   4   2   4   4   4   4   4
#     4  10  23  44  64  93 129 168 213 268 315 386
#     4  11  24  43  64  93 131 166 218 268 312 383
#     4  10  20  46  68  98 128 170 218 266 322 378
#     4  11  25  41  68  91 133 173 209 268 323 380
#     4  10  24  42  68  94 133 170 211 264 323 384
#     4  11  23  45  63  99 130 168 216 262 325 383
#     4  11  23  42  67  93 128 169 213 267 321 376
#     4  11  25  43  65  96 129 172 216 258 325 386
#
# _framework density 20.810196999999999
#
# number of rings (size 3 to 8) (size 9 to 14) (size 15 to 20)
#    0.000    1.333    4.000    0.400    3.733    3.733 
#    9.600    1.333    0.000    0.000    0.000    0.000 
#    0.000    0.000    0.000    0.000    0.000    0.000 
#
# Total GULP energy -371734.879684 kJ/mol
# GULP energy per Si atom -12391.162656 kJ/mol
# Density = 2.076283 g / cm^3
# Si number density = 20.810197 Si / 1000 Ang^3
#
#
#
# Elastic Constant Matrix: (Units=GPa)
#
#
# Indices 1 2 3 4 5 6 
#
# 1 56.6766 17.7539 23.6753 0.0000 11.1647 0.0000
# 2 17.7539 92.7445 44.3664 0.0000 6.0189 0.0000
# 3 23.6753 44.3664 114.1932 0.0000 14.1889 0.0000
# 4 0.0000 0.0000 0.0000 32.3967 0.0000 6.4960
# 5 11.1647 6.0189 14.1889 0.0000 44.7261 0.0000
# 6 0.0000 0.0000 0.0000 6.4960 0.0000 25.3983
#
#
#
# Elastic Compliance Matrix: (Units=1/GPa)
#
#
# Indices 1 2 3 4 5 6 
#
# 1 0.020306 -0.002275 -0.002847 0.000000 -0.003860 0.000000
# 2 -0.002275 0.013500 -0.004808 0.000000 0.000276 0.000000
# 3 -0.002847 -0.004808 0.011500 0.000000 -0.002291 0.000000
# 4 0.000000 0.000000 0.000000 0.032536 0.000000 -0.008322
# 5 -0.003860 0.000276 -0.002291 0.000000 0.024011 0.000000
# 6 0.000000 0.000000 0.000000 -0.008322 0.000000 0.041501
#
#
# Mechanical properties :
#
#
# Convention : Reuss Voigt Hill
#
# Bulk Modulus (GPa) = 39.29695 48.35614 43.82655
# Shear Modulus (GPa) = 29.12155 32.35881 30.74018
#
# Velocity S-wave (km/s) = 3.74490 3.94756 3.84757
# Velocity P-wave (km/s) = 6.13380 6.63814 6.39095
#
# Compressibility (1/GPa) = 0.02544727
#
# Stress axis : x y z
#
# Youngs Moduli (GPa) = 49.24659 74.07582 86.95863
#
# Poissons Ratio (x) = 0.16852 0.24753
# Poissons Ratio (y) = 0.11203 0.41806
# Poissons Ratio (z) = 0.14018 0.35613
#
# Static dielectric constant tensor:
#      x y z
#    x 3.918740 0.000000 0.011210 
#    y 0.000000 3.539160 0.000000 
#    z 0.011210 0.000000 3.936190 
# 
# 
# High freq. dielectric constant tensor:
#      x y z
#    x 1.824140 0.000000 -0.002710 
#    y 0.000000 1.796940 0.000000 
#    z -0.002710 0.000000 1.840830 
# 
# From -- ./inp_files/81995.got.cif
#   From: 2010.06.25/outbox.cif.g09.slc.cpg/sg13_41_cif.got.tgz:81995.got - 2010.06.28 04:50:58.
