data_PCOD8119771
_publ_section_title
;
Structure prediction by ZEFSAII (Michael W. Deem and Ramdas Pophale) SiO2 
 PCOD8119771
Probable space group: P 2/C
;
_chemical_formula_sum "Si O2"
_cell_formula_units_Z 28
_cell_length_a 9.472030
_cell_length_b 14.521648
_cell_length_c 11.399928
_cell_angle_alpha 90.000000
_cell_angle_beta 59.092636
_cell_angle_gamma 90.000000
_cell_volume 1345.388798
_symmetry_space_group_name_H-M "P 2/C"
_symmetry_group_IT_number 13
_symmetry_cell_setting 'monoclinic'
loop_
_space_group_symop_operation_xyz
x,y,z
-x,y,1/2-z
-x,-y,-z
x,-y,1/2+z
loop_
_atom_site_type_symbol
_atom_site_label
_atom_site_fract_x
_atom_site_fract_y
_atom_site_fract_z
Si Si1 0.804788 0.436918 0.848309
Si Si2 0.304898 0.318228 0.809920
Si Si3 0.593938 0.985892 0.836144
Si Si4 0.172840 0.362440 0.110997
Si Si5 0.696142 0.273513 0.044048
Si Si6 0.669065 0.775331 0.798321
Si Si7 0.186528 0.846714 0.209606
O O1 0.704518 0.399745 0.780244
O O2 0.738640 0.540329 0.897519
O O3 0.000000 0.433218 0.750000
O O4 0.766424 0.371603 0.975149
O O5 0.500000 0.299947 0.750000
O O6 0.215095 0.227101 0.800415
O O7 0.187717 0.351583 0.965436
O O8 0.500000 0.999176 0.750000
O O9 0.665475 0.884233 0.811542
O O10 0.744893 0.056817 0.772727
O O11 0.500000 0.000000 0.000000
O O12 0.255708 0.268872 0.118605
O O13 0.000000 0.368025 0.250000
O O14 0.502473 0.276225 0.142642
O O15 0.776405 0.249657 0.136381
O O16 0.721532 0.188875 0.944779
O O17 0.000000 0.858425 0.250000
#
# Coordination Sequence:
#
# PCOD8119771 Si02
#       7
#     4   4   4   4   4   4   4
#     4  10  24  43  69  93 137 182 225 276 347 411
#     4  11  24  43  69 103 133 180 237 285 339 414
#     4  12  24  46  73 101 139 183 232 288 356 422
#     4  11  27  41  64 102 140 179 223 288 348 408
#     4  10  20  42  65  94 129 176 224 268 341 404
#     4  11  23  40  66  97 133 176 218 283 343 404
#     4  11  24  42  73  99 134 181 226 282 341 426
#
# _framework density 20.811827999999998
#
# number of rings (size 3 to 8) (size 9 to 14) (size 15 to 20)
#    0.000    1.143    2.857    3.857    8.000    4.000 
#    0.000    2.857    0.000    0.000    0.000    0.000 
#    0.000    0.000    0.000    0.000    0.000    0.000 
#
# Total GULP energy -346892.714565 kJ/mol
# GULP energy per Si atom -12389.025520 kJ/mol
# Density = 2.076446 g / cm^3
# Si number density = 20.811828 Si / 1000 Ang^3
#
#
#
# Elastic Constant Matrix: (Units=GPa)
#
#
# Indices 1 2 3 4 5 6 
#
# 1 105.4012 70.1392 33.2091 0.0000 8.8075 0.0000
# 2 70.1392 176.9285 65.5796 0.0000 9.1510 0.0000
# 3 33.2091 65.5796 136.5318 0.0000 19.6783 0.0000
# 4 0.0000 0.0000 0.0000 26.0101 0.0000 -8.6017
# 5 8.8075 9.1510 19.6783 0.0000 30.3682 0.0000
# 6 0.0000 0.0000 0.0000 -8.6017 0.0000 43.9624
#
#
#
# Elastic Compliance Matrix: (Units=1/GPa)
#
#
# Indices 1 2 3 4 5 6 
#
# 1 0.013070 -0.004874 -0.000555 0.000000 -0.001962 0.000000
# 2 -0.004874 0.008694 -0.003107 0.000000 0.000807 0.000000
# 3 -0.000555 -0.003107 0.009699 0.000000 -0.005188 0.000000
# 4 0.000000 0.000000 0.000000 0.041106 0.000000 0.008043
# 5 -0.001962 0.000807 -0.005188 0.000000 0.036617 0.000000
# 6 0.000000 0.000000 0.000000 0.008043 0.000000 0.024320
#
#
# Mechanical properties :
#
#
# Convention : Reuss Voigt Hill
#
# Bulk Modulus (GPa) = 69.48573 84.07972 76.78273
# Shear Modulus (GPa) = 32.18011 36.73038 34.45524
#
# Velocity S-wave (km/s) = 3.93649 4.20560 4.07327
# Velocity P-wave (km/s) = 7.35673 8.00440 7.68739
#
# Compressibility (1/GPa) = 0.01439144
#
# Stress axis : x y z
#
# Youngs Moduli (GPa) = 76.51218 115.02234 103.10040
#
# Poissons Ratio (x) = 0.56062 0.05723
# Poissons Ratio (y) = 0.37292 0.32030
# Poissons Ratio (z) = 0.04247 0.35734
#
# Static dielectric constant tensor:
#      x y z
#    x 4.072790 0.000000 0.733160 
#    y 0.000000 4.023170 0.000000 
#    z 0.733160 0.000000 4.711680 
# 
# 
# High freq. dielectric constant tensor:
#      x y z
#    x 1.803250 0.000000 0.013020 
#    y 0.000000 1.826080 0.000000 
#    z 0.013020 0.000000 1.833230 
# 
# From -- ./inp_files/30296.got.cif
#   From: 2010.06.25/outbox.cif.g09.slc.cpg/sg13_16_cif.got.tgz:30296.got - 2010.06.28 04:50:58.
