data_PCOD8119151
_publ_section_title
;
Structure prediction by ZEFSAII (Michael W. Deem and Ramdas Pophale) SiO2 
 PCOD8119151
Probable space group: P 2/C
;
_chemical_formula_sum "Si O2"
_cell_formula_units_Z 32
_cell_length_a 15.634500
_cell_length_b 21.615790
_cell_length_c 9.249758
_cell_angle_alpha 90.000000
_cell_angle_beta 149.128333
_cell_angle_gamma 90.000000
_cell_volume 1603.990440
_symmetry_space_group_name_H-M "P 2/C"
_symmetry_group_IT_number 13
_symmetry_cell_setting 'monoclinic'
loop_
_space_group_symop_operation_xyz
x,y,z
-x,y,1/2-z
-x,-y,-z
x,-y,1/2+z
loop_
_atom_site_type_symbol
_atom_site_label
_atom_site_fract_x
_atom_site_fract_y
_atom_site_fract_z
Si Si1 0.623439 0.984042 0.055586
Si Si2 0.875594 0.871690 0.437518
Si Si3 0.826573 0.336142 0.573519
Si Si4 0.829485 0.535271 0.241568
Si Si5 0.332166 0.249968 0.921962
Si Si6 0.640296 0.454823 0.755470
Si Si7 0.930753 0.944065 0.990057
Si Si8 0.498922 0.678235 0.085608
O O1 0.748863 0.928648 0.278260
O O2 0.730270 0.047710 0.187781
O O3 0.500000 0.964053 0.750000
O O4 0.500000 0.000000 0.000000
O O5 0.769397 0.810942 0.260461
O O6 0.996481 0.881318 0.473737
O O7 0.000000 0.864168 0.750000
O O8 0.836489 0.406577 0.643112
O O9 0.785166 0.294314 0.652624
O O10 0.000000 0.316655 0.750000
O O11 0.686051 0.326410 0.248309
O O12 0.773694 0.555244 0.320548
O O13 0.000000 0.500000 0.500000
O O14 0.708509 0.484138 0.000652
O O15 0.380502 0.281378 0.840676
O O16 0.500000 0.232130 0.250000
O O17 0.500000 0.500000 0.500000
O O18 0.572697 0.389411 0.704237
O O19 0.000000 0.949387 0.250000
O O20 0.000000 0.000000 0.000000
O O21 0.500000 0.706826 0.250000
#
# Coordination Sequence:
#
# PCOD8119151 Si02
#       8
#     4   4   4   4   4   4   4   4
#     4  11  20  35  62  98 131 168 209 259 313 366
#     4  11  23  42  63  92 131 172 219 266 322 385
#     4  11  24  44  65  90 128 162 212 266 331 389
#     4  12  25  41  58  96 128 163 201 266 323 400
#     4  10  24  47  69  88 124 177 224 272 329 398
#     4  12  23  39  65  92 127 160 209 256 333 398
#     4  10  20  37  61  93 136 175 212 264 323 376
#     4  11  24  44  67  93 122 166 213 272 327 401
#
# _framework density 19.950243
#
# number of rings (size 3 to 8) (size 9 to 14) (size 15 to 20)
#    0.000    1.000    2.500    6.375    1.750    1.500 
#    0.000    4.375    0.000    0.000    0.000    0.000 
#    0.000    0.000    0.000    0.000    0.000    0.000 
#
# Total GULP energy -396680.411874 kJ/mol
# GULP energy per Si atom -12396.262871 kJ/mol
# Density = 1.990483 g / cm^3
# Si number density = 19.950243 Si / 1000 Ang^3
#
#
#
# Elastic Constant Matrix: (Units=GPa)
#
#
# Indices 1 2 3 4 5 6 
#
# 1 160.1483 54.8541 53.9335 0.0000 3.0790 0.0000
# 2 54.8541 115.9327 62.1422 0.0000 6.5219 0.0000
# 3 53.9335 62.1422 108.8883 0.0000 6.3416 0.0000
# 4 0.0000 0.0000 0.0000 55.3569 0.0000 -3.7312
# 5 3.0790 6.5219 6.3416 0.0000 44.8193 0.0000
# 6 0.0000 0.0000 0.0000 -3.7312 0.0000 37.6742
#
#
#
# Elastic Compliance Matrix: (Units=1/GPa)
#
#
# Indices 1 2 3 4 5 6 
#
# 1 0.007923 -0.002376 -0.002578 0.000000 0.000166 0.000000
# 2 -0.002376 0.013169 -0.006288 0.000000 -0.000863 0.000000
# 3 -0.002578 -0.006288 0.014102 0.000000 -0.000903 0.000000
# 4 0.000000 0.000000 0.000000 0.018186 0.000000 0.001801
# 5 0.000166 -0.000863 -0.000903 0.000000 0.022554 0.000000
# 6 0.000000 0.000000 0.000000 0.001801 0.000000 0.026722
#
#
# Mechanical properties :
#
#
# Convention : Reuss Voigt Hill
#
# Bulk Modulus (GPa) = 78.68385 80.75877 79.72131
# Shear Modulus (GPa) = 38.64653 41.83939 40.24296
#
# Velocity S-wave (km/s) = 4.40608 4.58447 4.49616
# Velocity P-wave (km/s) = 8.08767 8.28198 8.18540
#
# Compressibility (1/GPa) = 0.01270909
#
# Stress axis : x y z
#
# Youngs Moduli (GPa) = 126.21238 75.93374 70.91223
#
# Poissons Ratio (x) = 0.18045 0.18280
# Poissons Ratio (y) = 0.29994 0.44592
# Poissons Ratio (z) = 0.32536 0.47750
#
# Static dielectric constant tensor:
#      x y z
#    x 6.893780 0.000000 -1.132880 
#    y 0.000000 4.192930 0.000000 
#    z -1.132880 0.000000 4.365120 
# 
# 
# High freq. dielectric constant tensor:
#      x y z
#    x 1.800100 0.000000 0.001920 
#    y 0.000000 1.762110 0.000000 
#    z 0.001920 0.000000 1.791560 
# 
# From -- ./inp_files/20236.got.cif
#   From: 2010.06.25/outbox.cif.g09.slc.cpg/sg13_11_cif.got.tgz:20236.got - 2010.06.28 04:50:58.
