data_PCOD8119746
_publ_section_title
;
Structure prediction by ZEFSAII (Michael W. Deem and Ramdas Pophale) SiO2 
 PCOD8119746
Probable space group: P 2/C
;
_chemical_formula_sum "Si O2"
_cell_formula_units_Z 20
_cell_length_a 22.660474
_cell_length_b 7.452351
_cell_length_c 28.219292
_cell_angle_alpha 90.000000
_cell_angle_beta 168.653094
_cell_angle_gamma 90.000000
_cell_volume 937.606604
_symmetry_space_group_name_H-M "P 2/C"
_symmetry_group_IT_number 13
_symmetry_cell_setting 'monoclinic'
loop_
_space_group_symop_operation_xyz
x,y,z
-x,y,1/2-z
-x,-y,-z
x,-y,1/2+z
loop_
_atom_site_type_symbol
_atom_site_label
_atom_site_fract_x
_atom_site_fract_y
_atom_site_fract_z
Si Si1 0.805160 0.161519 0.294514
Si Si2 0.877404 0.373686 0.203649
Si Si3 0.768427 0.242351 0.788818
Si Si4 0.852281 0.061538 0.027672
Si Si5 0.174436 0.301512 0.771647
O O1 0.960376 0.263549 0.460538
O O2 0.044899 0.141622 0.441493
O O3 0.684207 0.966574 0.214791
O O4 0.530411 0.280649 0.060149
O O5 0.950303 0.525340 0.299821
O O6 0.000000 0.442158 0.250000
O O7 0.052280 0.193307 0.355099
O O8 0.522564 0.341639 0.920436
O O9 0.878848 0.328872 0.826367
O O10 0.500000 0.035635 0.750000
O O11 0.000347 0.869886 0.154596
#
# Coordination Sequence:
#
# PCOD8119746 Si02
#       5
#     4   4   4   4   4
#     4  10  20  41  72 100 121 175 224 257 333 395
#     4  12  25  42  63 100 135 174 219 272 330 385
#     4  10  20  41  70  96 127 169 219 268 321 393
#     4  11  23  44  67  95 137 172 213 281 328 380
#     4  11  23  45  68  95 132 173 220 267 326 390
#
# _framework density 21.330907
#
# number of rings (size 3 to 8) (size 9 to 14) (size 15 to 20)
#    0.000    1.200    4.000    3.000    0.000    2.400 
#   14.400    0.000    0.000    0.000    0.000    0.000 
#    0.000    0.000    0.000    0.000    0.000    0.000 
#
# Total GULP energy -248154.570723 kJ/mol
# GULP energy per Si atom -12407.728536 kJ/mol
# Density = 2.128236 g / cm^3
# Si number density = 21.330907 Si / 1000 Ang^3
#
#
#
# Elastic Constant Matrix: (Units=GPa)
#
#
# Indices 1 2 3 4 5 6 
#
# 1 129.8132 47.3585 48.0444 0.0000 -0.0041 0.0000
# 2 47.3585 77.4656 38.6643 0.0000 10.1853 0.0000
# 3 48.0444 38.6643 108.3415 0.0000 4.6010 0.0000
# 4 0.0000 0.0000 0.0000 11.7420 0.0000 -2.0264
# 5 -0.0041 10.1853 4.6010 0.0000 36.3278 0.0000
# 6 0.0000 0.0000 0.0000 -2.0264 0.0000 33.0179
#
#
#
# Elastic Compliance Matrix: (Units=1/GPa)
#
#
# Indices 1 2 3 4 5 6 
#
# 1 0.010740 -0.005348 -0.002934 0.000000 0.001872 0.000000
# 2 -0.005348 0.018884 -0.004165 0.000000 -0.004768 0.000000
# 3 -0.002934 -0.004165 0.012033 0.000000 -0.000356 0.000000
# 4 0.000000 0.000000 0.000000 0.086076 0.000000 0.005283
# 5 0.001872 -0.004768 -0.000356 0.000000 0.028909 0.000000
# 6 0.000000 0.000000 0.000000 0.005283 0.000000 0.030611
#
#
# Mechanical properties :
#
#
# Convention : Reuss Voigt Hill
#
# Bulk Modulus (GPa) = 59.65436 64.86164 62.25800
# Shear Modulus (GPa) = 22.96367 28.32107 25.64237
#
# Velocity S-wave (km/s) = 3.28463 3.64772 3.47093
# Velocity P-wave (km/s) = 6.51245 6.94366 6.73151
#
# Compressibility (1/GPa) = 0.01676324
#
# Stress axis : x y z
#
# Youngs Moduli (GPa) = 93.10765 52.95428 83.10697
#
# Poissons Ratio (x) = 0.28319 0.24382
# Poissons Ratio (y) = 0.49793 0.34616
# Poissons Ratio (z) = 0.27316 0.22057
#
# Static dielectric constant tensor:
#      x y z
#    x 3.882840 0.000000 -0.127440 
#    y 0.000000 3.882890 0.000000 
#    z -0.127440 0.000000 3.785300 
# 
# 
# High freq. dielectric constant tensor:
#      x y z
#    x 1.839050 0.000000 -0.006710 
#    y 0.000000 1.840210 0.000000 
#    z -0.006710 0.000000 1.833040 
# 
# From -- ./inp_files/97665.got.cif
#   From: 2010.06.25/outbox.cif.g09.slc.cpg/sg13_49_cif.got.tgz:97665.got - 2010.06.28 04:50:58.
