data_PCOD8119963
_publ_section_title
;
Structure prediction by ZEFSAII (Michael W. Deem and Ramdas Pophale) SiO2 
 PCOD8119963
Probable space group: P 2/C
;
_chemical_formula_sum "Si O2"
_cell_formula_units_Z 32
_cell_length_a 18.355623
_cell_length_b 5.184371
_cell_length_c 18.983164
_cell_angle_alpha 90.000000
_cell_angle_beta 58.862349
_cell_angle_gamma 90.000000
_cell_volume 1546.218145
_symmetry_space_group_name_H-M "P 2/C"
_symmetry_group_IT_number 13
_symmetry_cell_setting 'monoclinic'
loop_
_space_group_symop_operation_xyz
x,y,z
-x,y,1/2-z
-x,-y,-z
x,-y,1/2+z
loop_
_atom_site_type_symbol
_atom_site_label
_atom_site_fract_x
_atom_site_fract_y
_atom_site_fract_z
Si Si1 0.594047 0.677456 0.672678
Si Si2 0.777256 0.223657 0.282405
Si Si3 0.099685 0.245851 0.406479
Si Si4 0.405953 0.822544 0.266725
Si Si5 0.099685 0.745852 0.493837
Si Si6 0.332115 0.276587 0.662267
Si Si7 0.777257 0.723658 0.940337
Si Si8 0.667886 0.223413 0.994382
O O1 0.500000 0.624217 0.750000
O O2 0.642254 0.410121 0.668055
O O3 0.593649 0.728290 0.589082
O O4 0.642253 0.910121 0.689692
O O5 0.854345 0.269257 0.191115
O O6 0.704228 0.437815 0.307355
O O7 0.814131 0.249999 0.342934
O O8 0.740763 0.936568 0.289785
O O9 0.127258 0.484125 0.441449
O O10 0.000000 0.249998 0.440049
O O11 0.127258 0.984125 0.431293
O O12 0.500000 0.875782 0.250000
O O13 0.406351 0.771709 0.182731
O O14 0.145654 0.769256 0.545462
O O15 0.372035 0.249999 0.563982
O O16 0.740764 0.436568 0.969451
O O17 0.704229 0.937815 0.988417
#
# Coordination Sequence:
#
# PCOD8119963 Si02
#       8
#     4   4   4   4   4   4   4   4
#     4  10  21  37  55  80 108 137 177 221 267 327
#     4  10  21  36  56  82 109 143 185 225 270 321
#     4  10  21  36  54  80 113 147 183 223 270 321
#     4  10  21  37  55  80 108 137 177 221 267 327
#     4  10  21  36  54  80 113 147 183 223 270 321
#     4  10  21  37  56  80 110 141 179 227 274 320
#     4  10  21  36  56  82 109 143 185 225 270 321
#     4  10  21  37  56  80 110 141 179 227 274 320
#
# _framework density 20.695657000000001
#
# number of rings (size 3 to 8) (size 9 to 14) (size 15 to 20)
#    0.000    2.000    0.000    3.000    0.000    6.500 
#    0.000    5.000    0.000    9.000    0.000    0.000 
#    0.000    0.000    0.000    0.000    0.000    0.000 
#
# Total GULP energy -396720.857061 kJ/mol
# GULP energy per Si atom -12397.526783 kJ/mol
# Density = 2.064855 g / cm^3
# Si number density = 20.695657 Si / 1000 Ang^3
#
#
#
# Elastic Constant Matrix: (Units=GPa)
#
#
# Indices 1 2 3 4 5 6 
#
# 1 96.4723 5.4255 29.7380 0.0000 30.9625 0.0000
# 2 5.4255 129.3796 9.0267 0.0000 7.2610 0.0000
# 3 29.7380 9.0267 123.0526 0.0000 22.6172 0.0000
# 4 0.0000 0.0000 0.0000 20.1838 0.0000 13.1232
# 5 30.9625 7.2610 22.6172 0.0000 24.2288 0.0000
# 6 0.0000 0.0000 0.0000 13.1232 0.0000 13.6727
#
#
#
# Elastic Compliance Matrix: (Units=1/GPa)
#
#
# Indices 1 2 3 4 5 6 
#
# 1 0.017612 0.000536 -0.000156 0.000000 -0.022522 0.000000
# 2 0.000536 0.007881 -0.000178 0.000000 -0.002881 0.000000
# 3 -0.000156 -0.000178 0.009815 0.000000 -0.008909 0.000000
# 4 0.000000 0.000000 0.000000 0.131788 0.000000 -0.126492
# 5 -0.022522 -0.002881 -0.008909 0.000000 0.079234 0.000000
# 6 0.000000 0.000000 0.000000 -0.126492 0.000000 0.194547
#
#
# Mechanical properties :
#
#
# Convention : Reuss Voigt Hill
#
# Bulk Modulus (GPa) = 28.00213 48.58721 38.29467
# Shear Modulus (GPa) = 11.05274 31.93133 21.49204
#
# Velocity S-wave (km/s) = 2.31348 3.93224 3.22604
# Velocity P-wave (km/s) = 4.54929 6.64414 5.69389
#
# Compressibility (1/GPa) = 0.03571157
#
# Stress axis : x y z
#
# Youngs Moduli (GPa) = 56.77988 126.89053 101.88566
#
# Poissons Ratio (x) = -0.06805 0.01590
# Poissons Ratio (y) = -0.03045 0.01816
# Poissons Ratio (z) = 0.00886 0.02262
#
# Static dielectric constant tensor:
#      x y z
#    x 3.547220 0.000000 0.322240 
#    y 0.000000 4.622010 0.000000 
#    z 0.322240 0.000000 3.707080 
# 
# 
# High freq. dielectric constant tensor:
#      x y z
#    x 1.785530 0.000000 0.030400 
#    y 0.000000 1.847160 0.000000 
#    z 0.030400 0.000000 1.800610 
# 
# From -- ./inp_files/80659.got.cif
#   From: 2010.06.25/outbox.cif.g09.slc.cpg/sg13_41_cif.got.tgz:80659.got - 2010.06.28 04:50:58.
