data_PCOD8119417
_publ_section_title
;
Structure prediction by ZEFSAII (Michael W. Deem and Ramdas Pophale) SiO2 
 PCOD8119417
Probable space group: P 2/C
;
_chemical_formula_sum "Si O2"
_cell_formula_units_Z 28
_cell_length_a 8.795010
_cell_length_b 18.677074
_cell_length_c 8.076161
_cell_angle_alpha 90.000000
_cell_angle_beta 82.090075
_cell_angle_gamma 90.000000
_cell_volume 1314.008966
_symmetry_space_group_name_H-M "P 2/C"
_symmetry_group_IT_number 13
_symmetry_cell_setting 'monoclinic'
loop_
_space_group_symop_operation_xyz
x,y,z
-x,y,1/2-z
-x,-y,-z
x,-y,1/2+z
loop_
_atom_site_type_symbol
_atom_site_label
_atom_site_fract_x
_atom_site_fract_y
_atom_site_fract_z
Si Si1 0.341357 0.584866 0.321774
Si Si2 0.838810 0.767046 0.687264
Si Si3 0.870774 0.658424 0.395338
Si Si4 0.640893 0.654381 0.848673
Si Si5 0.617740 0.961159 0.100946
Si Si6 0.866133 0.454992 0.156157
Si Si7 0.180856 0.925875 0.727377
O O1 0.500000 0.545588 0.250000
O O2 0.279371 0.631433 0.177863
O O3 0.390981 0.641019 0.455245
O O4 0.228184 0.522400 0.399881
O O5 0.829396 0.727949 0.510733
O O6 0.704025 0.734924 0.821558
O O7 0.808884 0.851299 0.673997
O O8 0.000000 0.750731 0.750000
O O9 0.934059 0.591173 0.493317
O O10 0.000000 0.683923 0.250000
O O11 0.500000 0.640907 0.750000
O O12 0.769789 0.598392 0.780248
O O13 0.500000 0.920277 0.250000
O O14 0.725771 0.015851 0.184169
O O15 0.737820 0.915593 0.967796
O O16 0.500000 0.000000 0.000000
O O17 0.000000 0.486929 0.250000
O O18 0.000000 0.948321 0.750000
#
# Coordination Sequence:
#
# PCOD8119417 Si02
#       7
#     4   4   4   4   4   4   4
#     4  12  24  38  56  83 112 145 197 253 304 362
#     4  10  22  41  62  86 119 160 198 243 304 366
#     4  11  22  39  61  84 113 149 196 249 299 366
#     4  11  23  40  59  81 115 155 193 241 302 367
#     4   9  19  37  61  93 131 166 206 256 307 361
#     4  11  23  39  59  81 110 150 193 246 312 369
#     4  10  20  38  65  95 127 168 212 257 309 366
#
# _framework density 21.308835999999999
#
# number of rings (size 3 to 8) (size 9 to 14) (size 15 to 20)
#    0.000    1.429    0.000    7.286    0.000    5.143 
#    0.000   12.143    0.000    0.000    0.000    0.000 
#    0.000    0.000    0.000    0.000    0.000    0.000 
#
# Total GULP energy -346952.423114 kJ/mol
# GULP energy per Si atom -12391.157968 kJ/mol
# Density = 2.126034 g / cm^3
# Si number density = 21.308836 Si / 1000 Ang^3
#
#
#
# Elastic Constant Matrix: (Units=GPa)
#
#
# Indices 1 2 3 4 5 6 
#
# 1 117.5207 33.7433 41.7953 0.0000 -2.6074 0.0000
# 2 33.7433 91.3437 41.2630 0.0000 1.3816 0.0000
# 3 41.7953 41.2630 118.0534 0.0000 -3.9736 0.0000
# 4 0.0000 0.0000 0.0000 13.5927 0.0000 2.6861
# 5 -2.6074 1.3816 -3.9736 0.0000 43.9002 0.0000
# 6 0.0000 0.0000 0.0000 2.6861 0.0000 11.3824
#
#
#
# Elastic Compliance Matrix: (Units=1/GPa)
#
#
# Indices 1 2 3 4 5 6 
#
# 1 0.010216 -0.002557 -0.002708 0.000000 0.000442 0.000000
# 2 -0.002557 0.013670 -0.003904 0.000000 -0.000935 0.000000
# 3 -0.002708 -0.003904 0.010826 0.000000 0.000942 0.000000
# 4 0.000000 0.000000 0.000000 0.077168 0.000000 -0.018211
# 5 0.000442 -0.000935 0.000942 0.000000 0.022920 0.000000
# 6 0.000000 0.000000 0.000000 -0.018211 0.000000 0.092153
#
#
# Mechanical properties :
#
#
# Convention : Reuss Voigt Hill
#
# Bulk Modulus (GPa) = 61.07653 62.28012 61.67833
# Shear Modulus (GPa) = 19.94018 27.78279 23.86148
#
# Velocity S-wave (km/s) = 3.06235 3.61476 3.34996
# Velocity P-wave (km/s) = 6.42096 6.83467 6.63105
#
# Compressibility (1/GPa) = 0.01637290
#
# Stress axis : x y z
#
# Youngs Moduli (GPa) = 97.88199 73.15198 92.37107
#
# Poissons Ratio (x) = 0.18707 0.25016
# Poissons Ratio (y) = 0.25032 0.36064
# Poissons Ratio (z) = 0.26509 0.28560
#
# Static dielectric constant tensor:
#      x y z
#    x 4.082010 0.000000 -0.191740 
#    y 0.000000 3.596620 0.000000 
#    z -0.191740 0.000000 4.402870 
# 
# 
# High freq. dielectric constant tensor:
#      x y z
#    x 1.857110 0.000000 -0.005290 
#    y 0.000000 1.797410 0.000000 
#    z -0.005290 0.000000 1.851080 
# 
# From -- ./inp_files/13087.got.cif
#   From: 2010.06.25/outbox.cif.g09.slc.cpg/sg13_7_cif.got.tgz:13087.got - 2010.06.28 04:50:58.
