data_PCOD8119725
_publ_section_title
;
Structure prediction by ZEFSAII (Michael W. Deem and Ramdas Pophale) SiO2 
 PCOD8119725
Probable space group: P 2/C
;
_chemical_formula_sum "Si O2"
_cell_formula_units_Z 28
_cell_length_a 18.408437
_cell_length_b 10.053548
_cell_length_c 20.963427
_cell_angle_alpha 90.000000
_cell_angle_beta 160.535427
_cell_angle_gamma 90.000000
_cell_volume 1292.810145
_symmetry_space_group_name_H-M "P 2/C"
_symmetry_group_IT_number 13
_symmetry_cell_setting 'monoclinic'
loop_
_space_group_symop_operation_xyz
x,y,z
-x,y,1/2-z
-x,-y,-z
x,-y,1/2+z
loop_
_atom_site_type_symbol
_atom_site_label
_atom_site_fract_x
_atom_site_fract_y
_atom_site_fract_z
Si Si1 0.393155 0.981275 0.063284
Si Si2 0.180336 0.962392 0.513656
Si Si3 0.354067 0.274643 0.985640
Si Si4 0.099285 0.594380 0.167984
Si Si5 0.256825 0.659383 0.538567
Si Si6 0.801825 0.327478 0.312825
Si Si7 0.281593 0.925757 0.842885
O O1 0.647311 0.978613 0.292677
O O2 0.230847 0.962534 0.988616
O O3 0.339577 0.117458 0.981349
O O4 0.336659 0.874147 0.960955
O O5 0.228133 0.806978 0.544120
O O6 0.936040 0.982391 0.336129
O O7 0.269223 0.310407 0.844755
O O8 0.212079 0.340193 0.925122
O O9 0.600428 0.328699 0.195329
O O10 0.209873 0.454773 0.242860
O O11 0.905287 0.562517 0.057816
O O12 0.018276 0.667500 0.036068
O O13 0.500000 0.608195 0.750000
O O14 0.785163 0.196359 0.256656
O O15 0.500000 0.000000 0.000000
#
# Coordination Sequence:
#
# PCOD8119725 Si02
#       7
#     4   4   4   4   4   4   4
#     4  10  20  41  65  95 125 167 222 274 323 380
#     4  10  21  41  66  94 131 165 217 279 325 383
#     4  11  20  41  66  99 118 163 221 275 322 381
#     4  11  24  41  67  89 131 170 214 275 329 379
#     4  11  19  39  71  96 123 156 226 278 317 380
#     4  11  25  44  58  95 134 173 211 267 329 396
#     4  12  25  39  63  96 136 175 215 259 334 406
#
# _framework density 21.658245999999998
#
# number of rings (size 3 to 8) (size 9 to 14) (size 15 to 20)
#    0.000    1.143    5.714    2.143    0.000    4.000 
#    0.000    2.857    3.143    0.000    0.000    0.000 
#    0.000    0.000    0.000    0.000    0.000    0.000 
#
# Total GULP energy -346995.202561 kJ/mol
# GULP energy per Si atom -12392.685806 kJ/mol
# Density = 2.160895 g / cm^3
# Si number density = 21.658246 Si / 1000 Ang^3
#
#
#
# Elastic Constant Matrix: (Units=GPa)
#
#
# Indices 1 2 3 4 5 6 
#
# 1 107.6829 38.5251 27.5383 0.0000 -10.6282 0.0000
# 2 38.5251 57.5931 27.7770 0.0000 -7.9956 0.0000
# 3 27.5383 27.7770 93.4761 0.0000 -2.5361 0.0000
# 4 0.0000 0.0000 0.0000 24.5847 0.0000 -4.8154
# 5 -10.6282 -7.9956 -2.5361 0.0000 52.2382 0.0000
# 6 0.0000 0.0000 0.0000 -4.8154 0.0000 31.7603
#
#
#
# Elastic Compliance Matrix: (Units=1/GPa)
#
#
# Indices 1 2 3 4 5 6 
#
# 1 0.012448 -0.007461 -0.001414 0.000000 0.001322 0.000000
# 2 -0.007461 0.025161 -0.005222 0.000000 0.002080 0.000000
# 3 -0.001414 -0.005222 0.012654 0.000000 -0.000473 0.000000
# 4 0.000000 0.000000 0.000000 0.041921 0.000000 0.006356
# 5 0.001322 0.002080 -0.000473 0.000000 0.019707 0.000000
# 6 0.000000 0.000000 0.000000 0.006356 0.000000 0.032449
#
#
# Mechanical properties :
#
#
# Convention : Reuss Voigt Hill
#
# Bulk Modulus (GPa) = 45.31523 49.60365 47.45944
# Shear Modulus (GPa) = 27.79445 32.71074 30.25260
#
# Velocity S-wave (km/s) = 3.58623 3.89049 3.74146
# Velocity P-wave (km/s) = 6.17384 6.56764 6.37378
#
# Compressibility (1/GPa) = 0.02206764
#
# Stress axis : x y z
#
# Youngs Moduli (GPa) = 80.33432 39.74326 79.02881
#
# Poissons Ratio (x) = 0.29653 0.11177
# Poissons Ratio (y) = 0.59938 0.41272
# Poissons Ratio (z) = 0.11361 0.20756
#
# Static dielectric constant tensor:
#      x y z
#    x 4.608850 0.000000 0.009470 
#    y 0.000000 3.443820 0.000000 
#    z 0.009470 0.000000 4.289850 
# 
# 
# High freq. dielectric constant tensor:
#      x y z
#    x 1.874800 0.000000 -0.008420 
#    y 0.000000 1.782880 0.000000 
#    z -0.008420 0.000000 1.875230 
# 
# From -- ./inp_files/81083.got.cif
#   From: 2010.06.25/outbox.cif.g09.slc.cpg/sg13_41_cif.got.tgz:81083.got - 2010.06.28 04:50:58.
