data_PCOD8119079
_publ_section_title
;
Structure prediction by ZEFSAII (Michael W. Deem and Ramdas Pophale) SiO2 
 PCOD8119079
Probable space group: P 2/C
;
_chemical_formula_sum "Si O2"
_cell_formula_units_Z 24
_cell_length_a 11.548072
_cell_length_b 15.703932
_cell_length_c 15.142174
_cell_angle_alpha 90.000000
_cell_angle_beta 155.005977
_cell_angle_gamma 90.000000
_cell_volume 1160.265051
_symmetry_space_group_name_H-M "P 2/C"
_symmetry_group_IT_number 13
_symmetry_cell_setting 'monoclinic'
loop_
_space_group_symop_operation_xyz
x,y,z
-x,y,1/2-z
-x,-y,-z
x,-y,1/2+z
loop_
_atom_site_type_symbol
_atom_site_label
_atom_site_fract_x
_atom_site_fract_y
_atom_site_fract_z
Si Si1 0.160778 0.541554 0.215429
Si Si2 0.334058 0.402617 0.225375
Si Si3 0.495396 0.128070 0.937873
Si Si4 0.460159 0.317200 0.475891
Si Si5 0.000000 0.417875 0.250000
Si Si6 0.941660 0.997218 0.807967
Si Si7 0.500000 0.926906 0.250000
O O1 0.407339 0.485038 0.339825
O O2 0.275952 0.621764 0.348018
O O3 0.970248 0.480208 0.144669
O O4 0.982659 0.583267 0.014901
O O5 0.500000 0.393551 0.250000
O O6 0.347920 0.318755 0.296989
O O7 0.223536 0.072341 0.760050
O O8 0.541289 0.132077 0.864304
O O9 0.447226 0.222465 0.938853
O O10 0.754222 0.088098 0.169522
O O11 0.254764 0.353927 0.408686
O O12 0.000000 0.030336 0.750000
O O13 0.220849 0.983965 0.057930
#
# Coordination Sequence:
#
# PCOD8119079 Si02
#       7
#     4   4   4   4   2   4   2
#     4  10  20  37  57  85 115 162 206 249 303 353
#     4  10  20  37  58  81 116 160 203 245 298 361
#     4  10  22  40  62  95 130 156 204 253 310 366
#     4  11  23  37  61  89 122 158 203 258 304 352
#     4  10  20  38  62  82 120 166 206 254 306 358
#     4   9  20  41  67  90 127 167 193 246 309 380
#     4  10  20  38  70  94 118 168 204 240 308 372
#
# _framework density 20.684927999999999
#
# number of rings (size 3 to 8) (size 9 to 14) (size 15 to 20)
#    0.000    2.000    0.000    4.500    3.500    1.333 
#   12.000    0.000    7.333    0.000    0.000    0.000 
#    0.000    0.000    0.000    0.000    0.000    0.000 
#
# Total GULP energy -297372.114948 kJ/mol
# GULP energy per Si atom -12390.504790 kJ/mol
# Density = 2.063785 g / cm^3
# Si number density = 20.684928 Si / 1000 Ang^3
#
#
#
# Elastic Constant Matrix: (Units=GPa)
#
#
# Indices 1 2 3 4 5 6 
#
# 1 115.7025 52.3779 23.2520 0.0000 -4.7881 0.0000
# 2 52.3779 130.1927 59.4058 0.0000 -9.7778 0.0000
# 3 23.2520 59.4058 104.8700 0.0000 -2.0980 0.0000
# 4 0.0000 0.0000 0.0000 12.4742 0.0000 -6.2480
# 5 -4.7881 -9.7778 -2.0980 0.0000 28.8624 0.0000
# 6 0.0000 0.0000 0.0000 -6.2480 0.0000 20.6213
#
#
#
# Elastic Compliance Matrix: (Units=1/GPa)
#
#
# Indices 1 2 3 4 5 6 
#
# 1 0.010571 -0.004265 0.000078 0.000000 0.000314 0.000000
# 2 -0.004265 0.012361 -0.005996 0.000000 0.003044 0.000000
# 3 0.000078 -0.005996 0.012893 0.000000 -0.001081 0.000000
# 4 0.000000 0.000000 0.000000 0.094508 0.000000 0.028635
# 5 0.000314 0.003044 -0.001081 0.000000 0.035652 0.000000
# 6 0.000000 0.000000 0.000000 0.028635 0.000000 0.057169
#
#
# Mechanical properties :
#
#
# Convention : Reuss Voigt Hill
#
# Bulk Modulus (GPa) = 64.68044 68.98183 66.83113
# Shear Modulus (GPa) = 20.10676 26.77356 23.44016
#
# Velocity S-wave (km/s) = 3.12115 3.60161 3.36996
# Velocity P-wave (km/s) = 6.65778 7.12157 6.89357
#
# Compressibility (1/GPa) = 0.01546062
#
# Stress axis : x y z
#
# Youngs Moduli (GPa) = 94.60011 80.89849 77.56153
#
# Poissons Ratio (x) = 0.34503 -0.00609
# Poissons Ratio (y) = 0.40346 0.46504
# Poissons Ratio (z) = -0.00742 0.48504
#
# Static dielectric constant tensor:
#      x y z
#    x 3.838800 0.000000 -0.099530 
#    y 0.000000 3.395450 0.000000 
#    z -0.099530 0.000000 3.932160 
# 
# 
# High freq. dielectric constant tensor:
#      x y z
#    x 1.818420 0.000000 -0.007600 
#    y 0.000000 1.777280 0.000000 
#    z -0.007600 0.000000 1.815230 
# 
# From -- ./inp_files/51370.got.cif
#   From: 2010.06.25/outbox.cif.g09.slc.cpg/sg13_26_cif.got.tgz:51370.got - 2010.06.28 04:50:58.
