data_PCOD8119724
_publ_section_title
;
Structure prediction by ZEFSAII (Michael W. Deem and Ramdas Pophale) SiO2 
 PCOD8119724
Probable space group: P 2/C
;
_chemical_formula_sum "Si O2"
_cell_formula_units_Z 28
_cell_length_a 22.293012
_cell_length_b 12.128943
_cell_length_c 9.883746
_cell_angle_alpha 90.000000
_cell_angle_beta 145.640918
_cell_angle_gamma 90.000000
_cell_volume 1508.283744
_symmetry_space_group_name_H-M "P 2/C"
_symmetry_group_IT_number 13
_symmetry_cell_setting 'monoclinic'
loop_
_space_group_symop_operation_xyz
x,y,z
-x,y,1/2-z
-x,-y,-z
x,-y,1/2+z
loop_
_atom_site_type_symbol
_atom_site_label
_atom_site_fract_x
_atom_site_fract_y
_atom_site_fract_z
Si Si1 0.794626 0.403552 0.804123
Si Si2 0.030921 0.873395 0.069663
Si Si3 0.000000 0.270148 0.250000
Si Si4 0.723149 0.834583 0.901390
Si Si5 0.381090 0.775497 0.523911
Si Si6 0.198155 0.390709 0.001178
Si Si7 0.000000 0.731181 0.250000
Si Si8 0.425021 0.994841 0.486355
O O1 0.698421 0.322036 0.656541
O O2 0.809927 0.427481 0.672168
O O3 0.763303 0.512274 0.829289
O O4 0.899252 0.350350 0.062949
O O5 0.156076 0.863973 0.334319
O O6 0.962224 0.813895 0.059938
O O7 0.001009 0.810045 0.878854
O O8 0.000000 0.000000 0.000000
O O9 0.674560 0.920794 0.704756
O O10 0.648167 0.837410 0.891997
O O11 0.719668 0.711018 0.832857
O O12 0.375568 0.872004 0.401914
O O13 0.500000 0.725863 0.750000
O O14 0.085781 0.350775 0.847933
O O15 0.500000 0.000000 0.500000
O O16 0.500000 0.026023 0.750000
#
# Coordination Sequence:
#
# PCOD8119724 Si02
#       8
#     4   4   2   4   4   4   2   4
#     4  11  24  42  63  91 120 169 213 261 317 366
#     4  11  24  38  62  94 137 165 202 252 317 382
#     4  12  22  40  62  94 124 173 211 246 316 386
#     4  10  21  43  58  91 130 159 202 261 310 365
#     4  10  20  41  65  87 125 164 203 256 309 371
#     4  10  23  42  61  87 126 161 211 265 308 372
#     4  10  20  42  58  88 124 169 195 264 302 366
#     4  11  21  39  67  92 118 164 206 249 308 376
#
# _framework density 18.564146999999998
#
# number of rings (size 3 to 8) (size 9 to 14) (size 15 to 20)
#    0.000    1.429    7.143    0.857    4.000    3.429 
#    2.571    3.571    0.000    0.000    0.000    0.000 
#    0.000    0.000    0.000    0.000    0.000    0.000 
#
# Total GULP energy -347062.480315 kJ/mol
# GULP energy per Si atom -12395.088583 kJ/mol
# Density = 1.852189 g / cm^3
# Si number density = 18.564147 Si / 1000 Ang^3
#
#
#
# Elastic Constant Matrix: (Units=GPa)
#
#
# Indices 1 2 3 4 5 6 
#
# 1 120.4787 65.6206 53.5473 0.0000 -7.9842 0.0000
# 2 65.6206 153.5007 64.3117 0.0000 -8.7612 0.0000
# 3 53.5473 64.3117 106.8921 0.0000 -4.4201 0.0000
# 4 0.0000 0.0000 0.0000 21.5085 0.0000 -14.5381
# 5 -7.9842 -8.7612 -4.4201 0.0000 34.3812 0.0000
# 6 0.0000 0.0000 0.0000 -14.5381 0.0000 30.9306
#
#
#
# Elastic Compliance Matrix: (Units=1/GPa)
#
#
# Indices 1 2 3 4 5 6 
#
# 1 0.011981 -0.003411 -0.003891 0.000000 0.001413 0.000000
# 2 -0.003411 0.009765 -0.004118 0.000000 0.001167 0.000000
# 3 -0.003891 -0.004118 0.013775 0.000000 -0.000182 0.000000
# 4 0.000000 0.000000 0.000000 0.068142 0.000000 0.032028
# 5 0.001413 0.001167 -0.000182 0.000000 0.029688 0.000000
# 6 0.000000 0.000000 0.000000 0.032028 0.000000 0.047385
#
#
# Mechanical properties :
#
#
# Convention : Reuss Voigt Hill
#
# Bulk Modulus (GPa) = 78.86418 83.09228 80.97823
# Shear Modulus (GPa) = 24.06140 30.52353 27.29246
#
# Velocity S-wave (km/s) = 3.60408 4.05930 3.83844
# Velocity P-wave (km/s) = 7.73908 8.17479 7.95992
#
# Compressibility (1/GPa) = 0.01268003
#
# Stress axis : x y z
#
# Youngs Moduli (GPa) = 83.46425 102.41016 72.59716
#
# Poissons Ratio (x) = 0.34931 0.28250
# Poissons Ratio (y) = 0.28469 0.29895
# Poissons Ratio (z) = 0.32479 0.42172
#
# Static dielectric constant tensor:
#      x y z
#    x 3.585790 0.000000 -0.041050 
#    y 0.000000 3.697500 0.000000 
#    z -0.041050 0.000000 3.309480 
# 
# 
# High freq. dielectric constant tensor:
#      x y z
#    x 1.735390 0.000000 -0.001950 
#    y 0.000000 1.731010 0.000000 
#    z -0.001950 0.000000 1.704870 
# 
# From -- ./inp_files/23410.got.cif
#   From: 2010.06.25/outbox.cif.g09.slc.cpg/sg13_12_cif.got.tgz:23410.got - 2010.06.28 04:50:58.
