data_PCOD8119204
_publ_section_title
;
Structure prediction by ZEFSAII (Michael W. Deem and Ramdas Pophale) SiO2 
 PCOD8119204
Probable space group: P 2/C
;
_chemical_formula_sum "Si O2"
_cell_formula_units_Z 16
_cell_length_a 9.348089
_cell_length_b 9.089074
_cell_length_c 16.653748
_cell_angle_alpha 90.000000
_cell_angle_beta 31.812276
_cell_angle_gamma 90.000000
_cell_volume 745.896709
_symmetry_space_group_name_H-M "P 2/C"
_symmetry_group_IT_number 13
_symmetry_cell_setting 'monoclinic'
loop_
_space_group_symop_operation_xyz
x,y,z
-x,y,1/2-z
-x,-y,-z
x,-y,1/2+z
loop_
_atom_site_type_symbol
_atom_site_label
_atom_site_fract_x
_atom_site_fract_y
_atom_site_fract_z
Si Si1 0.516434 0.352970 0.838593
Si Si2 0.929512 0.410959 0.110995
Si Si3 0.220468 0.912117 0.845765
Si Si4 0.726151 0.072365 0.835448
O O1 0.500000 0.322009 0.750000
O O2 0.710389 0.493520 0.766065
O O3 0.623098 0.211898 0.834736
O O4 0.216784 0.384262 0.019089
O O5 0.802182 0.262173 0.137501
O O6 0.000000 0.500000 0.000000
O O7 0.500000 0.965907 0.750000
O O8 0.193546 0.945919 0.764894
O O9 0.000000 0.000000 0.000000
O O10 0.000000 0.120206 0.750000
O O11 0.500000 0.000000 0.000000
#
# Coordination Sequence:
#
# PCOD8119204 Si02
#       4
#     4   4   4   4
#     4  10  21  41  66  92 123 163 210 259 310 374
#     4  10  20  37  64  97 122 154 209 266 308 363
#     4  12  23  41  69  96 123 166 215 260 310 375
#     4  12  26  43  62  93 132 169 209 261 318 374
#
# _framework density 21.450692
#
# number of rings (size 3 to 8) (size 9 to 14) (size 15 to 20)
#    0.000    1.000    0.000   10.500    0.000    2.000 
#    0.000    6.250    0.000    0.000    0.000    0.000 
#    0.000    0.000    0.000    0.000    0.000    0.000 
#
# Total GULP energy -198331.353391 kJ/mol
# GULP energy per Si atom -12395.709587 kJ/mol
# Density = 2.140187 g / cm^3
# Si number density = 21.450692 Si / 1000 Ang^3
#
#
#
# Elastic Constant Matrix: (Units=GPa)
#
#
# Indices 1 2 3 4 5 6 
#
# 1 115.0997 54.9141 64.6742 0.0000 -17.8014 0.0000
# 2 54.9141 157.0157 59.1252 0.0000 -2.9195 0.0000
# 3 64.6742 59.1252 156.2675 0.0000 -22.8690 0.0000
# 4 0.0000 0.0000 0.0000 41.7449 0.0000 -4.3108
# 5 -17.8014 -2.9195 -22.8690 0.0000 50.6737 0.0000
# 6 0.0000 0.0000 0.0000 -4.3108 0.0000 22.9370
#
#
#
# Elastic Compliance Matrix: (Units=1/GPa)
#
#
# Indices 1 2 3 4 5 6 
#
# 1 0.012582 -0.002954 -0.003713 0.000000 0.002574 0.000000
# 2 -0.002954 0.008159 -0.002085 0.000000 -0.001509 0.000000
# 3 -0.003713 -0.002085 0.009119 0.000000 0.002691 0.000000
# 4 0.000000 0.000000 0.000000 0.024429 0.000000 0.004591
# 5 0.002574 -0.001509 0.002691 0.000000 0.021766 0.000000
# 6 0.000000 0.000000 0.000000 0.004591 0.000000 0.044461
#
#
# Mechanical properties :
#
#
# Convention : Reuss Voigt Hill
#
# Bulk Modulus (GPa) = 80.93825 87.31221 84.12523
# Shear Modulus (GPa) = 35.17695 39.71573 37.44634
#
# Velocity S-wave (km/s) = 4.05396 4.30756 4.18268
# Velocity P-wave (km/s) = 7.72832 8.09519 7.91388
#
# Compressibility (1/GPa) = 0.01235510
#
# Stress axis : x y z
#
# Youngs Moduli (GPa) = 79.47860 122.56105 109.66605
#
# Poissons Ratio (x) = 0.36210 0.40716
# Poissons Ratio (y) = 0.23482 0.22867
# Poissons Ratio (z) = 0.29508 0.25556
#
# Static dielectric constant tensor:
#      x y z
#    x 3.804130 0.000000 -0.517280 
#    y 0.000000 4.381030 0.000000 
#    z -0.517280 0.000000 5.182130 
# 
# 
# High freq. dielectric constant tensor:
#      x y z
#    x 1.821970 0.000000 -0.026180 
#    y 0.000000 1.860970 0.000000 
#    z -0.026180 0.000000 1.859150 
# 
# From -- ./inp_files/63614.got.cif
#   From: 2010.06.25/outbox.cif.g09.slc.cpg/sg13_32_cif.got.tgz:63614.got - 2010.06.28 04:50:58.
