data_PCOD8119821
_publ_section_title
;
Structure prediction by ZEFSAII (Michael W. Deem and Ramdas Pophale) SiO2 
 PCOD8119821
Probable space group: P 2/C
;
_chemical_formula_sum "Si O2"
_cell_formula_units_Z 26
_cell_length_a 16.556351
_cell_length_b 8.349302
_cell_length_c 15.522204
_cell_angle_alpha 90.000000
_cell_angle_beta 147.052145
_cell_angle_gamma 90.000000
_cell_volume 1166.991531
_symmetry_space_group_name_H-M "P 2/C"
_symmetry_group_IT_number 13
_symmetry_cell_setting 'monoclinic'
loop_
_space_group_symop_operation_xyz
x,y,z
-x,y,1/2-z
-x,-y,-z
x,-y,1/2+z
loop_
_atom_site_type_symbol
_atom_site_label
_atom_site_fract_x
_atom_site_fract_y
_atom_site_fract_z
Si Si1 0.164834 0.377765 0.470983
Si Si2 0.587815 0.337359 0.084351
Si Si3 0.516669 0.122873 0.168329
Si Si4 0.656523 0.192937 0.739423
Si Si5 0.196443 0.113038 0.800845
Si Si6 0.862096 0.246429 0.236184
Si Si7 0.000000 0.329944 0.750000
O O1 0.302497 0.340546 0.658757
O O2 0.190376 0.269997 0.409267
O O3 0.129503 0.561434 0.411351
O O4 0.023702 0.316060 0.397362
O O5 0.588349 0.271361 0.181608
O O6 0.756255 0.350884 0.203563
O O7 0.500000 0.500000 0.000000
O O8 0.505742 0.216133 0.946532
O O9 0.500000 0.182398 0.250000
O O10 0.633371 0.974690 0.268657
O O11 0.353757 0.086367 0.987014
O O12 0.779035 0.185018 0.772865
O O13 0.082942 0.223399 0.752928
O O14 0.126393 0.938442 0.728199
#
# Coordination Sequence:
#
# PCOD8119821 Si02
#       7
#     4   4   4   4   4   4   2
#     4  10  25  39  65  95 132 176 215 277 334 405
#     4  11  24  42  66  94 135 173 215 281 334 398
#     4  11  23  42  67  98 130 171 226 273 329 405
#     4  11  23  43  66  96 128 171 222 274 337 397
#     4  11  21  42  68  91 130 175 220 282 330 401
#     4  10  20  44  63  93 131 171 225 260 344 396
#     4  10  24  42  64  94 138 176 226 278 344 398
#
# _framework density 22.279510999999999
#
# number of rings (size 3 to 8) (size 9 to 14) (size 15 to 20)
#    0.000    1.538    3.077    2.769    8.615    2.462 
#    2.769    0.000    0.000    0.000    0.000    0.000 
#    0.000    0.000    0.000    0.000    0.000    0.000 
#
# Total GULP energy -322287.821391 kJ/mol
# GULP energy per Si atom -12395.685438 kJ/mol
# Density = 2.222880 g / cm^3
# Si number density = 22.279511 Si / 1000 Ang^3
#
#
#
# Elastic Constant Matrix: (Units=GPa)
#
#
# Indices 1 2 3 4 5 6 
#
# 1 139.4090 38.8326 32.4337 0.0000 1.8544 0.0000
# 2 38.8326 108.5982 6.7172 0.0000 3.4549 0.0000
# 3 32.4337 6.7172 50.5585 0.0000 -14.7405 0.0000
# 4 0.0000 0.0000 0.0000 24.5066 0.0000 17.3213
# 5 1.8544 3.4549 -14.7405 0.0000 30.2796 0.0000
# 6 0.0000 0.0000 0.0000 17.3213 0.0000 12.1375
#
#
#
# Elastic Compliance Matrix: (Units=1/GPa)
#
#
# Indices 1 2 3 4 5 6 
#
# 1 0.009618 -0.002903 -0.006829 0.000000 -0.003582 0.000000
# 2 -0.002903 0.010259 0.000244 0.000000 -0.000874 0.000000
# 3 -0.006829 0.000244 0.028251 0.000000 0.014143 0.000000
# 4 0.000000 0.000000 0.000000 -4.707074 0.000000 6.717425
# 5 -0.003582 -0.000874 0.014143 0.000000 0.040230 0.000000
# 6 0.000000 0.000000 0.000000 6.717425 0.000000 -9.503989
#
#
# Mechanical properties :
#
#
# Convention : Reuss Voigt Hill
#
# Bulk Modulus (GPa) = 34.30130 50.50365 42.40247
# Shear Modulus (GPa) = -0.35476 28.09022 13.86773
#
# Velocity S-wave (km/s) = -0.39947 3.55464 2.49759
# Velocity P-wave (km/s) = 3.90084 6.29005 5.23361
#
# Compressibility (1/GPa) = 0.02915342
#
# Stress axis : x y z
#
# Youngs Moduli (GPa) = 103.97025 97.47585 35.39718
#
# Poissons Ratio (x) = 0.28296 0.24172
# Poissons Ratio (y) = 0.30182 -0.00865
# Poissons Ratio (z) = 0.71000 -0.02383
#
# Static dielectric constant tensor:
#      x y z
#    x 4.264640 0.000000 -0.023090 
#    y 0.000000 4.037830 0.000000 
#    z -0.023090 0.000000 3.974270 
# 
# 
# High freq. dielectric constant tensor:
#      x y z
#    x 1.895560 0.000000 0.003310 
#    y 0.000000 1.876230 0.000000 
#    z 0.003310 0.000000 1.855470 
# 
# From -- ./inp_files/53376.got.cif
#   From: 2010.06.25/outbox.cif.g09.slc.cpg/sg13_27_cif.got.tgz:53376.got - 2010.06.28 04:50:58.
