data_PCOD8119229
_publ_section_title
;
Structure prediction by ZEFSAII (Michael W. Deem and Ramdas Pophale) SiO2 
 PCOD8119229
Probable space group: P 2/C
;
_chemical_formula_sum "Si O2"
_cell_formula_units_Z 32
_cell_length_a 14.436485
_cell_length_b 9.223466
_cell_length_c 22.715120
_cell_angle_alpha 90.000000
_cell_angle_beta 29.248659
_cell_angle_gamma 90.000000
_cell_volume 1477.831239
_symmetry_space_group_name_H-M "P 2/C"
_symmetry_group_IT_number 13
_symmetry_cell_setting 'monoclinic'
loop_
_space_group_symop_operation_xyz
x,y,z
-x,y,1/2-z
-x,-y,-z
x,-y,1/2+z
loop_
_atom_site_type_symbol
_atom_site_label
_atom_site_fract_x
_atom_site_fract_y
_atom_site_fract_z
Si Si1 0.268632 0.614882 0.243380
Si Si2 0.970764 0.665963 0.601185
Si Si3 0.405035 0.046585 0.461499
Si Si4 0.593664 0.577531 0.140065
Si Si5 0.723795 0.140687 0.843813
Si Si6 0.576522 0.750478 0.647995
Si Si7 0.969372 0.966528 0.889940
Si Si8 0.029224 0.206683 0.526474
O O1 0.490166 0.634485 0.138511
O O2 0.250674 0.690261 0.189182
O O3 0.182629 0.451916 0.292234
O O4 0.158915 0.707456 0.353128
O O5 0.180248 0.594854 0.484500
O O6 0.965356 0.799659 0.649186
O O7 0.914938 0.741231 0.569905
O O8 0.312878 0.134400 0.566721
O O9 0.506031 0.165385 0.363214
O O10 0.553511 0.929178 0.401066
O O11 0.249801 0.965186 0.507847
O O12 0.500000 0.651213 0.250000
O O13 0.512977 0.414316 0.182858
O O14 0.914707 0.054757 0.723043
O O15 0.500000 0.828485 0.750000
O O16 0.804900 0.748660 0.520290
O O17 0.996576 0.034613 0.941726
#
# Coordination Sequence:
#
# PCOD8119229 Si02
#       8
#     4   4   4   4   4   4   4   4
#     4  11  22  38  60  92 125 164 215 247 315 378
#     4  12  21  37  61  93 133 161 205 262 310 373
#     4  10  22  45  66  86 125 161 217 256 308 378
#     4  11  21  35  59  89 131 169 194 250 320 369
#     4  10  23  43  68  86 119 173 208 257 315 367
#     4  10  21  36  62  94 123 159 199 254 312 371
#     4  10  23  38  64  93 121 163 216 260 307 366
#     4  10  20  38  56  90 129 167 204 248 311 377
#
# _framework density 21.653352000000002
#
# number of rings (size 3 to 8) (size 9 to 14) (size 15 to 20)
#    0.000    1.500    2.500    3.375    3.500    0.000 
#    2.250    1.250    5.500    0.000    0.000    0.000 
#    0.000    0.000    0.000    0.000    0.000    0.000 
#
# Total GULP energy -396500.978479 kJ/mol
# GULP energy per Si atom -12390.655577 kJ/mol
# Density = 2.160407 g / cm^3
# Si number density = 21.653352 Si / 1000 Ang^3
#
#
#
# Elastic Constant Matrix: (Units=GPa)
#
#
# Indices 1 2 3 4 5 6 
#
# 1 83.0003 34.5773 20.2791 0.0000 3.8385 0.0000
# 2 34.5773 112.1631 8.5083 0.0000 12.2460 0.0000
# 3 20.2791 8.5083 53.3827 0.0000 6.1667 0.0000
# 4 0.0000 0.0000 0.0000 25.8881 0.0000 2.2235
# 5 3.8385 12.2460 6.1667 0.0000 43.2574 0.0000
# 6 0.0000 0.0000 0.0000 2.2235 0.0000 19.5114
#
#
#
# Elastic Compliance Matrix: (Units=1/GPa)
#
#
# Indices 1 2 3 4 5 6 
#
# 1 0.015069 -0.004325 -0.005106 0.000000 0.000615 0.000000
# 2 -0.004325 0.010516 0.000271 0.000000 -0.002632 0.000000
# 3 -0.005106 0.000271 0.020930 0.000000 -0.002607 0.000000
# 4 0.000000 0.000000 0.000000 0.039010 0.000000 -0.004446
# 5 0.000615 -0.002632 -0.002607 0.000000 0.024180 0.000000
# 6 0.000000 0.000000 0.000000 -0.004446 0.000000 0.051759
#
#
# Mechanical properties :
#
#
# Convention : Reuss Voigt Hill
#
# Bulk Modulus (GPa) = 35.46788 41.69727 38.58258
# Shear Modulus (GPa) = 26.42953 30.07679 28.25316
#
# Velocity S-wave (km/s) = 3.49746 3.73099 3.61611
# Velocity P-wave (km/s) = 5.72058 6.15296 5.94071
#
# Compressibility (1/GPa) = 0.02819452
#
# Stress axis : x y z
#
# Youngs Moduli (GPa) = 66.36073 95.09542 47.77740
#
# Poissons Ratio (x) = 0.41132 0.24396
# Poissons Ratio (y) = 0.28703 -0.01295
# Poissons Ratio (z) = 0.33885 -0.02578
#
# Static dielectric constant tensor:
#      x y z
#    x 3.826010 0.000000 -0.094230 
#    y 0.000000 3.926620 0.000000 
#    z -0.094230 0.000000 3.797470 
# 
# 
# High freq. dielectric constant tensor:
#      x y z
#    x 1.843350 0.000000 -0.022450 
#    y 0.000000 1.845880 0.000000 
#    z -0.022450 0.000000 1.844560 
# 
# From -- ./inp_files/87406.got.cif
#   From: 2010.06.25/outbox.cif.g09.slc.cpg/sg13_44_cif.got.tgz:87406.got - 2010.06.28 04:50:58.
