data_PCOD8119854
_publ_section_title
;
Structure prediction by ZEFSAII (Michael W. Deem and Ramdas Pophale) SiO2 
 PCOD8119854
Probable space group: P 2/C
;
_chemical_formula_sum "Si O2"
_cell_formula_units_Z 24
_cell_length_a 15.397284
_cell_length_b 13.466394
_cell_length_c 20.169028
_cell_angle_alpha 90.000000
_cell_angle_beta 161.007641
_cell_angle_gamma 90.000000
_cell_volume 1360.987329
_symmetry_space_group_name_H-M "P 2/C"
_symmetry_group_IT_number 13
_symmetry_cell_setting 'monoclinic'
loop_
_space_group_symop_operation_xyz
x,y,z
-x,y,1/2-z
-x,-y,-z
x,-y,1/2+z
loop_
_atom_site_type_symbol
_atom_site_label
_atom_site_fract_x
_atom_site_fract_y
_atom_site_fract_z
Si Si1 0.730870 0.719652 0.365527
Si Si2 0.431012 0.776935 0.566772
Si Si3 0.660815 0.388084 0.682466
Si Si4 0.252683 0.387981 0.274452
Si Si5 0.949033 0.114349 0.474459
Si Si6 0.025569 0.223078 0.661427
O O1 0.500000 0.746024 0.250000
O O2 0.606916 0.656092 0.215955
O O3 0.957230 0.656312 0.566438
O O4 0.847363 0.823454 0.423645
O O5 0.576150 0.673140 0.655795
O O6 0.645090 0.862493 0.735053
O O7 0.253678 0.758222 0.503628
O O8 0.251975 0.813140 0.375928
O O9 0.384896 0.382289 0.442561
O O10 0.763065 0.500055 0.762937
O O11 0.895115 0.326866 0.815398
O O12 0.994544 0.137558 0.584613
O O13 0.000000 0.000000 0.500000
#
# Coordination Sequence:
#
# PCOD8119854 Si02
#       6
#     4   4   4   4   4   4
#     4  10  21  34  48  72 104 134 167 206 246 290
#     4   9  18  33  53  77 102 128 163 206 248 292
#     4   9  18  33  52  75 104 136 167 199 239 289
#     4   9  18  33  52  75 104 136 167 199 239 289
#     4  10  21  36  54  72  96 130 167 208 254 300
#     4   9  18  33  53  77 102 128 163 206 248 292
#
# _framework density 17.634255
#
# number of rings (size 3 to 8) (size 9 to 14) (size 15 to 20)
#    0.000    2.667    0.000    1.000    0.000    4.000 
#    0.000    3.333    0.000    0.000    0.000    0.000 
#    0.000    0.000    0.000    0.000    0.000    0.000 
#
# Total GULP energy -297657.596983 kJ/mol
# GULP energy per Si atom -12402.399874 kJ/mol
# Density = 1.759412 g / cm^3
# Si number density = 17.634255 Si / 1000 Ang^3
#
#
#
# Elastic Constant Matrix: (Units=GPa)
#
#
# Indices 1 2 3 4 5 6 
#
# 1 118.2595 53.2271 69.2498 0.0000 9.8815 0.0000
# 2 53.2271 135.9124 57.6041 0.0000 -5.1366 0.0000
# 3 69.2498 57.6041 107.5479 0.0000 4.1986 0.0000
# 4 0.0000 0.0000 0.0000 16.0331 0.0000 -1.7815
# 5 9.8815 -5.1366 4.1986 0.0000 27.7867 0.0000
# 6 0.0000 0.0000 0.0000 -1.7815 0.0000 14.6024
#
#
#
# Elastic Compliance Matrix: (Units=1/GPa)
#
#
# Indices 1 2 3 4 5 6 
#
# 1 0.014568 -0.002552 -0.007839 0.000000 -0.004468 0.000000
# 2 -0.002552 0.010148 -0.003924 0.000000 0.003376 0.000000
# 3 -0.007839 -0.003924 0.016464 0.000000 -0.000425 0.000000
# 4 0.000000 0.000000 0.000000 0.063228 0.000000 0.007714
# 5 -0.004468 0.003376 -0.000425 0.000000 0.038266 0.000000
# 6 0.000000 0.000000 0.000000 0.007714 0.000000 0.069423
#
#
# Mechanical properties :
#
#
# Convention : Reuss Voigt Hill
#
# Bulk Modulus (GPa) = 79.68010 80.20911 79.94461
# Shear Modulus (GPa) = 20.41557 23.79367 22.10462
#
# Velocity S-wave (km/s) = 3.40622 3.67725 3.54433
# Velocity P-wave (km/s) = 7.79440 7.97578 7.88562
#
# Compressibility (1/GPa) = 0.01255018
#
# Stress axis : x y z
#
# Youngs Moduli (GPa) = 68.64210 98.54423 60.73740
#
# Poissons Ratio (x) = 0.25145 0.47614
# Poissons Ratio (y) = 0.17515 0.23834
# Poissons Ratio (z) = 0.53811 0.38669
#
# Static dielectric constant tensor:
#      x y z
#    x 3.300310 0.000000 -0.183110 
#    y 0.000000 3.074210 0.000000 
#    z -0.183110 0.000000 3.446130 
# 
# 
# High freq. dielectric constant tensor:
#      x y z
#    x 1.683190 0.000000 -0.011990 
#    y 0.000000 1.668470 0.000000 
#    z -0.011990 0.000000 1.692720 
# 
# From -- ./inp_files/29464.got.cif
#   From: 2010.06.25/outbox.cif.g09.slc.cpg/sg13_15_cif.got.tgz:29464.got - 2010.06.28 04:50:58.
