data_PCOD8119086
_publ_section_title
;
Structure prediction by ZEFSAII (Michael W. Deem and Ramdas Pophale) SiO2 
 PCOD8119086
Probable space group: P 2/C
;
_chemical_formula_sum "Si O2"
_cell_formula_units_Z 26
_cell_length_a 21.065138
_cell_length_b 8.366244
_cell_length_c 9.842654
_cell_angle_alpha 90.000000
_cell_angle_beta 133.978603
_cell_angle_gamma 90.000000
_cell_volume 1248.238883
_symmetry_space_group_name_H-M "P 2/C"
_symmetry_group_IT_number 13
_symmetry_cell_setting 'monoclinic'
loop_
_space_group_symop_operation_xyz
x,y,z
-x,y,1/2-z
-x,-y,-z
x,-y,1/2+z
loop_
_atom_site_type_symbol
_atom_site_label
_atom_site_fract_x
_atom_site_fract_y
_atom_site_fract_z
Si Si1 0.140958 0.307572 0.296350
Si Si2 0.428718 0.328290 0.964371
Si Si3 0.256676 0.168223 0.695957
Si Si4 0.608767 0.409163 0.300491
Si Si5 0.000000 0.122960 0.250000
Si Si6 0.802890 0.665416 0.123940
Si Si7 0.853711 0.879874 0.966178
O O1 0.223452 0.237732 0.502824
O O2 0.143999 0.499247 0.298547
O O3 0.146064 0.252170 0.149053
O O4 0.049392 0.240811 0.219556
O O5 0.363156 0.176643 0.864690
O O6 0.412540 0.423846 0.802272
O O7 0.532544 0.282610 0.136423
O O8 0.399465 0.437441 0.049983
O O9 0.206726 0.271043 0.737552
O O10 0.236447 0.981129 0.679147
O O11 0.706719 0.350199 0.409388
O O12 0.067547 0.008525 0.430705
O O13 0.858953 0.792056 0.119548
#
# Coordination Sequence:
#
# PCOD8119086 Si02
#       7
#     4   4   4   4   2   4   4
#     4  11  22  39  64  89 116 155 202 249 295 367
#     4   9  17  32  54  85 123 161 198 246 288 343
#     4  10  20  37  58  87 124 162 198 241 304 353
#     4   9  18  31  55  87 121 156 201 249 287 333
#     4  10  24  44  62  90 120 154 190 246 318 368
#     4  11  22  38  61  92 118 157 207 249 294 357
#     4  11  24  42  64  86 122 160 194 249 313 369
#
# _framework density 20.829346999999999
#
# number of rings (size 3 to 8) (size 9 to 14) (size 15 to 20)
#    0.000    1.846    1.538    3.231    2.154    1.846 
#    0.000    5.385    0.000    1.846    0.000    0.000 
#    0.000    0.000    0.000    0.000    0.000    0.000 
#
# Total GULP energy -322287.834663 kJ/mol
# GULP energy per Si atom -12395.685949 kJ/mol
# Density = 2.078194 g / cm^3
# Si number density = 20.829347 Si / 1000 Ang^3
#
#
#
# Elastic Constant Matrix: (Units=GPa)
#
#
# Indices 1 2 3 4 5 6 
#
# 1 76.1046 40.8406 30.4627 0.0000 10.3293 0.0000
# 2 40.8406 117.0462 27.2828 0.0000 12.2623 0.0000
# 3 30.4627 27.2828 74.2296 0.0000 2.3465 0.0000
# 4 0.0000 0.0000 0.0000 34.3203 0.0000 0.3037
# 5 10.3293 12.2623 2.3465 0.0000 31.7178 0.0000
# 6 0.0000 0.0000 0.0000 0.3037 0.0000 20.9386
#
#
#
# Elastic Compliance Matrix: (Units=1/GPa)
#
#
# Indices 1 2 3 4 5 6 
#
# 1 0.018476 -0.004716 -0.005730 0.000000 -0.003770 0.000000
# 2 -0.004716 0.010921 -0.001998 0.000000 -0.002538 0.000000
# 3 -0.005730 -0.001998 0.016513 0.000000 0.001417 0.000000
# 4 0.000000 0.000000 0.000000 0.029141 0.000000 -0.000423
# 5 -0.003770 -0.002538 0.001417 0.000000 0.033632 0.000000
# 6 0.000000 0.000000 0.000000 -0.000423 0.000000 0.047765
#
#
# Mechanical properties :
#
#
# Convention : Reuss Voigt Hill
#
# Bulk Modulus (GPa) = 47.57075 51.61695 49.59385
# Shear Modulus (GPa) = 26.54739 28.64832 27.59786
#
# Velocity S-wave (km/s) = 3.57391 3.71264 3.64394
# Velocity P-wave (km/s) = 6.31810 6.57365 6.44714
#
# Compressibility (1/GPa) = 0.02102132
#
# Stress axis : x y z
#
# Youngs Moduli (GPa) = 54.12507 91.56700 60.55946
#
# Poissons Ratio (x) = 0.43185 0.34698
# Poissons Ratio (y) = 0.25527 0.12101
# Poissons Ratio (z) = 0.31011 0.18297
#
# Static dielectric constant tensor:
#      x y z
#    x 3.952580 0.000000 0.188690 
#    y 0.000000 3.537310 0.000000 
#    z 0.188690 0.000000 3.918590 
# 
# 
# High freq. dielectric constant tensor:
#      x y z
#    x 1.818440 0.000000 0.000280 
#    y 0.000000 1.786160 0.000000 
#    z 0.000280 0.000000 1.826670 
# 
# From -- ./inp_files/22840.got.cif
#   From: 2010.06.25/outbox.cif.g09.slc.cpg/sg13_12_cif.got.tgz:22840.got - 2010.06.28 04:50:58.
