data_PCOD8119122
_publ_section_title
;
Structure prediction by ZEFSAII (Michael W. Deem and Ramdas Pophale) SiO2 
 PCOD8119122
Probable space group: P 2/C
;
_chemical_formula_sum "Si O2"
_cell_formula_units_Z 26
_cell_length_a 14.705651
_cell_length_b 7.405353
_cell_length_c 12.410207
_cell_angle_alpha 90.000000
_cell_angle_beta 113.200522
_cell_angle_gamma 90.000000
_cell_volume 1242.186526
_symmetry_space_group_name_H-M "P 2/C"
_symmetry_group_IT_number 13
_symmetry_cell_setting 'monoclinic'
loop_
_space_group_symop_operation_xyz
x,y,z
-x,y,1/2-z
-x,-y,-z
x,-y,1/2+z
loop_
_atom_site_type_symbol
_atom_site_label
_atom_site_fract_x
_atom_site_fract_y
_atom_site_fract_z
Si Si1 0.091023 0.401712 0.939187
Si Si2 0.815694 0.914615 0.898333
Si Si3 0.259844 0.375468 0.850252
Si Si4 0.662393 0.755443 0.666997
Si Si5 0.115501 0.706918 0.109398
Si Si6 0.351263 0.949506 0.510921
Si Si7 0.500000 0.176752 0.250000
O O1 0.157837 0.371097 0.867629
O O2 0.975615 0.364112 0.858739
O O3 0.108651 0.604025 0.991876
O O4 0.120297 0.261478 0.046732
O O5 0.890949 0.077579 0.908727
O O6 0.752606 0.862610 0.763632
O O7 0.748629 0.978262 0.967678
O O8 0.308890 0.570580 0.876956
O O9 0.223642 0.330983 0.712434
O O10 0.339246 0.233541 0.934375
O O11 0.579745 0.706653 0.719367
O O12 0.622727 0.883857 0.553990
O O13 0.442823 0.943833 0.635922
#
# Coordination Sequence:
#
# PCOD8119122 Si02
#       7
#     4   4   4   4   4   4   2
#     4  10  22  36  57  89 124 158 203 245 279 345
#     4  10  20  37  60  88 118 160 199 241 295 347
#     4  11  22  38  63  87 121 162 194 241 300 353
#     4  11  21  41  63  87 122 154 197 245 301 361
#     4  11  20  37  60  86 123 161 200 241 290 340
#     4  10  22  41  63  87 118 153 196 245 301 362
#     4  10  24  42  64  92 116 148 200 252 300 360
#
# _framework density 20.930834999999998
#
# number of rings (size 3 to 8) (size 9 to 14) (size 15 to 20)
#    0.000    1.538    3.077    2.308    0.000    0.615 
#    0.000    1.538    0.000    0.000    0.000    0.000 
#    0.000    0.000    0.000    0.000    0.000    0.000 
#
# Total GULP energy -322375.735984 kJ/mol
# GULP energy per Si atom -12399.066769 kJ/mol
# Density = 2.088320 g / cm^3
# Si number density = 20.930835 Si / 1000 Ang^3
#
#
#
# Elastic Constant Matrix: (Units=GPa)
#
#
# Indices 1 2 3 4 5 6 
#
# 1 53.3645 28.1631 19.3825 0.0000 6.4029 0.0000
# 2 28.1631 131.8441 42.6032 0.0000 5.3884 0.0000
# 3 19.3825 42.6032 106.8548 0.0000 17.4800 0.0000
# 4 0.0000 0.0000 0.0000 16.0819 0.0000 -5.6060
# 5 6.4029 5.3884 17.4800 0.0000 28.8485 0.0000
# 6 0.0000 0.0000 0.0000 -5.6060 0.0000 21.2472
#
#
#
# Elastic Compliance Matrix: (Units=1/GPa)
#
#
# Indices 1 2 3 4 5 6 
#
# 1 0.021864 -0.003931 -0.001915 0.000000 -0.002958 0.000000
# 2 -0.003931 0.009420 -0.003217 0.000000 0.001062 0.000000
# 3 -0.001915 -0.003217 0.012011 0.000000 -0.006252 0.000000
# 4 0.000000 0.000000 0.000000 0.068480 0.000000 0.018068
# 5 -0.002958 0.001062 -0.006252 0.000000 0.038910 0.000000
# 6 0.000000 0.000000 0.000000 0.018068 0.000000 0.051832
#
#
# Mechanical properties :
#
#
# Convention : Reuss Voigt Hill
#
# Bulk Modulus (GPa) = 39.72820 52.48455 46.10638
# Shear Modulus (GPa) = 21.83095 26.69649 24.26372
#
# Velocity S-wave (km/s) = 3.23306 3.57524 3.40845
# Velocity P-wave (km/s) = 5.74098 6.49405 6.12909
#
# Compressibility (1/GPa) = 0.02517104
#
# Stress axis : x y z
#
# Youngs Moduli (GPa) = 45.73748 106.15324 83.25673
#
# Poissons Ratio (x) = 0.41725 0.15942
# Poissons Ratio (y) = 0.17978 0.26781
# Poissons Ratio (z) = 0.08758 0.34146
#
# Static dielectric constant tensor:
#      x y z
#    x 3.723670 0.000000 0.042230 
#    y 0.000000 3.605000 0.000000 
#    z 0.042230 0.000000 3.796440 
# 
# 
# High freq. dielectric constant tensor:
#      x y z
#    x 1.812770 0.000000 0.003480 
#    y 0.000000 1.809820 0.000000 
#    z 0.003480 0.000000 1.827090 
# 
# From -- ./inp_files/54517.got.cif
#   From: 2010.06.25/outbox.cif.g09.slc.cpg/sg13_28_cif.got.tgz:54517.got - 2010.06.28 04:50:58.
