data_PCOD8119786
_publ_section_title
;
Structure prediction by ZEFSAII (Michael W. Deem and Ramdas Pophale) SiO2 
 PCOD8119786
Probable space group: P 2/C
;
_chemical_formula_sum "Si O2"
_cell_formula_units_Z 28
_cell_length_a 15.079662
_cell_length_b 12.650417
_cell_length_c 13.827922
_cell_angle_alpha 90.000000
_cell_angle_beta 149.402164
_cell_angle_gamma 90.000000
_cell_volume 1342.699265
_symmetry_space_group_name_H-M "P 2/C"
_symmetry_group_IT_number 13
_symmetry_cell_setting 'monoclinic'
loop_
_space_group_symop_operation_xyz
x,y,z
-x,y,1/2-z
-x,-y,-z
x,-y,1/2+z
loop_
_atom_site_type_symbol
_atom_site_label
_atom_site_fract_x
_atom_site_fract_y
_atom_site_fract_z
Si Si1 0.855993 0.165340 0.929286
Si Si2 0.134493 0.280412 0.289592
Si Si3 0.514277 0.715563 0.877622
Si Si4 0.355591 0.062612 0.926180
Si Si5 0.791741 0.626973 0.276185
Si Si6 0.311146 0.099876 0.539792
Si Si7 0.188992 0.603325 0.661424
O O1 0.812339 0.094715 0.795550
O O2 0.753672 0.277635 0.816622
O O3 0.808504 0.097087 0.978703
O O4 0.055288 0.198244 0.134724
O O5 0.302266 0.218387 0.487110
O O6 0.186572 0.383044 0.277266
O O7 0.000000 0.308192 0.250000
O O8 0.500000 0.698659 0.750000
O O9 0.549991 0.837574 0.936338
O O10 0.327805 0.682105 0.745476
O O11 0.668871 0.642519 0.066921
O O12 0.260700 0.990448 0.916663
O O13 0.500000 0.000000 0.000000
O O14 0.751435 0.518307 0.295811
O O15 0.996591 0.625367 0.436066
O O16 0.500000 0.071866 0.750000
#
# Coordination Sequence:
#
# PCOD8119786 Si02
#       7
#     4   4   4   4   4   4   4
#     4   9  20  38  58  83 120 150 200 260 296 363
#     4   9  20  38  59  92 121 153 209 257 302 365
#     4  11  24  40  59  96 132 159 210 256 308 378
#     4  11  21  36  61  84 116 164 204 250 309 370
#     4   9  21  42  65  90 123 163 212 248 313 372
#     4  11  20  34  57  87 112 157 200 244 308 362
#     4  10  20  42  68  88 125 171 198 257 314 363
#
# _framework density 20.853515999999999
#
# number of rings (size 3 to 8) (size 9 to 14) (size 15 to 20)
#    0.000    2.000    1.429    1.714    2.000    1.143 
#   10.286    1.429    6.286    0.000    0.000    0.000 
#    0.000    0.000    0.000    0.000    0.000    0.000 
#
# Total GULP energy -346868.511404 kJ/mol
# GULP energy per Si atom -12388.161122 kJ/mol
# Density = 2.080605 g / cm^3
# Si number density = 20.853516 Si / 1000 Ang^3
#
#
#
# Elastic Constant Matrix: (Units=GPa)
#
#
# Indices 1 2 3 4 5 6 
#
# 1 98.6980 47.4140 34.0905 0.0000 -16.9333 0.0000
# 2 47.4140 81.7437 13.2208 0.0000 -7.8981 0.0000
# 3 34.0905 13.2208 85.1836 0.0000 -16.2627 0.0000
# 4 0.0000 0.0000 0.0000 29.9765 0.0000 1.9222
# 5 -16.9333 -7.8981 -16.2627 0.0000 29.6065 0.0000
# 6 0.0000 0.0000 0.0000 1.9222 0.0000 27.6904
#
#
#
# Elastic Compliance Matrix: (Units=1/GPa)
#
#
# Indices 1 2 3 4 5 6 
#
# 1 0.016505 -0.008401 -0.004387 0.000000 0.004789 0.000000
# 2 -0.008401 0.016998 0.000751 0.000000 0.000142 0.000000
# 3 -0.004387 0.000751 0.014453 0.000000 0.005630 0.000000
# 4 0.000000 0.000000 0.000000 0.033509 0.000000 -0.002326
# 5 0.004789 0.000142 0.005630 0.000000 0.039646 0.000000
# 6 0.000000 0.000000 0.000000 -0.002326 0.000000 0.036275
#
#
# Mechanical properties :
#
#
# Convention : Reuss Voigt Hill
#
# Bulk Modulus (GPa) = 41.87165 50.56398 46.21781
# Shear Modulus (GPa) = 26.39622 28.84801 27.62211
#
# Velocity S-wave (km/s) = 3.56166 3.72340 3.64342
# Velocity P-wave (km/s) = 6.08575 6.54101 6.31748
#
# Compressibility (1/GPa) = 0.02388251
#
# Stress axis : x y z
#
# Youngs Moduli (GPa) = 60.58914 58.82875 69.18783
#
# Poissons Ratio (x) = 0.49422 0.30353
# Poissons Ratio (y) = 0.50901 -0.05196
# Poissons Ratio (z) = 0.26581 -0.04418
#
# Static dielectric constant tensor:
#      x y z
#    x 3.338390 0.000000 -0.306670 
#    y 0.000000 3.922140 0.000000 
#    z -0.306670 0.000000 4.124130 
# 
# 
# High freq. dielectric constant tensor:
#      x y z
#    x 1.784690 0.000000 -0.012440 
#    y 0.000000 1.819840 0.000000 
#    z -0.012440 0.000000 1.832030 
# 
# From -- ./inp_files/55540.got.cif
#   From: 2010.06.25/outbox.cif.g09.slc.cpg/sg13_28_cif.got.tgz:55540.got - 2010.06.28 04:50:58.
