data_PCOD8119468
_publ_section_title
;
Structure prediction by ZEFSAII (Michael W. Deem and Ramdas Pophale) SiO2 
 PCOD8119468
Probable space group: P 2/C
;
_chemical_formula_sum "Si O2"
_cell_formula_units_Z 24
_cell_length_a 10.203425
_cell_length_b 13.275587
_cell_length_c 9.110173
_cell_angle_alpha 90.000000
_cell_angle_beta 80.209515
_cell_angle_gamma 90.000000
_cell_volume 1216.059499
_symmetry_space_group_name_H-M "P 2/C"
_symmetry_group_IT_number 13
_symmetry_cell_setting 'monoclinic'
loop_
_space_group_symop_operation_xyz
x,y,z
-x,y,1/2-z
-x,-y,-z
x,-y,1/2+z
loop_
_atom_site_type_symbol
_atom_site_label
_atom_site_fract_x
_atom_site_fract_y
_atom_site_fract_z
Si Si1 0.146770 0.073307 0.757374
Si Si2 0.122249 0.421702 0.825134
Si Si3 0.306869 0.039050 0.999434
Si Si4 0.049632 0.642417 0.891025
Si Si5 0.234785 0.726200 0.098217
Si Si6 0.534901 0.843119 0.582410
O O1 0.183175 0.073749 0.922367
O O2 0.158549 0.185399 0.695114
O O3 0.000000 0.033063 0.750000
O O4 0.250794 0.997418 0.664777
O O5 0.133249 0.542175 0.828928
O O6 0.244566 0.368079 0.713034
O O7 0.000000 0.385812 0.750000
O O8 0.087647 0.382450 0.995242
O O9 0.384843 0.946816 0.908681
O O10 0.403956 0.133759 0.009824
O O11 0.000000 0.696647 0.750000
O O12 0.151817 0.708596 0.964202
O O13 0.382833 0.758576 0.022577
O O14 0.500000 0.799871 0.750000
#
# Coordination Sequence:
#
# PCOD8119468 Si02
#       6
#     4   4   4   4   4   4
#     4  11  21  37  57  88 119 147 183 249 298 351
#     4   8  15  31  54  83 117 150 185 233 299 359
#     4  10  21  37  62  80 111 156 198 232 295 350
#     4   9  16  31  56  84 119 151 182 234 300 357
#     4  10  21  34  55  86 118 150 198 246 281 343
#     4  10  20  39  59  81 111 156 211 245 267 340
#
# _framework density 19.735878
#
# number of rings (size 3 to 8) (size 9 to 14) (size 15 to 20)
#    0.000    2.333    1.667    3.000    0.000    0.000 
#    6.000    1.667    0.000    1.000    0.000    0.000 
#    0.000    0.000    0.000    0.000    0.000    0.000 
#
# Total GULP energy -297438.173125 kJ/mol
# GULP energy per Si atom -12393.257214 kJ/mol
# Density = 1.969096 g / cm^3
# Si number density = 19.735878 Si / 1000 Ang^3
#
#
#
# Elastic Constant Matrix: (Units=GPa)
#
#
# Indices 1 2 3 4 5 6 
#
# 1 75.4230 23.0121 19.0491 0.0000 7.2543 0.0000
# 2 23.0121 65.8727 28.9306 0.0000 -2.6823 0.0000
# 3 19.0491 28.9306 96.5457 0.0000 8.8476 0.0000
# 4 0.0000 0.0000 0.0000 17.8561 0.0000 -4.2521
# 5 7.2543 -2.6823 8.8476 0.0000 39.7924 0.0000
# 6 0.0000 0.0000 0.0000 -4.2521 0.0000 31.1080
#
#
#
# Elastic Compliance Matrix: (Units=1/GPa)
#
#
# Indices 1 2 3 4 5 6 
#
# 1 0.015358 -0.004911 -0.001298 0.000000 -0.002842 0.000000
# 2 -0.004911 0.019278 -0.005113 0.000000 0.003332 0.000000
# 3 -0.001298 -0.005113 0.012409 0.000000 -0.002867 0.000000
# 4 0.000000 0.000000 0.000000 0.057888 0.000000 0.007913
# 5 -0.002842 0.003332 -0.002867 0.000000 0.026511 0.000000
# 6 0.000000 0.000000 0.000000 0.007913 0.000000 0.033228
#
#
# Mechanical properties :
#
#
# Convention : Reuss Voigt Hill
#
# Bulk Modulus (GPa) = 40.98294 42.20278 41.59286
# Shear Modulus (GPa) = 25.58224 28.87462 27.22843
#
# Velocity S-wave (km/s) = 3.60423 3.82914 3.71838
# Velocity P-wave (km/s) = 6.17506 6.40156 6.28933
#
# Compressibility (1/GPa) = 0.02440040
#
# Stress axis : x y z
#
# Youngs Moduli (GPa) = 65.11210 51.87363 80.58773
#
# Poissons Ratio (x) = 0.25474 0.10462
# Poissons Ratio (y) = 0.31975 0.41205
# Poissons Ratio (z) = 0.08453 0.26523
#
# Static dielectric constant tensor:
#      x y z
#    x 3.388200 0.000000 -0.130930 
#    y 0.000000 3.352320 0.000000 
#    z -0.130930 0.000000 3.843250 
# 
# 
# High freq. dielectric constant tensor:
#      x y z
#    x 1.734470 0.000000 -0.002870 
#    y 0.000000 1.742230 0.000000 
#    z -0.002870 0.000000 1.788980 
# 
# From -- ./inp_files/12504.got.cif
#   From: 2010.06.25/outbox.cif.g09.slc.cpg/sg13_7_cif.got.tgz:12504.got - 2010.06.28 04:50:58.
