data_PCOD8119320
_publ_section_title
;
Structure prediction by ZEFSAII (Michael W. Deem and Ramdas Pophale) SiO2 
 PCOD8119320
Probable space group: P 2/C
;
_chemical_formula_sum "Si O2"
_cell_formula_units_Z 24
_cell_length_a 21.114684
_cell_length_b 10.119353
_cell_length_c 9.389338
_cell_angle_alpha 90.000000
_cell_angle_beta 141.142504
_cell_angle_gamma 90.000000
_cell_volume 1258.655338
_symmetry_space_group_name_H-M "P 2/C"
_symmetry_group_IT_number 13
_symmetry_cell_setting 'monoclinic'
loop_
_space_group_symop_operation_xyz
x,y,z
-x,y,1/2-z
-x,-y,-z
x,-y,1/2+z
loop_
_atom_site_type_symbol
_atom_site_label
_atom_site_fract_x
_atom_site_fract_y
_atom_site_fract_z
Si Si1 0.197722 0.765160 0.308218
Si Si2 0.187062 0.741605 0.615903
Si Si3 0.401855 0.372589 0.497141
Si Si4 0.077176 0.008699 0.010691
Si Si5 0.595789 0.355175 0.336280
Si Si6 0.927978 0.523052 0.503942
O O1 0.167744 0.784620 0.419766
O O2 0.318035 0.755711 0.500159
O O3 0.154432 0.885799 0.140924
O O4 0.157990 0.626387 0.181918
O O5 0.144772 0.859113 0.639689
O O6 0.124312 0.610608 0.536413
O O7 0.305781 0.721749 0.854768
O O8 0.500000 0.311331 0.750000
O O9 0.422864 0.389555 0.363988
O O10 0.377196 0.512438 0.528254
O O11 0.000000 0.007300 0.750000
O O12 0.000000 0.000000 0.000000
O O13 0.500000 0.291604 0.250000
O O14 0.000000 0.583587 0.750000
O O15 0.000000 0.500000 0.500000
#
# Coordination Sequence:
#
# PCOD8119320 Si02
#       6
#     4   4   4   4   4   4
#     4  11  23  41  62  91 121 163 206 249 308 363
#     4  11  23  42  61  89 127 158 204 257 303 363
#     4  10  20  38  62  90 124 158 195 254 312 362
#     4  12  24  45  64  86 126 171 207 251 304 365
#     4  10  20  38  61  91 126 153 199 254 308 366
#     4  12  22  37  60  88 122 155 201 259 299 357
#
# _framework density 19.067969000000002
#
# number of rings (size 3 to 8) (size 9 to 14) (size 15 to 20)
#    0.000    1.000    5.000    4.000    0.000    0.000 
#    9.000    0.833    0.000    4.000    0.000    0.000 
#    0.000    0.000    0.000    0.000    0.000    0.000 
#
# Total GULP energy -297484.497669 kJ/mol
# GULP energy per Si atom -12395.187403 kJ/mol
# Density = 1.902457 g / cm^3
# Si number density = 19.067969 Si / 1000 Ang^3
#
#
#
# Elastic Constant Matrix: (Units=GPa)
#
#
# Indices 1 2 3 4 5 6 
#
# 1 129.5368 32.2892 47.1902 0.0000 8.9739 0.0000
# 2 32.2892 82.9987 20.6997 0.0000 24.3064 0.0000
# 3 47.1902 20.6997 96.9749 0.0000 18.7937 0.0000
# 4 0.0000 0.0000 0.0000 31.1701 0.0000 6.5074
# 5 8.9739 24.3064 18.7937 0.0000 31.1935 0.0000
# 6 0.0000 0.0000 0.0000 6.5074 0.0000 28.7041
#
#
#
# Elastic Compliance Matrix: (Units=1/GPa)
#
#
# Indices 1 2 3 4 5 6 
#
# 1 0.010129 -0.003557 -0.004690 0.000000 0.002683 0.000000
# 2 -0.003557 0.016965 0.000536 0.000000 -0.012519 0.000000
# 3 -0.004690 0.000536 0.013925 0.000000 -0.007458 0.000000
# 4 0.000000 0.000000 0.000000 0.033676 0.000000 -0.007635
# 5 0.002683 -0.012519 -0.007458 0.000000 0.045534 0.000000
# 6 0.000000 0.000000 0.000000 -0.007635 0.000000 0.036569
#
#
# Mechanical properties :
#
#
# Convention : Reuss Voigt Hill
#
# Bulk Modulus (GPa) = 39.06680 56.65204 47.85942
# Shear Modulus (GPa) = 27.66233 32.16898 29.91566
#
# Velocity S-wave (km/s) = 3.81297 4.11185 3.96523
# Velocity P-wave (km/s) = 6.31804 7.23313 6.79102
#
# Compressibility (1/GPa) = 0.02559719
#
# Stress axis : x y z
#
# Youngs Moduli (GPa) = 98.72673 58.94661 71.81280
#
# Poissons Ratio (x) = 0.20965 0.33679
# Poissons Ratio (y) = 0.35113 -0.03847
# Poissons Ratio (z) = 0.46301 -0.03158
#
# Static dielectric constant tensor:
#      x y z
#    x 3.761930 0.000000 0.025170 
#    y 0.000000 3.409890 0.000000 
#    z 0.025170 0.000000 3.804160 
# 
# 
# High freq. dielectric constant tensor:
#      x y z
#    x 1.758940 0.000000 0.004290 
#    y 0.000000 1.716950 0.000000 
#    z 0.004290 0.000000 1.757590 
# 
# From -- ./inp_files/23282.got.cif
#   From: 2010.06.25/outbox.cif.g09.slc.cpg/sg13_12_cif.got.tgz:23282.got - 2010.06.28 04:50:58.
