data_PCOD8119181
_publ_section_title
;
Structure prediction by ZEFSAII (Michael W. Deem and Ramdas Pophale) SiO2 
 PCOD8119181
Probable space group: P 2/C
;
_chemical_formula_sum "Si O2"
_cell_formula_units_Z 32
_cell_length_a 29.301930
_cell_length_b 10.709324
_cell_length_c 8.797294
_cell_angle_alpha 90.000000
_cell_angle_beta 33.848327
_cell_angle_gamma 90.000000
_cell_volume 1537.657885
_symmetry_space_group_name_H-M "P 2/C"
_symmetry_group_IT_number 13
_symmetry_cell_setting 'monoclinic'
loop_
_space_group_symop_operation_xyz
x,y,z
-x,y,1/2-z
-x,-y,-z
x,-y,1/2+z
loop_
_atom_site_type_symbol
_atom_site_label
_atom_site_fract_x
_atom_site_fract_y
_atom_site_fract_z
Si Si1 0.294982 0.089947 0.953438
Si Si2 0.181167 0.981983 0.516329
Si Si3 0.903600 0.161837 0.517899
Si Si4 0.223553 0.352704 0.652871
Si Si5 0.300696 0.527464 0.205533
Si Si6 0.550085 0.297132 0.248098
Si Si7 0.391317 0.298689 0.839637
Si Si8 0.634844 0.831451 0.783972
O O1 0.351304 0.211153 0.818989
O O2 0.355249 0.979131 0.734223
O O3 0.227830 0.109914 0.005814
O O4 0.249374 0.060937 0.237511
O O5 0.126808 0.898174 0.555631
O O6 0.122537 0.078046 0.766714
O O7 0.868340 0.304609 0.626928
O O8 0.000000 0.174514 0.250000
O O9 0.253359 0.477880 0.484462
O O10 0.236240 0.386600 0.794223
O O11 0.275690 0.230588 0.465492
O O12 0.385469 0.603221 0.000638
O O13 0.325384 0.406577 0.041217
O O14 0.500000 0.230162 0.250000
O O15 0.477403 0.360165 0.549757
O O16 0.591852 0.196971 0.242134
O O17 0.411046 0.221397 0.940173
#
# Coordination Sequence:
#
# PCOD8119181 Si02
#       8
#     4   4   4   4   4   4   4   4
#     4  11  20  37  63  90 124 165 208 245 306 382
#     4  10  20  37  63  92 127 162 203 239 296 389
#     4  11  22  39  64  98 130 161 196 252 316 372
#     4  10  20  40  63  85 120 164 208 256 304 372
#     4  10  22  39  61  84 116 163 220 256 305 363
#     4  11  24  36  57  85 116 152 212 274 314 353
#     4  11  22  37  58  87 120 162 206 268 314 353
#     4  10  21  39  58  83 122 164 202 250 321 382
#
# _framework density 20.810870000000001
#
# number of rings (size 3 to 8) (size 9 to 14) (size 15 to 20)
#    0.000    1.500    3.750    2.625    1.750    3.500 
#    0.000    0.625    0.000    0.000    0.000    0.000 
#    0.000    0.000    0.000    0.000    0.000    0.000 
#
# Total GULP energy -396602.543468 kJ/mol
# GULP energy per Si atom -12393.829483 kJ/mol
# Density = 2.076350 g / cm^3
# Si number density = 20.810870 Si / 1000 Ang^3
#
#
#
# Elastic Constant Matrix: (Units=GPa)
#
#
# Indices 1 2 3 4 5 6 
#
# 1 106.3504 35.0394 50.3963 0.0000 -6.0353 0.0000
# 2 35.0394 66.1595 31.2088 0.0000 -13.3217 0.0000
# 3 50.3963 31.2088 105.2308 0.0000 -9.5094 0.0000
# 4 0.0000 0.0000 0.0000 32.3493 0.0000 1.4551
# 5 -6.0353 -13.3217 -9.5094 0.0000 24.7078 0.0000
# 6 0.0000 0.0000 0.0000 1.4551 0.0000 26.3018
#
#
#
# Elastic Compliance Matrix: (Units=1/GPa)
#
#
# Indices 1 2 3 4 5 6 
#
# 1 0.013352 -0.004965 -0.005045 0.000000 -0.001357 0.000000
# 2 -0.004965 0.020974 -0.003036 0.000000 0.008927 0.000000
# 3 -0.005045 -0.003036 0.013013 0.000000 0.002139 0.000000
# 4 0.000000 0.000000 0.000000 0.030990 0.000000 -0.001714
# 5 -0.001357 0.008927 0.002139 0.000000 0.045778 0.000000
# 6 0.000000 0.000000 0.000000 -0.001714 0.000000 0.038115
#
#
# Mechanical properties :
#
#
# Convention : Reuss Voigt Hill
#
# Bulk Modulus (GPa) = 47.06380 56.78109 51.92245
# Shear Modulus (GPa) = 25.58907 27.41155 26.50031
#
# Velocity S-wave (km/s) = 3.51037 3.63323 3.57233
# Velocity P-wave (km/s) = 6.25255 6.70403 6.48222
#
# Compressibility (1/GPa) = 0.02124775
#
# Stress axis : x y z
#
# Youngs Moduli (GPa) = 74.89361 47.67739 76.84912
#
# Poissons Ratio (x) = 0.23673 0.38768
# Poissons Ratio (y) = 0.37186 0.23330
# Poissons Ratio (z) = 0.37781 0.14474
#
# Static dielectric constant tensor:
#      x y z
#    x 3.871740 0.000000 0.222570 
#    y 0.000000 3.540850 0.000000 
#    z 0.222570 0.000000 3.764560 
# 
# 
# High freq. dielectric constant tensor:
#      x y z
#    x 1.825740 0.000000 0.020560 
#    y 0.000000 1.798470 0.000000 
#    z 0.020560 0.000000 1.799570 
# 
# From -- ./inp_files/24947.got.cif
#   From: 2010.06.25/outbox.cif.g09.slc.cpg/sg13_13_cif.got.tgz:24947.got - 2010.06.28 04:50:58.
