data_PCOD8119659
_publ_section_title
;
Structure prediction by ZEFSAII (Michael W. Deem and Ramdas Pophale) SiO2 
 PCOD8119659
Probable space group: P 2/C
;
_chemical_formula_sum "Si O2"
_cell_formula_units_Z 22
_cell_length_a 22.665201
_cell_length_b 9.974863
_cell_length_c 13.653348
_cell_angle_alpha 90.000000
_cell_angle_beta 160.557156
_cell_angle_gamma 90.000000
_cell_volume 1027.485188
_symmetry_space_group_name_H-M "P 2/C"
_symmetry_group_IT_number 13
_symmetry_cell_setting 'monoclinic'
loop_
_space_group_symop_operation_xyz
x,y,z
-x,y,1/2-z
-x,-y,-z
x,-y,1/2+z
loop_
_atom_site_type_symbol
_atom_site_label
_atom_site_fract_x
_atom_site_fract_y
_atom_site_fract_z
Si Si1 0.500000 0.270693 0.750000
Si Si2 0.735795 0.408724 0.452391
Si Si3 0.008965 0.624672 0.879839
Si Si4 0.363257 0.497443 0.918251
Si Si5 0.064698 0.126686 0.740870
Si Si6 0.177647 0.132169 0.318861
O O1 0.367535 0.361125 0.479614
O O2 0.380248 0.181807 0.635013
O O3 0.881157 0.510007 0.725317
O O4 0.691624 0.464133 0.276461
O O5 0.817898 0.260917 0.582253
O O6 0.551240 0.419225 0.223634
O O7 0.955762 0.769454 0.834428
O O8 0.000000 0.624470 0.750000
O O9 0.211821 0.595598 0.230216
O O10 0.000000 0.104060 0.750000
O O11 0.890833 0.122340 0.400001
O O12 0.187233 0.005693 0.894385
#
# Coordination Sequence:
#
# PCOD8119659 Si02
#       6
#     2   4   4   4   4   4
#     4  12  22  40  60  98 130 162 210 278 302 394
#     4  10  20  41  63  95 128 165 212 261 319 379
#     4  10  20  40  66  93 130 164 208 268 315 374
#     4  10  22  35  66  98 127 166 212 262 323 376
#     4  11  24  46  64  90 128 172 212 264 316 385
#     4  11  25  42  66  91 127 170 216 255 329 375
#
# _framework density 21.411501000000001
#
# number of rings (size 3 to 8) (size 9 to 14) (size 15 to 20)
#    0.000    1.455    1.818    4.364    2.545    1.455 
#    6.545    1.818    0.000    0.000    0.000    0.000 
#    0.000    0.000    0.000    0.000    0.000    0.000 
#
# Total GULP energy -272802.202058 kJ/mol
# GULP energy per Si atom -12400.100094 kJ/mol
# Density = 2.136277 g / cm^3
# Si number density = 21.411501 Si / 1000 Ang^3
#
#
#
# Elastic Constant Matrix: (Units=GPa)
#
#
# Indices 1 2 3 4 5 6 
#
# 1 64.3427 36.0133 30.4139 0.0000 18.6676 0.0000
# 2 36.0133 123.1283 32.3257 0.0000 6.4575 0.0000
# 3 30.4139 32.3257 89.4053 0.0000 8.8035 0.0000
# 4 0.0000 0.0000 0.0000 24.5955 0.0000 7.2564
# 5 18.6676 6.4575 8.8035 0.0000 19.0979 0.0000
# 6 0.0000 0.0000 0.0000 7.2564 0.0000 30.0131
#
#
#
# Elastic Compliance Matrix: (Units=1/GPa)
#
#
# Indices 1 2 3 4 5 6 
#
# 1 0.027719 -0.005552 -0.005174 0.000000 -0.022832 0.000000
# 2 -0.005552 0.010133 -0.002066 0.000000 0.002953 0.000000
# 3 -0.005174 -0.002066 0.013749 0.000000 -0.000582 0.000000
# 4 0.000000 0.000000 0.000000 0.043781 0.000000 -0.010585
# 5 -0.022832 0.002953 -0.000582 0.000000 0.073950 0.000000
# 6 0.000000 0.000000 0.000000 -0.010585 0.000000 0.035878
#
#
# Mechanical properties :
#
#
# Convention : Reuss Voigt Hill
#
# Bulk Modulus (GPa) = 38.43440 52.70914 45.57177
# Shear Modulus (GPa) = 20.87984 26.61617 23.74801
#
# Velocity S-wave (km/s) = 3.12616 3.52956 3.33396
# Velocity P-wave (km/s) = 5.56954 6.42503 6.01252
#
# Compressibility (1/GPa) = 0.02601836
#
# Stress axis : x y z
#
# Youngs Moduli (GPa) = 36.07632 98.68850 72.73068
#
# Poissons Ratio (x) = 0.54788 0.37631
# Poissons Ratio (y) = 0.20028 0.15025
# Poissons Ratio (z) = 0.18666 0.20388
#
# Static dielectric constant tensor:
#      x y z
#    x 4.040560 0.000000 0.119860 
#    y 0.000000 3.860660 0.000000 
#    z 0.119860 0.000000 4.110140 
# 
# 
# High freq. dielectric constant tensor:
#      x y z
#    x 1.855880 0.000000 0.000990 
#    y 0.000000 1.831810 0.000000 
#    z 0.000990 0.000000 1.846400 
# 
# From -- ./inp_files/58743.got.cif
#   From: 2010.06.25/outbox.cif.g09.slc.cpg/sg13_30_cif.got.tgz:58743.got - 2010.06.28 04:50:58.
