data_PCOD8119914
_publ_section_title
;
Structure prediction by ZEFSAII (Michael W. Deem and Ramdas Pophale) SiO2 
 PCOD8119914
Probable space group: P 2/C
;
_chemical_formula_sum "Si O2"
_cell_formula_units_Z 28
_cell_length_a 19.009306
_cell_length_b 13.845644
_cell_length_c 7.794410
_cell_angle_alpha 90.000000
_cell_angle_beta 45.552931
_cell_angle_gamma 90.000000
_cell_volume 1464.531196
_symmetry_space_group_name_H-M "P 2/C"
_symmetry_group_IT_number 13
_symmetry_cell_setting 'monoclinic'
loop_
_space_group_symop_operation_xyz
x,y,z
-x,y,1/2-z
-x,-y,-z
x,-y,1/2+z
loop_
_atom_site_type_symbol
_atom_site_label
_atom_site_fract_x
_atom_site_fract_y
_atom_site_fract_z
Si Si1 0.737941 0.560166 0.285058
Si Si2 0.675341 0.864803 0.222745
Si Si3 0.070189 0.567524 0.985419
Si Si4 0.605462 0.054756 0.161184
Si Si5 0.520548 0.782583 0.019050
Si Si6 0.221163 0.302499 0.093068
Si Si7 0.668116 0.377500 0.271672
O O1 0.651477 0.481957 0.390260
O O2 0.726857 0.609169 0.490617
O O3 0.838412 0.496506 0.101317
O O4 0.732059 0.636574 0.142504
O O5 0.690560 0.904786 0.388485
O O6 0.585076 0.787620 0.394529
O O7 0.643680 0.952516 0.157256
O O8 0.770808 0.809469 0.982129
O O9 0.000000 0.612430 0.250000
O O10 0.109413 0.659682 0.809174
O O11 0.000000 0.500000 0.000000
O O12 0.500000 0.039519 0.250000
O O13 0.593821 0.131862 0.333681
O O14 0.500000 0.800568 0.250000
O O15 0.565967 0.676665 0.904975
O O16 0.275038 0.311081 0.185527
#
# Coordination Sequence:
#
# PCOD8119914 Si02
#       7
#     4   4   4   4   4   4   4
#     4  11  21  39  54  84 116 148 187 237 284 339
#     4  11  21  37  56  83 113 151 197 243 291 326
#     4  11  19  36  62  84 111 143 182 228 288 342
#     4  10  21  35  58  81 109 152 201 246 291 327
#     4  11  20  35  54  77 111 156 199 240 272 333
#     4  11  22  36  58  84 119 146 186 243 282 345
#     4  11  21  35  56  76 117 156 193 236 279 332
#
# _framework density 19.118746000000002
#
# number of rings (size 3 to 8) (size 9 to 14) (size 15 to 20)
#    0.000    1.143    5.714    4.714    0.000    0.000 
#    0.000    2.857    0.000    0.000    0.000    1.000 
#    0.000    0.000    0.000    0.000    0.000    0.000 
#
# Total GULP energy -346890.053813 kJ/mol
# GULP energy per Si atom -12388.930493 kJ/mol
# Density = 1.907523 g / cm^3
# Si number density = 19.118746 Si / 1000 Ang^3
#
#
#
# Elastic Constant Matrix: (Units=GPa)
#
#
# Indices 1 2 3 4 5 6 
#
# 1 41.7720 34.5020 36.2620 0.0000 4.5260 0.0000
# 2 34.5020 118.8598 71.8963 0.0000 0.5460 0.0000
# 3 36.2620 71.8963 140.6209 0.0000 23.6818 0.0000
# 4 0.0000 0.0000 0.0000 36.7923 0.0000 -8.7689
# 5 4.5260 0.5460 23.6818 0.0000 25.7991 0.0000
# 6 0.0000 0.0000 0.0000 -8.7689 0.0000 15.6346
#
#
#
# Elastic Compliance Matrix: (Units=1/GPa)
#
#
# Indices 1 2 3 4 5 6 
#
# 1 0.034135 -0.006795 -0.005138 0.000000 -0.001128 0.000000
# 2 -0.006795 0.014516 -0.006882 0.000000 0.007202 0.000000
# 3 -0.005138 -0.006882 0.013932 0.000000 -0.011742 0.000000
# 4 0.000000 0.000000 0.000000 0.031373 0.000000 0.017596
# 5 -0.001128 0.007202 -0.011742 0.000000 0.049585 0.000000
# 6 0.000000 0.000000 0.000000 0.017596 0.000000 0.073830
#
#
# Mechanical properties :
#
#
# Convention : Reuss Voigt Hill
#
# Bulk Modulus (GPa) = 40.07740 65.17482 52.62611
# Shear Modulus (GPa) = 18.98841 26.21803 22.60322
#
# Velocity S-wave (km/s) = 3.15490 3.70716 3.44212
# Velocity P-wave (km/s) = 5.85483 7.24483 6.58660
#
# Compressibility (1/GPa) = 0.02495172
#
# Stress axis : x y z
#
# Youngs Moduli (GPa) = 29.29570 68.89160 71.77543
#
# Poissons Ratio (x) = 0.46814 0.36878
# Poissons Ratio (y) = 0.19907 0.49396
# Poissons Ratio (z) = 0.15052 0.47412
#
# Static dielectric constant tensor:
#      x y z
#    x 3.529050 0.000000 0.348370 
#    y 0.000000 3.662300 0.000000 
#    z 0.348370 0.000000 3.439450 
# 
# 
# High freq. dielectric constant tensor:
#      x y z
#    x 1.712140 0.000000 0.041840 
#    y 0.000000 1.737660 0.000000 
#    z 0.041840 0.000000 1.744020 
# 
# From -- ./inp_files/23206.got.cif
#   From: 2010.06.25/outbox.cif.g09.slc.cpg/sg13_12_cif.got.tgz:23206.got - 2010.06.28 04:50:58.
