data_PCOD8119149
_publ_section_title
;
Structure prediction by ZEFSAII (Michael W. Deem and Ramdas Pophale) SiO2 
 PCOD8119149
Probable space group: P 2/C
;
_chemical_formula_sum "Si O2"
_cell_formula_units_Z 28
_cell_length_a 11.125787
_cell_length_b 8.701616
_cell_length_c 13.759156
_cell_angle_alpha 90.000000
_cell_angle_beta 63.363856
_cell_angle_gamma 90.000000
_cell_volume 1190.686935
_symmetry_space_group_name_H-M "P 2/C"
_symmetry_group_IT_number 13
_symmetry_cell_setting 'monoclinic'
loop_
_space_group_symop_operation_xyz
x,y,z
-x,y,1/2-z
-x,-y,-z
x,-y,1/2+z
loop_
_atom_site_type_symbol
_atom_site_label
_atom_site_fract_x
_atom_site_fract_y
_atom_site_fract_z
Si Si1 0.905517 0.180722 0.582205
Si Si2 0.304357 0.953379 0.831322
Si Si3 0.875813 0.610347 0.413103
Si Si4 0.987785 0.703482 0.648393
Si Si5 0.694611 0.651802 0.290037
Si Si6 0.518444 0.074427 0.889279
Si Si7 0.720769 0.373093 0.155641
O O1 0.913418 0.219429 0.465226
O O2 0.778883 0.265876 0.675776
O O3 0.043693 0.231081 0.587951
O O4 0.858320 0.999323 0.605373
O O5 0.356380 0.783105 0.846658
O O6 0.380866 0.067229 0.878397
O O7 0.358800 0.980815 0.703374
O O8 0.985936 0.479932 0.356482
O O9 0.787790 0.628686 0.349717
O O10 0.782298 0.551711 0.536218
O O11 0.000000 0.780921 0.750000
O O12 0.833413 0.717055 0.677136
O O13 0.563574 0.745363 0.373200
O O14 0.645665 0.491939 0.255501
O O15 0.500000 0.000000 0.000000
#
# Coordination Sequence:
#
# PCOD8119149 Si02
#       7
#     4   4   4   4   4   4   4
#     4  10  20  37  61  91 132 179 208 259 332 400
#     4  10  24  43  63  91 133 168 223 276 336 393
#     4  11  19  35  63  99 134 163 214 274 317 402
#     4  11  19  33  58  97 139 166 208 268 314 399
#     4  11  20  38  70  94 122 178 227 266 342 393
#     4  10  23  47  67  88 125 174 225 291 332 389
#     4  11  21  37  62  96 130 172 211 274 330 399
#
# _framework density 23.515837000000001
#
# number of rings (size 3 to 8) (size 9 to 14) (size 15 to 20)
#    0.000    1.429    4.286    2.143    0.000    3.429 
#    0.000    9.286    0.000    0.857    0.000    0.000 
#    0.000    0.000    0.000    0.000    0.000    0.000 
#
# Total GULP energy -346866.393621 kJ/mol
# GULP energy per Si atom -12388.085486 kJ/mol
# Density = 2.346231 g / cm^3
# Si number density = 23.515837 Si / 1000 Ang^3
#
#
#
# Elastic Constant Matrix: (Units=GPa)
#
#
# Indices 1 2 3 4 5 6 
#
# 1 51.9426 18.7862 36.0520 0.0000 6.2725 0.0000
# 2 18.7862 121.3605 33.0141 0.0000 -3.1411 0.0000
# 3 36.0520 33.0141 169.9582 0.0000 20.9786 0.0000
# 4 0.0000 0.0000 0.0000 34.2349 0.0000 -4.3565
# 5 6.2725 -3.1411 20.9786 0.0000 26.2555 0.0000
# 6 0.0000 0.0000 0.0000 -4.3565 0.0000 22.2856
#
#
#
# Elastic Compliance Matrix: (Units=1/GPa)
#
#
# Indices 1 2 3 4 5 6 
#
# 1 0.023362 -0.002557 -0.004141 0.000000 -0.002579 0.000000
# 2 -0.002557 0.009149 -0.001604 0.000000 0.002987 0.000000
# 3 -0.004141 -0.001604 0.007738 0.000000 -0.005386 0.000000
# 4 0.000000 0.000000 0.000000 0.029955 0.000000 0.005856
# 5 -0.002579 0.002987 -0.005386 0.000000 0.043364 0.000000
# 6 0.000000 0.000000 0.000000 0.005856 0.000000 0.046017
#
#
# Mechanical properties :
#
#
# Convention : Reuss Voigt Hill
#
# Bulk Modulus (GPa) = 42.28728 57.66289 49.97508
# Shear Modulus (GPa) = 27.16360 33.58247 30.37304
#
# Velocity S-wave (km/s) = 3.40239 3.78309 3.59778
# Velocity P-wave (km/s) = 5.78416 6.60731 6.20939
#
# Compressibility (1/GPa) = 0.02364778
#
# Stress axis : x y z
#
# Youngs Moduli (GPa) = 42.80447 109.29920 129.22575
#
# Poissons Ratio (x) = 0.27945 0.53508
# Poissons Ratio (y) = 0.10944 0.20722
# Poissons Ratio (z) = 0.17724 0.17526
#
# Static dielectric constant tensor:
#      x y z
#    x 4.023990 0.000000 0.052870 
#    y 0.000000 4.601960 0.000000 
#    z 0.052870 0.000000 4.421150 
# 
# 
# High freq. dielectric constant tensor:
#      x y z
#    x 1.907430 0.000000 0.004210 
#    y 0.000000 1.932160 0.000000 
#    z 0.004210 0.000000 1.939440 
# 
# From -- ./inp_files/49961.got.cif
#   From: 2010.06.25/outbox.cif.g09.slc.cpg/sg13_25_cif.got.tgz:49961.got - 2010.06.28 04:50:58.
