data_PCOD8119964
_publ_section_title
;
Structure prediction by ZEFSAII (Michael W. Deem and Ramdas Pophale) SiO2 
 PCOD8119964
Probable space group: P 2/C
;
_chemical_formula_sum "Si O2"
_cell_formula_units_Z 24
_cell_length_a 29.669179
_cell_length_b 7.987513
_cell_length_c 5.170475
_cell_angle_alpha 90.000000
_cell_angle_beta 94.825654
_cell_angle_gamma 90.000000
_cell_volume 1220.971053
_symmetry_space_group_name_H-M "P 2/C"
_symmetry_group_IT_number 13
_symmetry_cell_setting 'monoclinic'
loop_
_space_group_symop_operation_xyz
x,y,z
-x,y,1/2-z
-x,-y,-z
x,-y,1/2+z
loop_
_atom_site_type_symbol
_atom_site_label
_atom_site_fract_x
_atom_site_fract_y
_atom_site_fract_z
Si Si1 0.792550 0.104942 0.419646
Si Si2 0.276971 0.604911 0.617545
Si Si3 0.449342 0.105233 0.197271
Si Si4 0.894614 0.111855 0.431910
Si Si5 0.620334 0.395010 0.332696
Si Si6 0.980076 0.309929 0.490285
O O1 0.756701 0.246089 0.337937
O O2 0.843192 0.178386 0.414991
O O3 0.784944 0.958609 0.207144
O O4 0.267820 0.537465 0.325957
O O5 0.328314 0.671533 0.668470
O O6 0.500000 0.179338 0.250000
O O7 0.413301 0.245851 0.243903
O O8 0.441916 0.958498 0.402311
O O9 0.925847 0.280252 0.463068
O O10 0.904442 0.013658 0.172125
O O11 0.611142 0.462791 0.615198
O O12 0.000000 0.216649 0.250000
O O13 0.000000 0.500000 0.500000
O O14 0.000000 0.216832 0.750000
#
# Coordination Sequence:
#
# PCOD8119964 Si02
#       6
#     4   4   4   4   4   4
#     4  10  21  38  59  84 113 144 184 227 273 332
#     4  10  21  38  56  85 115 146 185 230 281 329
#     4  10  21  36  54  80 113 147 190 238 283 333
#     4  10  21  37  57  81 108 140 177 218 264 315
#     4  10  21  36  56  80 113 147 188 234 276 336
#     4  10  21  37  53  78 110 136 174 219 256 311
#
# _framework density 19.656483999999999
#
# number of rings (size 3 to 8) (size 9 to 14) (size 15 to 20)
#    0.000    2.000    0.000    3.000    0.000    4.000 
#    6.000    0.000    0.000    0.000    0.000    0.000 
#    0.000    0.000    0.000    0.000    0.000    0.000 
#
# Total GULP energy -297508.067144 kJ/mol
# GULP energy per Si atom -12396.169464 kJ/mol
# Density = 1.961175 g / cm^3
# Si number density = 19.656484 Si / 1000 Ang^3
#
#
#
# Elastic Constant Matrix: (Units=GPa)
#
#
# Indices 1 2 3 4 5 6 
#
# 1 146.7262 74.9283 27.6988 0.0000 5.5825 0.0000
# 2 74.9283 65.2143 5.3250 0.0000 6.1967 0.0000
# 3 27.6988 5.3250 120.7271 0.0000 1.2391 0.0000
# 4 0.0000 0.0000 0.0000 10.0103 0.0000 0.5083
# 5 5.5825 6.1967 1.2391 0.0000 25.7159 0.0000
# 6 0.0000 0.0000 0.0000 0.5083 0.0000 40.6868
#
#
#
# Elastic Compliance Matrix: (Units=1/GPa)
#
#
# Indices 1 2 3 4 5 6 
#
# 1 0.017651 -0.020132 -0.003174 0.000000 0.001172 0.000000
# 2 -0.020132 0.038708 0.002964 0.000000 -0.005100 0.000000
# 3 -0.003174 0.002964 0.008885 0.000000 -0.000453 0.000000
# 4 0.000000 0.000000 0.000000 0.099961 0.000000 -0.001249
# 5 0.001172 -0.005100 -0.000453 0.000000 0.039883 0.000000
# 6 0.000000 0.000000 0.000000 -0.001249 0.000000 0.024594
#
#
# Mechanical properties :
#
#
# Convention : Reuss Voigt Hill
#
# Bulk Modulus (GPa) = 40.71689 60.95242 50.83465
# Shear Modulus (GPa) = 17.95000 30.26363 24.10682
#
# Velocity S-wave (km/s) = 3.02517 3.92806 3.50581
# Velocity P-wave (km/s) = 5.74120 7.18673 6.50425
#
# Compressibility (1/GPa) = 0.02455983
#
# Stress axis : x y z
#
# Youngs Moduli (GPa) = 56.65443 25.83459 112.54647
#
# Poissons Ratio (x) = 0.52011 0.35719
# Poissons Ratio (y) = 1.14059 -0.33359
# Poissons Ratio (z) = 0.17981 -0.07657
#
# Static dielectric constant tensor:
#      x y z
#    x 3.716890 0.000000 0.243140 
#    y 0.000000 3.055900 0.000000 
#    z 0.243140 0.000000 3.249560 
# 
# 
# High freq. dielectric constant tensor:
#      x y z
#    x 1.775790 0.000000 -0.000680 
#    y 0.000000 1.729110 0.000000 
#    z -0.000680 0.000000 1.799230 
# 
# From -- ./inp_files/7335.got.cif
#   From: 2010.06.25/outbox.cif.g09.slc.cpg/sg13_4_cif.got.tgz:7335.got - 2010.06.28 04:50:58.
