data_PCOD8119282
_publ_section_title
;
Structure prediction by ZEFSAII (Michael W. Deem and Ramdas Pophale) SiO2 
 PCOD8119282
Probable space group: P 2/C
;
_chemical_formula_sum "Si O2"
_cell_formula_units_Z 28
_cell_length_a 16.689163
_cell_length_b 12.222992
_cell_length_c 8.940174
_cell_angle_alpha 90.000000
_cell_angle_beta 127.321178
_cell_angle_gamma 90.000000
_cell_volume 1450.311952
_symmetry_space_group_name_H-M "P 2/C"
_symmetry_group_IT_number 13
_symmetry_cell_setting 'monoclinic'
loop_
_space_group_symop_operation_xyz
x,y,z
-x,y,1/2-z
-x,-y,-z
x,-y,1/2+z
loop_
_atom_site_type_symbol
_atom_site_label
_atom_site_fract_x
_atom_site_fract_y
_atom_site_fract_z
Si Si1 0.614944 0.902468 0.721662
Si Si2 0.197346 0.255487 0.714710
Si Si3 0.886018 0.312170 0.575456
Si Si4 0.810945 0.864712 0.801670
Si Si5 0.925794 0.544710 0.542579
Si Si6 0.885783 0.069157 0.071086
Si Si7 0.391458 0.129915 0.944929
O O1 0.694929 0.838859 0.710039
O O2 0.509406 0.838253 0.575142
O O3 0.618853 0.029171 0.679249
O O4 0.641863 0.905350 0.926895
O O5 0.186867 0.260357 0.881835
O O6 0.159198 0.370240 0.604554
O O7 0.125557 0.160867 0.568846
O O8 0.314926 0.227822 0.808352
O O9 0.869889 0.248547 0.400361
O O10 0.863299 0.441046 0.534290
O O11 0.000000 0.293963 0.750000
O O12 0.819161 0.899944 0.639634
O O13 0.850918 0.955651 0.961921
O O14 0.000000 0.598341 0.750000
O O15 0.000000 0.500000 0.500000
O O16 0.000000 0.058225 0.250000
#
# Coordination Sequence:
#
# PCOD8119282 Si02
#       7
#     4   4   4   4   4   4   4
#     4  10  20  38  60  87 123 155 206 247 310 362
#     4  12  22  39  60  88 122 158 208 251 314 356
#     4  11  22  38  60  84 120 162 203 249 292 376
#     4  12  22  38  57  86 122 166 203 244 311 366
#     4  11  23  41  62  87 119 165 209 256 300 368
#     4  12  25  36  55  87 130 167 196 249 301 382
#     4  10  21  37  61  90 118 163 199 260 302 373
#
# _framework density 19.306190000000001
#
# number of rings (size 3 to 8) (size 9 to 14) (size 15 to 20)
#    0.000    0.857    5.714    3.857    2.000    0.000 
#    0.000    0.000    0.000    0.857    0.000    0.000 
#    0.000    0.000    0.000    0.000    0.000    0.000 
#
# Total GULP energy -347104.940277 kJ/mol
# GULP energy per Si atom -12396.605010 kJ/mol
# Density = 1.926225 g / cm^3
# Si number density = 19.306190 Si / 1000 Ang^3
#
#
#
# Elastic Constant Matrix: (Units=GPa)
#
#
# Indices 1 2 3 4 5 6 
#
# 1 103.0474 30.4091 29.0584 0.0000 10.5806 0.0000
# 2 30.4091 91.6424 36.9124 0.0000 14.6206 0.0000
# 3 29.0584 36.9124 76.8588 0.0000 0.1645 0.0000
# 4 0.0000 0.0000 0.0000 30.9681 0.0000 3.5302
# 5 10.5806 14.6206 0.1645 0.0000 33.0743 0.0000
# 6 0.0000 0.0000 0.0000 3.5302 0.0000 29.1290
#
#
#
# Elastic Compliance Matrix: (Units=1/GPa)
#
#
# Indices 1 2 3 4 5 6 
#
# 1 0.011542 -0.002022 -0.003387 0.000000 -0.002782 0.000000
# 2 -0.002022 0.015164 -0.006506 0.000000 -0.006024 0.000000
# 3 -0.003387 -0.006506 0.017407 0.000000 0.003873 0.000000
# 4 0.000000 0.000000 0.000000 0.032744 0.000000 -0.003968
# 5 -0.002782 -0.006024 0.003873 0.000000 0.033769 0.000000
# 6 0.000000 0.000000 0.000000 -0.003968 0.000000 0.034811
#
#
# Mechanical properties :
#
#
# Convention : Reuss Voigt Hill
#
# Bulk Modulus (GPa) = 49.29711 51.58983 50.44347
# Shear Modulus (GPa) = 28.40486 30.31219 29.35852
#
# Velocity S-wave (km/s) = 3.83989 3.96672 3.90382
# Velocity P-wave (km/s) = 6.72677 6.91084 6.81943
#
# Compressibility (1/GPa) = 0.02028517
#
# Stress axis : x y z
#
# Youngs Moduli (GPa) = 86.64377 65.94402 57.44703
#
# Poissons Ratio (x) = 0.13333 0.19455
# Poissons Ratio (y) = 0.17519 0.37373
# Poissons Ratio (z) = 0.29342 0.42900
#
# Static dielectric constant tensor:
#      x y z
#    x 3.770740 0.000000 -0.057650 
#    y 0.000000 3.594790 0.000000 
#    z -0.057650 0.000000 3.893770 
# 
# 
# High freq. dielectric constant tensor:
#      x y z
#    x 1.750520 0.000000 -0.008790 
#    y 0.000000 1.727560 0.000000 
#    z -0.008790 0.000000 1.764290 
# 
# From -- ./inp_files/19096.got.cif
#   From: 2010.06.25/outbox.cif.g09.slc.cpg/sg13_10_cif.got.tgz:19096.got - 2010.06.28 04:50:58.
