data_PCOD8119303
_publ_section_title
;
Structure prediction by ZEFSAII (Michael W. Deem and Ramdas Pophale) SiO2 
 PCOD8119303
Probable space group: P 2/C
;
_chemical_formula_sum "Si O2"
_cell_formula_units_Z 32
_cell_length_a 11.667673
_cell_length_b 6.782474
_cell_length_c 22.243180
_cell_angle_alpha 90.000000
_cell_angle_beta 103.749560
_cell_angle_gamma 90.000000
_cell_volume 1709.788052
_symmetry_space_group_name_H-M "P 2/C"
_symmetry_group_IT_number 13
_symmetry_cell_setting 'monoclinic'
loop_
_space_group_symop_operation_xyz
x,y,z
-x,y,1/2-z
-x,-y,-z
x,-y,1/2+z
loop_
_atom_site_type_symbol
_atom_site_label
_atom_site_fract_x
_atom_site_fract_y
_atom_site_fract_z
Si Si1 0.444154 0.548878 0.877278
Si Si2 0.569475 0.896206 0.954918
Si Si3 0.073478 0.499994 0.367190
Si Si4 0.294083 0.442466 0.970877
Si Si5 0.226123 0.488875 0.271330
Si Si6 0.343801 0.284557 0.585589
Si Si7 0.067487 0.158490 0.198772
Si Si8 0.155025 0.242872 0.661808
O O1 0.482015 0.765172 0.903606
O O2 0.381080 0.442639 0.925154
O O3 0.356407 0.567979 0.810033
O O4 0.553936 0.414327 0.870046
O O5 0.619197 0.058572 0.916075
O O6 0.679459 0.764404 0.992573
O O7 0.500000 0.000000 0.000000
O O8 0.158359 0.531887 0.434728
O O9 0.142182 0.554314 0.315138
O O10 0.025063 0.275640 0.355730
O O11 0.968540 0.650824 0.361374
O O12 0.320778 0.626213 0.017028
O O13 0.173527 0.302137 0.230309
O O14 0.230671 0.675222 0.227322
O O15 0.226535 0.285547 0.610360
O O16 0.000000 0.079310 0.250000
O O17 0.127272 0.986217 0.168193
#
# Coordination Sequence:
#
# PCOD8119303 Si02
#       8
#     4   4   4   4   4   4   4   4
#     4  10  20  38  61  84 110 145 192 240 282 334
#     4  11  19  36  59  85 115 143 188 236 284 335
#     4   9  20  38  61  84 108 146 191 236 283 335
#     4  10  20  38  61  85 109 144 192 238 282 336
#     4   9  20  38  61  84 108 146 191 237 283 333
#     4  11  23  36  55  84 116 154 182 232 289 339
#     4   9  18  36  58  82 112 148 192 237 278 335
#     4  11  22  37  55  81 120 151 187 228 287 344
#
# _framework density 18.715769000000002
#
# number of rings (size 3 to 8) (size 9 to 14) (size 15 to 20)
#    0.000    2.000    2.500    2.625    0.000    7.000 
#    2.250    1.250    0.000    0.000    0.000    0.000 
#    0.000    0.000    0.000    0.000    0.000    0.000 
#
# Total GULP energy -396817.746278 kJ/mol
# GULP energy per Si atom -12400.554571 kJ/mol
# Density = 1.867317 g / cm^3
# Si number density = 18.715769 Si / 1000 Ang^3
#
#
#
# Elastic Constant Matrix: (Units=GPa)
#
#
# Indices 1 2 3 4 5 6 
#
# 1 87.5530 40.3428 39.0996 0.0000 20.0711 0.0000
# 2 40.3428 106.2044 28.8279 0.0000 12.9086 0.0000
# 3 39.0996 28.8279 67.0874 0.0000 33.9131 0.0000
# 4 0.0000 0.0000 0.0000 14.2673 0.0000 -0.2704
# 5 20.0711 12.9086 33.9131 0.0000 35.7306 0.0000
# 6 0.0000 0.0000 0.0000 -0.2704 0.0000 21.6803
#
#
#
# Elastic Compliance Matrix: (Units=1/GPa)
#
#
# Indices 1 2 3 4 5 6 
#
# 1 0.016998 -0.004277 -0.007734 0.000000 -0.000663 0.000000
# 2 -0.004277 0.011752 -0.003125 0.000000 0.001123 0.000000
# 3 -0.007734 -0.003125 0.034581 0.000000 -0.027349 0.000000
# 4 0.000000 0.000000 0.000000 0.070107 0.000000 0.000874
# 5 -0.000663 0.001123 -0.027349 0.000000 0.053912 0.000000
# 6 0.000000 0.000000 0.000000 0.000874 0.000000 0.046136
#
#
# Mechanical properties :
#
#
# Convention : Reuss Voigt Hill
#
# Bulk Modulus (GPa) = 30.24795 53.04283 41.64539
# Shear Modulus (GPa) = 18.19657 24.50729 21.35193
#
# Velocity S-wave (km/s) = 3.12149 3.62255 3.38131
# Velocity P-wave (km/s) = 5.40263 6.77495 6.12733
#
# Compressibility (1/GPa) = 0.03306009
#
# Stress axis : x y z
#
# Youngs Moduli (GPa) = 58.82968 85.09016 28.91757
#
# Poissons Ratio (x) = 0.36394 0.22364
# Poissons Ratio (y) = 0.25162 0.09036
# Poissons Ratio (z) = 0.45498 0.26588
#
# Static dielectric constant tensor:
#      x y z
#    x 3.456000 0.000000 0.211290 
#    y 0.000000 3.434410 0.000000 
#    z 0.211290 0.000000 3.510030 
# 
# 
# High freq. dielectric constant tensor:
#      x y z
#    x 1.723270 0.000000 0.010800 
#    y 0.000000 1.728700 0.000000 
#    z 0.010800 0.000000 1.717680 
# 
# From -- ./inp_files/91851.got.cif
#   From: 2010.06.25/outbox.cif.g09.slc.cpg/sg13_46_cif.got.tgz:91851.got - 2010.06.28 04:50:58.
