data_PCOD8119378
_publ_section_title
;
Structure prediction by ZEFSAII (Michael W. Deem and Ramdas Pophale) SiO2 
 PCOD8119378
Probable space group: P 2/C
;
_chemical_formula_sum "Si O2"
_cell_formula_units_Z 18
_cell_length_a 5.307411
_cell_length_b 7.464895
_cell_length_c 23.802281
_cell_angle_alpha 90.000000
_cell_angle_beta 97.213544
_cell_angle_gamma 90.000000
_cell_volume 935.564868
_symmetry_space_group_name_H-M "P 2/C"
_symmetry_group_IT_number 13
_symmetry_cell_setting 'monoclinic'
loop_
_space_group_symop_operation_xyz
x,y,z
-x,y,1/2-z
-x,-y,-z
x,-y,1/2+z
loop_
_atom_site_type_symbol
_atom_site_label
_atom_site_fract_x
_atom_site_fract_y
_atom_site_fract_z
Si Si1 0.794781 0.151738 0.157531
Si Si2 0.500000 0.748278 0.750000
Si Si3 0.910739 0.514124 0.809677
Si Si4 0.042435 0.169646 0.615685
Si Si5 0.523613 0.939885 0.064071
O O1 0.687170 0.127535 0.218146
O O2 0.576343 0.113895 0.104953
O O3 0.890320 0.354889 0.153600
O O4 0.023956 0.007691 0.154978
O O5 0.646603 0.620403 0.798014
O O6 0.000000 0.460120 0.750000
O O7 0.878019 0.337254 0.844845
O O8 0.260382 0.150982 0.574941
O O9 0.765880 0.195429 0.577927
O O10 0.500000 0.000000 0.000000
#
# Coordination Sequence:
#
# PCOD8119378 Si02
#       5
#     4   2   4   4   4
#     4   9  22  38  63  89 127 160 203 248 310 361
#     4  10  20  38  64  86 136 158 202 248 312 366
#     4  10  22  38  58  94 125 163 197 256 299 376
#     4  10  23  40  65  90 121 159 210 247 310 357
#     4  10  22  43  66  89 122 162 208 258 302 361
#
# _framework density 19.239715
#
# number of rings (size 3 to 8) (size 9 to 14) (size 15 to 20)
#    1.333    0.889    0.000    2.000    6.222    4.444 
#    0.000    3.333    0.000    0.000    0.000    0.000 
#    0.000    0.000    0.000    0.000    0.000    0.000 
#
# Total GULP energy -223034.126894 kJ/mol
# GULP energy per Si atom -12390.784827 kJ/mol
# Density = 1.919592 g / cm^3
# Si number density = 19.239715 Si / 1000 Ang^3
#
#
#
# Elastic Constant Matrix: (Units=GPa)
#
#
# Indices 1 2 3 4 5 6 
#
# 1 120.4180 19.2644 37.8372 0.0000 -14.2033 0.0000
# 2 19.2644 75.6344 53.4526 0.0000 -10.7639 0.0000
# 3 37.8372 53.4526 99.4453 0.0000 -2.7120 0.0000
# 4 0.0000 0.0000 0.0000 18.9148 0.0000 11.8147
# 5 -14.2033 -10.7639 -2.7120 0.0000 32.3763 0.0000
# 6 0.0000 0.0000 0.0000 11.8147 0.0000 19.4459
#
#
#
# Elastic Compliance Matrix: (Units=1/GPa)
#
#
# Indices 1 2 3 4 5 6 
#
# 1 0.009989 0.001100 -0.004272 0.000000 0.004390 0.000000
# 2 0.001100 0.022734 -0.012447 0.000000 0.006998 0.000000
# 3 -0.004272 -0.012447 0.018249 0.000000 -0.004484 0.000000
# 4 0.000000 0.000000 0.000000 0.085204 0.000000 -0.051767
# 5 0.004390 0.006998 -0.004484 0.000000 0.034763 0.000000
# 6 0.000000 0.000000 0.000000 -0.051767 0.000000 0.082877
#
#
# Mechanical properties :
#
#
# Convention : Reuss Voigt Hill
#
# Bulk Modulus (GPa) = 50.67655 57.40070 54.03862
# Shear Modulus (GPa) = 17.14484 26.47697 21.81091
#
# Velocity S-wave (km/s) = 2.98840 3.71369 3.37061
# Velocity P-wave (km/s) = 6.18903 6.94895 6.57997
#
# Compressibility (1/GPa) = 0.01973299
#
# Stress axis : x y z
#
# Youngs Moduli (GPa) = 100.11500 43.98671 54.79645
#
# Poissons Ratio (x) = -0.04837 0.23408
# Poissons Ratio (y) = -0.11008 0.68207
# Poissons Ratio (z) = 0.42767 0.54752
#
# Static dielectric constant tensor:
#      x y z
#    x 3.713120 0.000000 -0.054930 
#    y 0.000000 3.208780 0.000000 
#    z -0.054930 0.000000 3.370540 
# 
# 
# High freq. dielectric constant tensor:
#      x y z
#    x 1.764210 0.000000 -0.005230 
#    y 0.000000 1.721170 0.000000 
#    z -0.005230 0.000000 1.734180 
# 
# From -- ./inp_files/82909.got.cif
#   From: 2010.06.25/outbox.cif.g09.slc.cpg/sg13_42_cif.got.tgz:82909.got - 2010.06.28 04:50:58.
