data_PCOD8119391
_publ_section_title
;
Structure prediction by ZEFSAII (Michael W. Deem and Ramdas Pophale) SiO2 
 PCOD8119391
Probable space group: P 2/C
;
_chemical_formula_sum "Si O2"
_cell_formula_units_Z 20
_cell_length_a 12.875244
_cell_length_b 11.020286
_cell_length_c 9.991238
_cell_angle_alpha 90.000000
_cell_angle_beta 140.181898
_cell_angle_gamma 90.000000
_cell_volume 907.792685
_symmetry_space_group_name_H-M "P 2/C"
_symmetry_group_IT_number 13
_symmetry_cell_setting 'monoclinic'
loop_
_space_group_symop_operation_xyz
x,y,z
-x,y,1/2-z
-x,-y,-z
x,-y,1/2+z
loop_
_atom_site_type_symbol
_atom_site_label
_atom_site_fract_x
_atom_site_fract_y
_atom_site_fract_z
Si Si1 0.158534 0.855096 0.707951
Si Si2 0.888935 0.478707 0.020886
Si Si3 0.321711 0.263558 0.618434
Si Si4 0.792133 0.869289 0.264830
Si Si5 0.816188 0.258351 0.532360
O O1 0.247192 0.817845 0.657504
O O2 0.967348 0.831811 0.499227
O O3 0.203470 0.993658 0.784394
O O4 0.215769 0.769590 0.884287
O O5 0.797384 0.600556 0.978032
O O6 0.000000 0.431910 0.250000
O O7 0.753692 0.375056 0.869509
O O8 0.000000 0.500000 0.000000
O O9 0.500000 0.301112 0.750000
O O10 0.329986 0.150508 0.730944
O O11 0.724999 0.783870 0.077321
O O12 0.000000 0.222433 0.750000
#
# Coordination Sequence:
#
# PCOD8119391 Si02
#       5
#     4   4   4   4   4
#     4  10  20  38  65  90 117 156 205 252 296 362
#     4  11  21  39  64  84 114 159 209 258 300 357
#     4  12  25  39  58  90 130 164 198 249 317 373
#     4  10  20  38  64  91 117 154 204 252 300 361
#     4   9  18  34  59  89 112 143 198 258 302 339
#
# _framework density 22.031462999999999
#
# number of rings (size 3 to 8) (size 9 to 14) (size 15 to 20)
#    0.000    1.600    0.000    7.800    0.000    4.000 
#    0.000   10.000    0.000    0.000    0.000    0.000 
#    0.000    0.000    0.000    0.000    0.000    0.000 
#
# Total GULP energy -247916.401563 kJ/mol
# GULP energy per Si atom -12395.820078 kJ/mol
# Density = 2.198132 g / cm^3
# Si number density = 22.031463 Si / 1000 Ang^3
#
#
#
# Elastic Constant Matrix: (Units=GPa)
#
#
# Indices 1 2 3 4 5 6 
#
# 1 133.1926 54.0798 45.5084 0.0000 -21.8543 0.0000
# 2 54.0798 120.7729 43.5769 0.0000 -8.9551 0.0000
# 3 45.5084 43.5769 57.2424 0.0000 -30.3022 0.0000
# 4 0.0000 0.0000 0.0000 25.6733 0.0000 -13.4353
# 5 -21.8543 -8.9551 -30.3022 0.0000 38.0152 0.0000
# 6 0.0000 0.0000 0.0000 -13.4353 0.0000 31.4058
#
#
#
# Elastic Compliance Matrix: (Units=1/GPa)
#
#
# Indices 1 2 3 4 5 6 
#
# 1 0.010792 -0.002473 -0.006437 0.000000 0.000490 0.000000
# 2 -0.002473 0.013300 -0.012547 0.000000 -0.008290 0.000000
# 3 -0.006437 -0.012547 0.049504 0.000000 0.032804 0.000000
# 4 0.000000 0.000000 0.000000 0.050186 0.000000 0.021470
# 5 0.000490 -0.008290 0.032804 0.000000 0.050782 0.000000
# 6 0.000000 0.000000 0.000000 0.021470 0.000000 0.041026
#
#
# Mechanical properties :
#
#
# Convention : Reuss Voigt Hill
#
# Bulk Modulus (GPa) = 32.59378 66.39313 49.49346
# Shear Modulus (GPa) = 18.60574 30.22171 24.41373
#
# Velocity S-wave (km/s) = 2.90919 3.70774 3.33247
# Velocity P-wave (km/s) = 5.10988 6.96640 6.10908
#
# Compressibility (1/GPa) = 0.03068070
#
# Stress axis : x y z
#
# Youngs Moduli (GPa) = 92.66004 75.18755 20.20021
#
# Poissons Ratio (x) = 0.18597 0.13004
# Poissons Ratio (y) = 0.22919 0.25345
# Poissons Ratio (z) = 0.59649 0.94339
#
# Static dielectric constant tensor:
#      x y z
#    x 3.869460 0.000000 -0.450320 
#    y 0.000000 3.907400 0.000000 
#    z -0.450320 0.000000 3.745730 
# 
# 
# High freq. dielectric constant tensor:
#      x y z
#    x 1.853300 0.000000 -0.045410 
#    y 0.000000 1.875310 0.000000 
#    z -0.045410 0.000000 1.842410 
# 
# From -- ./inp_files/16012.got.cif
#   From: 2010.06.25/outbox.cif.g09.slc.cpg/sg13_9_cif.got.tgz:16012.got - 2010.06.28 04:50:58.
