data_PCOD8119217
_publ_section_title
;
Structure prediction by ZEFSAII (Michael W. Deem and Ramdas Pophale) SiO2 
 PCOD8119217
Probable space group: P 2/C
;
_chemical_formula_sum "Si O2"
_cell_formula_units_Z 22
_cell_length_a 13.642791
_cell_length_b 8.425796
_cell_length_c 19.514782
_cell_angle_alpha 90.000000
_cell_angle_beta 21.977675
_cell_angle_gamma 90.000000
_cell_volume 839.526127
_symmetry_space_group_name_H-M "P 2/C"
_symmetry_group_IT_number 13
_symmetry_cell_setting 'monoclinic'
loop_
_space_group_symop_operation_xyz
x,y,z
-x,y,1/2-z
-x,-y,-z
x,-y,1/2+z
loop_
_atom_site_type_symbol
_atom_site_label
_atom_site_fract_x
_atom_site_fract_y
_atom_site_fract_z
Si Si1 0.500000 0.533365 0.250000
Si Si2 0.698273 0.345911 0.482694
Si Si3 0.982309 0.155721 0.137687
Si Si4 0.500000 0.988235 0.750000
Si Si5 0.770809 0.174106 0.773452
Si Si6 0.166772 0.736455 0.905230
Si Si7 0.000000 0.361838 0.750000
O O1 0.428667 0.646608 0.359254
O O2 0.742206 0.427555 0.120020
O O3 0.980272 0.257844 0.316325
O O4 0.520450 0.247975 0.543857
O O5 0.746670 0.526357 0.426964
O O6 0.899248 0.280337 0.132344
O O7 0.767615 0.016290 0.288227
O O8 0.267801 0.083996 0.935800
O O9 0.387418 0.872844 0.763965
O O10 0.908602 0.204344 0.611592
O O11 0.939237 0.253016 0.724558
#
# Coordination Sequence:
#
# PCOD8119217 Si02
#       7
#     2   4   4   2   4   4   2
#     4  11  23  40  72 108 144 178 228 294 354 404
#     4  12  26  45  72 104 137 184 235 284 351 416
#     4  11  22  40  71 106 138 176 234 293 350 405
#     4   9  17  34  58 104 138 170 208 286 344 406
#     4  11  24  47  70  99 144 189 228 287 343 413
#     4  10  20  37  69 107 139 172 229 289 354 404
#     4  12  28  50  66 102 144 192 230 280 342 422
#
# _framework density 26.205259999999999
#
# number of rings (size 3 to 8) (size 9 to 14) (size 15 to 20)
#    0.000    1.091    1.818    6.545    2.545    2.182 
#    0.000    1.818    0.000    0.000    0.000    0.000 
#    0.000    0.000    0.000    0.000    0.000    0.000 
#
# Total GULP energy -272811.665915 kJ/mol
# GULP energy per Si atom -12400.530269 kJ/mol
# Density = 2.614562 g / cm^3
# Si number density = 26.205260 Si / 1000 Ang^3
#
#
#
# Elastic Constant Matrix: (Units=GPa)
#
#
# Indices 1 2 3 4 5 6 
#
# 1 143.9152 43.6804 5.4801 0.0000 -21.7821 0.0000
# 2 43.6804 111.6602 -8.4401 0.0000 -18.0412 0.0000
# 3 5.4801 -8.4401 41.8745 0.0000 -23.8952 0.0000
# 4 0.0000 0.0000 0.0000 31.6831 0.0000 -2.8332
# 5 -21.7821 -18.0412 -23.8952 0.0000 39.8272 0.0000
# 6 0.0000 0.0000 0.0000 -2.8332 0.0000 35.9712
#
#
#
# Elastic Compliance Matrix: (Units=1/GPa)
#
#
# Indices 1 2 3 4 5 6 
#
# 1 0.008272 -0.002620 0.000447 0.000000 0.003606 0.000000
# 2 -0.002620 0.011939 0.007630 0.000000 0.008554 0.000000
# 3 0.000447 0.007630 0.041774 0.000000 0.028764 0.000000
# 4 0.000000 0.000000 0.000000 0.031786 0.000000 0.002504
# 5 0.003606 0.008554 0.028764 0.000000 0.048213 0.000000
# 6 0.000000 0.000000 0.000000 0.002504 0.000000 0.027997
#
#
# Mechanical properties :
#
#
# Convention : Reuss Voigt Hill
#
# Bulk Modulus (GPa) = 13.71719 42.09897 27.90808
# Shear Modulus (GPa) = 27.26755 38.61160 32.93957
#
# Velocity S-wave (km/s) = 3.22924 3.84269 3.54924
# Velocity P-wave (km/s) = 4.37605 5.98234 5.24110
#
# Compressibility (1/GPa) = 0.07290124
#
# Stress axis : x y z
#
# Youngs Moduli (GPa) = 120.88420 83.75697 23.93808
#
# Poissons Ratio (x) = 0.21942 -0.01070
# Poissons Ratio (y) = 0.31668 -0.18265
# Poissons Ratio (z) = -0.05403 -0.63909
#
# Static dielectric constant tensor:
#      x y z
#    x 4.812890 0.000000 -0.176320 
#    y 0.000000 5.002130 0.000000 
#    z -0.176320 0.000000 4.763300 
# 
# 
# High freq. dielectric constant tensor:
#      x y z
#    x 2.064100 0.000000 -0.006620 
#    y 0.000000 2.059500 0.000000 
#    z -0.006620 0.000000 2.046720 
# 
# From -- ./inp_files/87256.got.cif
#   From: 2010.06.25/outbox.cif.g09.slc.cpg/sg13_44_cif.got.tgz:87256.got - 2010.06.28 04:50:58.
