data_PCOD8119660
_publ_section_title
;
Structure prediction by ZEFSAII (Michael W. Deem and Ramdas Pophale) SiO2 
 PCOD8119660
Probable space group: P 2/C
;
_chemical_formula_sum "Si O2"
_cell_formula_units_Z 26
_cell_length_a 14.195540
_cell_length_b 8.777882
_cell_length_c 10.646422
_cell_angle_alpha 90.000000
_cell_angle_beta 113.511651
_cell_angle_gamma 90.000000
_cell_volume 1216.479259
_symmetry_space_group_name_H-M "P 2/C"
_symmetry_group_IT_number 13
_symmetry_cell_setting 'monoclinic'
loop_
_space_group_symop_operation_xyz
x,y,z
-x,y,1/2-z
-x,-y,-z
x,-y,1/2+z
loop_
_atom_site_type_symbol
_atom_site_label
_atom_site_fract_x
_atom_site_fract_y
_atom_site_fract_z
Si Si1 0.648997 0.766091 0.231482
Si Si2 0.007626 0.630482 0.609517
Si Si3 0.376096 0.267125 0.062063
Si Si4 0.842146 0.222288 0.465501
Si Si5 0.500000 0.011201 0.250000
Si Si6 0.000000 0.188260 0.750000
Si Si7 0.500000 0.482981 0.750000
Si Si8 0.131426 0.123060 0.584037
O O1 0.576012 0.910805 0.207690
O O2 0.596318 0.616790 0.259869
O O3 0.759016 0.796219 0.348193
O O4 0.669890 0.735060 0.099001
O O5 0.926330 0.764770 0.541967
O O6 0.000000 0.571207 0.750000
O O7 0.000000 0.500000 0.500000
O O8 0.119209 0.706384 0.645234
O O9 0.275141 0.277977 0.094671
O O10 0.454460 0.408171 0.117477
O O11 0.436756 0.112088 0.118989
O O12 0.915498 0.282416 0.621247
O O13 0.852890 0.039459 0.473196
O O14 0.930892 0.097259 0.817503
#
# Coordination Sequence:
#
# PCOD8119660 Si02
#       8
#     4   4   4   4   2   2   2   4
#     4  11  22  43  67  95 133 174 223 280 344 407
#     4  11  28  46  67 101 141 182 233 281 336 414
#     4  11  22  43  67  95 133 174 223 280 344 407
#     4  11  24  41  71  98 132 181 226 286 342 404
#     4  10  22  42  64 102 124 166 226 282 340 406
#     4  10  20  40  66  96 134 164 224 272 350 386
#     4  10  26  42  64  98 132 178 222 278 342 416
#     4  11  24  41  71  98 132 181 226 286 342 404
#
# _framework density 21.373158
#
# number of rings (size 3 to 8) (size 9 to 14) (size 15 to 20)
#    0.000    1.231    3.077    2.769   10.769    0.000 
#    0.000    1.538    0.000    0.000    0.000    0.000 
#    0.000    0.000    0.000    0.000    0.000    0.000 
#
# Total GULP energy -322159.611235 kJ/mol
# GULP energy per Si atom -12390.754278 kJ/mol
# Density = 2.132451 g / cm^3
# Si number density = 21.373158 Si / 1000 Ang^3
#
#
#
# Elastic Constant Matrix: (Units=GPa)
#
#
# Indices 1 2 3 4 5 6 
#
# 1 137.9080 43.1626 37.0112 0.0000 11.3941 0.0000
# 2 43.1626 113.8170 32.8238 0.0000 0.7533 0.0000
# 3 37.0112 32.8238 88.0988 0.0000 -12.2374 0.0000
# 4 0.0000 0.0000 0.0000 12.1411 0.0000 -6.1801
# 5 11.3941 0.7533 -12.2374 0.0000 36.9367 0.0000
# 6 0.0000 0.0000 0.0000 -6.1801 0.0000 17.0260
#
#
#
# Elastic Compliance Matrix: (Units=1/GPa)
#
#
# Indices 1 2 3 4 5 6 
#
# 1 0.009308 -0.002483 -0.003540 0.000000 -0.003994 0.000000
# 2 -0.002483 0.010584 -0.002960 0.000000 -0.000431 0.000000
# 3 -0.003540 -0.002960 0.014782 0.000000 0.006050 0.000000
# 4 0.000000 0.000000 0.000000 0.101033 0.000000 0.036673
# 5 -0.003994 -0.000431 0.006050 0.000000 0.030318 0.000000
# 6 0.000000 0.000000 0.000000 0.036673 0.000000 0.072045
#
#
# Mechanical properties :
#
#
# Convention : Reuss Voigt Hill
#
# Bulk Modulus (GPa) = 59.85322 62.86878 61.36100
# Shear Modulus (GPa) = 19.11274 28.34249 23.72762
#
# Velocity S-wave (km/s) = 2.99363 3.64549 3.33552
# Velocity P-wave (km/s) = 6.32565 6.87009 6.60348
#
# Compressibility (1/GPa) = 0.01670754
#
# Stress axis : x y z
#
# Youngs Moduli (GPa) = 107.43106 94.48167 67.65211
#
# Poissons Ratio (x) = 0.23455 0.23951
# Poissons Ratio (y) = 0.26670 0.20027
# Poissons Ratio (z) = 0.38034 0.27970
#
# Static dielectric constant tensor:
#      x y z
#    x 3.579840 0.000000 -0.053090 
#    y 0.000000 3.920900 0.000000 
#    z -0.053090 0.000000 3.747640 
# 
# 
# High freq. dielectric constant tensor:
#      x y z
#    x 1.853910 0.000000 0.009940 
#    y 0.000000 1.839460 0.000000 
#    z 0.009940 0.000000 1.829600 
# 
# From -- ./inp_files/36328.got.cif
#   From: 2010.06.25/outbox.cif.g09.slc.cpg/sg13_19_cif.got.tgz:36328.got - 2010.06.28 04:50:58.
