data_PCOD8119312
_publ_section_title
;
Structure prediction by ZEFSAII (Michael W. Deem and Ramdas Pophale) SiO2 
 PCOD8119312
Probable space group: P 2/C
;
_chemical_formula_sum "Si O2"
_cell_formula_units_Z 26
_cell_length_a 20.548695
_cell_length_b 7.779417
_cell_length_c 14.067492
_cell_angle_alpha 90.000000
_cell_angle_beta 146.111942
_cell_angle_gamma 90.000000
_cell_volume 1253.859886
_symmetry_space_group_name_H-M "P 2/C"
_symmetry_group_IT_number 13
_symmetry_cell_setting 'monoclinic'
loop_
_space_group_symop_operation_xyz
x,y,z
-x,y,1/2-z
-x,-y,-z
x,-y,1/2+z
loop_
_atom_site_type_symbol
_atom_site_label
_atom_site_fract_x
_atom_site_fract_y
_atom_site_fract_z
Si Si1 0.540479 0.263440 0.499141
Si Si2 0.500000 0.740459 0.250000
Si Si3 0.039484 0.145268 0.406025
Si Si4 0.621268 0.080612 0.060864
Si Si5 0.108197 0.518942 0.453355
Si Si6 0.873466 0.820513 0.881639
Si Si7 0.367064 0.484545 0.717867
O O1 0.435791 0.145211 0.411386
O O2 0.610740 0.383182 0.657006
O O3 0.470965 0.374221 0.336468
O O4 0.635046 0.127605 0.571916
O O5 0.465448 0.865659 0.125645
O O6 0.611799 0.630127 0.349897
O O7 0.112509 0.322421 0.495565
O O8 0.000000 0.105589 0.250000
O O9 0.935202 0.165238 0.354802
O O10 0.113580 0.983452 0.532080
O O11 0.739522 0.185048 0.191072
O O12 0.088101 0.647617 0.517096
O O13 0.233954 0.556342 0.555719
O O14 0.000000 0.544878 0.250000
#
# Coordination Sequence:
#
# PCOD8119312 Si02
#       7
#     4   2   4   4   4   4   4
#     4   9  19  38  62  87 116 163 209 254 324 381
#     4  10  24  36  58  92 126 158 206 270 322 380
#     4  10  24  42  62  93 130 169 219 267 323 384
#     4  10  20  38  61  88 118 162 206 259 325 381
#     4  11  23  40  67  97 128 178 218 267 323 391
#     4  11  22  43  64  93 129 171 217 271 320 395
#     4  10  20  40  60  90 129 161 212 269 316 389
#
# _framework density 20.735968
#
# number of rings (size 3 to 8) (size 9 to 14) (size 15 to 20)
#    0.000    1.846    1.538    1.846    4.308    0.615 
#    0.000    4.615    0.000    0.000    0.000    0.000 
#    0.000    0.000    0.000    0.000    0.000    0.000 
#
# Total GULP energy -322175.983538 kJ/mol
# GULP energy per Si atom -12391.383982 kJ/mol
# Density = 2.068877 g / cm^3
# Si number density = 20.735968 Si / 1000 Ang^3
#
#
#
# Elastic Constant Matrix: (Units=GPa)
#
#
# Indices 1 2 3 4 5 6 
#
# 1 79.5592 16.1025 28.4825 0.0000 -11.3160 0.0000
# 2 16.1025 90.1933 22.8780 0.0000 -15.1763 0.0000
# 3 28.4825 22.8780 83.9655 0.0000 10.1236 0.0000
# 4 0.0000 0.0000 0.0000 22.6000 0.0000 7.9409
# 5 -11.3160 -15.1763 10.1236 0.0000 24.3600 0.0000
# 6 0.0000 0.0000 0.0000 7.9409 0.0000 18.2190
#
#
#
# Elastic Compliance Matrix: (Units=1/GPa)
#
#
# Indices 1 2 3 4 5 6 
#
# 1 0.016568 0.000731 -0.007161 0.000000 0.011127 0.000000
# 2 0.000731 0.014306 -0.005539 0.000000 0.011554 0.000000
# 3 -0.007161 -0.005539 0.017544 0.000000 -0.014068 0.000000
# 4 0.000000 0.000000 0.000000 0.052250 0.000000 -0.022773
# 5 0.011127 0.011554 -0.014068 0.000000 0.059265 0.000000
# 6 0.000000 0.000000 0.000000 -0.022773 0.000000 0.064814
#
#
# Mechanical properties :
#
#
# Convention : Reuss Voigt Hill
#
# Bulk Modulus (GPa) = 40.84973 43.18267 42.01620
# Shear Modulus (GPa) = 19.46712 25.45277 22.45995
#
# Velocity S-wave (km/s) = 3.06732 3.50733 3.29468
# Velocity P-wave (km/s) = 5.68219 6.10508 5.89743
#
# Compressibility (1/GPa) = 0.02447997
#
# Stress axis : x y z
#
# Youngs Moduli (GPa) = 60.35871 69.90119 56.99924
#
# Poissons Ratio (x) = -0.05109 0.40816
# Poissons Ratio (y) = -0.04411 0.31571
# Poissons Ratio (z) = 0.43222 0.38718
#
# Static dielectric constant tensor:
#      x y z
#    x 6.393610 0.000000 0.395920 
#    y 0.000000 4.161160 0.000000 
#    z 0.395920 0.000000 3.619020 
# 
# 
# High freq. dielectric constant tensor:
#      x y z
#    x 1.798500 0.000000 0.002900 
#    y 0.000000 1.825720 0.000000 
#    z 0.002900 0.000000 1.805590 
# 
# From -- ./inp_files/57338.got.cif
#   From: 2010.06.25/outbox.cif.g09.slc.cpg/sg13_29_cif.got.tgz:57338.got - 2010.06.28 04:50:58.
