data_PCOD8119849
_publ_section_title
;
Structure prediction by ZEFSAII (Michael W. Deem and Ramdas Pophale) SiO2 
 PCOD8119849
Probable space group: P 2/C
;
_chemical_formula_sum "Si O2"
_cell_formula_units_Z 28
_cell_length_a 8.340023
_cell_length_b 30.913360
_cell_length_c 5.405706
_cell_angle_alpha 90.000000
_cell_angle_beta 123.152232
_cell_angle_gamma 90.000000
_cell_volume 1166.825070
_symmetry_space_group_name_H-M "P 2/C"
_symmetry_group_IT_number 13
_symmetry_cell_setting 'monoclinic'
loop_
_space_group_symop_operation_xyz
x,y,z
-x,y,1/2-z
-x,-y,-z
x,-y,1/2+z
loop_
_atom_site_type_symbol
_atom_site_label
_atom_site_fract_x
_atom_site_fract_y
_atom_site_fract_z
Si Si1 0.775026 0.976519 0.038438
Si Si2 0.500000 0.900932 0.750000
Si Si3 0.726289 0.620994 0.415058
Si Si4 0.000000 0.809467 0.750000
Si Si5 0.725877 0.521185 0.418652
Si Si6 0.203091 0.756396 0.545519
Si Si7 0.713486 0.340604 0.403015
Si Si8 0.354183 0.825779 0.319115
O O1 0.000000 0.971128 0.250000
O O2 0.706643 0.992108 0.254270
O O3 0.687582 0.930604 0.884544
O O4 0.462011 0.869912 0.485724
O O5 0.500000 0.629405 0.250000
O O6 0.779212 0.571075 0.429929
O O7 0.818798 0.638392 0.751401
O O8 0.814178 0.646736 0.249988
O O9 0.838127 0.778541 0.728046
O O10 0.865274 0.837947 0.454769
O O11 0.500000 0.513542 0.250000
O O12 0.813506 0.503623 0.752147
O O13 0.304982 0.710564 0.656707
O O14 0.338303 0.790006 0.517679
O O15 0.000000 0.748211 0.250000
O O16 0.500000 0.360263 0.250000
O O17 0.500000 0.804089 0.250000
#
# Coordination Sequence:
#
# PCOD8119849 Si02
#       8
#     4   2   4   2   4   4   4   4
#     4  10  24  47  75 108 148 192 237 291 356 417
#     4  12  26  42  72 108 140 184 234 298 338 424
#     4   9  18  31  45  79 113 146 203 252 312 395
#     4  10  24  46  66  90 138 176 230 296 346 428
#     4   9  15  24  42  65 104 153 186 233 309 390
#     4  10  24  43  62  88 123 170 220 279 340 406
#     4  10  21  33  57  81 113 157 199 263 323 387
#     4  11  26  43  68 101 137 181 234 291 351 422
#
# _framework density 23.996739999999999
#
# number of rings (size 3 to 8) (size 9 to 14) (size 15 to 20)
#    0.000    2.000    0.000    2.143    9.000    6.857 
#    1.286    0.000    0.000    0.000    0.000    0.000 
#    0.000   11.429    0.000    0.000    0.000    0.000 
#
# Total GULP energy -346978.098711 kJ/mol
# GULP energy per Si atom -12392.074954 kJ/mol
# Density = 2.394212 g / cm^3
# Si number density = 23.996740 Si / 1000 Ang^3
#
#
#
# Elastic Constant Matrix: (Units=GPa)
#
#
# Indices 1 2 3 4 5 6 
#
# 1 72.3021 39.4268 51.6520 0.0000 -41.8947 0.0000
# 2 39.4268 144.9311 56.6296 0.0000 -28.9019 0.0000
# 3 51.6520 56.6296 148.3876 0.0000 -26.5726 0.0000
# 4 0.0000 0.0000 0.0000 -149.7820 0.0000 -9.5819
# 5 -41.8947 -28.9019 -26.5726 0.0000 52.9556 0.0000
# 6 0.0000 0.0000 0.0000 -9.5819 0.0000 4.5961
#
#
#
# Elastic Compliance Matrix: (Units=1/GPa)
#
#
# Indices 1 2 3 4 5 6 
#
# 1 0.031458 -0.001900 -0.006542 0.000000 0.020568 0.000000
# 2 -0.001900 0.008734 -0.002294 0.000000 0.002113 0.000000
# 3 -0.006542 -0.002294 0.009604 0.000000 -0.001608 0.000000
# 4 0.000000 0.000000 0.000000 -0.005891 0.000000 -0.012281
# 5 0.020568 0.002113 -0.001608 0.000000 0.035502 0.000000
# 6 0.000000 0.000000 0.000000 -0.012281 0.000000 0.191971
#
#
# Mechanical properties :
#
#
# Convention : Reuss Voigt Hill
#
# Bulk Modulus (GPa) = 35.30453 73.44864 54.37658
# Shear Modulus (GPa) = 16.54036 -3.91855 6.31090
#
# Velocity S-wave (km/s) = 2.62825 -1.27926 1.62346
# Velocity P-wave (km/s) = 4.89433 5.33781 5.12087
#
# Compressibility (1/GPa) = 0.02832498
#
# Stress axis : x y z
#
# Youngs Moduli (GPa) = 31.78812 114.49214 104.12818
#
# Poissons Ratio (x) = 0.21755 0.68120
# Poissons Ratio (y) = 0.06040 0.23882
# Poissons Ratio (z) = 0.20796 0.26259
#
# Static dielectric constant tensor:
#      x y z
#    x 3.919740 0.000000 -0.563660 
#    y 0.000000 4.008000 0.000000 
#    z -0.563660 0.000000 4.554770 
# 
# 
# High freq. dielectric constant tensor:
#      x y z
#    x 1.952460 0.000000 -0.002030 
#    y 0.000000 1.931180 0.000000 
#    z -0.002030 0.000000 1.972480 
# 
# From -- ./inp_files/2769.got.cif
#   From: 2010.06.25/outbox.cif.g09.slc.cpg/sg13_2_cif.got.tgz:2769.got - 2010.06.28 04:50:58.
