data_PCOD8119883
_publ_section_title
;
Structure prediction by ZEFSAII (Michael W. Deem and Ramdas Pophale) SiO2 
 PCOD8119883
Probable space group: P 2/C
;
_chemical_formula_sum "Si O2"
_cell_formula_units_Z 32
_cell_length_a 12.082207
_cell_length_b 9.227376
_cell_length_c 30.384402
_cell_angle_alpha 90.000000
_cell_angle_beta 152.890738
_cell_angle_gamma 90.000000
_cell_volume 1543.631185
_symmetry_space_group_name_H-M "P 2/C"
_symmetry_group_IT_number 13
_symmetry_cell_setting 'monoclinic'
loop_
_space_group_symop_operation_xyz
x,y,z
-x,y,1/2-z
-x,-y,-z
x,-y,1/2+z
loop_
_atom_site_type_symbol
_atom_site_label
_atom_site_fract_x
_atom_site_fract_y
_atom_site_fract_z
Si Si1 0.207996 0.910152 0.098068
Si Si2 0.752620 0.402454 0.318396
Si Si3 0.830562 0.537232 0.649136
Si Si4 0.171927 0.229405 0.233537
Si Si5 0.845027 0.387737 0.971693
Si Si6 0.443006 0.390008 0.075888
Si Si7 0.759927 0.945276 0.286648
Si Si8 0.011378 0.661083 0.368048
O O1 0.472753 0.971796 0.180027
O O2 0.163925 0.930304 0.134807
O O3 0.218048 0.743838 0.083715
O O4 0.000000 0.000000 0.000000
O O5 0.500000 0.444478 0.250000
O O6 0.698238 0.275303 0.265543
O O7 0.971147 0.337096 0.425089
O O8 0.817457 0.544743 0.314740
O O9 0.557625 0.548696 0.571006
O O10 0.839748 0.399206 0.620691
O O11 0.000000 0.502205 0.750000
O O12 0.923427 0.684560 0.657203
O O13 0.374893 0.265620 0.342116
O O14 0.112640 0.062827 0.200875
O O15 0.611366 0.474481 0.909776
O O16 0.000000 0.500000 0.000000
O O17 0.193942 0.310353 0.973839
O O18 0.859151 0.799750 0.299486
#
# Coordination Sequence:
#
# PCOD8119883 Si02
#       8
#     4   4   4   4   4   4   4   4
#     4  11  26  42  59  90 135 171 210 258 317 389
#     4  10  21  34  61  85 121 156 206 255 309 373
#     4   9  20  40  68  91 121 159 211 265 318 370
#     4  10  22  39  60  86 121 170 211 249 313 380
#     4  11  23  37  63  95 120 159 209 254 321 380
#     4  10  21  40  70  93 123 162 212 270 319 372
#     4  11  26  39  61  89 131 172 209 256 324 375
#     4  10  22  39  61  95 123 158 208 269 314 375
#
# _framework density 20.730339000000001
#
# number of rings (size 3 to 8) (size 9 to 14) (size 15 to 20)
#    0.000    1.750    0.000    3.375   15.750    0.000 
#    0.000    2.500    0.000    0.000    0.000    0.000 
#    0.000    0.000    0.000    0.000    0.000    0.000 
#
# Total GULP energy -396428.847021 kJ/mol
# GULP energy per Si atom -12388.401469 kJ/mol
# Density = 2.068316 g / cm^3
# Si number density = 20.730339 Si / 1000 Ang^3
#
#
#
# Elastic Constant Matrix: (Units=GPa)
#
#
# Indices 1 2 3 4 5 6 
#
# 1 111.1110 32.9426 19.6133 0.0000 0.0166 0.0000
# 2 32.9426 87.6811 28.1829 0.0000 -10.8909 0.0000
# 3 19.6133 28.1829 73.8795 0.0000 -1.6669 0.0000
# 4 0.0000 0.0000 0.0000 30.4402 0.0000 -6.5888
# 5 0.0166 -10.8909 -1.6669 0.0000 28.7503 0.0000
# 6 0.0000 0.0000 0.0000 -6.5888 0.0000 21.4414
#
#
#
# Elastic Compliance Matrix: (Units=1/GPa)
#
#
# Indices 1 2 3 4 5 6 
#
# 1 0.010316 -0.003608 -0.001395 0.000000 -0.001454 0.000000
# 2 -0.003608 0.014911 -0.004609 0.000000 0.005383 0.000000
# 3 -0.001395 -0.004609 0.015645 0.000000 -0.000838 0.000000
# 4 0.000000 0.000000 0.000000 0.035192 0.000000 0.010814
# 5 -0.001454 0.005383 -0.000838 0.000000 0.036774 0.000000
# 6 0.000000 0.000000 0.000000 0.010814 0.000000 0.049962
#
#
# Mechanical properties :
#
#
# Convention : Reuss Voigt Hill
#
# Bulk Modulus (GPa) = 46.19318 48.23878 47.21598
# Shear Modulus (GPa) = 26.42161 28.92190 27.67175
#
# Velocity S-wave (km/s) = 3.57394 3.73922 3.65751
# Velocity P-wave (km/s) = 6.27391 6.47785 6.37670
#
# Compressibility (1/GPa) = 0.02164822
#
# Stress axis : x y z
#
# Youngs Moduli (GPa) = 96.93475 67.06679 63.91777
#
# Poissons Ratio (x) = 0.24198 0.08918
# Poissons Ratio (y) = 0.34974 0.29457
# Poissons Ratio (z) = 0.13524 0.30909
#
# Static dielectric constant tensor:
#      x y z
#    x 4.080410 0.000000 -0.049350 
#    y 0.000000 3.744570 0.000000 
#    z -0.049350 0.000000 3.838490 
# 
# 
# High freq. dielectric constant tensor:
#      x y z
#    x 1.816330 0.000000 -0.004800 
#    y 0.000000 1.791570 0.000000 
#    z -0.004800 0.000000 1.819890 
# 
# From -- ./inp_files/96709.got.cif
#   From: 2010.06.25/outbox.cif.g09.slc.cpg/sg13_49_cif.got.tgz:96709.got - 2010.06.28 04:50:58.
