data_PCOD8119134
_publ_section_title
;
Structure prediction by ZEFSAII (Michael W. Deem and Ramdas Pophale) SiO2 
 PCOD8119134
Probable space group: P 2/C
;
_chemical_formula_sum "Si O2"
_cell_formula_units_Z 24
_cell_length_a 23.584366
_cell_length_b 8.363109
_cell_length_c 18.487028
_cell_angle_alpha 90.000000
_cell_angle_beta 160.165668
_cell_angle_gamma 90.000000
_cell_volume 1237.214560
_symmetry_space_group_name_H-M "P 2/C"
_symmetry_group_IT_number 13
_symmetry_cell_setting 'monoclinic'
loop_
_space_group_symop_operation_xyz
x,y,z
-x,y,1/2-z
-x,-y,-z
x,-y,1/2+z
loop_
_atom_site_type_symbol
_atom_site_label
_atom_site_fract_x
_atom_site_fract_y
_atom_site_fract_z
Si Si1 0.513528 0.063116 0.434718
Si Si2 0.656137 0.854999 0.384605
Si Si3 0.373115 0.370331 0.319293
Si Si4 0.183285 0.127233 0.187212
Si Si5 0.017133 0.120504 0.131504
Si Si6 0.159894 0.380196 0.487072
O O1 0.476577 0.252545 0.390188
O O2 0.500000 0.000000 0.500000
O O3 0.381229 0.987673 0.220583
O O4 0.701030 0.012540 0.636962
O O5 0.500000 0.827200 0.250000
O O6 0.822702 0.911191 0.625993
O O7 0.694529 0.688248 0.390217
O O8 0.500000 0.500000 0.500000
O O9 0.294388 0.272784 0.291641
O O10 0.223064 0.457312 0.098444
O O11 0.068298 0.191625 0.114360
O O12 0.076440 0.049221 0.993525
O O13 0.888491 0.245338 0.012243
O O14 0.000000 0.432232 0.250000
#
# Coordination Sequence:
#
# PCOD8119134 Si02
#       6
#     4   4   4   4   4   4
#     4  10  20  37  61  87 114 153 206 247 284 347
#     4  11  21  39  66  88 118 158 210 251 295 351
#     4  11  22  36  60  88 125 158 194 244 304 363
#     4  10  20  37  62  89 117 158 205 250 292 353
#     4  10  21  38  63  88 119 155 204 250 297 352
#     4  10  22  38  57  88 121 164 188 240 312 368
#
# _framework density 19.398412
#
# number of rings (size 3 to 8) (size 9 to 14) (size 15 to 20)
#    0.000    1.667    1.667    5.000    0.000    2.000 
#    0.000    0.833    0.000    0.000    0.000    0.000 
#    0.000    0.000    0.000    0.000    0.000    0.000 
#
# Total GULP energy -297532.664563 kJ/mol
# GULP energy per Si atom -12397.194357 kJ/mol
# Density = 1.935426 g / cm^3
# Si number density = 19.398412 Si / 1000 Ang^3
#
#
#
# Elastic Constant Matrix: (Units=GPa)
#
#
# Indices 1 2 3 4 5 6 
#
# 1 102.1494 53.2552 40.0235 0.0000 4.4105 0.0000
# 2 53.2552 115.4801 68.9357 0.0000 0.5403 0.0000
# 3 40.0235 68.9357 116.7975 0.0000 -5.0618 0.0000
# 4 0.0000 0.0000 0.0000 40.1286 0.0000 -0.3435
# 5 4.4105 0.5403 -5.0618 0.0000 30.6371 0.0000
# 6 0.0000 0.0000 0.0000 -0.3435 0.0000 20.3939
#
#
#
# Elastic Compliance Matrix: (Units=1/GPa)
#
#
# Indices 1 2 3 4 5 6 
#
# 1 0.013167 -0.005119 -0.001580 0.000000 -0.002066 0.000000
# 2 -0.005119 0.015434 -0.007388 0.000000 -0.000756 0.000000
# 3 -0.001580 -0.007388 0.013576 0.000000 0.002601 0.000000
# 4 0.000000 0.000000 0.000000 0.024923 0.000000 0.000420
# 5 -0.002066 -0.000756 0.002601 0.000000 0.033381 0.000000
# 6 0.000000 0.000000 0.000000 0.000420 0.000000 0.049041
#
#
# Mechanical properties :
#
#
# Convention : Reuss Voigt Hill
#
# Bulk Modulus (GPa) = 71.41363 73.20619 72.30991
# Shear Modulus (GPa) = 27.41759 29.71275 28.56517
#
# Velocity S-wave (km/s) = 3.76359 3.91795 3.84155
# Velocity P-wave (km/s) = 7.46862 7.63461 7.55207
#
# Compressibility (1/GPa) = 0.01400293
#
# Stress axis : x y z
#
# Youngs Moduli (GPa) = 75.94898 64.79188 73.65681
#
# Poissons Ratio (x) = 0.33168 0.11638
# Poissons Ratio (y) = 0.38879 0.54417
# Poissons Ratio (z) = 0.12000 0.47868
#
# Static dielectric constant tensor:
#      x y z
#    x 3.790700 0.000000 0.081950 
#    y 0.000000 3.522900 0.000000 
#    z 0.081950 0.000000 4.034930 
# 
# 
# High freq. dielectric constant tensor:
#      x y z
#    x 1.757860 0.000000 0.003430 
#    y 0.000000 1.730460 0.000000 
#    z 0.003430 0.000000 1.777160 
# 
# From -- ./inp_files/71243.got.cif
#   From: 2010.06.25/outbox.cif.g09.slc.cpg/sg13_36_cif.got.tgz:71243.got - 2010.06.28 04:50:58.
