data_PCOD8119148
_publ_section_title
;
Structure prediction by ZEFSAII (Michael W. Deem and Ramdas Pophale) SiO2 
 PCOD8119148
Probable space group: P 2/C
;
_chemical_formula_sum "Si O2"
_cell_formula_units_Z 32
_cell_length_a 13.223634
_cell_length_b 9.915882
_cell_length_c 14.207957
_cell_angle_alpha 90.000000
_cell_angle_beta 57.021911
_cell_angle_gamma 90.000000
_cell_volume 1562.834597
_symmetry_space_group_name_H-M "P 2/C"
_symmetry_group_IT_number 13
_symmetry_cell_setting 'monoclinic'
loop_
_space_group_symop_operation_xyz
x,y,z
-x,y,1/2-z
-x,-y,-z
x,-y,1/2+z
loop_
_atom_site_type_symbol
_atom_site_label
_atom_site_fract_x
_atom_site_fract_y
_atom_site_fract_z
Si Si1 0.331822 0.006499 0.171721
Si Si2 0.861179 0.221088 0.461912
Si Si3 0.237768 0.683691 0.023255
Si Si4 0.872995 0.039316 0.852261
Si Si5 0.921826 0.377475 0.074087
Si Si6 0.632324 0.109621 0.653352
Si Si7 0.565619 0.133605 0.049820
Si Si8 0.133298 0.448966 0.193042
O O1 0.420270 0.137772 0.134284
O O2 0.204858 0.040447 0.187613
O O3 0.302916 0.955970 0.290001
O O4 0.402879 0.891196 0.076004
O O5 0.725983 0.228837 0.575717
O O6 0.858714 0.311519 0.369772
O O7 0.976137 0.262088 0.467237
O O8 0.887217 0.064159 0.430232
O O9 0.188248 0.822368 0.089340
O O10 0.223827 0.561228 0.104731
O O11 0.178305 0.655117 0.952974
O O12 0.380161 0.722738 0.940935
O O13 0.000000 0.083905 0.750000
O O14 0.846870 0.413054 0.207111
O O15 0.000000 0.500000 0.000000
O O16 0.500000 0.167472 0.750000
O O17 0.619551 0.995476 0.579732
O O18 0.000000 0.512212 0.250000
#
# Coordination Sequence:
#
# PCOD8119148 Si02
#       8
#     4   4   4   4   4   4   4   4
#     4   9  19  36  60  85 129 164 200 255 332 373
#     4  11  22  40  58  93 129 166 208 262 329 382
#     4  11  21  39  63  92 130 162 225 258 308 391
#     4  11  23  36  60  97 131 157 209 276 315 377
#     4  11  23  38  63  90 131 181 211 252 326 391
#     4  10  20  37  61  91 124 168 209 258 320 390
#     4   9  19  38  58  91 118 165 211 260 309 381
#     4  10  21  40  60  85 134 177 208 253 326 393
#
# _framework density 20.475615000000001
#
# number of rings (size 3 to 8) (size 9 to 14) (size 15 to 20)
#    0.000    1.750    5.000    1.500    1.750    3.500 
#    0.000    0.000    0.000    3.000    0.000    0.000 
#    0.000    0.000    0.000    0.000    0.000    0.000 
#
# Total GULP energy -396448.092546 kJ/mol
# GULP energy per Si atom -12389.002892 kJ/mol
# Density = 2.042901 g / cm^3
# Si number density = 20.475615 Si / 1000 Ang^3
#
#
#
# Elastic Constant Matrix: (Units=GPa)
#
#
# Indices 1 2 3 4 5 6 
#
# 1 101.7072 20.0929 35.5258 0.0000 4.2792 0.0000
# 2 20.0929 61.3046 19.7469 0.0000 -5.0761 0.0000
# 3 35.5258 19.7469 95.2546 0.0000 5.7227 0.0000
# 4 0.0000 0.0000 0.0000 28.0309 0.0000 -7.9998
# 5 4.2792 -5.0761 5.7227 0.0000 20.8782 0.0000
# 6 0.0000 0.0000 0.0000 -7.9998 0.0000 33.4542
#
#
#
# Elastic Compliance Matrix: (Units=1/GPa)
#
#
# Indices 1 2 3 4 5 6 
#
# 1 0.011765 -0.002847 -0.003672 0.000000 -0.002097 0.000000
# 2 -0.002847 0.018772 -0.003191 0.000000 0.006022 0.000000
# 3 -0.003672 -0.003191 0.012740 0.000000 -0.003516 0.000000
# 4 0.000000 0.000000 0.000000 0.038288 0.000000 0.009156
# 5 -0.002097 0.006022 -0.003516 0.000000 0.050754 0.000000
# 6 0.000000 0.000000 0.000000 0.009156 0.000000 0.032081
#
#
# Mechanical properties :
#
#
# Convention : Reuss Voigt Hill
#
# Bulk Modulus (GPa) = 41.91658 45.44418 43.68038
# Shear Modulus (GPa) = 26.07239 28.66607 27.36923
#
# Velocity S-wave (km/s) = 3.57226 3.74573 3.66002
# Velocity P-wave (km/s) = 6.12622 6.39920 6.26420
#
# Compressibility (1/GPa) = 0.02385691
#
# Stress axis : x y z
#
# Youngs Moduli (GPa) = 84.99519 53.27139 78.49044
#
# Poissons Ratio (x) = 0.15167 0.28820
# Poissons Ratio (y) = 0.24199 0.25050
# Poissons Ratio (z) = 0.31208 0.17001
#
# Static dielectric constant tensor:
#      x y z
#    x 4.508550 0.000000 -0.195410 
#    y 0.000000 3.548420 0.000000 
#    z -0.195410 0.000000 3.964790 
# 
# 
# High freq. dielectric constant tensor:
#      x y z
#    x 1.804100 0.000000 0.003710 
#    y 0.000000 1.764930 0.000000 
#    z 0.003710 0.000000 1.808340 
# 
# From -- ./inp_files/53041.got.cif
#   From: 2010.06.25/outbox.cif.g09.slc.cpg/sg13_27_cif.got.tgz:53041.got - 2010.06.28 04:50:58.
