data_PCOD8119895
_publ_section_title
;
Structure prediction by ZEFSAII (Michael W. Deem and Ramdas Pophale) SiO2 
 PCOD8119895
Probable space group: P 2/C
;
_chemical_formula_sum "Si O2"
_cell_formula_units_Z 26
_cell_length_a 15.053633
_cell_length_b 11.219349
_cell_length_c 9.960736
_cell_angle_alpha 90.000000
_cell_angle_beta 125.160081
_cell_angle_gamma 90.000000
_cell_volume 1375.348552
_symmetry_space_group_name_H-M "P 2/C"
_symmetry_group_IT_number 13
_symmetry_cell_setting 'monoclinic'
loop_
_space_group_symop_operation_xyz
x,y,z
-x,y,1/2-z
-x,-y,-z
x,-y,1/2+z
loop_
_atom_site_type_symbol
_atom_site_label
_atom_site_fract_x
_atom_site_fract_y
_atom_site_fract_z
Si Si1 0.380064 0.853531 0.915591
Si Si2 0.220533 0.487540 0.018381
Si Si3 0.627131 0.868416 0.117864
Si Si4 0.624817 0.278324 0.356627
Si Si5 0.903559 0.448975 0.332808
Si Si6 0.767469 0.770905 0.471550
Si Si7 0.000000 0.247574 0.250000
O O1 0.339588 0.774136 0.755803
O O2 0.305578 0.825386 0.976226
O O3 0.364770 0.990490 0.864461
O O4 0.506629 0.827173 0.060091
O O5 0.318782 0.403694 0.058148
O O6 0.194475 0.442970 0.146182
O O7 0.125522 0.470637 0.823484
O O8 0.245640 0.627977 0.035271
O O9 0.721465 0.813388 0.290453
O O10 0.650878 0.823609 0.988214
O O11 0.500000 0.311684 0.250000
O O12 0.942594 0.320132 0.319569
O O13 0.000000 0.500000 0.500000
O O14 0.893971 0.819084 0.594494
#
# Coordination Sequence:
#
# PCOD8119895 Si02
#       7
#     4   4   4   4   4   4   2
#     4  10  21  39  60  83 110 147 195 244 272 326
#     4  11  22  34  56  84 119 146 182 229 286 338
#     4  10  21  38  62  83 106 150 201 231 275 337
#     4  10  21  35  53  85 120 145 177 232 293 337
#     4  11  18  35  53  78 109 148 192 224 255 327
#     4  11  21  37  58  84 114 150 185 233 287 337
#     4  10  22  34  56  84 118 150 188 232 280 328
#
# _framework density 18.904299000000002
#
# number of rings (size 3 to 8) (size 9 to 14) (size 15 to 20)
#    0.000    1.538    3.077    4.154    0.000    3.692 
#    0.000    4.615    0.000    0.000    0.000    0.000 
#    0.000    0.000    0.000    0.000    0.000    0.000 
#
# Total GULP energy -322174.723831 kJ/mol
# GULP energy per Si atom -12391.335532 kJ/mol
# Density = 1.886127 g / cm^3
# Si number density = 18.904299 Si / 1000 Ang^3
#
#
#
# Elastic Constant Matrix: (Units=GPa)
#
#
# Indices 1 2 3 4 5 6 
#
# 1 73.9861 16.4011 30.1354 0.0000 1.1240 0.0000
# 2 16.4011 63.5757 28.4186 0.0000 18.5876 0.0000
# 3 30.1354 28.4186 123.1387 0.0000 15.7310 0.0000
# 4 0.0000 0.0000 0.0000 23.0932 0.0000 -1.1190
# 5 1.1240 18.5876 15.7310 0.0000 35.0557 0.0000
# 6 0.0000 0.0000 0.0000 -1.1190 0.0000 25.2845
#
#
#
# Elastic Compliance Matrix: (Units=1/GPa)
#
#
# Indices 1 2 3 4 5 6 
#
# 1 0.015597 -0.003315 -0.003408 0.000000 0.002787 0.000000
# 2 -0.003315 0.020606 -0.002718 0.000000 -0.009600 0.000000
# 3 -0.003408 -0.002718 0.009955 0.000000 -0.002917 0.000000
# 4 0.000000 0.000000 0.000000 0.043396 0.000000 0.001920
# 5 0.002787 -0.009600 -0.002917 0.000000 0.034836 0.000000
# 6 0.000000 0.000000 0.000000 0.001920 0.000000 0.039635
#
#
# Mechanical properties :
#
#
# Convention : Reuss Voigt Hill
#
# Bulk Modulus (GPa) = 36.66236 45.62340 41.14288
# Shear Modulus (GPa) = 26.04196 29.06971 27.55584
#
# Velocity S-wave (km/s) = 3.71559 3.92564 3.82206
# Velocity P-wave (km/s) = 6.15168 6.68834 6.42562
#
# Compressibility (1/GPa) = 0.02727593
#
# Stress axis : x y z
#
# Youngs Moduli (GPa) = 64.11623 48.52916 100.45409
#
# Poissons Ratio (x) = 0.16088 0.34234
# Poissons Ratio (y) = 0.21255 0.27302
# Poissons Ratio (z) = 0.21850 0.13190
#
# Static dielectric constant tensor:
#      x y z
#    x 3.695980 0.000000 0.124550 
#    y 0.000000 3.236910 0.000000 
#    z 0.124550 0.000000 3.573330 
# 
# 
# High freq. dielectric constant tensor:
#      x y z
#    x 1.735700 0.000000 -0.002700 
#    y 0.000000 1.710460 0.000000 
#    z -0.002700 0.000000 1.755430 
# 
# From -- ./inp_files/18884.got.cif
#   From: 2010.06.25/outbox.cif.g09.slc.cpg/sg13_10_cif.got.tgz:18884.got - 2010.06.28 04:50:58.
