data_PCOD8119000
_publ_section_title
;
Structure prediction by ZEFSAII (Michael W. Deem and Ramdas Pophale) SiO2 
 PCOD8119000
Probable space group: P 2/C
;
_chemical_formula_sum "Si O2"
_cell_formula_units_Z 20
_cell_length_a 6.185344
_cell_length_b 10.473811
_cell_length_c 15.419361
_cell_angle_alpha 90.000000
_cell_angle_beta 51.289124
_cell_angle_gamma 90.000000
_cell_volume 779.476615
_symmetry_space_group_name_H-M "P 2/C"
_symmetry_group_IT_number 13
_symmetry_cell_setting 'monoclinic'
loop_
_space_group_symop_operation_xyz
x,y,z
-x,y,1/2-z
-x,-y,-z
x,-y,1/2+z
loop_
_atom_site_type_symbol
_atom_site_label
_atom_site_fract_x
_atom_site_fract_y
_atom_site_fract_z
Si Si1 0.000000 0.548962 0.250000
Si Si2 0.000000 0.069640 0.250000
Si Si3 0.571608 0.461441 0.078060
Si Si4 0.805246 0.052298 0.633643
Si Si5 0.567600 0.187915 0.133267
Si Si6 0.197704 0.669330 0.365060
O O1 0.727518 0.463834 0.299368
O O2 0.025253 0.633034 0.154973
O O3 0.271552 0.156164 0.165707
O O4 0.997179 0.980766 0.335569
O O5 0.695212 0.316999 0.056741
O O6 0.792205 0.561549 0.062718
O O7 0.500000 0.500000 0.000000
O O8 0.500000 0.051307 0.750000
O O9 0.880710 0.191493 0.575843
O O10 0.787969 0.933608 0.567104
O O11 0.500000 0.218203 0.250000
O O12 0.500000 0.682748 0.250000
#
# Coordination Sequence:
#
# PCOD8119000 Si02
#       6
#     2   2   4   4   4   4
#     4  10  20  36  62  80 106 146 182 226 276 322
#     4   8  14  26  52  80 100 132 182 220 266 322
#     4  11  23  37  55  82 114 146 184 226 268 323
#     4   8  15  28  51  79 106 136 176 223 267 320
#     4   9  17  31  52  76 105 140 178 222 269 318
#     4   9  18  34  55  82 110 141 182 225 274 326
#
# _framework density 25.658244
#
# number of rings (size 3 to 8) (size 9 to 14) (size 15 to 20)
#    0.000    3.200    0.000    3.000    0.000    4.000 
#    0.000    1.000    0.000    2.400    0.000    0.000 
#    0.000    0.000    0.000    0.000    0.000    0.000 
#
# Total GULP energy -247846.049245 kJ/mol
# GULP energy per Si atom -12392.302462 kJ/mol
# Density = 2.559984 g / cm^3
# Si number density = 25.658244 Si / 1000 Ang^3
#
#
#
# Elastic Constant Matrix: (Units=GPa)
#
#
# Indices 1 2 3 4 5 6 
#
# 1 125.7442 101.4482 30.4139 0.0000 37.4321 0.0000
# 2 101.4482 279.8147 63.1700 0.0000 17.8906 0.0000
# 3 30.4139 63.1700 50.3393 0.0000 29.7978 0.0000
# 4 0.0000 0.0000 0.000029408.2098 0.0000 5854.8267
# 5 37.4321 17.8906 29.7978 0.0000 45.4582 0.0000
# 6 0.0000 0.0000 0.0000 5854.8267 0.0000 1175.8727
#
#
#
# Elastic Compliance Matrix: (Units=1/GPa)
#
#
# Indices 1 2 3 4 5 6 
#
# 1 0.016089 -0.006621 0.007987 0.000000 -0.015878 0.000000
# 2 -0.006621 0.008076 -0.012223 0.000000 0.010286 0.000000
# 3 0.007987 -0.012223 0.051347 0.000000 -0.035424 0.000000
# 4 0.000000 0.000000 0.000000 0.003902 0.000000 -0.019431
# 5 -0.015878 0.010286 -0.035424 0.000000 0.054245 0.000000
# 6 0.000000 0.000000 0.000000 -0.019431 0.000000 0.097599
#
#
# Mechanical properties :
#
#
# Convention : Reuss Voigt Hill
#
# Bulk Modulus (GPa) = 18.58793 93.99583 56.29188
# Shear Modulus (GPa) = 18.45659 6143.29921 3080.87790
#
# Velocity S-wave (km/s) = 2.68493 48.98445 34.68923
# Velocity P-wave (km/s) = 4.10755 56.88599 40.32919
#
# Compressibility (1/GPa) = 0.05379834
#
# Stress axis : x y z
#
# Youngs Moduli (GPa) = 62.15261 123.82297 19.47549
#
# Poissons Ratio (x) = 0.81986 -0.15555
# Poissons Ratio (y) = 0.41152 0.23804
# Poissons Ratio (z) = -0.49641 1.51344
#
# Static dielectric constant tensor:
#      x y z
#    x 4.454530 0.000000 -1.934880 
#    y 0.000000 5.734270 0.000000 
#    z -1.934880 0.000000 0.804770 
# 
# 
# High freq. dielectric constant tensor:
#      x y z
#    x 2.047080 0.000000 -0.025560 
#    y 0.000000 2.037040 0.000000 
#    z -0.025560 0.000000 2.023790 
# 
# From -- ./inp_files/43627.got.cif
#   From: 2010.06.25/outbox.cif.g09.slc.cpg/sg13_22_cif.got.tgz:43627.got - 2010.06.28 04:50:58.
