data_PCOD8119804
_publ_section_title
;
Structure prediction by ZEFSAII (Michael W. Deem and Ramdas Pophale) SiO2 
 PCOD8119804
Probable space group: P 2/C
;
_chemical_formula_sum "Si O2"
_cell_formula_units_Z 28
_cell_length_a 8.919999
_cell_length_b 13.417546
_cell_length_c 19.789237
_cell_angle_alpha 90.000000
_cell_angle_beta 150.850039
_cell_angle_gamma 90.000000
_cell_volume 1153.672397
_symmetry_space_group_name_H-M "P 2/C"
_symmetry_group_IT_number 13
_symmetry_cell_setting 'monoclinic'
loop_
_space_group_symop_operation_xyz
x,y,z
-x,y,1/2-z
-x,-y,-z
x,-y,1/2+z
loop_
_atom_site_type_symbol
_atom_site_label
_atom_site_fract_x
_atom_site_fract_y
_atom_site_fract_z
Si Si1 0.971950 0.741036 0.485674
Si Si2 0.578587 0.758821 0.140832
Si Si3 0.624175 0.892305 0.926500
Si Si4 0.656846 0.279804 0.094260
Si Si5 0.896764 0.964955 0.281270
Si Si6 0.846647 0.447193 0.377939
Si Si7 0.047992 0.382173 0.879668
O O1 0.627990 0.768547 0.373074
O O2 0.173482 0.840992 0.553285
O O3 0.107139 0.672217 0.600527
O O4 0.963395 0.678626 0.413940
O O5 0.797559 0.853187 0.226007
O O6 0.808186 0.662708 0.230478
O O7 0.355616 0.756362 0.988108
O O8 0.443295 0.809236 0.896862
O O9 0.375791 0.966746 0.795419
O O10 0.831019 0.961068 0.057119
O O11 0.000000 0.315832 0.250000
O O12 0.408750 0.369309 0.004819
O O13 0.000000 0.013102 0.250000
O O14 0.500000 0.477135 0.250000
O O15 0.000000 0.500000 0.500000
O O16 0.984027 0.498841 0.363928
#
# Coordination Sequence:
#
# PCOD8119804 Si02
#       7
#     4   4   4   4   4   4   4
#     4  10  23  41  67 104 138 181 229 300 361 423
#     4  12  22  41  71 102 143 193 236 290 360 424
#     4  11  25  43  68 100 142 185 251 288 358 425
#     4  11  24  42  67 103 145 190 240 298 352 421
#     4  12  23  42  70 102 140 194 241 293 353 430
#     4  10  21  41  70 101 137 179 232 289 359 426
#     4  10  20  42  71 101 135 186 241 287 355 438
#
# _framework density 24.270320000000002
#
# number of rings (size 3 to 8) (size 9 to 14) (size 15 to 20)
#    0.000    1.143    4.286    3.429    2.000    4.000 
#    0.000    0.714    0.000    4.286    0.000    0.000 
#    0.000    0.000    0.000    0.000    0.000    0.000 
#
# Total GULP energy -347109.232479 kJ/mol
# GULP energy per Si atom -12396.758303 kJ/mol
# Density = 2.421508 g / cm^3
# Si number density = 24.270320 Si / 1000 Ang^3
#
#
#
# Elastic Constant Matrix: (Units=GPa)
#
#
# Indices 1 2 3 4 5 6 
#
# 1 79.7451 13.8732 26.7743 0.0000 28.5420 0.0000
# 2 13.8732 81.6617 28.3738 0.0000 9.1632 0.0000
# 3 26.7743 28.3738 137.7054 0.0000 30.6725 0.0000
# 4 0.0000 0.0000 0.0000 16.5682 0.0000 -0.4916
# 5 28.5420 9.1632 30.6725 0.0000 34.4153 0.0000
# 6 0.0000 0.0000 0.0000 -0.4916 0.0000 30.8930
#
#
#
# Elastic Compliance Matrix: (Units=1/GPa)
#
#
# Indices 1 2 3 4 5 6 
#
# 1 0.017993 -0.001436 0.000045 0.000000 -0.014580 0.000000
# 2 -0.001436 0.013356 -0.002428 0.000000 -0.000201 0.000000
# 3 0.000045 -0.002428 0.009505 0.000000 -0.007862 0.000000
# 4 0.000000 0.000000 0.000000 0.060385 0.000000 0.000961
# 5 -0.014580 -0.000201 -0.007862 0.000000 0.048209 0.000000
# 6 0.000000 0.000000 0.000000 0.000961 0.000000 0.032385
#
#
# Mechanical properties :
#
#
# Convention : Reuss Voigt Hill
#
# Bulk Modulus (GPa) = 30.10675 48.57275 39.33975
# Shear Modulus (GPa) = 24.93233 31.71471 28.32352
#
# Velocity S-wave (km/s) = 3.20859 3.61879 3.41985
# Velocity P-wave (km/s) = 5.11453 6.12516 5.64252
#
# Compressibility (1/GPa) = 0.03321515
#
# Stress axis : x y z
#
# Youngs Moduli (GPa) = 55.57651 74.87379 105.21312
#
# Poissons Ratio (x) = 0.10755 -0.00475
# Poissons Ratio (y) = 0.07983 0.25545
# Poissons Ratio (z) = -0.00251 0.18179
#
# Static dielectric constant tensor:
#      x y z
#    x 4.715000 0.000000 -0.082530 
#    y 0.000000 5.276280 0.000000 
#    z -0.082530 0.000000 4.471940 
# 
# 
# High freq. dielectric constant tensor:
#      x y z
#    x 1.957410 0.000000 0.014050 
#    y 0.000000 1.949640 0.000000 
#    z 0.014050 0.000000 1.968420 
# 
# From -- ./inp_files/76764.got.cif
#   From: 2010.06.25/outbox.cif.g09.slc.cpg/sg13_39_cif.got.tgz:76764.got - 2010.06.28 04:50:58.
