data_PCOD8119049
_publ_section_title
;
Structure prediction by ZEFSAII (Michael W. Deem and Ramdas Pophale) SiO2 
 PCOD8119049
Probable space group: P 2/C
;
_chemical_formula_sum "Si O2"
_cell_formula_units_Z 28
_cell_length_a 10.978101
_cell_length_b 9.170964
_cell_length_c 14.982984
_cell_angle_alpha 90.000000
_cell_angle_beta 116.567464
_cell_angle_gamma 90.000000
_cell_volume 1349.200132
_symmetry_space_group_name_H-M "P 2/C"
_symmetry_group_IT_number 13
_symmetry_cell_setting 'monoclinic'
loop_
_space_group_symop_operation_xyz
x,y,z
-x,y,1/2-z
-x,-y,-z
x,-y,1/2+z
loop_
_atom_site_type_symbol
_atom_site_label
_atom_site_fract_x
_atom_site_fract_y
_atom_site_fract_z
Si Si1 0.136026 0.708718 0.127973
Si Si2 0.811705 0.225109 0.056873
Si Si3 0.651214 0.495620 0.271807
Si Si4 0.929343 0.065950 0.561981
Si Si5 0.932956 0.513612 0.135613
Si Si6 0.277582 0.683456 0.532898
Si Si7 0.562891 0.359042 0.068145
O O1 0.269393 0.647980 0.222552
O O2 0.050076 0.838729 0.149977
O O3 0.031532 0.570866 0.088675
O O4 0.186255 0.760253 0.048533
O O5 0.919010 0.339192 0.133491
O O6 0.656567 0.256024 0.037148
O O7 0.863931 0.062505 0.101465
O O8 0.500000 0.539555 0.250000
O O9 0.724239 0.405056 0.374527
O O10 0.656142 0.402111 0.183270
O O11 0.809595 0.170311 0.487342
O O12 0.000000 0.000000 0.500000
O O13 0.000000 0.568631 0.250000
O O14 0.782307 0.579467 0.065993
O O15 0.431568 0.731717 0.558896
O O16 0.500000 0.500000 0.000000
#
# Coordination Sequence:
#
# PCOD8119049 Si02
#       7
#     4   4   4   4   4   4   4
#     4  10  20  37  60  87 120 157 201 249 303 357
#     4  11  20  38  57  92 122 163 199 251 302 366
#     4  10  20  36  65  95 115 157 208 258 305 358
#     4   9  22  37  61  84 124 162 201 243 302 374
#     4  11  21  35  62  91 119 156 209 257 304 355
#     4  10  21  40  62  91 121 163 202 255 310 360
#     4  11  21  37  64  96 124 150 211 263 301 360
#
# _framework density 20.753038
#
# number of rings (size 3 to 8) (size 9 to 14) (size 15 to 20)
#    0.000    1.714    2.857    2.143    4.000    0.571 
#    0.000    2.857    6.286   20.571    0.000    0.000 
#    0.000    0.000    0.000    0.000    0.000    0.000 
#
# Total GULP energy -346900.280598 kJ/mol
# GULP energy per Si atom -12389.295736 kJ/mol
# Density = 2.070580 g / cm^3
# Si number density = 20.753038 Si / 1000 Ang^3
#
#
#
# Elastic Constant Matrix: (Units=GPa)
#
#
# Indices 1 2 3 4 5 6 
#
# 1 130.5395 78.7929 31.5976 0.0000 12.7040 0.0000
# 2 78.7929 147.7811 44.0172 0.0000 18.4314 0.0000
# 3 31.5976 44.0172 100.7127 0.0000 10.3539 0.0000
# 4 0.0000 0.0000 0.0000 18.3462 0.0000 9.5857
# 5 12.7040 18.4314 10.3539 0.0000 23.9581 0.0000
# 6 0.0000 0.0000 0.0000 9.5857 0.0000 44.1229
#
#
#
# Elastic Compliance Matrix: (Units=1/GPa)
#
#
# Indices 1 2 3 4 5 6 
#
# 1 0.011429 -0.005637 -0.000989 0.000000 -0.001296 0.000000
# 2 -0.005637 0.011107 -0.002632 0.000000 -0.004419 0.000000
# 3 -0.000989 -0.002632 0.011645 0.000000 -0.002484 0.000000
# 4 0.000000 0.000000 0.000000 0.061487 0.000000 -0.013358
# 5 -0.001296 -0.004419 -0.002484 0.000000 0.046900 0.000000
# 6 0.000000 0.000000 0.000000 -0.013358 0.000000 0.025566
#
#
# Mechanical properties :
#
#
# Convention : Reuss Voigt Hill
#
# Bulk Modulus (GPa) = 63.83316 76.42763 70.13040
# Shear Modulus (GPa) = 26.05933 32.26048 29.15990
#
# Velocity S-wave (km/s) = 3.54741 3.94699 3.75252
# Velocity P-wave (km/s) = 6.89957 7.59465 7.25544
#
# Compressibility (1/GPa) = 0.01566584
#
# Stress axis : x y z
#
# Youngs Moduli (GPa) = 87.49996 90.03025 85.87445
#
# Poissons Ratio (x) = 0.50753 0.08489
# Poissons Ratio (y) = 0.49327 0.22599
# Poissons Ratio (z) = 0.08650 0.23693
#
# Static dielectric constant tensor:
#      x y z
#    x 4.165200 0.000000 0.161650 
#    y 0.000000 4.110470 0.000000 
#    z 0.161650 0.000000 3.661430 
# 
# 
# High freq. dielectric constant tensor:
#      x y z
#    x 1.837300 0.000000 0.006790 
#    y 0.000000 1.791130 0.000000 
#    z 0.006790 0.000000 1.788360 
# 
# From -- ./inp_files/50433.got.cif
#   From: 2010.06.25/outbox.cif.g09.slc.cpg/sg13_26_cif.got.tgz:50433.got - 2010.06.28 04:50:58.
