data_PCOD8119290
_publ_section_title
;
Structure prediction by ZEFSAII (Michael W. Deem and Ramdas Pophale) SiO2 
 PCOD8119290
Probable space group: P 2/C
;
_chemical_formula_sum "Si O2"
_cell_formula_units_Z 28
_cell_length_a 9.644293
_cell_length_b 15.085357
_cell_length_c 13.842184
_cell_angle_alpha 90.000000
_cell_angle_beta 42.795759
_cell_angle_gamma 90.000000
_cell_volume 1368.194479
_symmetry_space_group_name_H-M "P 2/C"
_symmetry_group_IT_number 13
_symmetry_cell_setting 'monoclinic'
loop_
_space_group_symop_operation_xyz
x,y,z
-x,y,1/2-z
-x,-y,-z
x,-y,1/2+z
loop_
_atom_site_type_symbol
_atom_site_label
_atom_site_fract_x
_atom_site_fract_y
_atom_site_fract_z
Si Si1 0.853308 0.609555 0.105466
Si Si2 0.234261 0.355575 0.643022
Si Si3 0.698881 0.446846 0.088885
Si Si4 0.168467 0.793483 0.470768
Si Si5 0.497969 0.184860 0.546176
Si Si6 0.150164 0.114861 0.257218
Si Si7 0.312895 0.950942 0.278065
O O1 0.757281 0.588764 0.260677
O O2 0.728407 0.553181 0.089099
O O3 0.825684 0.713739 0.106638
O O4 0.095432 0.593857 0.970812
O O5 0.318048 0.420096 0.515201
O O6 0.359101 0.264425 0.578439
O O7 0.000000 0.327536 0.750000
O O8 0.500000 0.413360 0.250000
O O9 0.363489 0.778030 0.438470
O O10 0.174011 0.885324 0.410920
O O11 0.960021 0.799610 0.638396
O O12 0.631982 0.148930 0.389531
O O13 0.374934 0.099991 0.648048
O O14 0.000000 0.078712 0.250000
O O15 0.182503 0.036410 0.316822
O O16 0.500000 0.981442 0.250000
#
# Coordination Sequence:
#
# PCOD8119290 Si02
#       7
#     4   4   4   4   4   4   4
#     4  10  22  44  63  91 127 164 207 256 313 380
#     4  10  22  42  62  93 125 161 211 253 319 379
#     4  10  24  41  65  94 127 157 206 267 311 374
#     4  10  21  39  64  87 122 171 210 250 312 378
#     4  10  21  38  62  88 123 166 208 258 305 379
#     4  10  22  39  57  92 130 162 215 265 313 367
#     4  10  20  38  60  90 123 171 215 258 314 376
#
# _framework density 20.464925999999998
#
# number of rings (size 3 to 8) (size 9 to 14) (size 15 to 20)
#    0.000    2.000    1.429    0.857    4.000    1.143 
#    5.143    5.000    0.000    0.000    0.000    0.000 
#    0.000    0.000    0.000    0.000    0.000    0.000 
#
# Total GULP energy -347118.849686 kJ/mol
# GULP energy per Si atom -12397.101774 kJ/mol
# Density = 2.041835 g / cm^3
# Si number density = 20.464926 Si / 1000 Ang^3
#
#
#
# Elastic Constant Matrix: (Units=GPa)
#
#
# Indices 1 2 3 4 5 6 
#
# 1 86.6430 63.4256 46.6326 0.0000 14.4511 0.0000
# 2 63.4256 100.4036 36.9981 0.0000 7.4071 0.0000
# 3 46.6326 36.9981 121.4251 0.0000 8.2099 0.0000
# 4 0.0000 0.0000 0.0000 6.9474 0.0000 4.1955
# 5 14.4511 7.4071 8.2099 0.0000 27.6378 0.0000
# 6 0.0000 0.0000 0.0000 4.1955 0.0000 39.6055
#
#
#
# Elastic Compliance Matrix: (Units=1/GPa)
#
#
# Indices 1 2 3 4 5 6 
#
# 1 0.025769 -0.013775 -0.005141 0.000000 -0.008255 0.000000
# 2 -0.013775 0.018696 -0.000566 0.000000 0.002360 0.000000
# 3 -0.005141 -0.000566 0.010399 0.000000 -0.000249 0.000000
# 4 0.000000 0.000000 0.000000 0.153777 0.000000 -0.016290
# 5 -0.008255 0.002360 -0.000249 0.000000 0.039940 0.000000
# 6 0.000000 0.000000 0.000000 -0.016290 0.000000 0.026975
#
#
# Mechanical properties :
#
#
# Convention : Reuss Voigt Hill
#
# Bulk Modulus (GPa) = 62.89252 66.95380 64.92316
# Shear Modulus (GPa) = 15.63370 25.59916 20.61643
#
# Velocity S-wave (km/s) = 2.76692 3.54061 3.17741
# Velocity P-wave (km/s) = 6.40362 7.03577 6.72712
#
# Compressibility (1/GPa) = 0.01590014
#
# Stress axis : x y z
#
# Youngs Moduli (GPa) = 38.80561 53.48692 96.16067
#
# Poissons Ratio (x) = 0.73680 0.49438
# Poissons Ratio (y) = 0.53456 0.05443
# Poissons Ratio (z) = 0.19951 0.03027
#
# Static dielectric constant tensor:
#      x y z
#    x 3.689720 0.000000 0.083190 
#    y 0.000000 3.454460 0.000000 
#    z 0.083190 0.000000 3.929380 
# 
# 
# High freq. dielectric constant tensor:
#      x y z
#    x 1.792630 0.000000 -0.000060 
#    y 0.000000 1.785730 0.000000 
#    z -0.000060 0.000000 1.818460 
# 
# From -- ./inp_files/47874.got.cif
#   From: 2010.06.25/outbox.cif.g09.slc.cpg/sg13_24_cif.got.tgz:47874.got - 2010.06.28 04:50:58.
