data_PCOD8119450
_publ_section_title
;
Structure prediction by ZEFSAII (Michael W. Deem and Ramdas Pophale) SiO2 
 PCOD8119450
Probable space group: P 2/C
;
_chemical_formula_sum "Si O2"
_cell_formula_units_Z 24
_cell_length_a 9.209941
_cell_length_b 10.778492
_cell_length_c 22.370716
_cell_angle_alpha 90.000000
_cell_angle_beta 28.182348
_cell_angle_gamma 90.000000
_cell_volume 1048.802173
_symmetry_space_group_name_H-M "P 2/C"
_symmetry_group_IT_number 13
_symmetry_cell_setting 'monoclinic'
loop_
_space_group_symop_operation_xyz
x,y,z
-x,y,1/2-z
-x,-y,-z
x,-y,1/2+z
loop_
_atom_site_type_symbol
_atom_site_label
_atom_site_fract_x
_atom_site_fract_y
_atom_site_fract_z
Si Si1 0.963856 0.357076 0.885651
Si Si2 0.500000 0.777023 0.250000
Si Si3 0.502237 0.969055 0.429738
Si Si4 0.515250 0.205085 0.132561
Si Si5 0.066907 0.836926 0.507754
Si Si6 0.173552 0.620686 0.838608
Si Si7 0.000000 0.766933 0.250000
O O1 0.297492 0.308937 0.781279
O O2 0.974467 0.505646 0.887369
O O3 0.892248 0.319496 0.843543
O O4 0.711069 0.299662 0.021078
O O5 0.295091 0.859621 0.369011
O O6 0.719057 0.855032 0.333030
O O7 0.164303 0.930627 0.526284
O O8 0.500000 0.000000 0.500000
O O9 0.628650 0.094527 0.353897
O O10 0.721422 0.138001 0.109340
O O11 0.237821 0.283312 0.261376
O O12 0.054721 0.692186 0.532850
O O13 0.500000 0.581475 0.750000
#
# Coordination Sequence:
#
# PCOD8119450 Si02
#       7
#     4   2   4   4   4   4   2
#     4  11  22  42  66  96 132 175 219 267 334 400
#     4  10  20  38  70  92 124 172 218 270 330 380
#     4  12  25  45  65  93 140 173 225 274 332 399
#     4  10  24  42  68 100 126 177 224 276 336 382
#     4  10  23  43  68 100 128 172 226 276 332 394
#     4  10  23  42  69 102 133 166 222 282 330 388
#     4  12  26  44  64  98 136 184 218 268 338 406
#
# _framework density 22.88325
#
# number of rings (size 3 to 8) (size 9 to 14) (size 15 to 20)
#    0.000    1.333    4.167    0.500    4.667    2.000 
#    7.500    1.667    0.000    0.000    0.000    0.000 
#    0.000    0.000    0.000    0.000    0.000    0.000 
#
# Total GULP energy -297537.775681 kJ/mol
# GULP energy per Si atom -12397.407320 kJ/mol
# Density = 2.283117 g / cm^3
# Si number density = 22.883250 Si / 1000 Ang^3
#
#
#
# Elastic Constant Matrix: (Units=GPa)
#
#
# Indices 1 2 3 4 5 6 
#
# 1 119.1932 62.2792 24.4705 0.0000 22.5079 0.0000
# 2 62.2792 137.1711 23.9387 0.0000 10.2071 0.0000
# 3 24.4705 23.9387 66.1291 0.0000 18.5797 0.0000
# 4 0.0000 0.0000 0.0000 20.5618 0.0000 5.2452
# 5 22.5079 10.2071 18.5797 0.0000 25.0409 0.0000
# 6 0.0000 0.0000 0.0000 5.2452 0.0000 48.3849
#
#
#
# Elastic Compliance Matrix: (Units=1/GPa)
#
#
# Indices 1 2 3 4 5 6 
#
# 1 0.012865 -0.005098 -0.000316 0.000000 -0.009251 0.000000
# 2 -0.005098 0.009839 -0.002319 0.000000 0.002292 0.000000
# 3 -0.000316 -0.002319 0.019877 0.000000 -0.013519 0.000000
# 4 0.000000 0.000000 0.000000 0.050017 0.000000 -0.005422
# 5 -0.009251 0.002292 -0.013519 0.000000 0.057346 0.000000
# 6 0.000000 0.000000 0.000000 -0.005422 0.000000 0.021255
#
#
# Mechanical properties :
#
#
# Convention : Reuss Voigt Hill
#
# Bulk Modulus (GPa) = 36.88041 60.43000 48.65520
# Shear Modulus (GPa) = 25.54888 32.91785 29.23336
#
# Velocity S-wave (km/s) = 3.34501 3.79689 3.57809
# Velocity P-wave (km/s) = 5.57410 6.75922 6.19507
#
# Compressibility (1/GPa) = 0.02711467
#
# Stress axis : x y z
#
# Youngs Moduli (GPa) = 77.72966 101.63876 50.31016
#
# Poissons Ratio (x) = 0.51811 0.01590
# Poissons Ratio (y) = 0.39623 0.11669
# Poissons Ratio (z) = 0.02457 0.23574
#
# Static dielectric constant tensor:
#      x y z
#    x 4.233040 0.000000 0.086960 
#    y 0.000000 4.048020 0.000000 
#    z 0.086960 0.000000 3.977120 
# 
# 
# High freq. dielectric constant tensor:
#      x y z
#    x 1.905430 0.000000 0.014000 
#    y 0.000000 1.902240 0.000000 
#    z 0.014000 0.000000 1.889420 
# 
# From -- ./inp_files/85193.got.cif
#   From: 2010.06.25/outbox.cif.g09.slc.cpg/sg13_43_cif.got.tgz:85193.got - 2010.06.28 04:50:58.
