data_PCOD8119347
_publ_section_title
;
Structure prediction by ZEFSAII (Michael W. Deem and Ramdas Pophale) SiO2 
 PCOD8119347
Probable space group: P 2/C
;
_chemical_formula_sum "Si O2"
_cell_formula_units_Z 32
_cell_length_a 18.397692
_cell_length_b 11.351864
_cell_length_c 15.111916
_cell_angle_alpha 90.000000
_cell_angle_beta 30.987066
_cell_angle_gamma 90.000000
_cell_volume 1624.898306
_symmetry_space_group_name_H-M "P 2/C"
_symmetry_group_IT_number 13
_symmetry_cell_setting 'monoclinic'
loop_
_space_group_symop_operation_xyz
x,y,z
-x,y,1/2-z
-x,-y,-z
x,-y,1/2+z
loop_
_atom_site_type_symbol
_atom_site_label
_atom_site_fract_x
_atom_site_fract_y
_atom_site_fract_z
Si Si1 0.758412 0.994350 0.882914
Si Si2 0.961494 0.219936 0.191374
Si Si3 0.514554 0.893234 0.050842
Si Si4 0.658284 0.804199 0.597420
Si Si5 0.774830 0.843329 0.199738
Si Si6 0.334753 0.362501 0.565231
Si Si7 0.859126 0.566908 0.679949
Si Si8 0.639474 0.301794 0.299984
O O1 0.861384 0.891884 0.804084
O O2 0.793854 0.047398 0.748241
O O3 0.600184 0.938411 0.046531
O O4 0.764765 0.095535 0.950838
O O5 0.893955 0.330197 0.212005
O O6 0.000000 0.261904 0.250000
O O7 0.090197 0.172852 0.000119
O O8 0.352709 0.857882 0.238443
O O9 0.602334 0.784560 0.918801
O O10 0.500000 0.000000 0.000000
O O11 0.500000 0.852259 0.750000
O O12 0.675753 0.684303 0.523633
O O13 0.692658 0.778264 0.663055
O O14 0.743215 0.726914 0.288361
O O15 0.250754 0.483861 0.654253
O O16 0.500344 0.377848 0.418669
O O17 0.772337 0.616274 0.686239
O O18 0.000000 0.500000 0.500000
#
# Coordination Sequence:
#
# PCOD8119347 Si02
#       8
#     4   4   4   4   4   4   4   4
#     4  10  20  38  62  89 127 161 195 248 306 373
#     4  12  26  41  55  87 127 163 203 256 308 361
#     4   9  17  33  64  91 116 157 195 248 301 368
#     4   9  19  37  65  99 122 149 202 259 304 361
#     4   9  19  39  62  87 120 161 206 238 309 369
#     4   9  19  39  66  90 118 156 202 261 300 356
#     4  12  24  42  65  83 122 169 211 253 303 364
#     4  10  20  38  66  95 117 154 213 248 303 371
#
# _framework density 19.693541
#
# number of rings (size 3 to 8) (size 9 to 14) (size 15 to 20)
#    0.000    2.000    2.500    3.000    0.000    4.000 
#    2.250    0.000    0.000    0.000    0.000    0.000 
#    0.000    0.000    0.000    0.000    0.000    0.000 
#
# Total GULP energy -396627.312808 kJ/mol
# GULP energy per Si atom -12394.603525 kJ/mol
# Density = 1.964872 g / cm^3
# Si number density = 19.693541 Si / 1000 Ang^3
#
#
#
# Elastic Constant Matrix: (Units=GPa)
#
#
# Indices 1 2 3 4 5 6 
#
# 1 93.8305 50.0735 42.8907 0.0000 -9.9941 0.0000
# 2 50.0735 105.6848 53.6766 0.0000 -12.9095 0.0000
# 3 42.8907 53.6766 80.3337 0.0000 -11.7159 0.0000
# 4 0.0000 0.0000 0.0000 31.6853 0.0000 -11.9253
# 5 -9.9941 -12.9095 -11.7159 0.0000 26.4037 0.0000
# 6 0.0000 0.0000 0.0000 -11.9253 0.0000 14.1184
#
#
#
# Elastic Compliance Matrix: (Units=1/GPa)
#
#
# Indices 1 2 3 4 5 6 
#
# 1 0.015584 -0.004678 -0.004991 0.000000 0.001397 0.000000
# 2 -0.004678 0.015945 -0.007781 0.000000 0.002573 0.000000
# 3 -0.004991 -0.007781 0.020829 0.000000 0.003549 0.000000
# 4 0.000000 0.000000 0.000000 0.046270 0.000000 0.039083
# 5 0.001397 0.002573 0.003549 0.000000 0.041235 0.000000
# 6 0.000000 0.000000 0.000000 0.039083 0.000000 0.103842
#
#
# Mechanical properties :
#
#
# Convention : Reuss Voigt Hill
#
# Bulk Modulus (GPa) = 57.27988 63.68117 60.48052
# Shear Modulus (GPa) = 17.57938 23.32204 20.45071
#
# Velocity S-wave (km/s) = 2.99096 3.44502 3.22599
# Velocity P-wave (km/s) = 6.40910 6.94482 6.68233
#
# Compressibility (1/GPa) = 0.01745814
#
# Stress axis : x y z
#
# Youngs Moduli (GPa) = 64.16689 62.71644 48.00937
#
# Poissons Ratio (x) = 0.29341 0.23961
# Poissons Ratio (y) = 0.30020 0.37355
# Poissons Ratio (z) = 0.32025 0.48799
#
# Static dielectric constant tensor:
#      x y z
#    x 3.524510 0.000000 -0.164600 
#    y 0.000000 3.570510 0.000000 
#    z -0.164600 0.000000 3.787410 
# 
# 
# High freq. dielectric constant tensor:
#      x y z
#    x 1.757530 0.000000 -0.010120 
#    y 0.000000 1.769310 0.000000 
#    z -0.010120 0.000000 1.763700 
# 
# From -- ./inp_files/55805.got.cif
#   From: 2010.06.25/outbox.cif.g09.slc.cpg/sg13_28_cif.got.tgz:55805.got - 2010.06.28 04:50:58.
