data_PCOD8119948
_publ_section_title
;
Structure prediction by ZEFSAII (Michael W. Deem and Ramdas Pophale) SiO2 
 PCOD8119948
Probable space group: P 2/C
;
_chemical_formula_sum "Si O2"
_cell_formula_units_Z 28
_cell_length_a 9.136019
_cell_length_b 31.113729
_cell_length_c 5.141143
_cell_angle_alpha 90.000000
_cell_angle_beta 114.583145
_cell_angle_gamma 90.000000
_cell_volume 1328.935452
_symmetry_space_group_name_H-M "P 2/C"
_symmetry_group_IT_number 13
_symmetry_cell_setting 'monoclinic'
loop_
_space_group_symop_operation_xyz
x,y,z
-x,y,1/2-z
-x,-y,-z
x,-y,1/2+z
loop_
_atom_site_type_symbol
_atom_site_label
_atom_site_fract_x
_atom_site_fract_y
_atom_site_fract_z
Si Si1 0.604709 0.700100 0.582819
Si Si2 0.811513 0.220346 0.113693
Si Si3 0.809026 0.831135 0.109314
Si Si4 0.073710 0.047655 0.557674
Si Si5 0.190287 0.524562 0.875275
Si Si6 0.393756 0.915129 0.420990
Si Si7 0.605461 0.395779 0.083983
O O1 0.500000 0.716169 0.750000
O O2 0.748710 0.732570 0.635175
O O3 0.673952 0.652243 0.690532
O O4 0.500000 0.698721 0.250000
O O5 0.752539 0.187137 0.290521
O O6 0.000000 0.225136 0.250000
O O7 0.754463 0.202587 0.792244
O O8 0.713463 0.874782 0.081526
O O9 0.000000 0.839411 0.250000
O O10 0.268173 0.047666 0.730632
O O11 0.000000 0.072706 0.750000
O O12 0.000000 0.000000 0.500000
O O13 0.000000 0.071973 0.250000
O O14 0.256257 0.492319 0.700475
O O15 0.245832 0.572544 0.850185
O O16 0.000000 0.525505 0.750000
O O17 0.500000 0.903769 0.250000
O O18 0.500000 0.930128 0.750000
O O19 0.500000 0.411521 0.250000
O O20 0.500000 0.396143 0.750000
#
# Coordination Sequence:
#
# PCOD8119948 Si02
#       7
#     4   4   4   4   4   4   4
#     4  10  21  36  55  79 112 148 184 233 287 337
#     4  10  21  37  58  85 113 152 201 238 276 342
#     4  10  22  39  59  84 120 160 195 233 289 356
#     4  10  22  44  68  89 120 168 205 234 296 365
#     4  10  21  36  54  78 107 138 177 229 286 338
#     4  12  25  40  63  98 128 154 201 259 300 343
#     4  10  21  36  54  79 107 142 186 226 278 345
#
# _framework density 21.069496000000001
#
# number of rings (size 3 to 8) (size 9 to 14) (size 15 to 20)
#    0.000    1.714    0.000    3.857    0.000    7.429 
#    0.000    8.571    0.000   10.286    0.000    0.000 
#    0.000    0.000    0.000    0.000    0.000    0.000 
#
# Total GULP energy -347080.703116 kJ/mol
# GULP energy per Si atom -12395.739397 kJ/mol
# Density = 2.102154 g / cm^3
# Si number density = 21.069496 Si / 1000 Ang^3
#
#
#
# Elastic Constant Matrix: (Units=GPa)
#
#
# Indices 1 2 3 4 5 6 
#
# 1 105.7869 57.6417 57.2325 0.0000 -26.7384 0.0000
# 2 57.6417 107.6983 22.9497 0.0000 1.8997 0.0000
# 3 57.2325 22.9497 135.7051 0.0000 -23.5360 0.0000
# 4 0.0000 0.0000 0.0000 22.3311 0.0000 7.9729
# 5 -26.7384 1.8997 -23.5360 0.0000 38.2392 0.0000
# 6 0.0000 0.0000 0.0000 7.9729 0.0000 34.0074
#
#
#
# Elastic Compliance Matrix: (Units=1/GPa)
#
#
# Indices 1 2 3 4 5 6 
#
# 1 0.020740 -0.010260 -0.004935 0.000000 0.011975 0.000000
# 2 -0.010260 0.014803 0.000506 0.000000 -0.007598 0.000000
# 3 -0.004935 0.000506 0.009809 0.000000 0.002561 0.000000
# 4 0.000000 0.000000 0.000000 0.048871 0.000000 -0.011458
# 5 0.011975 -0.007598 0.002561 0.000000 0.036478 0.000000
# 6 0.000000 0.000000 0.000000 -0.011458 0.000000 0.032092
#
#
# Mechanical properties :
#
#
# Convention : Reuss Voigt Hill
#
# Bulk Modulus (GPa) = 62.60380 69.42646 66.01513
# Shear Modulus (GPa) = 25.31704 33.00664 29.16184
#
# Velocity S-wave (km/s) = 3.47017 3.96227 3.72436
# Velocity P-wave (km/s) = 6.77005 7.34544 7.06361
#
# Compressibility (1/GPa) = 0.01597347
#
# Stress axis : x y z
#
# Youngs Moduli (GPa) = 48.21588 67.55523 101.94804
#
# Poissons Ratio (x) = 0.69311 0.50312
# Poissons Ratio (y) = 0.49469 -0.05158
# Poissons Ratio (z) = 0.23795 -0.03418
#
# Static dielectric constant tensor:
#      x y z
#    x 2.760060 0.000000 2.070150 
#    y 0.000000 3.979720 0.000000 
#    z 2.070150 0.000000 -0.585140 
# 
# 
# High freq. dielectric constant tensor:
#      x y z
#    x 1.830970 0.000000 -0.025370 
#    y 0.000000 1.819940 0.000000 
#    z -0.025370 0.000000 1.836800 
# 
# From -- ./inp_files/2747.got.cif
#   From: 2010.06.25/outbox.cif.g09.slc.cpg/sg13_2_cif.got.tgz:2747.got - 2010.06.28 04:50:58.
