data_PCOD8119542
_publ_section_title
;
Structure prediction by ZEFSAII (Michael W. Deem and Ramdas Pophale) SiO2 
 PCOD8119542
Probable space group: P 2/C
;
_chemical_formula_sum "Si O2"
_cell_formula_units_Z 24
_cell_length_a 8.920285
_cell_length_b 8.867134
_cell_length_c 30.334787
_cell_angle_alpha 90.000000
_cell_angle_beta 30.491612
_cell_angle_gamma 90.000000
_cell_volume 1217.485705
_symmetry_space_group_name_H-M "P 2/C"
_symmetry_group_IT_number 13
_symmetry_cell_setting 'monoclinic'
loop_
_space_group_symop_operation_xyz
x,y,z
-x,y,1/2-z
-x,-y,-z
x,-y,1/2+z
loop_
_atom_site_type_symbol
_atom_site_label
_atom_site_fract_x
_atom_site_fract_y
_atom_site_fract_z
Si Si1 0.846033 0.190000 0.164624
Si Si2 0.878020 0.365789 0.326411
Si Si3 0.790234 0.294956 0.840677
Si Si4 0.886847 0.334974 0.487581
Si Si5 0.806994 0.676842 0.500254
Si Si6 0.194964 0.094940 0.577573
O O1 0.500000 0.212459 0.250000
O O2 0.948328 0.296452 0.177504
O O3 0.021498 0.230507 0.075847
O O4 0.922402 0.016822 0.154624
O O5 0.932459 0.543732 0.315248
O O6 0.540912 0.323445 0.415311
O O7 0.000000 0.297893 0.250000
O O8 0.793754 0.202825 0.884050
O O9 0.000000 0.219037 0.750000
O O10 0.450751 0.310629 0.911105
O O11 0.938499 0.508520 0.458647
O O12 0.089269 0.280462 0.476945
O O13 0.893265 0.804466 0.442839
O O14 0.500000 0.000000 0.500000
#
# Coordination Sequence:
#
# PCOD8119542 Si02
#       6
#     4   4   4   4   4   4
#     4  12  25  40  61  93 128 165 210 259 319 384
#     4  10  20  39  65  93 122 163 212 267 312 374
#     4  10  22  41  66  91 123 165 214 256 316 371
#     4  10  21  41  65  95 120 161 214 269 307 367
#     4  10  21  39  67  90 123 164 211 259 321 373
#     4  12  23  42  60  90 130 175 203 255 322 387
#
# _framework density 19.712755999999999
#
# number of rings (size 3 to 8) (size 9 to 14) (size 15 to 20)
#    0.000    1.333    3.333    2.000    0.000    6.667 
#    3.000    1.667    0.000    0.000    0.000    0.000 
#    0.000    0.000    0.000    0.000    0.000    0.000 
#
# Total GULP energy -297549.964416 kJ/mol
# GULP energy per Si atom -12397.915184 kJ/mol
# Density = 1.966789 g / cm^3
# Si number density = 19.712756 Si / 1000 Ang^3
#
#
#
# Elastic Constant Matrix: (Units=GPa)
#
#
# Indices 1 2 3 4 5 6 
#
# 1 142.3808 47.2251 36.9979 0.0000 -5.7131 0.0000
# 2 47.2251 67.0186 21.0445 0.0000 -1.5819 0.0000
# 3 36.9979 21.0445 86.2099 0.0000 -2.7773 0.0000
# 4 0.0000 0.0000 0.0000 93.2893 0.0000 78.5138
# 5 -5.7131 -1.5819 -2.7773 0.0000 30.4763 0.0000
# 6 0.0000 0.0000 0.0000 78.5138 0.0000 130.0014
#
#
#
# Elastic Compliance Matrix: (Units=1/GPa)
#
#
# Indices 1 2 3 4 5 6 
#
# 1 0.009764 -0.006008 -0.002683 0.000000 0.001274 0.000000
# 2 -0.006008 0.019864 -0.002280 0.000000 -0.000303 0.000000
# 3 -0.002683 -0.002280 0.013327 0.000000 0.000593 0.000000
# 4 0.000000 0.000000 0.000000 0.021800 0.000000 -0.013166
# 5 0.001274 -0.000303 0.000593 0.000000 0.033090 0.000000
# 6 0.000000 0.000000 0.000000 -0.013166 0.000000 0.015644
#
#
# Mechanical properties :
#
#
# Convention : Reuss Voigt Hill
#
# Bulk Modulus (GPa) = 47.59057 56.23826 51.91442
# Shear Modulus (GPa) = 35.10376 63.44287 49.27331
#
# Velocity S-wave (km/s) = 4.22449 5.67922 5.00499
# Velocity P-wave (km/s) = 6.92744 8.46141 7.73256
#
# Compressibility (1/GPa) = 0.02101257
#
# Stress axis : x y z
#
# Youngs Moduli (GPa) = 102.41241 50.34311 75.03736
#
# Poissons Ratio (x) = 0.30246 0.20131
# Poissons Ratio (y) = 0.61530 0.17110
# Poissons Ratio (z) = 0.27476 0.11479
#
# Static dielectric constant tensor:
#      x y z
#    x 3.731010 0.000000 0.028040 
#    y 0.000000 3.803660 0.000000 
#    z 0.028040 0.000000 3.805730 
# 
# 
# High freq. dielectric constant tensor:
#      x y z
#    x 1.780580 0.000000 0.000820 
#    y 0.000000 1.770370 0.000000 
#    z 0.000820 0.000000 1.768150 
# 
# From -- ./inp_files/68059.got.cif
#   From: 2010.06.25/outbox.cif.g09.slc.cpg/sg13_35_cif.got.tgz:68059.got - 2010.06.28 04:50:58.
