data_PCOD8119513
_publ_section_title
;
Structure prediction by ZEFSAII (Michael W. Deem and Ramdas Pophale) SiO2 
 PCOD8119513
Probable space group: P 2/C
;
_chemical_formula_sum "Si O2"
_cell_formula_units_Z 20
_cell_length_a 5.356399
_cell_length_b 17.982077
_cell_length_c 9.338217
_cell_angle_alpha 90.000000
_cell_angle_beta 87.959482
_cell_angle_gamma 90.000000
_cell_volume 898.879054
_symmetry_space_group_name_H-M "P 2/C"
_symmetry_group_IT_number 13
_symmetry_cell_setting 'monoclinic'
loop_
_space_group_symop_operation_xyz
x,y,z
-x,y,1/2-z
-x,-y,-z
x,-y,1/2+z
loop_
_atom_site_type_symbol
_atom_site_label
_atom_site_fract_x
_atom_site_fract_y
_atom_site_fract_z
Si Si1 0.762141 0.607857 0.174792
Si Si2 0.503628 0.922172 0.578772
Si Si3 0.999447 0.160321 0.418915
Si Si4 0.996643 0.670398 0.920605
Si Si5 0.647083 0.453329 0.113653
O O1 0.500000 0.630730 0.250000
O O2 0.815445 0.519099 0.179019
O O3 0.000000 0.646258 0.250000
O O4 0.751538 0.639687 0.009298
O O5 0.500000 0.932901 0.750000
O O6 0.265382 0.874787 0.526224
O O7 0.761772 0.883432 0.524250
O O8 0.500000 0.000000 0.500000
O O9 0.000000 0.157759 0.250000
O O10 0.033733 0.244992 0.469232
O O11 0.211597 0.613555 0.970607
O O12 0.000000 0.661430 0.750000
O O13 0.500000 0.416635 0.250000
O O14 0.500000 0.500000 0.000000
#
# Coordination Sequence:
#
# PCOD8119513 Si02
#       5
#     4   4   4   4   4
#     4  11  24  42  59  84 124 164 201 256 317 360
#     4  10  20  39  63  90 122 157 194 241 298 365
#     4   9  21  37  61  93 124 154 196 253 307 354
#     4  11  22  39  64  91 121 164 216 262 309 374
#     4  11  22  37  61  90 120 161 215 264 311 365
#
# _framework density 22.249932999999999
#
# number of rings (size 3 to 8) (size 9 to 14) (size 15 to 20)
#    0.000    1.600    0.000    5.400    0.000    7.200 
#    0.000    3.000    0.000    1.200    0.000    0.000 
#    0.000    0.000    0.000    0.000    0.000    0.000 
#
# Total GULP energy -247778.085280 kJ/mol
# GULP energy per Si atom -12388.904264 kJ/mol
# Density = 2.219929 g / cm^3
# Si number density = 22.249933 Si / 1000 Ang^3
#
#
#
# Elastic Constant Matrix: (Units=GPa)
#
#
# Indices 1 2 3 4 5 6 
#
# 1 180.3658 86.0038 52.3471 0.0000 -16.4624 0.0000
# 2 86.0038 163.8524 39.9051 0.0000 -25.0739 0.0000
# 3 52.3471 39.9051 96.0410 0.0000 -21.6114 0.0000
# 4 0.0000 0.0000 0.0000 34.4450 0.0000 1.6765
# 5 -16.4624 -25.0739 -21.6114 0.0000 27.6882 0.0000
# 6 0.0000 0.0000 0.0000 1.6765 0.0000 15.4114
#
#
#
# Elastic Compliance Matrix: (Units=1/GPa)
#
#
# Indices 1 2 3 4 5 6 
#
# 1 0.008094 -0.003630 -0.003106 0.000000 -0.000899 0.000000
# 2 -0.003630 0.008985 -0.000497 0.000000 0.005591 0.000000
# 3 -0.003106 -0.000497 0.014308 0.000000 0.008871 0.000000
# 4 0.000000 0.000000 0.000000 0.029186 0.000000 -0.003175
# 5 -0.000899 0.005591 0.008871 0.000000 0.047569 0.000000
# 6 0.000000 0.000000 0.000000 -0.003175 0.000000 0.065233
#
#
# Mechanical properties :
#
#
# Convention : Reuss Voigt Hill
#
# Bulk Modulus (GPa) = 59.09467 88.53014 73.81240
# Shear Modulus (GPa) = 25.84243 32.97579 29.40911
#
# Velocity S-wave (km/s) = 3.41172 3.85393 3.63955
# Velocity P-wave (km/s) = 6.49129 7.72522 7.13498
#
# Compressibility (1/GPa) = 0.01692200
#
# Stress axis : x y z
#
# Youngs Moduli (GPa) = 123.54102 111.29966 69.89237
#
# Poissons Ratio (x) = 0.40399 0.21708
# Poissons Ratio (y) = 0.44842 0.03472
# Poissons Ratio (z) = 0.38371 0.05529
#
# Static dielectric constant tensor:
#      x y z
#    x 4.243400 0.000000 -0.475890 
#    y 0.000000 4.147150 0.000000 
#    z -0.475890 0.000000 3.118620 
# 
# 
# High freq. dielectric constant tensor:
#      x y z
#    x 1.884800 0.000000 -0.007340 
#    y 0.000000 1.860290 0.000000 
#    z -0.007340 0.000000 1.873380 
# 
# From -- ./inp_files/9445.got.cif
#   From: 2010.06.25/outbox.cif.g09.slc.cpg/sg13_5_cif.got.tgz:9445.got - 2010.06.28 04:50:58.
