data_PCOD8119472
_publ_section_title
;
Structure prediction by ZEFSAII (Michael W. Deem and Ramdas Pophale) SiO2 
 PCOD8119472
Probable space group: P 2/C
;
_chemical_formula_sum "Si O2"
_cell_formula_units_Z 24
_cell_length_a 11.513367
_cell_length_b 12.183532
_cell_length_c 16.861939
_cell_angle_alpha 90.000000
_cell_angle_beta 151.468017
_cell_angle_gamma 90.000000
_cell_volume 1129.775546
_symmetry_space_group_name_H-M "P 2/C"
_symmetry_group_IT_number 13
_symmetry_cell_setting 'monoclinic'
loop_
_space_group_symop_operation_xyz
x,y,z
-x,y,1/2-z
-x,-y,-z
x,-y,1/2+z
loop_
_atom_site_type_symbol
_atom_site_label
_atom_site_fract_x
_atom_site_fract_y
_atom_site_fract_z
Si Si1 0.975655 0.113690 0.533637
Si Si2 0.754097 0.947191 0.062677
Si Si3 0.765502 0.648192 0.561226
Si Si4 0.366493 0.513700 0.251641
Si Si5 0.555319 0.154077 0.590656
Si Si6 0.006971 0.327496 0.043705
O O1 0.224883 0.165785 0.715959
O O2 0.789249 0.096155 0.494410
O O3 0.884585 0.211164 0.421438
O O4 0.000000 0.000000 0.500000
O O5 0.650513 0.851594 0.057289
O O6 0.000000 0.992865 0.250000
O O7 0.565237 0.044531 0.948801
O O8 0.573233 0.548594 0.438702
O O9 0.634429 0.747737 0.526290
O O10 0.000000 0.606227 0.750000
O O11 0.843339 0.694254 0.522430
O O12 0.500000 0.486829 0.250000
O O13 0.236676 0.403574 0.204573
O O14 0.163737 0.609892 0.122721
#
# Coordination Sequence:
#
# PCOD8119472 Si02
#       6
#     4   4   4   4   4   4
#     4  11  22  37  61  96 126 167 218 259 310 390
#     4   9  20  36  58  87 132 168 204 256 320 380
#     4  11  22  38  67  93 120 166 218 265 320 387
#     4   9  20  42  66  89 122 166 207 267 327 369
#     4  10  20  39  59  87 132 168 206 261 321 385
#     4  10  21  40  66  91 126 164 211 264 320 374
#
# _framework density 21.243158000000001
#
# number of rings (size 3 to 8) (size 9 to 14) (size 15 to 20)
#    0.000    2.000    1.667    1.500    0.000    5.333 
#    6.000    0.000    3.667    0.000    0.000    0.000 
#    0.000    0.000    0.000    0.000    0.000    0.000 
#
# Total GULP energy -297562.497108 kJ/mol
# GULP energy per Si atom -12398.437379 kJ/mol
# Density = 2.119481 g / cm^3
# Si number density = 21.243158 Si / 1000 Ang^3
#
#
#
# Elastic Constant Matrix: (Units=GPa)
#
#
# Indices 1 2 3 4 5 6 
#
# 1 121.4387 52.8798 24.7627 0.0000 1.3478 0.0000
# 2 52.8798 113.4597 39.2963 0.0000 -8.2872 0.0000
# 3 24.7627 39.2963 108.8006 0.0000 -2.9060 0.0000
# 4 0.0000 0.0000 0.0000 201.3220 0.0000 37.6962
# 5 1.3478 -8.2872 -2.9060 0.0000 19.7477 0.0000
# 6 0.0000 0.0000 0.0000 37.6962 0.0000 32.6888
#
#
#
# Elastic Compliance Matrix: (Units=1/GPa)
#
#
# Indices 1 2 3 4 5 6 
#
# 1 0.010533 -0.004871 -0.000715 0.000000 -0.002868 0.000000
# 2 -0.004871 0.012604 -0.003307 0.000000 0.005135 0.000000
# 3 -0.000715 -0.003307 0.010554 0.000000 0.000214 0.000000
# 4 0.000000 0.000000 0.000000 0.006335 0.000000 -0.007306
# 5 -0.002868 0.005135 0.000214 0.000000 0.053021 0.000000
# 6 0.000000 0.000000 0.000000 -0.007306 0.000000 0.039016
#
#
# Mechanical properties :
#
#
# Convention : Reuss Voigt Hill
#
# Bulk Modulus (GPa) = 62.86691 64.17520 63.52106
# Shear Modulus (GPa) = 32.22672 65.86903 49.04788
#
# Velocity S-wave (km/s) = 3.89915 5.57445 4.81029
# Velocity P-wave (km/s) = 7.06607 8.46806 7.79863
#
# Compressibility (1/GPa) = 0.01590662
#
# Stress axis : x y z
#
# Youngs Moduli (GPa) = 94.93694 79.33783 94.75317
#
# Poissons Ratio (x) = 0.38647 0.06771
# Poissons Ratio (y) = 0.46246 0.31331
# Poissons Ratio (z) = 0.06784 0.26234
#
# Static dielectric constant tensor:
#      x y z
#    x 3.944530 0.000000 0.189180 
#    y 0.000000 3.590170 0.000000 
#    z 0.189180 0.000000 3.891040 
# 
# 
# High freq. dielectric constant tensor:
#      x y z
#    x 1.837290 0.000000 0.012410 
#    y 0.000000 1.818400 0.000000 
#    z 0.012410 0.000000 1.832540 
# 
# From -- ./inp_files/39211.got.cif
#   From: 2010.06.25/outbox.cif.g09.slc.cpg/sg13_20_cif.got.tgz:39211.got - 2010.06.28 04:50:58.
