data_PCOD8119582
_publ_section_title
;
Structure prediction by ZEFSAII (Michael W. Deem and Ramdas Pophale) SiO2 
 PCOD8119582
Probable space group: P 2/C
;
_chemical_formula_sum "Si O2"
_cell_formula_units_Z 24
_cell_length_a 14.395341
_cell_length_b 9.105877
_cell_length_c 9.822897
_cell_angle_alpha 90.000000
_cell_angle_beta 99.856584
_cell_angle_gamma 90.000000
_cell_volume 1268.601043
_symmetry_space_group_name_H-M "P 2/C"
_symmetry_group_IT_number 13
_symmetry_cell_setting 'monoclinic'
loop_
_space_group_symop_operation_xyz
x,y,z
-x,y,1/2-z
-x,-y,-z
x,-y,1/2+z
loop_
_atom_site_type_symbol
_atom_site_label
_atom_site_fract_x
_atom_site_fract_y
_atom_site_fract_z
Si Si1 0.226561 0.638495 0.536230
Si Si2 0.614898 0.875975 0.926161
Si Si3 0.599818 0.859943 0.611919
Si Si4 0.757661 0.356852 0.146229
Si Si5 0.075119 0.143278 0.379250
Si Si6 0.952566 0.187842 0.604524
O O1 0.312275 0.746787 0.520773
O O2 0.234857 0.493825 0.449827
O O3 0.225737 0.594036 0.694228
O O4 0.127257 0.710272 0.476440
O O5 0.619452 0.919644 0.768836
O O6 0.509927 0.824467 0.941099
O O7 0.640898 0.019779 0.018604
O O8 0.652811 0.706832 0.602307
O O9 0.828502 0.228223 0.120899
O O10 0.000000 0.199199 0.250000
O O11 0.037672 0.173870 0.520146
O O12 0.093179 0.969221 0.367657
O O13 0.000000 0.260078 0.750000
#
# Coordination Sequence:
#
# PCOD8119582 Si02
#       6
#     4   4   4   4   4   4
#     4  11  24  39  54  84 117 154 187 229 279 337
#     4   9  19  38  63  86 114 143 188 233 282 330
#     4   9  19  38  62  88 112 146 184 236 280 331
#     4  11  24  38  56  82 119 153 188 227 280 334
#     4  10  20  40  60  82 111 147 186 239 283 327
#     4  10  22  38  62  85 108 145 193 236 283 332
#
# _framework density 18.918475999999998
#
# number of rings (size 3 to 8) (size 9 to 14) (size 15 to 20)
#    0.000    2.000    1.667    1.000    2.333    3.333 
#    0.000    0.000    0.000    0.000    0.000    0.000 
#    0.000    0.000    0.000    0.000    0.000    0.000 
#
# Total GULP energy -297662.314336 kJ/mol
# GULP energy per Si atom -12402.596431 kJ/mol
# Density = 1.887542 g / cm^3
# Si number density = 18.918476 Si / 1000 Ang^3
#
#
#
# Elastic Constant Matrix: (Units=GPa)
#
#
# Indices 1 2 3 4 5 6 
#
# 1 71.1473 37.2608 36.5978 0.0000 0.1789 0.0000
# 2 37.2608 84.8374 48.3217 0.0000 -2.0864 0.0000
# 3 36.5978 48.3217 106.4412 0.0000 -0.2368 0.0000
# 4 0.0000 0.0000 0.0000 28.6473 0.0000 -6.3770
# 5 0.1789 -2.0864 -0.2368 0.0000 27.9649 0.0000
# 6 0.0000 0.0000 0.0000 -6.3770 0.0000 17.1496
#
#
#
# Elastic Compliance Matrix: (Units=1/GPa)
#
#
# Indices 1 2 3 4 5 6 
#
# 1 0.019321 -0.006362 -0.003756 0.000000 -0.000630 0.000000
# 2 -0.006362 0.018028 -0.005994 0.000000 0.001335 0.000000
# 3 -0.003756 -0.005994 0.013407 0.000000 -0.000310 0.000000
# 4 0.000000 0.000000 0.000000 0.038057 0.000000 0.014152
# 5 -0.000630 0.001335 -0.000310 0.000000 0.035860 0.000000
# 6 0.000000 0.000000 0.000000 0.014152 0.000000 0.063572
#
#
# Mechanical properties :
#
#
# Convention : Reuss Voigt Hill
#
# Bulk Modulus (GPa) = 53.96176 56.30961 55.13569
# Shear Modulus (GPa) = 22.06065 24.10208 23.08136
#
# Velocity S-wave (km/s) = 3.41851 3.57318 3.49670
# Velocity P-wave (km/s) = 6.64581 6.84489 6.74608
#
# Compressibility (1/GPa) = 0.01853164
#
# Stress axis : x y z
#
# Youngs Moduli (GPa) = 51.75728 55.46846 74.58828
#
# Poissons Ratio (x) = 0.35287 0.28019
# Poissons Ratio (y) = 0.32926 0.44709
# Poissons Ratio (z) = 0.19443 0.33248
#
# Static dielectric constant tensor:
#      x y z
#    x 3.596910 0.000000 -0.007300 
#    y 0.000000 3.295040 0.000000 
#    z -0.007300 0.000000 3.662620 
# 
# 
# High freq. dielectric constant tensor:
#      x y z
#    x 1.744210 0.000000 -0.001090 
#    y 0.000000 1.718560 0.000000 
#    z -0.001090 0.000000 1.749700 
# 
# From -- ./inp_files/18158.got.cif
#   From: 2010.06.25/outbox.cif.g09.slc.cpg/sg13_10_cif.got.tgz:18158.got - 2010.06.28 04:50:58.
