data_PCOD8119294
_publ_section_title
;
Structure prediction by ZEFSAII (Michael W. Deem and Ramdas Pophale) SiO2 
 PCOD8119294
Probable space group: P 2/C
;
_chemical_formula_sum "Si O2"
_cell_formula_units_Z 26
_cell_length_a 15.509086
_cell_length_b 10.824964
_cell_length_c 8.786582
_cell_angle_alpha 90.000000
_cell_angle_beta 123.996878
_cell_angle_gamma 90.000000
_cell_volume 1222.989718
_symmetry_space_group_name_H-M "P 2/C"
_symmetry_group_IT_number 13
_symmetry_cell_setting 'monoclinic'
loop_
_space_group_symop_operation_xyz
x,y,z
-x,y,1/2-z
-x,-y,-z
x,-y,1/2+z
loop_
_atom_site_type_symbol
_atom_site_label
_atom_site_fract_x
_atom_site_fract_y
_atom_site_fract_z
Si Si1 0.211425 0.389610 0.070348
Si Si2 0.337554 0.549142 0.406808
Si Si3 0.222535 0.959666 0.006204
Si Si4 0.916555 0.100061 0.866120
Si Si5 0.000000 0.310846 0.750000
Si Si6 0.484753 0.684495 0.069631
Si Si7 0.691185 0.158995 0.200547
O O1 0.294228 0.390523 0.016025
O O2 0.093591 0.400878 0.894152
O O3 0.239902 0.503490 0.209059
O O4 0.222247 0.259006 0.166282
O O5 0.402742 0.657043 0.389859
O O6 0.415221 0.437931 0.522174
O O7 0.159423 0.875338 0.065265
O O8 0.303884 0.042134 0.183097
O O9 0.284798 0.874241 0.951187
O O10 0.144218 0.048985 0.839867
O O11 0.967750 0.228161 0.864126
O O12 0.000000 0.000000 0.000000
O O13 0.500000 0.743942 0.250000
O O14 0.424191 0.782781 0.904159
#
# Coordination Sequence:
#
# PCOD8119294 Si02
#       7
#     4   4   4   4   2   4   4
#     4  11  23  42  65  94 126 167 214 265 317 376
#     4  10  22  41  69  90 124 161 211 279 322 365
#     4  10  20  38  60  92 134 172 202 261 314 363
#     4  11  18  34  60  89 126 178 222 250 294 375
#     4  12  22  36  62  96 128 170 216 252 312 380
#     4  10  20  40  70  97 114 164 226 259 322 385
#     4  10  22  39  66  95 132 165 211 261 314 386
#
# _framework density 21.259377000000001
#
# number of rings (size 3 to 8) (size 9 to 14) (size 15 to 20)
#    0.000    1.538    4.615    0.923    0.000    1.846 
#    0.000    0.769    0.000    0.000    0.000    0.000 
#    0.000    0.000    0.000    0.000    0.000    0.000 
#
# Total GULP energy -322431.094742 kJ/mol
# GULP energy per Si atom -12401.195952 kJ/mol
# Density = 2.121099 g / cm^3
# Si number density = 21.259377 Si / 1000 Ang^3
#
#
#
# Elastic Constant Matrix: (Units=GPa)
#
#
# Indices 1 2 3 4 5 6 
#
# 1 84.4465 49.0130 42.9374 0.0000 -14.1693 0.0000
# 2 49.0130 61.2306 35.6724 0.0000 -1.4221 0.0000
# 3 42.9374 35.6724 111.3896 0.0000 -3.7420 0.0000
# 4 0.0000 0.0000 0.0000 41.9105 0.0000 3.9571
# 5 -14.1693 -1.4221 -3.7420 0.0000 44.2901 0.0000
# 6 0.0000 0.0000 0.0000 3.9571 0.0000 24.1845
#
#
#
# Elastic Compliance Matrix: (Units=1/GPa)
#
#
# Indices 1 2 3 4 5 6 
#
# 1 0.025411 -0.017958 -0.003801 0.000000 0.007232 0.000000
# 2 -0.017958 0.032769 -0.003740 0.000000 -0.005009 0.000000
# 3 -0.003801 -0.003740 0.011629 0.000000 -0.000354 0.000000
# 4 0.000000 0.000000 0.000000 0.024235 0.000000 -0.003965
# 5 0.007232 -0.005009 -0.000354 0.000000 0.024701 0.000000
# 6 0.000000 0.000000 0.000000 -0.003965 0.000000 0.041998
#
#
# Mechanical properties :
#
#
# Convention : Reuss Voigt Hill
#
# Bulk Modulus (GPa) = 53.16380 56.92359 55.04370
# Shear Modulus (GPa) = 22.93459 30.70663 26.82061
#
# Velocity S-wave (km/s) = 3.28807 3.80462 3.55574
# Velocity P-wave (km/s) = 6.28305 6.79221 6.54258
#
# Compressibility (1/GPa) = 0.01880979
#
# Stress axis : x y z
#
# Youngs Moduli (GPa) = 39.35323 30.51641 85.99442
#
# Poissons Ratio (x) = 0.54802 0.32688
# Poissons Ratio (y) = 0.70671 0.32164
# Poissons Ratio (z) = 0.14959 0.11414
#
# Static dielectric constant tensor:
#      x y z
#    x 3.821530 0.000000 -0.045050 
#    y 0.000000 3.521900 0.000000 
#    z -0.045050 0.000000 4.122420 
# 
# 
# High freq. dielectric constant tensor:
#      x y z
#    x 1.827190 0.000000 -0.004450 
#    y 0.000000 1.803800 0.000000 
#    z -0.004450 0.000000 1.852290 
# 
# From -- ./inp_files/18679.got.cif
#   From: 2010.06.25/outbox.cif.g09.slc.cpg/sg13_10_cif.got.tgz:18679.got - 2010.06.28 04:50:58.
