data_PCOD8119075
_publ_section_title
;
Structure prediction by ZEFSAII (Michael W. Deem and Ramdas Pophale) SiO2 
 PCOD8119075
Probable space group: P 2/C
;
_chemical_formula_sum "Si O2"
_cell_formula_units_Z 28
_cell_length_a 19.452817
_cell_length_b 12.863682
_cell_length_c 16.546968
_cell_angle_alpha 90.000000
_cell_angle_beta 19.794015
_cell_angle_gamma 90.000000
_cell_volume 1402.180788
_symmetry_space_group_name_H-M "P 2/C"
_symmetry_group_IT_number 13
_symmetry_cell_setting 'monoclinic'
loop_
_space_group_symop_operation_xyz
x,y,z
-x,y,1/2-z
-x,-y,-z
x,-y,1/2+z
loop_
_atom_site_type_symbol
_atom_site_label
_atom_site_fract_x
_atom_site_fract_y
_atom_site_fract_z
Si Si1 0.003385 0.801965 0.556238
Si Si2 0.430093 0.528694 0.453631
Si Si3 0.655008 0.153588 0.323228
Si Si4 0.726697 0.813761 0.019501
Si Si5 0.293852 0.945409 0.307572
Si Si6 0.781706 0.582637 0.964906
Si Si7 0.621909 0.338049 0.881333
O O1 0.861963 0.802165 0.633573
O O2 0.148534 0.903503 0.396091
O O3 0.151998 0.700895 0.392482
O O4 0.870810 0.807503 0.783511
O O5 0.249886 0.577747 0.597573
O O6 0.349215 0.421634 0.579925
O O7 0.497203 0.612080 0.445704
O O8 0.624198 0.505114 0.182418
O O9 0.522813 0.097055 0.539671
O O10 0.522672 0.244492 0.428329
O O11 0.708889 0.070661 0.192856
O O12 0.500000 0.845115 0.250000
O O13 0.795088 0.899905 0.009726
O O14 0.735984 0.698913 0.048933
O O15 0.000000 0.543008 0.750000
#
# Coordination Sequence:
#
# PCOD8119075 Si02
#       7
#     4   4   4   4   4   4   4
#     4  11  21  35  60  87 118 154 197 244 297 361
#     4  10  21  38  58  91 122 151 205 250 297 361
#     4  10  20  37  57  81 119 153 194 238 293 357
#     4  12  20  35  59  87 118 143 192 250 298 344
#     4  10  21  35  56  86 115 152 188 241 299 348
#     4  11  21  36  62  86 117 155 194 249 307 354
#     4  10  22  38  61  87 122 161 195 249 301 356
#
# _framework density 19.968893999999999
#
# number of rings (size 3 to 8) (size 9 to 14) (size 15 to 20)
#    0.000    1.429    2.857    5.143    0.000    1.143 
#    0.000    3.571    3.143    1.714    0.000    0.000 
#    0.000    0.000    0.000    0.000    0.000    0.000 
#
# Total GULP energy -347061.605540 kJ/mol
# GULP energy per Si atom -12395.057341 kJ/mol
# Density = 1.992344 g / cm^3
# Si number density = 19.968894 Si / 1000 Ang^3
#
#
#
# Elastic Constant Matrix: (Units=GPa)
#
#
# Indices 1 2 3 4 5 6 
#
# 1 98.7812 51.3359 50.8495 0.0000 -11.1993 0.0000
# 2 51.3359 120.1164 50.9432 0.0000 8.8196 0.0000
# 3 50.8495 50.9432 100.3999 0.0000 -16.6393 0.0000
# 4 0.0000 0.0000 0.0000 24.3682 0.0000 6.1130
# 5 -11.1993 8.8196 -16.6393 0.0000 38.9655 0.0000
# 6 0.0000 0.0000 0.0000 6.1130 0.0000 30.8359
#
#
#
# Elastic Compliance Matrix: (Units=1/GPa)
#
#
# Indices 1 2 3 4 5 6 
#
# 1 0.015520 -0.004845 -0.004823 0.000000 0.003498 0.000000
# 2 -0.004845 0.013135 -0.005310 0.000000 -0.006633 0.000000
# 3 -0.004823 -0.005310 0.016214 0.000000 0.006740 0.000000
# 4 0.000000 0.000000 0.000000 0.043185 0.000000 -0.008561
# 5 0.003498 -0.006633 0.006740 0.000000 0.031048 0.000000
# 6 0.000000 0.000000 0.000000 -0.008561 0.000000 0.034127
#
#
# Mechanical properties :
#
#
# Convention : Reuss Voigt Hill
#
# Bulk Modulus (GPa) = 67.05056 69.50610 68.27833
# Shear Modulus (GPa) = 26.57366 29.91185 28.24275
#
# Velocity S-wave (km/s) = 3.65191 3.87450 3.76485
# Velocity P-wave (km/s) = 7.17163 7.40935 7.29146
#
# Compressibility (1/GPa) = 0.01491412
#
# Stress axis : x y z
#
# Youngs Moduli (GPa) = 64.43214 76.13233 61.67427
#
# Poissons Ratio (x) = 0.36883 0.29743
# Poissons Ratio (y) = 0.31215 0.32752
# Poissons Ratio (z) = 0.31073 0.40430
#
# Static dielectric constant tensor:
#      x y z
#    x 3.595810 0.000000 -0.227940 
#    y 0.000000 3.612780 0.000000 
#    z -0.227940 0.000000 3.761370 
# 
# 
# High freq. dielectric constant tensor:
#      x y z
#    x 1.765040 0.000000 -0.023790 
#    y 0.000000 1.757560 0.000000 
#    z -0.023790 0.000000 1.784780 
# 
# From -- ./inp_files/70661.got.cif
#   From: 2010.06.25/outbox.cif.g09.slc.cpg/sg13_36_cif.got.tgz:70661.got - 2010.06.28 04:50:58.
