data_PCOD8119730
_publ_section_title
;
Structure prediction by ZEFSAII (Michael W. Deem and Ramdas Pophale) SiO2 
 PCOD8119730
Probable space group: P 2/C
;
_chemical_formula_sum "Si O2"
_cell_formula_units_Z 28
_cell_length_a 13.357348
_cell_length_b 6.219981
_cell_length_c 17.574821
_cell_angle_alpha 90.000000
_cell_angle_beta 60.625842
_cell_angle_gamma 90.000000
_cell_volume 1272.434028
_symmetry_space_group_name_H-M "P 2/C"
_symmetry_group_IT_number 13
_symmetry_cell_setting 'monoclinic'
loop_
_space_group_symop_operation_xyz
x,y,z
-x,y,1/2-z
-x,-y,-z
x,-y,1/2+z
loop_
_atom_site_type_symbol
_atom_site_label
_atom_site_fract_x
_atom_site_fract_y
_atom_site_fract_z
Si Si1 0.110710 0.302004 0.259569
Si Si2 0.673600 0.289865 0.153674
Si Si3 0.409364 0.964837 0.195000
Si Si4 0.783603 0.337280 0.701787
Si Si5 0.884854 0.032530 0.088448
Si Si6 0.360483 0.700654 0.596914
Si Si7 0.458221 0.595758 0.405863
O O1 0.115221 0.549725 0.287174
O O2 0.099781 0.134054 0.333210
O O3 0.226894 0.273658 0.167509
O O4 0.000000 0.265757 0.250000
O O5 0.699124 0.473515 0.205655
O O6 0.792059 0.182222 0.078469
O O7 0.602125 0.392478 0.111876
O O8 0.598266 0.109853 0.225591
O O9 0.289605 0.839224 0.225424
O O10 0.514206 0.792566 0.162611
O O11 0.429010 0.104138 0.111457
O O12 0.840407 0.212596 0.610049
O O13 0.000000 0.000000 0.000000
O O14 0.374171 0.697620 0.500803
O O15 0.419739 0.479576 0.604342
#
# Coordination Sequence:
#
# PCOD8119730 Si02
#       7
#     4   4   4   4   4   4   4
#     4  11  23  43  70  97 133 183 232 285 348 419
#     4  10  23  41  67 103 133 181 237 270 349 419
#     4  11  20  43  67  93 140 182 225 276 348 416
#     4  10  20  41  66  94 132 176 225 284 340 402
#     4  10  23  44  69  99 138 180 234 294 335 409
#     4  11  23  44  63 103 140 176 231 281 354 413
#     4  11  25  40  69 103 142 180 221 296 337 417
#
# _framework density 22.00507
#
# number of rings (size 3 to 8) (size 9 to 14) (size 15 to 20)
#    0.000    1.429    5.714    0.429    0.000   10.857 
#    0.000    2.857    0.000    0.000    0.000    0.000 
#    0.000    0.000    0.000    0.000    0.000    0.000 
#
# Total GULP energy -346963.053170 kJ/mol
# GULP energy per Si atom -12391.537613 kJ/mol
# Density = 2.195499 g / cm^3
# Si number density = 22.005070 Si / 1000 Ang^3
#
#
#
# Elastic Constant Matrix: (Units=GPa)
#
#
# Indices 1 2 3 4 5 6 
#
# 1 112.6988 34.9183 52.6719 0.0000 -21.3258 0.0000
# 2 34.9183 118.9792 62.4707 0.0000 -18.7893 0.0000
# 3 52.6719 62.4707 155.3650 0.0000 -26.4302 0.0000
# 4 0.0000 0.0000 0.0000 32.4544 0.0000 -1.7021
# 5 -21.3258 -18.7893 -26.4302 0.0000 22.7354 0.0000
# 6 0.0000 0.0000 0.0000 -1.7021 0.0000 32.4171
#
#
#
# Elastic Compliance Matrix: (Units=1/GPa)
#
#
# Indices 1 2 3 4 5 6 
#
# 1 0.011667 -0.001061 -0.002264 0.000000 0.007435 0.000000
# 2 -0.001061 0.011182 -0.003408 0.000000 0.004284 0.000000
# 3 -0.002264 -0.003408 0.009640 0.000000 0.006267 0.000000
# 4 0.000000 0.000000 0.000000 0.030898 0.000000 0.001622
# 5 0.007435 0.004284 0.006267 0.000000 0.061785 0.000000
# 6 0.000000 0.000000 0.000000 0.001622 0.000000 0.030933
#
#
# Mechanical properties :
#
#
# Convention : Reuss Voigt Hill
#
# Bulk Modulus (GPa) = 52.56533 76.35164 64.45848
# Shear Modulus (GPa) = 28.42340 33.32018 30.87179
#
# Velocity S-wave (km/s) = 3.59789 3.89550 3.74965
# Velocity P-wave (km/s) = 6.41868 7.41659 6.93561
#
# Compressibility (1/GPa) = 0.01902395
#
# Stress axis : x y z
#
# Youngs Moduli (GPa) = 85.71222 89.42907 103.73165
#
# Poissons Ratio (x) = 0.09491 0.23483
# Poissons Ratio (y) = 0.09097 0.35347
# Poissons Ratio (z) = 0.19404 0.30473
#
# Static dielectric constant tensor:
#      x y z
#    x 3.851540 0.000000 -0.155900 
#    y 0.000000 4.421470 0.000000 
#    z -0.155900 0.000000 3.951080 
# 
# 
# High freq. dielectric constant tensor:
#      x y z
#    x 1.847740 0.000000 -0.014550 
#    y 0.000000 1.889990 0.000000 
#    z -0.014550 0.000000 1.852030 
# 
# From -- ./inp_files/67486.got.cif
#   From: 2010.06.25/outbox.cif.g09.slc.cpg/sg13_34_cif.got.tgz:67486.got - 2010.06.28 04:50:58.
