data_PCOD8119954
_publ_section_title
;
Structure prediction by ZEFSAII (Michael W. Deem and Ramdas Pophale) SiO2 
 PCOD8119954
Probable space group: P 2/C
;
_chemical_formula_sum "Si O2"
_cell_formula_units_Z 30
_cell_length_a 19.103523
_cell_length_b 17.038186
_cell_length_c 5.152092
_cell_angle_alpha 90.000000
_cell_angle_beta 65.959994
_cell_angle_gamma 90.000000
_cell_volume 1531.494546
_symmetry_space_group_name_H-M "P 2/C"
_symmetry_group_IT_number 13
_symmetry_cell_setting 'monoclinic'
loop_
_space_group_symop_operation_xyz
x,y,z
-x,y,1/2-z
-x,-y,-z
x,-y,1/2+z
loop_
_atom_site_type_symbol
_atom_site_label
_atom_site_fract_x
_atom_site_fract_y
_atom_site_fract_z
Si Si1 0.000000 0.323367 0.250000
Si Si2 0.699500 0.449841 0.702960
Si Si3 0.662036 0.954626 0.377988
Si Si4 0.128214 0.552474 0.612738
Si Si5 0.042599 0.170811 0.942313
Si Si6 0.452321 0.646177 0.074815
Si Si7 0.453809 0.169377 0.568957
Si Si8 0.841532 0.046852 0.635217
O O1 0.930731 0.376614 0.248236
O O2 0.961691 0.266432 0.527523
O O3 0.689701 0.518857 0.509281
O O4 0.784544 0.413696 0.523321
O O5 0.633536 0.385886 0.772633
O O6 0.627998 0.871986 0.334635
O O7 0.751704 0.941523 0.253311
O O8 0.635383 0.980912 0.704810
O O9 0.113070 0.490033 0.862822
O O10 0.127177 0.133536 0.833956
O O11 0.000000 0.142959 0.750000
O O12 0.000000 0.131138 0.250000
O O13 0.500000 0.616100 0.250000
O O14 0.440476 0.738459 0.095962
O O15 0.500000 0.618100 0.750000
O O16 0.500000 0.140285 0.750000
O O17 0.500000 0.141970 0.250000
O O18 0.868853 0.014576 0.314884
#
# Coordination Sequence:
#
# PCOD8119954 Si02
#       8
#     2   4   4   4   4   4   4   4
#     4  10  24  38  60  84 118 142 192 232 280 334
#     4  10  21  37  56  85 112 141 187 229 271 324
#     4  10  21  36  56  81 107 142 186 228 274 322
#     4  10  22  38  61  83 111 150 187 229 281 335
#     4  10  23  37  56  86 112 142 184 230 272 334
#     4  10  21  36  56  81 112 149 183 219 276 332
#     4  10  21  36  54  78 111 144 183 224 271 328
#     4  10  21  38  58  80 112 148 186 227 276 336
#
# _framework density 19.588706999999999
#
# number of rings (size 3 to 8) (size 9 to 14) (size 15 to 20)
#    0.400    1.600    0.000    2.800    1.867    5.867 
#    0.000    0.000    5.867    0.000    0.000    0.000 
#    0.000    0.000    0.000    0.000    0.000    0.000 
#
# Total GULP energy -371790.967669 kJ/mol
# GULP energy per Si atom -12393.032256 kJ/mol
# Density = 1.954412 g / cm^3
# Si number density = 19.588707 Si / 1000 Ang^3
#
#
#
# Elastic Constant Matrix: (Units=GPa)
#
#
# Indices 1 2 3 4 5 6 
#
# 1 138.0583 70.6621 47.1474 0.0000 6.6252 0.0000
# 2 70.6621 76.4448 29.5898 0.0000 -9.9643 0.0000
# 3 47.1474 29.5898 100.9363 0.0000 22.3813 0.0000
# 4 0.0000 0.0000 0.0000 -36.7719 0.0000 -35.6767
# 5 6.6252 -9.9643 22.3813 0.0000 30.8240 0.0000
# 6 0.0000 0.0000 0.0000 -35.6767 0.0000 15.6770
#
#
#
# Elastic Compliance Matrix: (Units=1/GPa)
#
#
# Indices 1 2 3 4 5 6 
#
# 1 0.015686 -0.014913 -0.001357 0.000000 -0.007207 0.000000
# 2 -0.014913 0.031658 -0.006311 0.000000 0.018022 0.000000
# 3 -0.001357 -0.006311 0.015231 0.000000 -0.012808 0.000000
# 4 0.000000 0.000000 0.000000 -0.008477 0.000000 -0.019292
# 5 -0.007207 0.018022 -0.012808 0.000000 0.049117 0.000000
# 6 0.000000 0.000000 0.000000 -0.019292 0.000000 0.019884
#
#
# Mechanical properties :
#
#
# Convention : Reuss Voigt Hill
#
# Bulk Modulus (GPa) = 57.42796 67.80421 62.61608
# Shear Modulus (GPa) = 28.72500 13.14851 20.93675
#
# Velocity S-wave (km/s) = 3.83352 2.59362 3.27282
# Velocity P-wave (km/s) = 6.99822 6.60744 6.80563
#
# Compressibility (1/GPa) = 0.01741312
#
# Stress axis : x y z
#
# Youngs Moduli (GPa) = 63.75294 31.58727 65.65600
#
# Poissons Ratio (x) = 0.47107 0.08908
# Poissons Ratio (y) = 0.95077 0.41434
# Poissons Ratio (z) = 0.08650 0.19934
#
# Static dielectric constant tensor:
#      x y z
#    x 3.748170 0.000000 0.150110 
#    y 0.000000 3.255450 0.000000 
#    z 0.150110 0.000000 3.790030 
# 
# 
# High freq. dielectric constant tensor:
#      x y z
#    x 1.774760 0.000000 0.011460 
#    y 0.000000 1.742910 0.000000 
#    z 0.011460 0.000000 1.773260 
# 
# From -- ./inp_files/5353.got.cif
#   From: 2010.06.25/outbox.cif.g09.slc.cpg/sg13_3_cif.got.tgz:5353.got - 2010.06.28 04:50:58.
