data_PCOD8119973
_publ_section_title
;
Structure prediction by ZEFSAII (Michael W. Deem and Ramdas Pophale) SiO2 
 PCOD8119973
Probable space group: P 2/C
;
_chemical_formula_sum "Si O2"
_cell_formula_units_Z 28
_cell_length_a 14.873019
_cell_length_b 12.631459
_cell_length_c 8.955603
_cell_angle_alpha 90.000000
_cell_angle_beta 66.755335
_cell_angle_gamma 90.000000
_cell_volume 1545.901028
_symmetry_space_group_name_H-M "P 2/C"
_symmetry_group_IT_number 13
_symmetry_cell_setting 'monoclinic'
loop_
_space_group_symop_operation_xyz
x,y,z
-x,y,1/2-z
-x,-y,-z
x,-y,1/2+z
loop_
_atom_site_type_symbol
_atom_site_label
_atom_site_fract_x
_atom_site_fract_y
_atom_site_fract_z
Si Si1 0.886438 0.383824 0.655170
Si Si2 0.285626 0.328483 0.228669
Si Si3 0.894812 0.391436 0.993922
Si Si4 0.601314 0.123606 0.266831
Si Si5 0.575526 0.516632 0.319796
Si Si6 0.393299 0.918486 0.387882
Si Si7 0.702116 0.704458 0.126294
O O1 0.860077 0.400788 0.845587
O O2 0.885474 0.492857 0.568129
O O3 0.807308 0.303618 0.637712
O O4 0.997130 0.339781 0.565599
O O5 0.175977 0.317062 0.363140
O O6 0.339937 0.232020 0.272389
O O7 0.331468 0.439827 0.247821
O O8 0.288398 0.332923 0.049375
O O9 0.500000 0.148356 0.250000
O O10 0.593714 0.085045 0.442862
O O11 0.653774 0.030352 0.135856
O O12 0.500000 0.479466 0.250000
O O13 0.500000 0.500000 0.500000
O O14 0.618986 0.635371 0.267331
O O15 0.500000 0.909173 0.250000
O O16 0.327733 0.826775 0.358085
#
# Coordination Sequence:
#
# PCOD8119973 Si02
#       7
#     4   4   4   4   4   4   4
#     4  10  21  36  55  80 110 144 184 226 276 328
#     4  11  23  37  56  82 111 148 185 225 275 328
#     4  10  21  36  55  80 110 144 183 228 273 331
#     4  10  21  38  56  81 109 145 189 228 271 320
#     4  12  24  37  50  77 117 150 183 218 270 329
#     4  10  21  37  57  79 110 145 188 229 270 321
#     4  11  23  37  56  81 111 148 184 225 277 326
#
# _framework density 18.112414999999999
#
# number of rings (size 3 to 8) (size 9 to 14) (size 15 to 20)
#    0.000    1.429    2.857    3.429    4.000    4.000 
#    0.000    0.000    0.000    0.857    0.000    0.000 
#    0.000    0.000    0.000    0.000    0.000    0.000 
#
# Total GULP energy -346928.321502 kJ/mol
# GULP energy per Si atom -12390.297196 kJ/mol
# Density = 1.807119 g / cm^3
# Si number density = 18.112415 Si / 1000 Ang^3
#
#
#
# Elastic Constant Matrix: (Units=GPa)
#
#
# Indices 1 2 3 4 5 6 
#
# 1 106.4881 42.2462 43.5808 0.0000 7.0365 0.0000
# 2 42.2462 86.9454 32.0593 0.0000 3.8966 0.0000
# 3 43.5808 32.0593 89.7487 0.0000 -4.0096 0.0000
# 4 0.0000 0.0000 0.0000 32.3752 0.0000 12.2091
# 5 7.0365 3.8966 -4.0096 0.0000 33.0984 0.0000
# 6 0.0000 0.0000 0.0000 12.2091 0.0000 30.7527
#
#
#
# Elastic Compliance Matrix: (Units=1/GPa)
#
#
# Indices 1 2 3 4 5 6 
#
# 1 0.013450 -0.004546 -0.005038 0.000000 -0.002935 0.000000
# 2 -0.004546 0.014936 -0.003180 0.000000 -0.001177 0.000000
# 3 -0.005038 -0.003180 0.014870 0.000000 0.003247 0.000000
# 4 0.000000 0.000000 0.000000 0.036326 0.000000 -0.014422
# 5 -0.002935 -0.001177 0.003247 0.000000 0.031369 0.000000
# 6 0.000000 0.000000 0.000000 -0.014422 0.000000 0.038243
#
#
# Mechanical properties :
#
#
# Convention : Reuss Voigt Hill
#
# Bulk Modulus (GPa) = 56.41338 57.66166 57.03752
# Shear Modulus (GPa) = 27.68052 30.26500 28.97276
#
# Velocity S-wave (km/s) = 3.91354 4.09216 4.00385
# Velocity P-wave (km/s) = 7.18575 7.36426 7.27555
#
# Compressibility (1/GPa) = 0.01772629
#
# Stress axis : x y z
#
# Youngs Moduli (GPa) = 74.34870 66.95327 67.24971
#
# Poissons Ratio (x) = 0.30437 0.33883
# Poissons Ratio (y) = 0.33799 0.21388
# Poissons Ratio (z) = 0.37460 0.21294
#
# Static dielectric constant tensor:
#      x y z
#    x 3.569620 0.000000 0.052730 
#    y 0.000000 3.429610 0.000000 
#    z 0.052730 0.000000 3.503810 
# 
# 
# High freq. dielectric constant tensor:
#      x y z
#    x 1.704530 0.000000 0.012690 
#    y 0.000000 1.681590 0.000000 
#    z 0.012690 0.000000 1.719200 
# 
# From -- ./inp_files/18726.got.cif
#   From: 2010.06.25/outbox.cif.g09.slc.cpg/sg13_10_cif.got.tgz:18726.got - 2010.06.28 04:50:58.
