data_PCOD8119712
_publ_section_title
;
Structure prediction by ZEFSAII (Michael W. Deem and Ramdas Pophale) SiO2 
 PCOD8119712
Probable space group: P 2/C
;
_chemical_formula_sum "Si O2"
_cell_formula_units_Z 24
_cell_length_a 15.340838
_cell_length_b 14.743045
_cell_length_c 9.579999
_cell_angle_alpha 90.000000
_cell_angle_beta 33.872667
_cell_angle_gamma 90.000000
_cell_volume 1207.616486
_symmetry_space_group_name_H-M "P 2/C"
_symmetry_group_IT_number 13
_symmetry_cell_setting 'monoclinic'
loop_
_space_group_symop_operation_xyz
x,y,z
-x,y,1/2-z
-x,-y,-z
x,-y,1/2+z
loop_
_atom_site_type_symbol
_atom_site_label
_atom_site_fract_x
_atom_site_fract_y
_atom_site_fract_z
Si Si1 0.374781 0.087751 0.304895
Si Si2 0.418157 0.888695 0.226215
Si Si3 0.146885 0.767636 0.476286
Si Si4 0.315912 0.426326 0.478006
Si Si5 0.828516 0.563421 0.027824
Si Si6 0.853991 0.245688 0.844301
O O1 0.500000 0.125417 0.250000
O O2 0.223072 0.150536 0.510887
O O3 0.334559 0.981993 0.390368
O O4 0.438550 0.089876 0.064512
O O5 0.500000 0.839217 0.250000
O O6 0.298218 0.827623 0.300830
O O7 0.184729 0.669400 0.490950
O O8 0.096793 0.761107 0.382225
O O9 0.000000 0.812200 0.750000
O O10 0.500000 0.414884 0.250000
O O11 0.296058 0.508203 0.396456
O O12 0.216079 0.450336 0.750054
O O13 0.259992 0.331520 0.484764
O O14 0.000000 0.527792 0.750000
O O15 0.000000 0.262688 0.750000
#
# Coordination Sequence:
#
# PCOD8119712 Si02
#       6
#     4   4   4   4   4   4
#     4  10  20  41  63  87 121 158 204 250 296 364
#     4  10  22  38  63  91 120 158 198 251 310 353
#     4  10  23  41  59  89 126 158 199 252 299 360
#     4  11  23  40  64  93 121 158 206 255 304 362
#     4  10  22  41  62  87 125 163 198 248 308 364
#     4  11  24  40  63  87 119 167 205 245 303 364
#
# _framework density 19.873858999999999
#
# number of rings (size 3 to 8) (size 9 to 14) (size 15 to 20)
#    0.000    1.667    1.667    2.000    4.667    4.000 
#    0.000    1.667    0.000    0.000    0.000    0.000 
#    0.000    0.000    0.000    0.000    0.000    0.000 
#
# Total GULP energy -297558.568477 kJ/mol
# GULP energy per Si atom -12398.273687 kJ/mol
# Density = 1.982862 g / cm^3
# Si number density = 19.873859 Si / 1000 Ang^3
#
#
#
# Elastic Constant Matrix: (Units=GPa)
#
#
# Indices 1 2 3 4 5 6 
#
# 1 144.7886 47.6708 38.5211 0.0000 -5.6780 0.0000
# 2 47.6708 85.8424 34.0764 0.0000 -6.9150 0.0000
# 3 38.5211 34.0764 84.4137 0.0000 0.6562 0.0000
# 4 0.0000 0.0000 0.0000 26.3312 0.0000 0.3090
# 5 -5.6780 -6.9150 0.6562 0.0000 32.6921 0.0000
# 6 0.0000 0.0000 0.0000 0.3090 0.0000 28.9190
#
#
#
# Elastic Compliance Matrix: (Units=1/GPa)
#
#
# Indices 1 2 3 4 5 6 
#
# 1 0.008877 -0.003878 -0.002491 0.000000 0.000771 0.000000
# 2 -0.003878 0.015877 -0.004661 0.000000 0.002778 0.000000
# 3 -0.002491 -0.004661 0.014878 0.000000 -0.001717 0.000000
# 4 0.000000 0.000000 0.000000 0.037983 0.000000 -0.000406
# 5 0.000771 0.002778 -0.001717 0.000000 0.031344 0.000000
# 6 0.000000 0.000000 0.000000 -0.000406 0.000000 0.034584
#
#
# Mechanical properties :
#
#
# Convention : Reuss Voigt Hill
#
# Bulk Modulus (GPa) = 56.91277 61.73126 59.32202
# Shear Modulus (GPa) = 29.16123 30.57356 29.86740
#
# Velocity S-wave (km/s) = 3.83471 3.92647 3.88086
# Velocity P-wave (km/s) = 6.95024 7.18924 7.07075
#
# Compressibility (1/GPa) = 0.01757075
#
# Stress axis : x y z
#
# Youngs Moduli (GPa) = 112.65621 62.98358 67.21279
#
# Poissons Ratio (x) = 0.24428 0.16743
# Poissons Ratio (y) = 0.43693 0.31328
# Poissons Ratio (z) = 0.28063 0.29357
#
# Static dielectric constant tensor:
#      x y z
#    x 3.520910 0.000000 0.136720 
#    y 0.000000 3.725500 0.000000 
#    z 0.136720 0.000000 3.626790 
# 
# 
# High freq. dielectric constant tensor:
#      x y z
#    x 1.774950 0.000000 0.012250 
#    y 0.000000 1.778220 0.000000 
#    z 0.012250 0.000000 1.774060 
# 
# From -- ./inp_files/19498.got.cif
#   From: 2010.06.25/outbox.cif.g09.slc.cpg/sg13_10_cif.got.tgz:19498.got - 2010.06.28 04:50:58.
