data_PCOD8119287
_publ_section_title
;
Structure prediction by ZEFSAII (Michael W. Deem and Ramdas Pophale) SiO2 
 PCOD8119287
Probable space group: P 2/C
;
_chemical_formula_sum "Si O2"
_cell_formula_units_Z 22
_cell_length_a 15.243135
_cell_length_b 11.912454
_cell_length_c 11.403401
_cell_angle_alpha 90.000000
_cell_angle_beta 153.059528
_cell_angle_gamma 90.000000
_cell_volume 938.145062
_symmetry_space_group_name_H-M "P 2/C"
_symmetry_group_IT_number 13
_symmetry_cell_setting 'monoclinic'
loop_
_space_group_symop_operation_xyz
x,y,z
-x,y,1/2-z
-x,-y,-z
x,-y,1/2+z
loop_
_atom_site_type_symbol
_atom_site_label
_atom_site_fract_x
_atom_site_fract_y
_atom_site_fract_z
Si Si1 0.000000 0.889991 0.750000
Si Si2 0.000000 0.613551 0.250000
Si Si3 0.163791 0.270047 0.737607
Si Si4 0.700523 0.547835 0.288094
Si Si5 0.786044 0.809381 0.695018
Si Si6 0.500000 0.338575 0.750000
Si Si7 0.288897 0.038565 0.788274
O O1 0.132946 0.801646 0.839985
O O2 0.861123 0.962740 0.499341
O O3 0.833782 0.683718 0.125491
O O4 0.124811 0.541028 0.492063
O O5 0.231008 0.358049 0.720997
O O6 0.286262 0.155764 0.858245
O O7 0.934407 0.246109 0.460542
O O8 0.661459 0.588997 0.375334
O O9 0.500000 0.500000 0.000000
O O10 0.587630 0.739625 0.458717
O O11 0.774247 0.942259 0.698714
O O12 0.500000 0.000000 0.000000
#
# Coordination Sequence:
#
# PCOD8119287 Si02
#       7
#     2   2   4   4   4   2   4
#     4  10  20  38  60  88 128 174 206 254 318 382
#     4  12  26  46  68  96 132 178 224 288 342 384
#     4  11  24  44  68  96 133 177 224 278 339 401
#     4  12  25  45  68  97 131 173 233 285 333 402
#     4  11  22  40  65  97 131 169 215 265 330 415
#     4  12  22  40  70  98 130 178 218 276 350 398
#     4  11  24  42  66  99 135 171 219 270 330 414
#
# _framework density 23.450530000000001
#
# number of rings (size 3 to 8) (size 9 to 14) (size 15 to 20)
#    0.000    0.727    0.000   10.364    0.000    3.636 
#    0.000    5.455    0.000    0.000    0.000    0.000 
#    0.000    0.000    0.000    0.000    0.000    0.000 
#
# Total GULP energy -272600.497938 kJ/mol
# GULP energy per Si atom -12390.931724 kJ/mol
# Density = 2.339716 g / cm^3
# Si number density = 23.450530 Si / 1000 Ang^3
#
#
#
# Elastic Constant Matrix: (Units=GPa)
#
#
# Indices 1 2 3 4 5 6 
#
# 1 127.2137 51.6844 1.5295 0.0000 4.4887 0.0000
# 2 51.6844 141.8460 37.0607 0.0000 5.5515 0.0000
# 3 1.5295 37.0607 106.1333 0.0000 13.0447 0.0000
# 4 0.0000 0.0000 0.0000 30.7273 0.0000 -5.7257
# 5 4.4887 5.5515 13.0447 0.0000 29.0504 0.0000
# 6 0.0000 0.0000 0.0000 -5.7257 0.0000 38.9006
#
#
#
# Elastic Compliance Matrix: (Units=1/GPa)
#
#
# Indices 1 2 3 4 5 6 
#
# 1 0.009404 -0.003721 0.001328 0.000000 -0.001338 0.000000
# 2 -0.003721 0.009232 -0.003201 0.000000 0.000248 0.000000
# 3 0.001328 -0.003201 0.011082 0.000000 -0.004570 0.000000
# 4 0.000000 0.000000 0.000000 0.033462 0.000000 0.004925
# 5 -0.001338 0.000248 -0.004570 0.000000 0.036635 0.000000
# 6 0.000000 0.000000 0.000000 0.004925 0.000000 0.026431
#
#
# Mechanical properties :
#
#
# Convention : Reuss Voigt Hill
#
# Bulk Modulus (GPa) = 53.96202 61.74916 57.85559
# Shear Modulus (GPa) = 34.81632 38.73021 36.77327
#
# Velocity S-wave (km/s) = 3.85732 4.06836 3.96425
# Velocity P-wave (km/s) = 6.54977 6.96115 6.75859
#
# Compressibility (1/GPa) = 0.01853155
#
# Stress axis : x y z
#
# Youngs Moduli (GPa) = 106.33906 108.31495 90.23395
#
# Poissons Ratio (x) = 0.40306 -0.11986
# Poissons Ratio (y) = 0.39571 0.28881
# Poissons Ratio (z) = -0.14126 0.34668
#
# Static dielectric constant tensor:
#      x y z
#    x 24.263790 0.000000 21.715360 
#    y 0.000000 5.446790 0.000000 
#    z 21.715360 0.000000 27.561450 
# 
# 
# High freq. dielectric constant tensor:
#      x y z
#    x 1.940810 0.000000 0.013100 
#    y 0.000000 1.936730 0.000000 
#    z 0.013100 0.000000 1.922550 
# 
# From -- ./inp_files/37151.got.cif
#   From: 2010.06.25/outbox.cif.g09.slc.cpg/sg13_19_cif.got.tgz:37151.got - 2010.06.28 04:50:58.
