data_PCOD8119164
_publ_section_title
;
Structure prediction by ZEFSAII (Michael W. Deem and Ramdas Pophale) SiO2 
 PCOD8119164
Probable space group: P 2/C
;
_chemical_formula_sum "Si O2"
_cell_formula_units_Z 30
_cell_length_a 14.727805
_cell_length_b 8.312588
_cell_length_c 22.721268
_cell_angle_alpha 90.000000
_cell_angle_beta 32.264792
_cell_angle_gamma 90.000000
_cell_volume 1484.951029
_symmetry_space_group_name_H-M "P 2/C"
_symmetry_group_IT_number 13
_symmetry_cell_setting 'monoclinic'
loop_
_space_group_symop_operation_xyz
x,y,z
-x,y,1/2-z
-x,-y,-z
x,-y,1/2+z
loop_
_atom_site_type_symbol
_atom_site_label
_atom_site_fract_x
_atom_site_fract_y
_atom_site_fract_z
Si Si1 0.978505 0.170190 0.040699
Si Si2 0.327134 0.675524 0.371986
Si Si3 0.000000 0.069272 0.750000
Si Si4 0.676801 0.295483 0.128350
Si Si5 0.569152 0.675089 0.945809
Si Si6 0.253454 0.658987 0.540197
Si Si7 0.732234 0.724756 0.465303
Si Si8 0.099213 0.804513 0.780788
O O1 0.830784 0.261558 0.087568
O O2 0.927951 0.150559 0.136344
O O3 0.156448 0.264485 0.933284
O O4 0.000000 0.000000 0.000000
O O5 0.500000 0.750199 0.250000
O O6 0.336611 0.485430 0.366450
O O7 0.322758 0.731622 0.441742
O O8 0.892748 0.184133 0.851350
O O9 0.881957 0.963831 0.770404
O O10 0.500000 0.222270 0.250000
O O11 0.707242 0.220609 0.046775
O O12 0.625245 0.746121 0.978317
O O13 0.739346 0.683756 0.812198
O O14 0.500000 0.500000 0.000000
O O15 0.427528 0.775670 0.988269
O O16 0.250959 0.466851 0.545828
O O17 0.061283 0.710146 0.656983
#
# Coordination Sequence:
#
# PCOD8119164 Si02
#       8
#     4   4   2   4   4   4   4   4
#     4  11  23  39  62  91 125 164 207 245 314 377
#     4   9  20  39  63  92 121 155 207 261 305 354
#     4  12  24  38  58  84 136 162 190 246 312 382
#     4  10  20  41  64  88 120 157 209 264 301 354
#     4  10  20  37  62  90 114 154 209 254 299 360
#     4   9  19  39  63  87 121 158 205 252 298 364
#     4  10  23  37  59  93 120 158 202 248 305 362
#     4  11  22  41  62  86 122 168 199 251 312 365
#
# _framework density 20.202684999999999
#
# number of rings (size 3 to 8) (size 9 to 14) (size 15 to 20)
#    0.000    1.867    1.333    2.000    3.733    2.133 
#    4.800    1.333    0.000    0.000    0.000    0.000 
#    0.000    0.000    0.000    0.000    0.000    0.000 
#
# Total GULP energy -371770.694042 kJ/mol
# GULP energy per Si atom -12392.356468 kJ/mol
# Density = 2.015670 g / cm^3
# Si number density = 20.202685 Si / 1000 Ang^3
#
#
#
# Elastic Constant Matrix: (Units=GPa)
#
#
# Indices 1 2 3 4 5 6 
#
# 1 152.9845 21.7689 69.2747 0.0000 -4.0515 0.0000
# 2 21.7689 31.2615 41.1454 0.0000 6.4772 0.0000
# 3 69.2747 41.1454 168.9795 0.0000 1.5331 0.0000
# 4 0.0000 0.0000 0.0000 16.0926 0.0000 8.5041
# 5 -4.0515 6.4772 1.5331 0.0000 37.8631 0.0000
# 6 0.0000 0.0000 0.0000 8.5041 0.0000 21.7656
#
#
#
# Elastic Compliance Matrix: (Units=1/GPa)
#
#
# Indices 1 2 3 4 5 6 
#
# 1 0.008168 -0.002280 -0.002806 0.000000 0.001378 0.000000
# 2 -0.002280 0.049999 -0.011164 0.000000 -0.008345 0.000000
# 3 -0.002806 -0.011164 0.009775 0.000000 0.001214 0.000000
# 4 0.000000 0.000000 0.000000 0.078309 0.000000 -0.030596
# 5 0.001378 -0.008345 0.001214 0.000000 0.027937 0.000000
# 6 0.000000 0.000000 0.000000 -0.030596 0.000000 0.057898
#
#
# Mechanical properties :
#
#
# Convention : Reuss Voigt Hill
#
# Bulk Modulus (GPa) = 28.21492 68.62263 48.41877
# Shear Modulus (GPa) = 18.08972 29.88002 23.98487
#
# Velocity S-wave (km/s) = 2.99559 3.84997 3.44933
# Velocity P-wave (km/s) = 5.09519 7.33511 6.31525
#
# Compressibility (1/GPa) = 0.03544225
#
# Stress axis : x y z
#
# Youngs Moduli (GPa) = 122.42703 20.00056 102.29718
#
# Poissons Ratio (x) = 0.04561 0.28703
# Poissons Ratio (y) = 0.27918 1.14202
# Poissons Ratio (z) = 0.34351 0.22328
#
# Static dielectric constant tensor:
#      x y z
#    x 4.238790 0.000000 0.050110 
#    y 0.000000 3.415950 0.000000 
#    z 0.050110 0.000000 3.939200 
# 
# 
# High freq. dielectric constant tensor:
#      x y z
#    x 1.809930 0.000000 0.003720 
#    y 0.000000 1.765370 0.000000 
#    z 0.003720 0.000000 1.798170 
# 
# From -- ./inp_files/87304.got.cif
#   From: 2010.06.25/outbox.cif.g09.slc.cpg/sg13_44_cif.got.tgz:87304.got - 2010.06.28 04:50:58.
