data_PCOD8119761
_publ_section_title
;
Structure prediction by ZEFSAII (Michael W. Deem and Ramdas Pophale) SiO2 
 PCOD8119761
Probable space group: P 2/C
;
_chemical_formula_sum "Si O2"
_cell_formula_units_Z 28
_cell_length_a 18.094482
_cell_length_b 8.470709
_cell_length_c 13.730341
_cell_angle_alpha 90.000000
_cell_angle_beta 40.129393
_cell_angle_gamma 90.000000
_cell_volume 1356.378547
_symmetry_space_group_name_H-M "P 2/C"
_symmetry_group_IT_number 13
_symmetry_cell_setting 'monoclinic'
loop_
_space_group_symop_operation_xyz
x,y,z
-x,y,1/2-z
-x,-y,-z
x,-y,1/2+z
loop_
_atom_site_type_symbol
_atom_site_label
_atom_site_fract_x
_atom_site_fract_y
_atom_site_fract_z
Si Si1 0.000000 0.906609 0.750000
Si Si2 0.918745 0.678093 0.681372
Si Si3 0.541680 0.638304 0.888504
Si Si4 0.661523 0.754888 0.946601
Si Si5 0.596672 0.897879 0.572806
Si Si6 0.160056 0.821136 0.107890
Si Si7 0.984827 0.666582 0.400896
Si Si8 0.500000 0.447861 0.750000
O O1 0.999102 0.801399 0.654700
O O2 0.883781 0.007312 0.881625
O O3 0.965918 0.507326 0.658372
O O4 0.926646 0.710825 0.559918
O O5 0.788780 0.703960 0.847485
O O6 0.446913 0.775720 0.965826
O O7 0.572391 0.562235 0.751424
O O8 0.500000 0.500000 0.000000
O O9 0.643827 0.715954 0.849001
O O10 0.581860 0.659371 0.101954
O O11 0.638710 0.941171 0.980518
O O12 0.500000 0.934720 0.750000
O O13 0.703722 0.816083 0.519517
O O14 0.093275 0.784004 0.276336
O O15 0.116170 0.688234 0.076617
#
# Coordination Sequence:
#
# PCOD8119761 Si02
#       8
#     2   4   4   4   4   4   4   2
#     4  10  20  42  62  90 128 166 222 262 340 386
#     4  11  22  42  66  99 127 178 220 288 335 405
#     4  10  24  43  66  97 134 180 233 277 335 412
#     4  11  24  44  68 100 144 175 233 285 344 418
#     4  12  24  44  70  99 142 187 225 281 353 416
#     4  10  23  43  65  96 131 176 214 283 330 407
#     4   9  23  42  65  95 134 168 232 272 347 390
#     4  10  22  46  66  98 138 182 230 276 342 416
#
# _framework density 20.643204000000001
#
# number of rings (size 3 to 8) (size 9 to 14) (size 15 to 20)
#    0.000    1.714    2.857    1.286    6.000    2.286 
#    7.714    0.000    0.000    0.000    0.000    0.000 
#    0.000    0.000    0.000    0.000    0.000    0.000 
#
# Total GULP energy -347017.120085 kJ/mol
# GULP energy per Si atom -12393.468574 kJ/mol
# Density = 2.059622 g / cm^3
# Si number density = 20.643204 Si / 1000 Ang^3
#
#
#
# Elastic Constant Matrix: (Units=GPa)
#
#
# Indices 1 2 3 4 5 6 
#
# 1 117.9996 59.8022 42.5278 0.0000 3.2269 0.0000
# 2 59.8022 117.8488 41.3432 0.0000 8.1390 0.0000
# 3 42.5278 41.3432 92.3071 0.0000 -1.9327 0.0000
# 4 0.0000 0.0000 0.0000 33.0292 0.0000 9.4017
# 5 3.2269 8.1390 -1.9327 0.0000 33.1512 0.0000
# 6 0.0000 0.0000 0.0000 9.4017 0.0000 40.0967
#
#
#
# Elastic Compliance Matrix: (Units=1/GPa)
#
#
# Indices 1 2 3 4 5 6 
#
# 1 0.012243 -0.005009 -0.003401 0.000000 -0.000160 0.000000
# 2 -0.005009 0.012371 -0.003291 0.000000 -0.002741 0.000000
# 3 -0.003401 -0.003291 0.013915 0.000000 0.001950 0.000000
# 4 0.000000 0.000000 0.000000 0.032441 0.000000 -0.007607
# 5 -0.000160 -0.002741 0.001950 0.000000 0.030967 0.000000
# 6 0.000000 0.000000 0.000000 -0.007607 0.000000 0.026723
#
#
# Mechanical properties :
#
#
# Convention : Reuss Voigt Hill
#
# Bulk Modulus (GPa) = 66.09862 68.38910 67.24386
# Shear Modulus (GPa) = 31.82627 33.55426 32.69026
#
# Velocity S-wave (km/s) = 3.93075 4.03605 3.98375
# Velocity P-wave (km/s) = 7.25880 7.41084 7.33521
#
# Compressibility (1/GPa) = 0.01512891
#
# Stress axis : x y z
#
# Youngs Moduli (GPa) = 81.67957 80.83581 71.86606
#
# Poissons Ratio (x) = 0.40487 0.24439
# Poissons Ratio (y) = 0.40910 0.23648
# Poissons Ratio (z) = 0.27776 0.26599
#
# Static dielectric constant tensor:
#      x y z
#    x 4.053230 0.000000 0.166630 
#    y 0.000000 3.976100 0.000000 
#    z 0.166630 0.000000 3.590270 
# 
# 
# High freq. dielectric constant tensor:
#      x y z
#    x 1.815670 0.000000 0.006570 
#    y 0.000000 1.827220 0.000000 
#    z 0.006570 0.000000 1.789310 
# 
# From -- ./inp_files/55281.got.cif
#   From: 2010.06.25/outbox.cif.g09.slc.cpg/sg13_28_cif.got.tgz:55281.got - 2010.06.28 04:50:58.
