data_PCOD8119850
_publ_section_title
;
Structure prediction by ZEFSAII (Michael W. Deem and Ramdas Pophale) SiO2 
 PCOD8119850
Probable space group: P 2/C
;
_chemical_formula_sum "Si O2"
_cell_formula_units_Z 28
_cell_length_a 7.473916
_cell_length_b 30.731760
_cell_length_c 5.641274
_cell_angle_alpha 90.000000
_cell_angle_beta 124.890038
_cell_angle_gamma 90.000000
_cell_volume 1062.820174
_symmetry_space_group_name_H-M "P 2/C"
_symmetry_group_IT_number 13
_symmetry_cell_setting 'monoclinic'
loop_
_space_group_symop_operation_xyz
x,y,z
-x,y,1/2-z
-x,-y,-z
x,-y,1/2+z
loop_
_atom_site_type_symbol
_atom_site_label
_atom_site_fract_x
_atom_site_fract_y
_atom_site_fract_z
Si Si1 0.748592 0.983480 0.808214
Si Si2 0.500000 0.903916 0.750000
Si Si3 0.754374 0.619931 0.428148
Si Si4 0.000000 0.800785 0.750000
Si Si5 0.245899 0.518335 0.071512
Si Si6 0.220800 0.750579 0.557285
Si Si7 0.738199 0.347591 0.417547
Si Si8 0.336518 0.826641 0.332065
O O1 0.694886 0.931875 0.771718
O O2 0.642097 0.001088 0.481035
O O3 0.000000 0.000000 0.000000
O O4 0.376194 0.873558 0.472129
O O5 0.500000 0.633614 0.250000
O O6 0.786318 0.569159 0.412606
O O7 0.859828 0.633601 0.768948
O O8 0.855287 0.643854 0.265571
O O9 0.190541 0.769967 0.796533
O O10 0.908500 0.829592 0.463170
O O11 0.500000 0.504778 0.250000
O O12 0.143470 0.494442 0.231829
O O13 0.319314 0.703067 0.661013
O O14 0.369984 0.785247 0.529162
O O15 0.000000 0.744616 0.250000
O O16 0.500000 0.371476 0.250000
O O17 0.500000 0.817920 0.250000
#
# Coordination Sequence:
#
# PCOD8119850 Si02
#       8
#     4   2   4   2   4   4   4   4
#     4  10  24  50  77 113 152 200 248 304 370 436
#     4  12  26  46  78 114 154 194 250 310 364 440
#     4   9  18  31  45  81 116 153 220 269 333 427
#     4  10  24  48  68  96 152 184 242 304 362 438
#     4   9  15  24  42  65 106 159 197 257 341 416
#     4  10  24  44  64  93 132 179 231 291 357 426
#     4  10  21  33  58  83 117 166 210 277 340 412
#     4  11  26  46  72 110 144 192 245 305 366 445
#
# _framework density 26.345002000000001
#
# number of rings (size 3 to 8) (size 9 to 14) (size 15 to 20)
#    0.000    2.000    0.000    2.143    9.000    4.000 
#   12.857    0.000    0.000    0.000    0.000    0.000 
#    0.000   11.429    0.000    0.000    0.000    0.000 
#
# Total GULP energy -347024.910461 kJ/mol
# GULP energy per Si atom -12393.746802 kJ/mol
# Density = 2.628504 g / cm^3
# Si number density = 26.345002 Si / 1000 Ang^3
#
#
#
# Elastic Constant Matrix: (Units=GPa)
#
#
# Indices 1 2 3 4 5 6 
#
# 1 129.3326 56.8391 67.4868 0.0000 -52.3123 0.0000
# 2 56.8391 194.5893 64.7851 0.0000 -37.0447 0.0000
# 3 67.4868 64.7851 221.4352 0.0000 -32.5306 0.0000
# 4 0.0000 0.0000 0.0000 -89.2142 0.0000 70.7560
# 5 -52.3123 -37.0447 -32.5306 0.0000 49.8653 0.0000
# 6 0.0000 0.0000 0.0000 70.7560 0.0000 -15.3325
#
#
#
# Elastic Compliance Matrix: (Units=1/GPa)
#
#
# Indices 1 2 3 4 5 6 
#
# 1 0.014683 -0.001036 -0.002236 0.000000 0.013175 0.000000
# 2 -0.001036 0.006369 -0.001119 0.000000 0.002914 0.000000
# 3 -0.002236 -0.001119 0.005594 0.000000 0.000472 0.000000
# 4 0.000000 0.000000 0.000000 0.004214 0.000000 0.019446
# 5 0.013175 0.002914 0.000472 0.000000 0.036349 0.000000
# 6 0.000000 0.000000 0.000000 0.019446 0.000000 0.024519
#
#
# Mechanical properties :
#
#
# Convention : Reuss Voigt Hill
#
# Bulk Modulus (GPa) = 55.98176 102.61987 79.30082
# Shear Modulus (GPa) = 46.96270 12.81346 29.88808
#
# Velocity S-wave (km/s) = 4.22667 2.20778 3.37187
# Velocity P-wave (km/s) = 6.71679 6.74803 6.73243
#
# Compressibility (1/GPa) = 0.01786296
#
# Stress axis : x y z
#
# Youngs Moduli (GPa) = 68.10377 157.00492 178.74957
#
# Poissons Ratio (x) = 0.16269 0.39975
# Poissons Ratio (y) = 0.07057 0.20011
# Poissons Ratio (z) = 0.15230 0.17577
#
# Static dielectric constant tensor:
#      x y z
#    x 4.997090 0.000000 -0.489830 
#    y 0.000000 4.393490 0.000000 
#    z -0.489830 0.000000 4.644730 
# 
# 
# High freq. dielectric constant tensor:
#      x y z
#    x 2.102920 0.000000 0.009960 
#    y 0.000000 2.021920 0.000000 
#    z 0.009960 0.000000 2.106290 
# 
# From -- ./inp_files/2767.got.cif
#   From: 2010.06.25/outbox.cif.g09.slc.cpg/sg13_2_cif.got.tgz:2767.got - 2010.06.28 04:50:58.
