data_PCOD8119735
_publ_section_title
;
Structure prediction by ZEFSAII (Michael W. Deem and Ramdas Pophale) SiO2 
 PCOD8119735
Probable space group: P 2/C
;
_chemical_formula_sum "Si O2"
_cell_formula_units_Z 24
_cell_length_a 13.811878
_cell_length_b 5.991908
_cell_length_c 14.926376
_cell_angle_alpha 90.000000
_cell_angle_beta 63.633295
_cell_angle_gamma 90.000000
_cell_volume 1106.791234
_symmetry_space_group_name_H-M "P 2/C"
_symmetry_group_IT_number 13
_symmetry_cell_setting 'monoclinic'
loop_
_space_group_symop_operation_xyz
x,y,z
-x,y,1/2-z
-x,-y,-z
x,-y,1/2+z
loop_
_atom_site_type_symbol
_atom_site_label
_atom_site_fract_x
_atom_site_fract_y
_atom_site_fract_z
Si Si1 0.329526 0.506652 0.098107
Si Si2 0.930139 0.558004 0.115498
Si Si3 0.000000 0.843451 0.250000
Si Si4 0.523238 0.802963 0.561145
Si Si5 0.500000 0.061682 0.750000
Si Si6 0.173631 0.818148 0.726249
Si Si7 0.723271 0.805402 0.218716
O O1 0.434194 0.387184 0.094269
O O2 0.236786 0.318909 0.121135
O O3 0.275639 0.660194 0.193407
O O4 0.363124 0.670775 0.002791
O O5 0.999708 0.700143 0.158796
O O6 0.899998 0.331027 0.178885
O O7 0.825476 0.701072 0.122757
O O8 0.000000 0.500000 0.000000
O O9 0.894419 0.997724 0.298359
O O10 0.500000 0.000000 0.500000
O O11 0.528361 0.906127 0.655893
O O12 0.393270 0.215273 0.781785
O O13 0.259107 0.937707 0.758671
#
# Coordination Sequence:
#
# PCOD8119735 Si02
#       7
#     4   4   2   4   2   4   4
#     4  10  20  41  67  89 131 178 224 279 335 394
#     4  10  23  45  71 101 138 177 232 288 347 407
#     4  10  22  40  74  98 134 186 218 292 350 398
#     4  11  22  40  64  95 133 182 223 282 323 409
#     4  12  22  42  66  94 146 186 228 274 358 398
#     4  10  20  43  66  96 134 175 224 289 334 409
#     4  10  22  41  67  94 137 178 223 287 333 411
#
# _framework density 21.684305999999999
#
# number of rings (size 3 to 8) (size 9 to 14) (size 15 to 20)
#    0.000    1.667    3.333    0.500    0.000    3.333 
#    0.000   21.667    0.000    0.000    0.000    0.000 
#    0.000    0.000    0.000    0.000    0.000    0.000 
#
# Total GULP energy -297374.441865 kJ/mol
# GULP energy per Si atom -12390.601744 kJ/mol
# Density = 2.163495 g / cm^3
# Si number density = 21.684306 Si / 1000 Ang^3
#
#
#
# Elastic Constant Matrix: (Units=GPa)
#
#
# Indices 1 2 3 4 5 6 
#
# 1 125.8960 48.0804 52.2718 0.0000 -9.5193 0.0000
# 2 48.0804 119.1008 57.4829 0.0000 -9.6384 0.0000
# 3 52.2718 57.4829 143.8747 0.0000 -15.4340 0.0000
# 4 0.0000 0.0000 0.0000 28.5863 0.0000 -13.1302
# 5 -9.5193 -9.6384 -15.4340 0.0000 32.9327 0.0000
# 6 0.0000 0.0000 0.0000 -13.1302 0.0000 41.7446
#
#
#
# Elastic Compliance Matrix: (Units=1/GPa)
#
#
# Indices 1 2 3 4 5 6 
#
# 1 0.010108 -0.002825 -0.002442 0.000000 0.000951 0.000000
# 2 -0.002825 0.011234 -0.003366 0.000000 0.000894 0.000000
# 3 -0.002442 -0.003366 0.009477 0.000000 0.002751 0.000000
# 4 0.000000 0.000000 0.000000 0.040889 0.000000 0.012861
# 5 0.000951 0.000894 0.002751 0.000000 0.032190 0.000000
# 6 0.000000 0.000000 0.000000 0.012861 0.000000 0.028000
#
#
# Mechanical properties :
#
#
# Convention : Reuss Voigt Hill
#
# Bulk Modulus (GPa) = 73.78179 78.28241 76.03210
# Shear Modulus (GPa) = 32.53482 36.05517 34.29500
#
# Velocity S-wave (km/s) = 3.87768 4.08208 3.98120
# Velocity P-wave (km/s) = 7.35852 7.64181 7.50150
#
# Compressibility (1/GPa) = 0.01355348
#
# Stress axis : x y z
#
# Youngs Moduli (GPa) = 98.93577 89.01887 105.51372
#
# Poissons Ratio (x) = 0.25148 0.25762
# Poissons Ratio (y) = 0.27950 0.35515
# Poissons Ratio (z) = 0.24156 0.29963
#
# Static dielectric constant tensor:
#      x y z
#    x 4.168300 0.000000 -0.384860 
#    y 0.000000 4.465570 0.000000 
#    z -0.384860 0.000000 3.817920 
# 
# 
# High freq. dielectric constant tensor:
#      x y z
#    x 1.841870 0.000000 -0.032870 
#    y 0.000000 1.876910 0.000000 
#    z -0.032870 0.000000 1.835680 
# 
# From -- ./inp_files/52142.got.cif
#   From: 2010.06.25/outbox.cif.g09.slc.cpg/sg13_27_cif.got.tgz:52142.got - 2010.06.28 04:50:58.
