data_PCOD8119336
_publ_section_title
;
Structure prediction by ZEFSAII (Michael W. Deem and Ramdas Pophale) SiO2 
 PCOD8119336
Probable space group: P 2/C
;
_chemical_formula_sum "Si O2"
_cell_formula_units_Z 32
_cell_length_a 15.966641
_cell_length_b 9.393298
_cell_length_c 21.405709
_cell_angle_alpha 90.000000
_cell_angle_beta 29.230894
_cell_angle_gamma 90.000000
_cell_volume 1567.743191
_symmetry_space_group_name_H-M "P 2/C"
_symmetry_group_IT_number 13
_symmetry_cell_setting 'monoclinic'
loop_
_space_group_symop_operation_xyz
x,y,z
-x,y,1/2-z
-x,-y,-z
x,-y,1/2+z
loop_
_atom_site_type_symbol
_atom_site_label
_atom_site_fract_x
_atom_site_fract_y
_atom_site_fract_z
Si Si1 0.339253 0.233880 0.452923
Si Si2 0.597208 0.520506 0.747229
Si Si3 0.665549 0.336595 0.913836
Si Si4 0.265730 0.273070 0.766078
Si Si5 0.085219 0.375606 0.529428
Si Si6 0.519496 0.023562 0.884407
Si Si7 0.336979 0.814205 0.610570
Si Si8 0.906420 0.579556 0.745417
O O1 0.493108 0.344939 0.340372
O O2 0.258818 0.259581 0.573727
O O3 0.188054 0.254727 0.501366
O O4 0.418038 0.074148 0.400198
O O5 0.500000 0.456229 0.750000
O O6 0.611754 0.402422 0.791620
O O7 0.790888 0.560409 0.603307
O O8 0.738449 0.254707 0.806120
O O9 0.726283 0.498661 0.873045
O O10 0.461384 0.318644 0.046126
O O11 0.066330 0.300589 0.912131
O O12 0.350626 0.128408 0.737954
O O13 0.018403 0.503138 0.618447
O O14 0.641861 0.930999 0.849564
O O15 0.381773 0.115554 0.014213
O O16 0.146496 0.743345 0.736158
O O17 0.000000 0.577963 0.750000
#
# Coordination Sequence:
#
# PCOD8119336 Si02
#       8
#     4   4   4   4   4   4   4   4
#     4  10  20  38  62  86 123 159 195 240 292 362
#     4  10  23  40  62  86 116 157 205 246 290 348
#     4   9  19  31  59  90 114 145 196 239 291 342
#     4  10  21  37  62  89 117 151 200 250 293 351
#     4  10  22  38  59  90 124 153 197 251 302 340
#     4   9  20  37  58  84 116 160 199 225 299 362
#     4   9  19  34  53  84 123 154 187 238 288 362
#     4  11  20  32  57  93 119 146 192 249 302 342
#
# _framework density 20.411505999999999
#
# number of rings (size 3 to 8) (size 9 to 14) (size 15 to 20)
#    0.000    2.250    1.250    1.500   10.500    0.000 
#    2.250    2.500    0.000    0.000    0.000    0.000 
#    0.000    0.000    0.000    0.000    0.000    0.000 
#
# Total GULP energy -396471.155180 kJ/mol
# GULP energy per Si atom -12389.723599 kJ/mol
# Density = 2.036505 g / cm^3
# Si number density = 20.411506 Si / 1000 Ang^3
#
#
#
# Elastic Constant Matrix: (Units=GPa)
#
#
# Indices 1 2 3 4 5 6 
#
# 1 57.6630 45.7563 18.1976 0.0000 -5.6280 0.0000
# 2 45.7563 116.5767 39.8049 0.0000 -22.7924 0.0000
# 3 18.1976 39.8049 66.4654 0.0000 -12.2015 0.0000
# 4 0.0000 0.0000 0.0000 15.5368 0.0000 -9.6642
# 5 -5.6280 -22.7924 -12.2015 0.0000 25.2534 0.0000
# 6 0.0000 0.0000 0.0000 -9.6642 0.0000 27.9132
#
#
#
# Elastic Compliance Matrix: (Units=1/GPa)
#
#
# Indices 1 2 3 4 5 6 
#
# 1 0.025663 -0.010387 -0.001620 0.000000 -0.004439 0.000000
# 2 -0.010387 0.016352 -0.005119 0.000000 0.009971 0.000000
# 3 -0.001620 -0.005119 0.019357 0.000000 0.004372 0.000000
# 4 0.000000 0.000000 0.000000 0.082029 0.000000 0.028400
# 5 -0.004439 0.009971 0.004372 0.000000 0.049721 0.000000
# 6 0.000000 0.000000 0.000000 0.028400 0.000000 0.045658
#
#
# Mechanical properties :
#
#
# Convention : Reuss Voigt Hill
#
# Bulk Modulus (GPa) = 36.87392 49.80254 43.33823
# Shear Modulus (GPa) = 17.72600 22.87042 20.29821
#
# Velocity S-wave (km/s) = 2.95011 3.35097 3.15691
# Velocity P-wave (km/s) = 5.45057 6.27887 5.87932
#
# Compressibility (1/GPa) = 0.02711944
#
# Stress axis : x y z
#
# Youngs Moduli (GPa) = 38.96726 61.15413 51.66063
#
# Poissons Ratio (x) = 0.63521 0.08371
# Poissons Ratio (y) = 0.40476 0.26444
# Poissons Ratio (z) = 0.06314 0.31303
#
# Static dielectric constant tensor:
#      x y z
#    x 3.754890 0.000000 -0.102320 
#    y 0.000000 3.744330 0.000000 
#    z -0.102320 0.000000 3.692520 
# 
# 
# High freq. dielectric constant tensor:
#      x y z
#    x 1.793090 0.000000 -0.007440 
#    y 0.000000 1.785080 0.000000 
#    z -0.007440 0.000000 1.778730 
# 
# From -- ./inp_files/87893.got.cif
#   From: 2010.06.25/outbox.cif.g09.slc.cpg/sg13_44_cif.got.tgz:87893.got - 2010.06.28 04:50:58.
