data_PCOD8119169
_publ_section_title
;
Structure prediction by ZEFSAII (Michael W. Deem and Ramdas Pophale) SiO2 
 PCOD8119169
Probable space group: P 2/C
;
_chemical_formula_sum "Si O2"
_cell_formula_units_Z 26
_cell_length_a 8.180801
_cell_length_b 9.588726
_cell_length_c 19.774771
_cell_angle_alpha 90.000000
_cell_angle_beta 52.744271
_cell_angle_gamma 90.000000
_cell_volume 1234.665565
_symmetry_space_group_name_H-M "P 2/C"
_symmetry_group_IT_number 13
_symmetry_cell_setting 'monoclinic'
loop_
_space_group_symop_operation_xyz
x,y,z
-x,y,1/2-z
-x,-y,-z
x,-y,1/2+z
loop_
_atom_site_type_symbol
_atom_site_label
_atom_site_fract_x
_atom_site_fract_y
_atom_site_fract_z
Si Si1 0.500000 0.359437 0.250000
Si Si2 0.722279 0.054170 0.958809
Si Si3 0.762476 0.727787 0.562928
Si Si4 0.367402 0.268394 0.621765
Si Si5 0.811384 0.770081 0.981239
Si Si6 0.152288 0.454092 0.770877
Si Si7 0.227151 0.474788 0.554488
O O1 0.372359 0.265325 0.334962
O O2 0.662601 0.446428 0.253303
O O3 0.777105 0.157317 0.882711
O O4 0.713695 0.136762 0.031205
O O5 0.500000 0.000000 0.000000
O O6 0.865395 0.915933 0.929044
O O7 0.716987 0.584103 0.533896
O O8 0.004399 0.729834 0.516526
O O9 0.598119 0.212039 0.577206
O O10 0.254433 0.308803 0.719482
O O11 0.383419 0.410685 0.571373
O O12 0.773414 0.642653 0.938944
O O13 0.000000 0.517057 0.750000
O O14 0.005974 0.421458 0.871046
#
# Coordination Sequence:
#
# PCOD8119169 Si02
#       7
#     2   4   4   4   4   4   4
#     4  12  24  40  64  94 134 158 212 272 316 372
#     4   9  21  40  65  84 123 167 207 258 313 383
#     4  11  23  39  63  93 126 163 213 265 319 381
#     4   9  20  37  62  92 125 162 207 259 309 379
#     4  11  19  35  64  93 118 162 208 254 320 368
#     4  10  22  38  61  95 134 161 207 263 318 367
#     4  10  20  37  62  95 122 163 212 259 316 377
#
# _framework density 21.058333000000001
#
# number of rings (size 3 to 8) (size 9 to 14) (size 15 to 20)
#    0.000    1.846    1.538    2.308    2.154    6.154 
#    0.000    0.000   37.231    0.000    0.000    0.000 
#    0.000    0.000    0.000    0.000    0.000    0.000 
#
# Total GULP energy -322142.956087 kJ/mol
# GULP energy per Si atom -12390.113696 kJ/mol
# Density = 2.101040 g / cm^3
# Si number density = 21.058333 Si / 1000 Ang^3
#
#
#
# Elastic Constant Matrix: (Units=GPa)
#
#
# Indices 1 2 3 4 5 6 
#
# 1 117.4824 28.3498 24.1125 0.0000 -16.3957 0.0000
# 2 28.3498 134.7970 37.7796 0.0000 12.3085 0.0000
# 3 24.1125 37.7796 114.1148 0.0000 -0.8018 0.0000
# 4 0.0000 0.0000 0.0000 22.8442 0.0000 2.6846
# 5 -16.3957 12.3085 -0.8018 0.0000 21.8605 0.0000
# 6 0.0000 0.0000 0.0000 2.6846 0.0000 29.8037
#
#
#
# Elastic Compliance Matrix: (Units=1/GPa)
#
#
# Indices 1 2 3 4 5 6 
#
# 1 0.010791 -0.002786 -0.001290 0.000000 0.009614 0.000000
# 2 -0.002786 0.009411 -0.002579 0.000000 -0.007483 0.000000
# 3 -0.001290 -0.002579 0.009896 0.000000 0.000848 0.000000
# 4 0.000000 0.000000 0.000000 0.044243 0.000000 -0.003985
# 5 0.009614 -0.007483 0.000848 0.000000 0.057200 0.000000
# 6 0.000000 0.000000 0.000000 -0.003985 0.000000 0.033912
#
#
# Mechanical properties :
#
#
# Convention : Reuss Voigt Hill
#
# Bulk Modulus (GPa) = 59.57323 60.76422 60.16872
# Shear Modulus (GPa) = 27.12114 33.31184 30.21649
#
# Velocity S-wave (km/s) = 3.59263 3.98161 3.79211
# Velocity P-wave (km/s) = 6.74984 7.07498 6.91433
#
# Compressibility (1/GPa) = 0.01678606
#
# Stress axis : x y z
#
# Youngs Moduli (GPa) = 92.67207 106.26262 101.05424
#
# Poissons Ratio (x) = 0.29602 0.13039
# Poissons Ratio (y) = 0.25816 0.26067
# Poissons Ratio (z) = 0.11957 0.27410
#
# Static dielectric constant tensor:
#      x y z
#    x 3.969250 0.000000 -0.101580 
#    y 0.000000 2.604680 0.000000 
#    z -0.101580 0.000000 3.792440 
# 
# 
# High freq. dielectric constant tensor:
#      x y z
#    x 1.836700 0.000000 -0.012130 
#    y 0.000000 1.814680 0.000000 
#    z -0.012130 0.000000 1.803070 
# 
# From -- ./inp_files/75928.got.cif
#   From: 2010.06.25/outbox.cif.g09.slc.cpg/sg13_38_cif.got.tgz:75928.got - 2010.06.28 04:50:58.
