data_PCOD8119829
_publ_section_title
;
Structure prediction by ZEFSAII (Michael W. Deem and Ramdas Pophale) SiO2 
 PCOD8119829
Probable space group: P 2/C
;
_chemical_formula_sum "Si O2"
_cell_formula_units_Z 26
_cell_length_a 14.770030
_cell_length_b 13.057163
_cell_length_c 9.164169
_cell_angle_alpha 90.000000
_cell_angle_beta 137.242731
_cell_angle_gamma 90.000000
_cell_volume 1199.845150
_symmetry_space_group_name_H-M "P 2/C"
_symmetry_group_IT_number 13
_symmetry_cell_setting 'monoclinic'
loop_
_space_group_symop_operation_xyz
x,y,z
-x,y,1/2-z
-x,-y,-z
x,-y,1/2+z
loop_
_atom_site_type_symbol
_atom_site_label
_atom_site_fract_x
_atom_site_fract_y
_atom_site_fract_z
Si Si1 0.234719 0.590654 0.886079
Si Si2 0.550869 0.791423 0.967694
Si Si3 0.370580 0.568572 0.359021
Si Si4 0.220746 0.147604 0.580885
Si Si5 0.693621 0.199443 0.125558
Si Si6 0.912622 0.055567 0.518372
Si Si7 0.000000 0.307231 0.250000
O O1 0.256947 0.484076 0.826999
O O2 0.291714 0.677873 0.845610
O O3 0.079068 0.618074 0.731904
O O4 0.312071 0.591189 0.131075
O O5 0.500000 0.825239 0.750000
O O6 0.440479 0.830872 0.951237
O O7 0.581705 0.671490 0.007276
O O8 0.688933 0.849287 0.166808
O O9 0.500000 0.500000 0.500000
O O10 0.315309 0.172286 0.555518
O O11 0.103184 0.232444 0.456732
O O12 0.170274 0.033175 0.500031
O O13 0.822758 0.144550 0.345552
O O14 0.000000 0.000000 0.500000
O O15 0.000000 0.107530 0.750000
#
# Coordination Sequence:
#
# PCOD8119829 Si02
#       7
#     4   4   4   4   4   4   2
#     4  11  24  42  69 103 136 186 238 291 356 419
#     4  12  26  42  68 106 142 181 240 299 353 416
#     4  12  23  42  73  98 136 186 239 288 353 428
#     4  11  23  46  74 100 142 191 232 287 362 432
#     4  11  24  45  70 101 142 189 231 295 357 422
#     4  12  24  45  75 105 139 187 241 283 354 438
#     4  10  20  44  70 100 140 192 228 288 360 422
#
# _framework density 21.669463
#
# number of rings (size 3 to 8) (size 9 to 14) (size 15 to 20)
#    0.000    0.615    6.923    2.769    2.154    1.231 
#    0.000    0.000    1.692    0.000    0.000    0.000 
#    0.000    0.000    0.000    0.000    0.000    0.000 
#
# Total GULP energy -322385.921737 kJ/mol
# GULP energy per Si atom -12399.458528 kJ/mol
# Density = 2.162014 g / cm^3
# Si number density = 21.669463 Si / 1000 Ang^3
#
#
#
# Elastic Constant Matrix: (Units=GPa)
#
#
# Indices 1 2 3 4 5 6 
#
# 1 99.9952 19.6500 44.3630 0.0000 7.7346 0.0000
# 2 19.6500 67.3471 37.5959 0.0000 -3.0174 0.0000
# 3 44.3630 37.5959 156.3942 0.0000 1.8523 0.0000
# 4 0.0000 0.0000 0.0000 39.0799 0.0000 2.2868
# 5 7.7346 -3.0174 1.8523 0.0000 27.9080 0.0000
# 6 0.0000 0.0000 0.0000 2.2868 0.0000 33.4330
#
#
#
# Elastic Compliance Matrix: (Units=1/GPa)
#
#
# Indices 1 2 3 4 5 6 
#
# 1 0.011925 -0.002036 -0.002854 0.000000 -0.003336 0.000000
# 2 -0.002036 0.017625 -0.003692 0.000000 0.002715 0.000000
# 3 -0.002854 -0.003692 0.008093 0.000000 -0.000145 0.000000
# 4 0.000000 0.000000 0.000000 0.025691 0.000000 -0.001757
# 5 -0.003336 0.002715 -0.000145 0.000000 0.037060 0.000000
# 6 0.000000 0.000000 0.000000 -0.001757 0.000000 0.030031
#
#
# Mechanical properties :
#
#
# Convention : Reuss Voigt Hill
#
# Bulk Modulus (GPa) = 48.82748 58.55049 53.68898
# Shear Modulus (GPa) = 32.38081 34.89269 33.63675
#
# Velocity S-wave (km/s) = 3.86982 4.01711 3.94415
# Velocity P-wave (km/s) = 6.52297 6.97099 6.75070
#
# Compressibility (1/GPa) = 0.02048027
#
# Stress axis : x y z
#
# Youngs Moduli (GPa) = 83.86069 56.73813 123.56772
#
# Poissons Ratio (x) = 0.11550 0.35262
# Poissons Ratio (y) = 0.17071 0.45616
# Poissons Ratio (z) = 0.23931 0.20945
#
# Static dielectric constant tensor:
#      x y z
#    x 4.801350 0.000000 0.057910 
#    y 0.000000 4.121640 0.000000 
#    z 0.057910 0.000000 3.964130 
# 
# 
# High freq. dielectric constant tensor:
#      x y z
#    x 1.853940 0.000000 0.006790 
#    y 0.000000 1.847550 0.000000 
#    z 0.006790 0.000000 1.853780 
# 
# From -- ./inp_files/19925.got.cif
#   From: 2010.06.25/outbox.cif.g09.slc.cpg/sg13_10_cif.got.tgz:19925.got - 2010.06.28 04:50:58.
