data_PCOD8119875
_publ_section_title
;
Structure prediction by ZEFSAII (Michael W. Deem and Ramdas Pophale) SiO2 
 PCOD8119875
Probable space group: P 2/C
;
_chemical_formula_sum "Si O2"
_cell_formula_units_Z 28
_cell_length_a 5.500044
_cell_length_b 12.248008
_cell_length_c 21.031659
_cell_angle_alpha 90.000000
_cell_angle_beta 80.072831
_cell_angle_gamma 90.000000
_cell_volume 1395.576331
_symmetry_space_group_name_H-M "P 2/C"
_symmetry_group_IT_number 13
_symmetry_cell_setting 'monoclinic'
loop_
_space_group_symop_operation_xyz
x,y,z
-x,y,1/2-z
-x,-y,-z
x,-y,1/2+z
loop_
_atom_site_type_symbol
_atom_site_label
_atom_site_fract_x
_atom_site_fract_y
_atom_site_fract_z
Si Si1 0.937916 0.678359 0.044537
Si Si2 0.187062 0.205481 0.189912
Si Si3 0.490868 0.103474 0.415687
Si Si4 0.524789 0.580403 0.817449
Si Si5 0.428031 0.563596 0.067731
Si Si6 0.124732 0.290789 0.405817
Si Si7 0.203917 0.913063 0.474559
O O1 0.676648 0.627230 0.078567
O O2 0.910782 0.808942 0.056330
O O3 0.183980 0.638345 0.070436
O O4 0.977668 0.646704 0.968357
O O5 0.390616 0.115784 0.160518
O O6 0.307410 0.316237 0.210265
O O7 0.000000 0.156171 0.250000
O O8 0.060895 0.225853 0.128912
O O9 0.291712 0.199898 0.432913
O O10 0.671773 0.127421 0.466243
O O11 0.395357 0.978977 0.421278
O O12 0.500000 0.517479 0.750000
O O13 0.649763 0.511324 0.868314
O O14 0.264931 0.620028 0.857429
O O15 0.500000 0.500000 0.000000
O O16 0.000000 0.000000 0.500000
#
# Coordination Sequence:
#
# PCOD8119875 Si02
#       7
#     4   4   4   4   4   4   4
#     4  12  24  40  62  95 132 166 217 266 323 381
#     4  11  21  35  61  92 128 165 207 267 330 398
#     4  10  21  34  57  93 130 163 202 261 327 395
#     4  11  24  39  60  90 128 171 216 261 328 397
#     4  12  26  40  63  93 133 170 214 270 324 384
#     4  11  20  37  58  94 130 160 206 265 322 398
#     4  11  21  36  61  90 128 167 207 259 326 393
#
# _framework density 20.063393999999999
#
# number of rings (size 3 to 8) (size 9 to 14) (size 15 to 20)
#    0.000    0.857    5.714    2.143    4.000    0.000 
#    0.000    0.000    0.000    0.000    7.429    0.000 
#    0.000    0.000    0.000    0.000    0.000    0.000 
#
# Total GULP energy -346984.214311 kJ/mol
# GULP energy per Si atom -12392.293368 kJ/mol
# Density = 2.001773 g / cm^3
# Si number density = 20.063394 Si / 1000 Ang^3
#
#
#
# Elastic Constant Matrix: (Units=GPa)
#
#
# Indices 1 2 3 4 5 6 
#
# 1 96.2798 28.2061 17.1405 0.0000 1.4977 0.0000
# 2 28.2061 89.5661 33.6759 0.0000 -2.7013 0.0000
# 3 17.1405 33.6759 116.0835 0.0000 0.0371 0.0000
# 4 0.0000 0.0000 0.0000 33.5911 0.0000 -4.2863
# 5 1.4977 -2.7013 0.0371 0.0000 32.7968 0.0000
# 6 0.0000 0.0000 0.0000 -4.2863 0.0000 42.0667
#
#
#
# Elastic Compliance Matrix: (Units=1/GPa)
#
#
# Indices 1 2 3 4 5 6 
#
# 1 0.011517 -0.003381 -0.000720 0.000000 -0.000804 0.000000
# 2 -0.003381 0.013560 -0.003435 0.000000 0.001275 0.000000
# 3 -0.000720 -0.003435 0.009717 0.000000 -0.000261 0.000000
# 4 0.000000 0.000000 0.000000 0.030162 0.000000 0.003073
# 5 -0.000804 0.001275 -0.000261 0.000000 0.030633 0.000000
# 6 0.000000 0.000000 0.000000 0.003073 0.000000 0.024085
#
#
# Mechanical properties :
#
#
# Convention : Reuss Voigt Hill
#
# Bulk Modulus (GPa) = 50.70005 51.10825 50.90415
# Shear Modulus (GPa) = 35.38098 36.55138 35.96618
#
# Velocity S-wave (km/s) = 4.20391 4.27288 4.23854
# Velocity P-wave (km/s) = 6.99204 7.06201 7.02711
#
# Compressibility (1/GPa) = 0.01972385
#
# Stress axis : x y z
#
# Youngs Moduli (GPa) = 86.82504 73.74898 102.90945
#
# Poissons Ratio (x) = 0.24932 0.07406
# Poissons Ratio (y) = 0.29353 0.35348
# Poissons Ratio (z) = 0.06248 0.25332
#
# Static dielectric constant tensor:
#      x y z
#    x 3.864000 0.000000 -0.121550 
#    y 0.000000 3.777800 0.000000 
#    z -0.121550 0.000000 3.506960 
# 
# 
# High freq. dielectric constant tensor:
#      x y z
#    x 1.806100 0.000000 -0.010860 
#    y 0.000000 1.759180 0.000000 
#    z -0.010860 0.000000 1.762330 
# 
# From -- ./inp_files/73594.got.cif
#   From: 2010.06.25/outbox.cif.g09.slc.cpg/sg13_37_cif.got.tgz:73594.got - 2010.06.28 04:50:58.
