data_PCOD8119270
_publ_section_title
;
Structure prediction by ZEFSAII (Michael W. Deem and Ramdas Pophale) SiO2 
 PCOD8119270
Probable space group: P 2/C
;
_chemical_formula_sum "Si O2"
_cell_formula_units_Z 24
_cell_length_a 7.871859
_cell_length_b 10.009877
_cell_length_c 18.375829
_cell_angle_alpha 90.000000
_cell_angle_beta 123.299733
_cell_angle_gamma 90.000000
_cell_volume 1210.209365
_symmetry_space_group_name_H-M "P 2/C"
_symmetry_group_IT_number 13
_symmetry_cell_setting 'monoclinic'
loop_
_space_group_symop_operation_xyz
x,y,z
-x,y,1/2-z
-x,-y,-z
x,-y,1/2+z
loop_
_atom_site_type_symbol
_atom_site_label
_atom_site_fract_x
_atom_site_fract_y
_atom_site_fract_z
Si Si1 0.113087 0.623832 0.994658
Si Si2 0.818042 0.331914 0.153977
Si Si3 0.443353 0.068371 0.411037
Si Si4 0.443353 0.431629 0.911037
Si Si5 0.818041 0.831914 0.153977
Si Si6 0.886913 0.123832 0.505342
O O1 0.095748 0.620455 0.903287
O O2 0.347164 0.613802 0.078143
O O3 0.000000 0.500000 0.000000
O O4 0.000000 0.750000 0.000000
O O5 0.687648 0.200394 0.108360
O O6 0.685784 0.452200 0.160417
O O7 0.000000 0.293907 0.250000
O O8 0.652836 0.113802 0.421857
O O9 0.500000 0.000000 0.500000
O O10 0.314217 0.952200 0.339583
O O11 0.312352 0.299606 0.891640
O O12 0.500000 0.500000 0.000000
O O13 0.904252 0.879546 0.096713
O O14 0.000000 0.793908 0.250000
O O15 0.000000 0.000000 0.500000
#
# Coordination Sequence:
#
# PCOD8119270 Si02
#       6
#     4   4   4   4   4   4
#     4  11  21  37  59  85 112 148 191 236 282 339
#     4  11  22  39  60  85 115 154 196 239 286 343
#     4  10  20  38  60  82 114 158 194 227 285 362
#     4  10  20  38  60  82 114 158 194 227 285 362
#     4  11  22  39  60  85 115 154 196 239 286 343
#     4  11  21  37  59  85 112 148 191 236 282 339
#
# _framework density 19.831278000000001
#
# number of rings (size 3 to 8) (size 9 to 14) (size 15 to 20)
#    0.000    1.333    0.000   11.000    0.000    0.000 
#    0.000   10.000    0.000    0.000    0.000    0.000 
#    0.000    0.000    0.000    0.000    0.000    0.000 
#
# Total GULP energy -297474.843479 kJ/mol
# GULP energy per Si atom -12394.785145 kJ/mol
# Density = 1.978614 g / cm^3
# Si number density = 19.831278 Si / 1000 Ang^3
#
#
#
# Elastic Constant Matrix: (Units=GPa)
#
#
# Indices 1 2 3 4 5 6 
#
# 1 139.2962 87.4875 63.7810 0.0000 26.5262 0.0000
# 2 87.4875 189.1284 45.8443 0.0000 15.5389 0.0000
# 3 63.7810 45.8443 97.4109 0.0000 15.3626 0.0000
# 4 0.0000 0.0000 0.0000 28.2368 0.0000 16.4664
# 5 26.5262 15.5389 15.3626 0.0000 23.4307 0.0000
# 6 0.0000 0.0000 0.0000 16.4664 0.0000 57.9318
#
#
#
# Elastic Compliance Matrix: (Units=1/GPa)
#
#
# Indices 1 2 3 4 5 6 
#
# 1 0.014531 -0.004508 -0.005878 0.000000 -0.009607 0.000000
# 2 -0.004508 0.007486 -0.000662 0.000000 0.000573 0.000000
# 3 -0.005878 -0.000662 0.014842 0.000000 -0.002638 0.000000
# 4 0.000000 0.000000 0.000000 0.042451 0.000000 -0.012066
# 5 -0.009607 0.000573 -0.002638 0.000000 0.054906 0.000000
# 6 0.000000 0.000000 0.000000 -0.012066 0.000000 0.020691
#
#
# Mechanical properties :
#
#
# Convention : Reuss Voigt Hill
#
# Bulk Modulus (GPa) = 67.73174 91.11790 79.42482
# Shear Modulus (GPa) = 27.48415 37.16803 32.32609
#
# Velocity S-wave (km/s) = 3.72681 4.33391 4.04178
# Velocity P-wave (km/s) = 7.26271 8.43149 7.86883
#
# Compressibility (1/GPa) = 0.01476413
#
# Stress axis : x y z
#
# Youngs Moduli (GPa) = 68.81894 133.58287 67.37705
#
# Poissons Ratio (x) = 0.60214 0.39602
# Poissons Ratio (y) = 0.31021 0.04460
# Poissons Ratio (z) = 0.40449 0.08843
#
# Static dielectric constant tensor:
#      x y z
#    x 4.117150 0.000000 0.576860 
#    y 0.000000 4.040680 0.000000 
#    z 0.576860 0.000000 3.649830 
# 
# 
# High freq. dielectric constant tensor:
#      x y z
#    x 1.773000 0.000000 0.032850 
#    y 0.000000 1.806770 0.000000 
#    z 0.032850 0.000000 1.749130 
# 
# From -- ./inp_files/75763.got.cif
#   From: 2010.06.25/outbox.cif.g09.slc.cpg/sg13_38_cif.got.tgz:75763.got - 2010.06.28 04:50:58.
