data_PCOD8119359
_publ_section_title
;
Structure prediction by ZEFSAII (Michael W. Deem and Ramdas Pophale) SiO2 
 PCOD8119359
Probable space group: P 2/C
;
_chemical_formula_sum "Si O2"
_cell_formula_units_Z 22
_cell_length_a 13.134154
_cell_length_b 5.681131
_cell_length_c 12.997433
_cell_angle_alpha 90.000000
_cell_angle_beta 83.965215
_cell_angle_gamma 90.000000
_cell_volume 964.452961
_symmetry_space_group_name_H-M "P 2/C"
_symmetry_group_IT_number 13
_symmetry_cell_setting 'monoclinic'
loop_
_space_group_symop_operation_xyz
x,y,z
-x,y,1/2-z
-x,-y,-z
x,-y,1/2+z
loop_
_atom_site_type_symbol
_atom_site_label
_atom_site_fract_x
_atom_site_fract_y
_atom_site_fract_z
Si Si1 0.733469 0.094473 0.075127
Si Si2 0.000000 0.760970 0.250000
Si Si3 0.839040 0.062407 0.373728
Si Si4 0.552654 0.249580 0.966122
Si Si5 0.828171 0.430700 0.218732
Si Si6 0.669611 0.801451 0.261605
O O1 0.818963 0.237061 0.130455
O O2 0.656498 0.937648 0.154248
O O3 0.805486 0.928650 0.996373
O O4 0.661981 0.261900 0.013022
O O5 0.942150 0.915786 0.341972
O O6 0.919826 0.613243 0.188994
O O7 0.745787 0.956007 0.320207
O O8 0.854796 0.324617 0.328580
O O9 0.566838 0.239893 0.839933
O O10 0.500000 0.500000 0.000000
O O11 0.500000 0.000000 0.000000
O O12 0.716609 0.547400 0.233590
#
# Coordination Sequence:
#
# PCOD8119359 Si02
#       6
#     4   2   4   4   4   4
#     4  10  23  42  67  96 131 181 226 281 351 409
#     4  10  20  38  62  98 130 174 224 278 336 408
#     4   9  20  39  62  92 134 171 217 280 335 404
#     4  11  27  46  70 102 140 179 229 294 349 412
#     4  10  21  40  67  90 134 178 224 278 339 418
#     4   9  22  41  65  94 129 177 223 275 345 408
#
# _framework density 22.810859000000001
#
# number of rings (size 3 to 8) (size 9 to 14) (size 15 to 20)
#    0.000    2.182    0.000    0.545   10.182    4.364 
#    0.000   12.727    0.000    0.000    0.000    0.000 
#    0.000    0.000    0.000    0.000    0.000    0.000 
#
# Total GULP energy -272609.202104 kJ/mol
# GULP energy per Si atom -12391.327368 kJ/mol
# Density = 2.275894 g / cm^3
# Si number density = 22.810859 Si / 1000 Ang^3
#
#
#
# Elastic Constant Matrix: (Units=GPa)
#
#
# Indices 1 2 3 4 5 6 
#
# 1 59.8153 23.8852 33.3141 0.0000 -17.7058 0.0000
# 2 23.8852 110.1290 38.4976 0.0000 -9.1693 0.0000
# 3 33.3141 38.4976 153.0418 0.0000 -25.6460 0.0000
# 4 0.0000 0.0000 0.0000 21.0550 0.0000 -0.9377
# 5 -17.7058 -9.1693 -25.6460 0.0000 33.3925 0.0000
# 6 0.0000 0.0000 0.0000 -0.9377 0.0000 39.5677
#
#
#
# Elastic Compliance Matrix: (Units=1/GPa)
#
#
# Indices 1 2 3 4 5 6 
#
# 1 0.022002 -0.003156 -0.002509 0.000000 0.008873 0.000000
# 2 -0.003156 0.010434 -0.001995 0.000000 -0.000340 0.000000
# 3 -0.002509 -0.001995 0.008341 0.000000 0.004528 0.000000
# 4 0.000000 0.000000 0.000000 0.047545 0.000000 0.001127
# 5 0.008873 -0.000340 0.004528 0.000000 0.038036 0.000000
# 6 0.000000 0.000000 0.000000 0.001127 0.000000 0.025300
#
#
# Mechanical properties :
#
#
# Convention : Reuss Voigt Hill
#
# Bulk Modulus (GPa) = 39.28081 57.15334 48.21708
# Shear Modulus (GPa) = 28.49627 33.95566 31.22597
#
# Velocity S-wave (km/s) = 3.53830 3.86239 3.70389
# Velocity P-wave (km/s) = 5.82669 6.70824 6.28294
#
# Compressibility (1/GPa) = 0.02545772
#
# Stress axis : x y z
#
# Youngs Moduli (GPa) = 45.45029 95.84333 119.89329
#
# Poissons Ratio (x) = 0.30250 0.30076
# Poissons Ratio (y) = 0.14345 0.23914
# Poissons Ratio (z) = 0.11402 0.19117
#
# Static dielectric constant tensor:
#      x y z
#    x 3.968950 0.000000 -0.230470 
#    y 0.000000 4.244800 0.000000 
#    z -0.230470 0.000000 4.486880 
# 
# 
# High freq. dielectric constant tensor:
#      x y z
#    x 1.888820 0.000000 -0.007040 
#    y 0.000000 1.900200 0.000000 
#    z -0.007040 0.000000 1.900600 
# 
# From -- ./inp_files/35341.got.cif
#   From: 2010.06.25/outbox.cif.g09.slc.cpg/sg13_18_cif.got.tgz:35341.got - 2010.06.28 04:50:58.
