data_PCOD8119383
_publ_section_title
;
Structure prediction by ZEFSAII (Michael W. Deem and Ramdas Pophale) SiO2 
 PCOD8119383
Probable space group: P 2/C
;
_chemical_formula_sum "Si O2"
_cell_formula_units_Z 26
_cell_length_a 8.921883
_cell_length_b 11.199944
_cell_length_c 19.917460
_cell_angle_alpha 90.000000
_cell_angle_beta 40.680486
_cell_angle_gamma 90.000000
_cell_volume 1297.320979
_symmetry_space_group_name_H-M "P 2/C"
_symmetry_group_IT_number 13
_symmetry_cell_setting 'monoclinic'
loop_
_space_group_symop_operation_xyz
x,y,z
-x,y,1/2-z
-x,-y,-z
x,-y,1/2+z
loop_
_atom_site_type_symbol
_atom_site_label
_atom_site_fract_x
_atom_site_fract_y
_atom_site_fract_z
Si Si1 0.758823 0.786946 0.081067
Si Si2 0.000000 0.293668 0.750000
Si Si3 0.487806 0.600748 0.091961
Si Si4 0.000000 0.203902 0.250000
Si Si5 0.547517 0.664082 0.921476
Si Si6 0.020150 0.076596 0.380629
Si Si7 0.500000 0.024581 0.750000
Si Si8 0.103823 0.187753 0.574959
O O1 0.617969 0.670372 0.106760
O O2 0.909604 0.750952 0.094575
O O3 0.580174 0.892090 0.160668
O O4 0.931705 0.827602 0.964052
O O5 0.215549 0.379361 0.688261
O O6 0.037548 0.207824 0.674394
O O7 0.529330 0.459800 0.087018
O O8 0.586748 0.645910 0.987436
O O9 0.218338 0.287892 0.190314
O O10 0.045892 0.120054 0.170811
O O11 0.351216 0.760239 0.972812
O O12 0.294239 0.059601 0.294462
O O13 0.888776 0.953322 0.441001
#
# Coordination Sequence:
#
# PCOD8119383 Si02
#       8
#     4   2   4   2   4   4   2   4
#     4  11  22  40  64  92 122 164 208 252 307 372
#     4  10  20  38  64  88 120 156 208 246 310 360
#     4  10  20  41  62  88 120 164 203 259 299 366
#     4  12  24  40  60  96 122 170 210 250 314 370
#     4  10  23  39  62  87 125 159 208 252 309 360
#     4  11  24  38  62  92 126 162 204 256 306 374
#     4  10  22  40  64  88 130 162 202 256 324 360
#     4  10  22  40  62  92 121 161 201 257 309 369
#
# _framework density 20.041298999999999
#
# number of rings (size 3 to 8) (size 9 to 14) (size 15 to 20)
#    0.000    1.538    1.538    4.615    4.308    2.462 
#    0.000    0.000    6.769    0.000    0.000    0.000 
#    0.000    0.000    0.000    0.000    0.000    0.000 
#
# Total GULP energy -322537.853696 kJ/mol
# GULP energy per Si atom -12405.302065 kJ/mol
# Density = 1.999568 g / cm^3
# Si number density = 20.041299 Si / 1000 Ang^3
#
#
#
# Elastic Constant Matrix: (Units=GPa)
#
#
# Indices 1 2 3 4 5 6 
#
# 1 117.0032 54.3211 44.1140 0.0000 -9.6666 0.0000
# 2 54.3211 90.5033 30.4093 0.0000 -15.0921 0.0000
# 3 44.1140 30.4093 101.9079 0.0000 -17.3852 0.0000
# 4 0.0000 0.0000 0.0000 18.9055 0.0000 -4.5239
# 5 -9.6666 -15.0921 -17.3852 0.0000 28.3028 0.0000
# 6 0.0000 0.0000 0.0000 -4.5239 0.0000 28.9393
#
#
#
# Elastic Compliance Matrix: (Units=1/GPa)
#
#
# Indices 1 2 3 4 5 6 
#
# 1 0.013027 -0.006772 -0.003882 0.000000 -0.001547 0.000000
# 2 -0.006772 0.016414 -0.000969 0.000000 0.005844 0.000000
# 3 -0.003882 -0.000969 0.012811 0.000000 0.006026 0.000000
# 4 0.000000 0.000000 0.000000 0.054950 0.000000 0.008590
# 5 -0.001547 0.005844 0.006026 0.000000 0.041622 0.000000
# 6 0.000000 0.000000 0.000000 0.008590 0.000000 0.035898
#
#
# Mechanical properties :
#
#
# Convention : Reuss Voigt Hill
#
# Bulk Modulus (GPa) = 52.62000 63.01147 57.81574
# Shear Modulus (GPa) = 24.47328 27.26752 25.87040
#
# Velocity S-wave (km/s) = 3.49828 3.69259 3.59674
# Velocity P-wave (km/s) = 6.52917 7.04907 6.79409
#
# Compressibility (1/GPa) = 0.01900418
#
# Stress axis : x y z
#
# Youngs Moduli (GPa) = 76.76429 60.92175 78.06052
#
# Poissons Ratio (x) = 0.41259 0.30304
# Poissons Ratio (y) = 0.51988 0.07567
# Poissons Ratio (z) = 0.29800 0.05906
#
# Static dielectric constant tensor:
#      x y z
#    x 3.648180 0.000000 -0.006790 
#    y 0.000000 3.491090 0.000000 
#    z -0.006790 0.000000 3.725130 
# 
# 
# High freq. dielectric constant tensor:
#      x y z
#    x 1.779790 0.000000 -0.004810 
#    y 0.000000 1.773110 0.000000 
#    z -0.004810 0.000000 1.792710 
# 
# From -- ./inp_files/53400.got.cif
#   From: 2010.06.25/outbox.cif.g09.slc.cpg/sg13_27_cif.got.tgz:53400.got - 2010.06.28 04:50:58.
