data_PCOD8119089
_publ_section_title
;
Structure prediction by ZEFSAII (Michael W. Deem and Ramdas Pophale) SiO2 
 PCOD8119089
Probable space group: P 2/C
;
_chemical_formula_sum "Si O2"
_cell_formula_units_Z 30
_cell_length_a 28.785321
_cell_length_b 5.258709
_cell_length_c 21.434163
_cell_angle_alpha 90.000000
_cell_angle_beta 154.616956
_cell_angle_gamma 90.000000
_cell_volume 1390.841338
_symmetry_space_group_name_H-M "P 2/C"
_symmetry_group_IT_number 13
_symmetry_cell_setting 'monoclinic'
loop_
_space_group_symop_operation_xyz
x,y,z
-x,y,1/2-z
-x,-y,-z
x,-y,1/2+z
loop_
_atom_site_type_symbol
_atom_site_label
_atom_site_fract_x
_atom_site_fract_y
_atom_site_fract_z
Si Si1 0.168300 0.325196 0.323616
Si Si2 0.941024 0.159512 0.772372
Si Si3 0.679271 0.446698 0.883890
Si Si4 0.163834 0.829588 0.486341
Si Si5 0.362580 0.713599 0.974862
Si Si6 0.365633 0.090232 0.772148
Si Si7 0.571750 0.207141 0.517525
Si Si8 0.500000 0.437409 0.750000
O O1 0.112969 0.601341 0.259415
O O2 0.242904 0.287502 0.475579
O O3 0.237458 0.313901 0.344044
O O4 0.079267 0.098032 0.212645
O O5 0.888687 0.089884 0.642368
O O6 0.067660 0.231175 0.918292
O O7 0.753136 0.602429 0.926102
O O8 0.603196 0.264733 0.749344
O O9 0.590499 0.600539 0.820018
O O10 0.237051 0.042498 0.608409
O O11 0.434648 0.747643 0.124275
O O12 0.398180 0.458322 0.982720
O O13 0.370589 0.958339 0.940816
O O14 0.386946 0.241259 0.861722
O O15 0.441283 0.837784 0.859767
#
# Coordination Sequence:
#
# PCOD8119089 Si02
#       8
#     4   4   4   4   4   4   4   2
#     4  10  21  38  63  90 129 155 201 258 319 372
#     4  10  21  37  61  97 122 158 199 269 315 367
#     4  10  20  37  58  96 121 166 196 253 310 380
#     4  10  22  35  62  90 130 156 210 251 321 366
#     4  11  23  42  61  92 122 169 204 254 314 368
#     4  11  23  39  62  89 128 166 212 252 302 371
#     4  11  26  40  63  90 129 166 211 252 297 372
#     4  10  20  38  64  88 132 154 206 248 316 374
#
# _framework density 21.569680000000002
#
# number of rings (size 3 to 8) (size 9 to 14) (size 15 to 20)
#    0.000    1.600    2.667    1.600    3.733    2.667 
#    0.000    0.000    0.000    4.800    0.000    0.000 
#    0.000    0.000    0.000    0.000    0.000    0.000 
#
# Total GULP energy -371718.240969 kJ/mol
# GULP energy per Si atom -12390.608032 kJ/mol
# Density = 2.152059 g / cm^3
# Si number density = 21.569680 Si / 1000 Ang^3
#
#
#
# Elastic Constant Matrix: (Units=GPa)
#
#
# Indices 1 2 3 4 5 6 
#
# 1 105.7061 37.4487 48.7047 0.0000 26.4814 0.0000
# 2 37.4487 97.2860 24.0514 0.0000 6.0383 0.0000
# 3 48.7047 24.0514 89.0004 0.0000 21.5930 0.0000
# 4 0.0000 0.0000 0.0000 13.9829 0.0000 2.0291
# 5 26.4814 6.0383 21.5930 0.0000 38.2661 0.0000
# 6 0.0000 0.0000 0.0000 2.0291 0.0000 23.0206
#
#
#
# Elastic Compliance Matrix: (Units=1/GPa)
#
#
# Indices 1 2 3 4 5 6 
#
# 1 0.015130 -0.004033 -0.005566 0.000000 -0.006693 0.000000
# 2 -0.004033 0.012090 -0.001477 0.000000 0.001716 0.000000
# 3 -0.005566 -0.001477 0.015861 0.000000 -0.004865 0.000000
# 4 0.000000 0.000000 0.000000 0.072443 0.000000 -0.006385
# 5 -0.006693 0.001716 -0.004865 0.000000 0.033239 0.000000
# 6 0.000000 0.000000 0.000000 -0.006385 0.000000 0.044002
#
#
# Mechanical properties :
#
#
# Convention : Reuss Voigt Hill
#
# Bulk Modulus (GPa) = 47.77732 56.93358 52.35545
# Shear Modulus (GPa) = 22.53330 27.17310 24.85320
#
# Velocity S-wave (km/s) = 3.23565 3.55319 3.39813
# Velocity P-wave (km/s) = 6.01311 6.57921 6.30252
#
# Compressibility (1/GPa) = 0.02093043
#
# Stress axis : x y z
#
# Youngs Moduli (GPa) = 66.09231 82.71423 63.04590
#
# Poissons Ratio (x) = 0.33356 0.35093
# Poissons Ratio (y) = 0.26653 0.09310
# Poissons Ratio (z) = 0.36789 0.12215
#
# Static dielectric constant tensor:
#      x y z
#    x 4.099890 0.000000 0.251920 
#    y 0.000000 3.697240 0.000000 
#    z 0.251920 0.000000 3.939880 
# 
# 
# High freq. dielectric constant tensor:
#      x y z
#    x 1.854630 0.000000 0.022530 
#    y 0.000000 1.825420 0.000000 
#    z 0.022530 0.000000 1.833090 
# 
# From -- ./inp_files/82358.got.cif
#   From: 2010.06.25/outbox.cif.g09.slc.cpg/sg13_42_cif.got.tgz:82358.got - 2010.06.28 04:50:58.
