data_PCOD8119812
_publ_section_title
;
Structure prediction by ZEFSAII (Michael W. Deem and Ramdas Pophale) SiO2 
 PCOD8119812
Probable space group: P 2/C
;
_chemical_formula_sum "Si O2"
_cell_formula_units_Z 26
_cell_length_a 15.688555
_cell_length_b 6.536127
_cell_length_c 13.208946
_cell_angle_alpha 90.000000
_cell_angle_beta 113.974329
_cell_angle_gamma 90.000000
_cell_volume 1237.622897
_symmetry_space_group_name_H-M "P 2/C"
_symmetry_group_IT_number 13
_symmetry_cell_setting 'monoclinic'
loop_
_space_group_symop_operation_xyz
x,y,z
-x,y,1/2-z
-x,-y,-z
x,-y,1/2+z
loop_
_atom_site_type_symbol
_atom_site_label
_atom_site_fract_x
_atom_site_fract_y
_atom_site_fract_z
Si Si1 0.307075 0.435614 0.954534
Si Si2 0.062461 0.671192 0.584997
Si Si3 0.000000 0.081173 0.250000
Si Si4 0.739353 0.495679 0.288576
Si Si5 0.399836 0.792783 0.658462
Si Si6 0.297482 0.823929 0.074190
Si Si7 0.148714 0.856063 0.436408
O O1 0.315306 0.448618 0.839116
O O2 0.203337 0.355115 0.936997
O O3 0.388106 0.285671 0.036854
O O4 0.329239 0.661294 0.006235
O O5 0.155821 0.578724 0.679903
O O6 0.087813 0.831489 0.508782
O O7 0.000000 0.500000 0.500000
O O8 0.010582 0.780602 0.653894
O O9 0.086423 0.927769 0.311077
O O10 0.682167 0.320685 0.319388
O O11 0.745789 0.706966 0.351834
O O12 0.500000 0.733488 0.750000
O O13 0.384600 0.037236 0.653956
O O14 0.221696 0.965065 0.986402
#
# Coordination Sequence:
#
# PCOD8119812 Si02
#       7
#     4   4   2   4   4   4   4
#     4  10  23  41  69  95 129 168 216 265 330 392
#     4  12  26  43  64  98 137 182 228 275 325 389
#     4  12  28  38  68  94 134 180 232 276 330 378
#     4  11  23  42  70  92 132 173 217 269 328 386
#     4  10  23  44  67  98 129 162 211 270 333 400
#     4  10  20  43  65  91 127 171 206 266 327 389
#     4  11  24  44  61  97 130 176 223 276 317 392
#
# _framework density 21.008013999999999
#
# number of rings (size 3 to 8) (size 9 to 14) (size 15 to 20)
#    0.000    1.231    4.615    2.308    6.462    5.538 
#    0.000    1.538    0.000    0.000    0.000    0.000 
#    0.000    0.000    0.000    0.000    0.000    0.000 
#
# Total GULP energy -322355.378963 kJ/mol
# GULP energy per Si atom -12398.283806 kJ/mol
# Density = 2.096020 g / cm^3
# Si number density = 21.008014 Si / 1000 Ang^3
#
#
#
# Elastic Constant Matrix: (Units=GPa)
#
#
# Indices 1 2 3 4 5 6 
#
# 1 40.3921 18.8954 19.9174 0.0000 19.9583 0.0000
# 2 18.8954 107.4823 30.0720 0.0000 9.3601 0.0000
# 3 19.9174 30.0720 128.2183 0.0000 11.9137 0.0000
# 4 0.0000 0.0000 0.0000 37.7666 0.0000 5.5631
# 5 19.9583 9.3601 11.9137 0.0000 42.8029 0.0000
# 6 0.0000 0.0000 0.0000 5.5631 0.0000 14.8818
#
#
#
# Elastic Compliance Matrix: (Units=1/GPa)
#
#
# Indices 1 2 3 4 5 6 
#
# 1 0.035545 -0.004067 -0.003193 0.000000 -0.014796 0.000000
# 2 -0.004067 0.010526 -0.001847 0.000000 0.000109 0.000000
# 3 -0.003193 -0.001847 0.008780 0.000000 -0.000551 0.000000
# 4 0.000000 0.000000 0.000000 0.028021 0.000000 -0.010475
# 5 -0.014796 0.000109 -0.000551 0.000000 0.030392 0.000000
# 6 0.000000 0.000000 0.000000 -0.010475 0.000000 0.071112
#
#
# Mechanical properties :
#
#
# Convention : Reuss Voigt Hill
#
# Bulk Modulus (GPa) = 27.29490 45.98471 36.63980
# Shear Modulus (GPa) = 23.27722 32.90413 28.09067
#
# Velocity S-wave (km/s) = 3.33230 3.96190 3.66066
# Velocity P-wave (km/s) = 5.27508 6.54718 5.94525
#
# Compressibility (1/GPa) = 0.03663689
#
# Stress axis : x y z
#
# Youngs Moduli (GPa) = 28.13324 95.00134 113.90054
#
# Poissons Ratio (x) = 0.38637 0.36367
# Poissons Ratio (y) = 0.11442 0.21039
# Poissons Ratio (z) = 0.08983 0.17548
#
# Static dielectric constant tensor:
#      x y z
#    x 3.538490 0.000000 0.064570 
#    y 0.000000 3.974150 0.000000 
#    z 0.064570 0.000000 4.084660 
# 
# 
# High freq. dielectric constant tensor:
#      x y z
#    x 1.792420 0.000000 0.006040 
#    y 0.000000 1.834830 0.000000 
#    z 0.006040 0.000000 1.841250 
# 
# From -- ./inp_files/54384.got.cif
#   From: 2010.06.25/outbox.cif.g09.slc.cpg/sg13_28_cif.got.tgz:54384.got - 2010.06.28 04:50:58.
