data_PCOD8119301
_publ_section_title
;
Structure prediction by ZEFSAII (Michael W. Deem and Ramdas Pophale) SiO2 
 PCOD8119301
Probable space group: P 2/C
;
_chemical_formula_sum "Si O2"
_cell_formula_units_Z 12
_cell_length_a 17.001874
_cell_length_b 7.875062
_cell_length_c 19.641898
_cell_angle_alpha 90.000000
_cell_angle_beta 166.634643
_cell_angle_gamma 90.000000
_cell_volume 607.919851
_symmetry_space_group_name_H-M "P 2/C"
_symmetry_group_IT_number 13
_symmetry_cell_setting 'monoclinic'
loop_
_space_group_symop_operation_xyz
x,y,z
-x,y,1/2-z
-x,-y,-z
x,-y,1/2+z
loop_
_atom_site_type_symbol
_atom_site_label
_atom_site_fract_x
_atom_site_fract_y
_atom_site_fract_z
Si Si1 0.079978 0.942108 0.491264
Si Si2 0.709296 0.120717 0.056216
Si Si3 0.738763 0.619689 0.244277
O O1 0.959085 0.747301 0.381691
O O2 0.000000 0.000000 0.500000
O O3 0.865721 0.050878 0.257579
O O4 0.486560 0.977173 0.827629
O O5 0.000000 0.183991 0.250000
O O6 0.476327 0.280807 0.879481
O O7 0.000000 0.500000 0.500000
O O8 0.500000 0.500000 0.000000
#
# Coordination Sequence:
#
# PCOD8119301 Si02
#       3
#     4   4   4
#     4  10  20  38  61  82 109 153 198 227 275 354
#     4  11  22  39  60  85 116 153 197 245 284 330
#     4  11  21  37  60  85 116 152 189 234 291 352
#
# _framework density 19.739446000000001
#
# number of rings (size 3 to 8) (size 9 to 14) (size 15 to 20)
#    0.000    1.333    0.000   11.000    0.000    0.000 
#    0.000   10.000    0.000    0.000    0.000    0.000 
#    0.000    0.000    0.000    0.000    0.000    0.000 
#
# Total GULP energy -148741.512795 kJ/mol
# GULP energy per Si atom -12395.126066 kJ/mol
# Density = 1.969452 g / cm^3
# Si number density = 19.739446 Si / 1000 Ang^3
#
#
#
# Elastic Constant Matrix: (Units=GPa)
#
#
# Indices 1 2 3 4 5 6 
#
# 1 80.9686 60.9145 63.2069 0.0000 -2.6566 0.0000
# 2 60.9145 130.6806 80.6988 0.0000 -4.3646 0.0000
# 3 63.2069 80.6988 173.4993 0.0000 -13.7915 0.0000
# 4 0.0000 0.0000 0.0000 50.7341 0.0000 -9.9825
# 5 -2.6566 -4.3646 -13.7915 0.0000 50.3235 0.0000
# 6 0.0000 0.0000 0.0000 -9.9825 0.0000 24.3206
#
#
#
# Elastic Compliance Matrix: (Units=1/GPa)
#
#
# Indices 1 2 3 4 5 6 
#
# 1 0.021177 -0.007149 -0.004447 0.000000 -0.000721 0.000000
# 2 -0.007149 0.013159 -0.003532 0.000000 -0.000204 0.000000
# 3 -0.004447 -0.003532 0.009184 0.000000 0.001976 0.000000
# 4 0.000000 0.000000 0.000000 0.021442 0.000000 0.008801
# 5 -0.000721 -0.000204 0.001976 0.000000 0.020357 0.000000
# 6 0.000000 0.000000 0.000000 0.008801 0.000000 0.044730
#
#
# Mechanical properties :
#
#
# Convention : Reuss Voigt Hill
#
# Bulk Modulus (GPa) = 75.39868 88.30987 81.85427
# Shear Modulus (GPa) = 30.35331 37.09754 33.72543
#
# Velocity S-wave (km/s) = 3.92560 4.33986 4.13792
# Velocity P-wave (km/s) = 7.66988 8.36346 8.02417
#
# Compressibility (1/GPa) = 0.01326283
#
# Stress axis : x y z
#
# Youngs Moduli (GPa) = 47.22189 75.99221 108.88737
#
# Poissons Ratio (x) = 0.54328 0.48420
# Poissons Ratio (y) = 0.33760 0.38464
# Poissons Ratio (z) = 0.20999 0.26844
#
# Static dielectric constant tensor:
#      x y z
#    x 3.415880 0.000000 0.012540 
#    y 0.000000 3.981370 0.000000 
#    z 0.012540 0.000000 4.498380 
# 
# 
# High freq. dielectric constant tensor:
#      x y z
#    x 1.752480 0.000000 -0.016790 
#    y 0.000000 1.762840 0.000000 
#    z -0.016790 0.000000 1.802420 
# 
# From -- ./inp_files/42937.got.cif
#   From: 2010.06.25/outbox.cif.g09.slc.cpg/sg13_22_cif.got.tgz:42937.got - 2010.06.28 04:50:58.
