data_PCOD8119874
_publ_section_title
;
Structure prediction by ZEFSAII (Michael W. Deem and Ramdas Pophale) SiO2 
 PCOD8119874
Probable space group: P 2/C
;
_chemical_formula_sum "Si O2"
_cell_formula_units_Z 26
_cell_length_a 11.813573
_cell_length_b 13.503441
_cell_length_c 12.341240
_cell_angle_alpha 90.000000
_cell_angle_beta 48.282227
_cell_angle_gamma 90.000000
_cell_volume 1469.517114
_symmetry_space_group_name_H-M "P 2/C"
_symmetry_group_IT_number 13
_symmetry_cell_setting 'monoclinic'
loop_
_space_group_symop_operation_xyz
x,y,z
-x,y,1/2-z
-x,-y,-z
x,-y,1/2+z
loop_
_atom_site_type_symbol
_atom_site_label
_atom_site_fract_x
_atom_site_fract_y
_atom_site_fract_z
Si Si1 0.131782 0.871171 0.584406
Si Si2 0.933028 0.298622 0.116072
Si Si3 0.671431 0.024801 0.155758
Si Si4 0.000000 0.453290 0.250000
Si Si5 0.885492 0.642810 0.407985
Si Si6 0.610431 0.220396 0.082980
Si Si7 0.329560 0.163459 0.154072
O O1 0.279254 0.845348 0.562035
O O2 0.000000 0.911795 0.750000
O O3 0.071407 0.774370 0.560415
O O4 0.191578 0.949486 0.457983
O O5 0.919570 0.386633 0.211038
O O6 0.774541 0.241748 0.215933
O O7 0.955821 0.341820 0.982187
O O8 0.500000 0.981346 0.250000
O O9 0.696203 0.119016 0.060657
O O10 0.688280 0.058955 0.270264
O O11 0.875539 0.524697 0.388072
O O12 0.722405 0.689716 0.490008
O O13 0.000000 0.694643 0.250000
O O14 0.500000 0.251709 0.250000
O O15 0.504242 0.200387 0.045287
#
# Coordination Sequence:
#
# PCOD8119874 Si02
#       7
#     4   4   4   2   4   4   4
#     4  10  21  34  57  83 109 154 186 220 278 328
#     4  11  18  40  58  81 116 147 184 231 281 341
#     4   9  19  35  52  83 110 149 183 223 272 328
#     4  10  22  36  62  82 110 148 186 230 294 326
#     4  10  22  36  59  90 106 143 189 238 278 324
#     4   9  17  36  60  76 116 152 178 226 278 332
#     4   9  18  36  60  74 112 155 184 212 286 335
#
# _framework density 17.692886999999999
#
# number of rings (size 3 to 8) (size 9 to 14) (size 15 to 20)
#    0.462    2.154    5.385    0.462    0.000    5.538 
#    5.538    0.769    0.000    0.923    0.000    0.000 
#    0.000    0.000    0.000    0.000    0.000    0.000 
#
# Total GULP energy -322153.354338 kJ/mol
# GULP energy per Si atom -12390.513628 kJ/mol
# Density = 1.765262 g / cm^3
# Si number density = 17.692887 Si / 1000 Ang^3
#
#
#
# Elastic Constant Matrix: (Units=GPa)
#
#
# Indices 1 2 3 4 5 6 
#
# 1 119.1727 48.5940 32.6371 0.0000 10.0805 0.0000
# 2 48.5940 97.0656 48.6722 0.0000 -5.9465 0.0000
# 3 32.6371 48.6722 73.3853 0.0000 6.1575 0.0000
# 4 0.0000 0.0000 0.0000 16.2218 0.0000 6.9343
# 5 10.0805 -5.9465 6.1575 0.0000 26.8588 0.0000
# 6 0.0000 0.0000 0.0000 6.9343 0.0000 15.7391
#
#
#
# Elastic Compliance Matrix: (Units=1/GPa)
#
#
# Indices 1 2 3 4 5 6 
#
# 1 0.011351 -0.005538 -0.000933 0.000000 -0.005272 0.000000
# 2 -0.005538 0.019105 -0.010948 0.000000 0.008818 0.000000
# 3 -0.000933 -0.010948 0.021898 0.000000 -0.007094 0.000000
# 4 0.000000 0.000000 0.000000 0.075950 0.000000 -0.033462
# 5 -0.005272 0.008818 -0.007094 0.000000 0.042789 0.000000
# 6 0.000000 0.000000 0.000000 -0.033462 0.000000 0.078279
#
#
# Mechanical properties :
#
#
# Convention : Reuss Voigt Hill
#
# Bulk Modulus (GPa) = 57.09034 61.04779 59.06907
# Shear Modulus (GPa) = 17.23859 22.41195 19.82527
#
# Velocity S-wave (km/s) = 3.12480 3.56296 3.35105
# Velocity P-wave (km/s) = 6.73473 7.17672 6.95924
#
# Compressibility (1/GPa) = 0.01751610
#
# Stress axis : x y z
#
# Youngs Moduli (GPa) = 88.10038 52.34329 45.66627
#
# Poissons Ratio (x) = 0.28986 0.04260
# Poissons Ratio (y) = 0.48788 0.49996
# Poissons Ratio (z) = 0.08218 0.57306
#
# Static dielectric constant tensor:
#      x y z
#    x 3.398190 0.000000 0.054990 
#    y 0.000000 3.153300 0.000000 
#    z 0.054990 0.000000 3.058290 
# 
# 
# High freq. dielectric constant tensor:
#      x y z
#    x 1.696030 0.000000 0.008300 
#    y 0.000000 1.666050 0.000000 
#    z 0.008300 0.000000 1.660160 
# 
# From -- ./inp_files/34372.got.cif
#   From: 2010.06.25/outbox.cif.g09.slc.cpg/sg13_18_cif.got.tgz:34372.got - 2010.06.28 04:50:58.
