data_PCOD8119894
_publ_section_title
;
Structure prediction by ZEFSAII (Michael W. Deem and Ramdas Pophale) SiO2 
 PCOD8119894
Probable space group: P 2/C
;
_chemical_formula_sum "Si O2"
_cell_formula_units_Z 32
_cell_length_a 28.171521
_cell_length_b 12.000619
_cell_length_c 8.535074
_cell_angle_alpha 90.000000
_cell_angle_beta 149.069141
_cell_angle_gamma 90.000000
_cell_volume 1483.157122
_symmetry_space_group_name_H-M "P 2/C"
_symmetry_group_IT_number 13
_symmetry_cell_setting 'monoclinic'
loop_
_space_group_symop_operation_xyz
x,y,z
-x,y,1/2-z
-x,-y,-z
x,-y,1/2+z
loop_
_atom_site_type_symbol
_atom_site_label
_atom_site_fract_x
_atom_site_fract_y
_atom_site_fract_z
Si Si1 0.913828 0.917234 0.751422
Si Si2 0.220573 0.983207 0.386102
Si Si3 0.972147 0.313823 0.346093
Si Si4 0.614911 0.587467 0.941409
Si Si5 0.711905 0.160525 0.157157
Si Si6 0.832027 0.638348 0.021273
Si Si7 0.416828 0.642713 0.299252
Si Si8 0.211469 0.573789 0.255674
O O1 0.858857 0.916667 0.431607
O O2 0.953888 0.795525 0.896276
O O3 0.835782 0.939805 0.656333
O O4 0.000000 0.000000 0.000000
O O5 0.287096 0.896687 0.667530
O O6 0.285178 0.062523 0.463278
O O7 0.000000 0.277893 0.250000
O O8 0.057840 0.378029 0.667669
O O9 0.882429 0.390300 0.096521
O O10 0.526528 0.657888 0.632425
O O11 0.600060 0.454918 0.874980
O O12 0.630542 0.607459 0.170190
O O13 0.702605 0.631177 0.090519
O O14 0.805270 0.234388 0.407797
O O15 0.623542 0.240507 0.880975
O O16 0.785663 0.603731 0.054958
O O17 0.785620 0.560321 0.758195
#
# Coordination Sequence:
#
# PCOD8119894 Si02
#       8
#     4   4   4   4   4   4   4   4
#     4  11  20  37  60  87 120 172 234 291 316 370
#     4  10  23  38  61  91 123 166 230 278 334 384
#     4  10  21  35  53  83 126 174 214 255 318 377
#     4  10  21  40  66 102 130 165 214 262 331 410
#     4  11  23  43  63  94 129 171 214 282 331 393
#     4  11  23  38  58  91 131 173 209 261 322 393
#     4  10  22  40  68  99 137 160 209 276 334 401
#     4  11  22  37  59  90 133 169 210 258 320 407
#
# _framework density 21.575596000000001
#
# number of rings (size 3 to 8) (size 9 to 14) (size 15 to 20)
#    0.000    1.500    1.250    5.250    1.750    0.000 
#    0.000    1.250    0.000    3.000    0.000    0.000 
#    0.000    0.000    0.000    0.000    0.000    0.000 
#
# Total GULP energy -396784.541037 kJ/mol
# GULP energy per Si atom -12399.516907 kJ/mol
# Density = 2.152649 g / cm^3
# Si number density = 21.575596 Si / 1000 Ang^3
#
#
#
# Elastic Constant Matrix: (Units=GPa)
#
#
# Indices 1 2 3 4 5 6 
#
# 1 72.7133 36.7470 49.0749 0.0000 4.7980 0.0000
# 2 36.7470 101.3129 45.9779 0.0000 -6.1262 0.0000
# 3 49.0749 45.9779 129.9651 0.0000 4.1659 0.0000
# 4 0.0000 0.0000 0.0000 46.6802 0.0000 -0.8800
# 5 4.7980 -6.1262 4.1659 0.0000 34.3396 0.0000
# 6 0.0000 0.0000 0.0000 -0.8800 0.0000 31.7136
#
#
#
# Elastic Compliance Matrix: (Units=1/GPa)
#
#
# Indices 1 2 3 4 5 6 
#
# 1 0.020395 -0.004918 -0.005865 0.000000 -0.003016 0.000000
# 2 -0.004918 0.013182 -0.002915 0.000000 0.003393 0.000000
# 3 -0.005865 -0.002915 0.010973 0.000000 -0.001032 0.000000
# 4 0.000000 0.000000 0.000000 0.021434 0.000000 0.000595
# 5 -0.003016 0.003393 -0.001032 0.000000 0.030273 0.000000
# 6 0.000000 0.000000 0.000000 0.000595 0.000000 0.031549
#
#
# Mechanical properties :
#
#
# Convention : Reuss Voigt Hill
#
# Bulk Modulus (GPa) = 58.29315 63.06565 60.67940
# Shear Modulus (GPa) = 31.07125 34.02613 32.54869
#
# Velocity S-wave (km/s) = 3.79900 3.97554 3.88827
# Velocity P-wave (km/s) = 6.80587 7.09695 6.95294
#
# Compressibility (1/GPa) = 0.01715468
#
# Stress axis : x y z
#
# Youngs Moduli (GPa) = 49.03081 75.85850 91.13090
#
# Poissons Ratio (x) = 0.37310 0.53445
# Poissons Ratio (y) = 0.24115 0.26566
# Poissons Ratio (z) = 0.28755 0.22114
#
# Static dielectric constant tensor:
#      x y z
#    x 3.968770 0.000000 -0.175470 
#    y 0.000000 3.769980 0.000000 
#    z -0.175470 0.000000 4.265710 
# 
# 
# High freq. dielectric constant tensor:
#      x y z
#    x 1.836540 0.000000 -0.005190 
#    y 0.000000 1.833320 0.000000 
#    z -0.005190 0.000000 1.858890 
# 
# From -- ./inp_files/24953.got.cif
#   From: 2010.06.25/outbox.cif.g09.slc.cpg/sg13_13_cif.got.tgz:24953.got - 2010.06.28 04:50:58.
