data_PCOD8119466
_publ_section_title
;
Structure prediction by ZEFSAII (Michael W. Deem and Ramdas Pophale) SiO2 
 PCOD8119466
Probable space group: P 2/C
;
_chemical_formula_sum "Si O2"
_cell_formula_units_Z 28
_cell_length_a 26.157279
_cell_length_b 9.246990
_cell_length_c 9.004995
_cell_angle_alpha 90.000000
_cell_angle_beta 141.239734
_cell_angle_gamma 90.000000
_cell_volume 1363.623899
_symmetry_space_group_name_H-M "P 2/C"
_symmetry_group_IT_number 13
_symmetry_cell_setting 'monoclinic'
loop_
_space_group_symop_operation_xyz
x,y,z
-x,y,1/2-z
-x,-y,-z
x,-y,1/2+z
loop_
_atom_site_type_symbol
_atom_site_label
_atom_site_fract_x
_atom_site_fract_y
_atom_site_fract_z
Si Si1 0.639305 0.153216 0.754712
Si Si2 0.485975 0.345501 0.895759
Si Si3 0.386193 0.852479 0.647893
Si Si4 0.206397 0.183778 0.782356
Si Si5 0.182832 0.081201 0.413371
Si Si6 0.927607 0.598812 0.470510
Si Si7 0.039855 0.716809 0.493977
O O1 0.605594 0.292377 0.769181
O O2 0.601511 0.146373 0.502550
O O3 0.612142 0.014633 0.787452
O O4 0.737775 0.163295 0.973598
O O5 0.500000 0.349847 0.750000
O O6 0.500000 0.500000 0.000000
O O7 0.544085 0.232564 0.109274
O O8 0.301299 0.773058 0.497849
O O9 0.186567 0.081053 0.598743
O O10 0.155307 0.332029 0.654969
O O11 0.183176 0.088041 0.872497
O O12 0.099482 0.154923 0.173508
O O13 0.909130 0.434066 0.380142
O O14 0.959932 0.703268 0.415281
O O15 0.000000 0.588085 0.750000
O O16 0.000000 0.758923 0.250000
#
# Coordination Sequence:
#
# PCOD8119466 Si02
#       7
#     4   4   4   4   4   4   4
#     4  10  21  40  64  88 120 159 196 245 292 353
#     4  12  25  42  63  92 123 155 196 240 291 350
#     4  10  21  40  63  90 120 157 199 239 297 351
#     4  10  22  38  60  87 117 152 192 245 289 344
#     4  10  22  39  58  87 119 150 196 240 292 343
#     4  10  20  39  58  78 115 154 198 242 294 345
#     4  10  22  37  56  83 112 157 199 242 293 352
#
# _framework density 20.533522000000001
#
# number of rings (size 3 to 8) (size 9 to 14) (size 15 to 20)
#    0.000    1.714    1.429    2.571    2.000    3.429 
#    0.000    0.000    0.000    0.000    0.000    0.000 
#    0.000    0.000    0.000    0.000    0.000    0.000 
#
# Total GULP energy -347147.261664 kJ/mol
# GULP energy per Si atom -12398.116488 kJ/mol
# Density = 2.048679 g / cm^3
# Si number density = 20.533522 Si / 1000 Ang^3
#
#
#
# Elastic Constant Matrix: (Units=GPa)
#
#
# Indices 1 2 3 4 5 6 
#
# 1 37.4094 9.6288 4.3300 0.0000 -23.8172 0.0000
# 2 9.6288 53.0259 -2.3761 0.0000 5.0882 0.0000
# 3 4.3300 -2.3761 60.4189 0.0000 -6.1632 0.0000
# 4 0.0000 0.0000 0.0000 16.2751 0.0000 -5.3102
# 5 -23.8172 5.0882 -6.1632 0.0000 36.6983 0.0000
# 6 0.0000 0.0000 0.0000 -5.3102 0.0000 35.3352
#
#
#
# Elastic Compliance Matrix: (Units=1/GPa)
#
#
# Indices 1 2 3 4 5 6 
#
# 1 0.053340 -0.013202 -0.000635 0.000000 0.036341 0.000000
# 2 -0.013202 0.022395 0.000647 0.000000 -0.011564 0.000000
# 3 -0.000635 0.000647 0.016860 0.000000 0.002330 0.000000
# 4 0.000000 0.000000 0.000000 0.064612 0.000000 0.009710
# 5 0.036341 -0.011564 0.002330 0.000000 0.052829 0.000000
# 6 0.000000 0.000000 0.000000 0.009710 0.000000 0.029760
#
#
# Mechanical properties :
#
#
# Convention : Reuss Voigt Hill
#
# Bulk Modulus (GPa) = 15.10207 19.33553 17.21880
# Shear Modulus (GPa) = 17.34633 26.94649 22.14641
#
# Velocity S-wave (km/s) = 2.90967 3.62652 3.28769
# Velocity P-wave (km/s) = 4.31961 5.19351 4.77659
#
# Compressibility (1/GPa) = 0.06621609
#
# Stress axis : x y z
#
# Youngs Moduli (GPa) = 18.74765 44.65362 59.31302
#
# Poissons Ratio (x) = 0.58950 0.03765
# Poissons Ratio (y) = 0.24750 -0.03839
# Poissons Ratio (z) = 0.01190 -0.02890
#
# Static dielectric constant tensor:
#      x y z
#    x 3.833580 0.000000 -0.111290 
#    y 0.000000 3.604690 0.000000 
#    z -0.111290 0.000000 3.836230 
# 
# 
# High freq. dielectric constant tensor:
#      x y z
#    x 1.816210 0.000000 -0.005230 
#    y 0.000000 1.788260 0.000000 
#    z -0.005230 0.000000 1.808210 
# 
# From -- ./inp_files/24613.got.cif
#   From: 2010.06.25/outbox.cif.g09.slc.cpg/sg13_13_cif.got.tgz:24613.got - 2010.06.28 04:50:58.
