data_PCOD8119857
_publ_section_title
;
Structure prediction by ZEFSAII (Michael W. Deem and Ramdas Pophale) SiO2 
 PCOD8119857
Probable space group: P 2/C
;
_chemical_formula_sum "Si O2"
_cell_formula_units_Z 30
_cell_length_a 11.005568
_cell_length_b 6.377838
_cell_length_c 30.455525
_cell_angle_alpha 90.000000
_cell_angle_beta 130.732942
_cell_angle_gamma 90.000000
_cell_volume 1619.881721
_symmetry_space_group_name_H-M "P 2/C"
_symmetry_group_IT_number 13
_symmetry_cell_setting 'monoclinic'
loop_
_space_group_symop_operation_xyz
x,y,z
-x,y,1/2-z
-x,-y,-z
x,-y,1/2+z
loop_
_atom_site_type_symbol
_atom_site_label
_atom_site_fract_x
_atom_site_fract_y
_atom_site_fract_z
Si Si1 0.641863 0.619345 0.057402
Si Si2 0.091455 0.424724 0.978845
Si Si3 0.055978 0.647283 0.885783
Si Si4 0.712510 0.417008 0.283608
Si Si5 0.500000 0.040535 0.250000
Si Si6 0.796595 0.968735 0.035169
Si Si7 0.552541 0.663715 0.321324
Si Si8 0.388159 0.308779 0.563015
O O1 0.792361 0.466548 0.100583
O O2 0.687620 0.826543 0.041150
O O3 0.570266 0.677005 0.088310
O O4 0.500000 0.500000 0.000000
O O5 0.002333 0.537365 0.918107
O O6 0.089114 0.175012 0.969089
O O7 0.278420 0.494922 0.022260
O O8 0.000000 0.500000 0.000000
O O9 0.901604 0.612716 0.818112
O O10 0.096518 0.888724 0.906862
O O11 0.646281 0.181506 0.267784
O O12 0.675955 0.521132 0.322575
O O13 0.625283 0.558435 0.225568
O O14 0.555152 0.898585 0.303628
O O15 0.689393 0.100401 0.976050
O O16 0.610014 0.687711 0.384326
#
# Coordination Sequence:
#
# PCOD8119857 Si02
#       8
#     4   4   4   4   2   4   4   4
#     4  11  20  39  55  79 111 149 189 220 277 326
#     4  10  21  34  50  81 115 139 175 222 282 334
#     4  10  21  34  56  80 106 149 181 227 275 325
#     4   9  19  38  57  79 113 141 184 225 280 331
#     4   8  18  36  56  80 106 142 188 224 274 340
#     4  10  21  34  55  79 113 145 185 227 272 335
#     4   9  20  36  59  81 109 146 181 227 277 327
#     4  11  21  34  57  82 109 145 187 229 270 329
#
# _framework density 18.519870999999998
#
# number of rings (size 3 to 8) (size 9 to 14) (size 15 to 20)
#    0.000    2.400    4.000    1.200    0.000   10.667 
#    0.000    0.667    0.000    0.000    0.000    0.000 
#    0.000    0.000    0.000    0.000    0.000    0.000 
#
# Total GULP energy -371752.605586 kJ/mol
# GULP energy per Si atom -12391.753520 kJ/mol
# Density = 1.847772 g / cm^3
# Si number density = 18.519871 Si / 1000 Ang^3
#
#
#
# Elastic Constant Matrix: (Units=GPa)
#
#
# Indices 1 2 3 4 5 6 
#
# 1 72.3835 23.7253 7.6194 0.0000 17.7970 0.0000
# 2 23.7253 110.2544 17.3532 0.0000 5.1890 0.0000
# 3 7.6194 17.3532 62.0771 0.0000 15.5618 0.0000
# 4 0.0000 0.0000 0.0000 9.7680 0.0000 -3.6185
# 5 17.7970 5.1890 15.5618 0.0000 35.7033 0.0000
# 6 0.0000 0.0000 0.0000 -3.6185 0.0000 15.0715
#
#
#
# Elastic Compliance Matrix: (Units=1/GPa)
#
#
# Indices 1 2 3 4 5 6 
#
# 1 0.016876 -0.003391 0.000968 0.000000 -0.008341 0.000000
# 2 -0.003391 0.010171 -0.002784 0.000000 0.001426 0.000000
# 3 0.000968 -0.002784 0.018847 0.000000 -0.008293 0.000000
# 4 0.000000 0.000000 0.000000 0.112369 0.000000 0.026979
# 5 -0.008341 0.001426 -0.008293 0.000000 0.035573 0.000000
# 6 0.000000 0.000000 0.000000 0.026979 0.000000 0.072828
#
#
# Mechanical properties :
#
#
# Convention : Reuss Voigt Hill
#
# Bulk Modulus (GPa) = 28.18645 38.01232 33.09939
# Shear Modulus (GPa) = 17.30664 25.17637 21.24151
#
# Velocity S-wave (km/s) = 3.06026 3.69104 3.39035
# Velocity P-wave (km/s) = 5.26683 6.22372 5.76517
#
# Compressibility (1/GPa) = 0.03547804
#
# Stress axis : x y z
#
# Youngs Moduli (GPa) = 59.25650 98.32063 53.05774
#
# Poissons Ratio (x) = 0.33342 -0.05134
# Poissons Ratio (y) = 0.20095 0.14773
# Poissons Ratio (z) = -0.05734 0.27376
#
# Static dielectric constant tensor:
#      x y z
#    x 3.614280 0.000000 0.018580 
#    y 0.000000 3.565480 0.000000 
#    z 0.018580 0.000000 3.273410 
# 
# 
# High freq. dielectric constant tensor:
#      x y z
#    x 1.707820 0.000000 0.012740 
#    y 0.000000 1.731250 0.000000 
#    z 0.012740 0.000000 1.697140 
# 
# From -- ./inp_files/96445.got.cif
#   From: 2010.06.25/outbox.cif.g09.slc.cpg/sg13_49_cif.got.tgz:96445.got - 2010.06.28 04:50:58.
