data_PCOD8119979
_publ_section_title
;
Structure prediction by ZEFSAII (Michael W. Deem and Ramdas Pophale) SiO2 
 PCOD8119979
Probable space group: P 2/C
;
_chemical_formula_sum "Si O2"
_cell_formula_units_Z 20
_cell_length_a 8.246446
_cell_length_b 23.811087
_cell_length_c 8.966579
_cell_angle_alpha 90.000000
_cell_angle_beta 34.036678
_cell_angle_gamma 90.000000
_cell_volume 985.476700
_symmetry_space_group_name_H-M "P 2/C"
_symmetry_group_IT_number 13
_symmetry_cell_setting 'monoclinic'
loop_
_space_group_symop_operation_xyz
x,y,z
-x,y,1/2-z
-x,-y,-z
x,-y,1/2+z
loop_
_atom_site_type_symbol
_atom_site_label
_atom_site_fract_x
_atom_site_fract_y
_atom_site_fract_z
Si Si1 0.172720 0.543117 0.468421
Si Si2 0.177505 0.668531 0.463061
Si Si3 0.638936 0.158728 0.306924
Si Si4 0.867279 0.774154 0.190372
Si Si5 0.668915 0.045460 0.468464
O O1 0.500000 0.521871 0.250000
O O2 0.172126 0.605506 0.396969
O O3 0.000000 0.500000 0.500000
O O4 0.000000 0.547691 0.750000
O O5 0.500000 0.687195 0.250000
O O6 0.075331 0.711986 0.416588
O O7 0.000000 0.673126 0.750000
O O8 0.500000 0.147869 0.250000
O O9 0.461763 0.204344 0.541097
O O10 0.665886 0.101550 0.374652
O O11 0.963577 0.181891 0.042838
O O12 0.000000 0.772515 0.250000
O O13 0.000000 0.026289 0.250000
O O14 0.500000 0.000000 0.500000
O O15 0.500000 0.055424 0.750000
#
# Coordination Sequence:
#
# PCOD8119979 Si02
#       5
#     4   4   4   4   4
#     4  10  21  38  58  84 115 153 196 243 294 345
#     4  10  21  36  56  82 115 149 189 239 289 341
#     4  10  22  40  60  85 119 152 190 239 287 340
#     4  10  21  37  58  85 116 152 190 234 288 343
#     4  12  26  43  65  92 120 156 198 241 291 347
#
# _framework density 20.294747000000001
#
# number of rings (size 3 to 8) (size 9 to 14) (size 15 to 20)
#    0.000    1.600    0.000    4.200    0.000    8.000 
#    0.000    3.000    0.000    0.000    0.000    0.000 
#    0.000    0.000    0.000    0.000    0.000    0.000 
#
# Total GULP energy -247948.884140 kJ/mol
# GULP energy per Si atom -12397.444207 kJ/mol
# Density = 2.024855 g / cm^3
# Si number density = 20.294747 Si / 1000 Ang^3
#
#
#
# Elastic Constant Matrix: (Units=GPa)
#
#
# Indices 1 2 3 4 5 6 
#
# 1 64.7337 67.9575 49.3541 0.0000 -11.4711 0.0000
# 2 67.9575 144.2474 43.7189 0.0000 8.5590 0.0000
# 3 49.3541 43.7189 146.9097 0.0000 -10.1007 0.0000
# 4 0.0000 0.0000 0.0000 33.3510 0.0000 6.7849
# 5 -11.4711 8.5590 -10.1007 0.0000 31.8173 0.0000
# 6 0.0000 0.0000 0.0000 6.7849 0.0000 35.3184
#
#
#
# Elastic Compliance Matrix: (Units=1/GPa)
#
#
# Indices 1 2 3 4 5 6 
#
# 1 0.047367 -0.020998 -0.008283 0.000000 0.020096 0.000000
# 2 -0.020998 0.017186 0.001126 0.000000 -0.011836 0.000000
# 3 -0.008283 0.001126 0.009230 0.000000 -0.000359 0.000000
# 4 0.000000 0.000000 0.000000 0.031204 0.000000 -0.005994
# 5 0.020096 -0.011836 -0.000359 0.000000 0.041745 0.000000
# 6 0.000000 0.000000 0.000000 -0.005994 0.000000 0.029465
#
#
# Mechanical properties :
#
#
# Convention : Reuss Voigt Hill
#
# Bulk Modulus (GPa) = 57.22664 75.32798 66.27731
# Shear Modulus (GPa) = 20.97933 33.08804 27.03368
#
# Velocity S-wave (km/s) = 3.21866 4.04217 3.65369
# Velocity P-wave (km/s) = 6.48629 7.68004 7.10827
#
# Compressibility (1/GPa) = 0.01747438
#
# Stress axis : x y z
#
# Youngs Moduli (GPa) = 21.11165 58.18714 108.34659
#
# Poissons Ratio (x) = 1.22179 0.89738
# Poissons Ratio (y) = 0.44330 -0.12200
# Poissons Ratio (z) = 0.17486 -0.06552
#
# Static dielectric constant tensor:
#      x y z
#    x 3.545620 0.000000 -0.147820 
#    y 0.000000 4.056890 0.000000 
#    z -0.147820 0.000000 4.476140 
# 
# 
# High freq. dielectric constant tensor:
#      x y z
#    x 1.781760 0.000000 -0.001620 
#    y 0.000000 1.801680 0.000000 
#    z -0.001620 0.000000 1.819930 
# 
# From -- ./inp_files/13784.got.cif
#   From: 2010.06.25/outbox.cif.g09.slc.cpg/sg13_7_cif.got.tgz:13784.got - 2010.06.28 04:50:58.
