data_PCOD8119402
_publ_section_title
;
Structure prediction by ZEFSAII (Michael W. Deem and Ramdas Pophale) SiO2 
 PCOD8119402
Probable space group: P 2/C
;
_chemical_formula_sum "Si O2"
_cell_formula_units_Z 28
_cell_length_a 14.899598
_cell_length_b 13.751541
_cell_length_c 11.303278
_cell_angle_alpha 90.000000
_cell_angle_beta 144.476042
_cell_angle_gamma 90.000000
_cell_volume 1345.670847
_symmetry_space_group_name_H-M "P 2/C"
_symmetry_group_IT_number 13
_symmetry_cell_setting 'monoclinic'
loop_
_space_group_symop_operation_xyz
x,y,z
-x,y,1/2-z
-x,-y,-z
x,-y,1/2+z
loop_
_atom_site_type_symbol
_atom_site_label
_atom_site_fract_x
_atom_site_fract_y
_atom_site_fract_z
Si Si1 0.500000 0.484930 0.250000
Si Si2 0.841305 0.978023 0.505089
Si Si3 0.684208 0.801768 0.448431
Si Si4 0.256989 0.607165 0.109759
Si Si5 0.890514 0.898366 0.846103
Si Si6 0.000000 0.463947 0.750000
Si Si7 0.876769 0.160699 0.705630
Si Si8 0.758809 0.646269 0.137845
O O1 0.419193 0.553224 0.260594
O O2 0.618125 0.416266 0.442172
O O3 0.801459 0.022581 0.332094
O O4 0.814194 0.062691 0.575209
O O5 0.728284 0.887938 0.404895
O O6 0.973687 0.945866 0.816910
O O7 0.500000 0.793974 0.250000
O O8 0.759590 0.699521 0.494272
O O9 0.759591 0.824305 0.658352
O O10 0.247616 0.648290 0.229529
O O11 0.121051 0.531384 0.946262
O O12 0.032240 0.853092 0.072175
O O13 0.919315 0.398428 0.763509
O O14 0.742722 0.240758 0.580051
O O15 0.000000 0.209486 0.750000
#
# Coordination Sequence:
#
# PCOD8119402 Si02
#       8
#     2   4   4   4   4   2   4   4
#     4  10  24  48  62  88 132 170 210 252 328 390
#     4  10  21  40  65  92 127 168 215 263 315 372
#     4  12  25  40  58  96 135 170 213 253 314 392
#     4  11  24  43  65  93 127 169 208 265 318 377
#     4  10  20  39  67  89 127 171 209 268 312 362
#     4  10  24  42  68  98 118 154 224 272 310 376
#     4  10  20  38  64  98 124 159 215 262 313 371
#     4  11  22  43  69  95 125 164 208 267 319 383
#
# _framework density 20.807466000000002
#
# number of rings (size 3 to 8) (size 9 to 14) (size 15 to 20)
#    0.000    1.429    1.429    5.571    4.000    0.571 
#    6.429    0.000    0.000    0.000    0.000    0.000 
#    0.000    0.000    0.000    0.000    0.000    0.000 
#
# Total GULP energy -346969.507253 kJ/mol
# GULP energy per Si atom -12391.768116 kJ/mol
# Density = 2.076011 g / cm^3
# Si number density = 20.807466 Si / 1000 Ang^3
#
#
#
# Elastic Constant Matrix: (Units=GPa)
#
#
# Indices 1 2 3 4 5 6 
#
# 1 86.1451 40.0036 30.8168 0.0000 -3.0560 0.0000
# 2 40.0036 129.5120 35.9010 0.0000 2.0240 0.0000
# 3 30.8168 35.9010 68.6246 0.0000 -1.5409 0.0000
# 4 0.0000 0.0000 0.0000 -16.5722 0.0000 -33.4678
# 5 -3.0560 2.0240 -1.5409 0.0000 28.3218 0.0000
# 6 0.0000 0.0000 0.0000 -33.4678 0.0000 11.9646
#
#
#
# Elastic Compliance Matrix: (Units=1/GPa)
#
#
# Indices 1 2 3 4 5 6 
#
# 1 0.014961 -0.003267 -0.004974 0.000000 0.001577 0.000000
# 2 -0.003267 0.009767 -0.003671 0.000000 -0.001250 0.000000
# 3 -0.004974 -0.003671 0.018743 0.000000 0.000745 0.000000
# 4 0.000000 0.000000 0.000000 -0.009075 0.000000 -0.025386
# 5 0.001577 -0.001250 0.000745 0.000000 0.035609 0.000000
# 6 0.000000 0.000000 0.000000 -0.025386 0.000000 0.012570
#
#
# Mechanical properties :
#
#
# Convention : Reuss Voigt Hill
#
# Bulk Modulus (GPa) = 50.89653 55.30270 53.09961
# Shear Modulus (GPa) = 44.26871 16.58021 30.42446
#
# Velocity S-wave (km/s) = 4.61753 2.82590 3.82801
# Velocity P-wave (km/s) = 7.27617 6.10603 6.71663
#
# Compressibility (1/GPa) = 0.01964771
#
# Stress axis : x y z
#
# Youngs Moduli (GPa) = 66.84222 102.38043 53.35404
#
# Poissons Ratio (x) = 0.33447 0.26537
# Poissons Ratio (y) = 0.21837 0.19586
# Poissons Ratio (z) = 0.33246 0.37583
#
# Static dielectric constant tensor:
#      x y z
#    x 3.848170 0.000000 -0.897490 
#    y 0.000000 3.937320 0.000000 
#    z -0.897490 0.000000 0.669710 
# 
# 
# High freq. dielectric constant tensor:
#      x y z
#    x 1.826020 0.000000 -0.020790 
#    y 0.000000 1.833680 0.000000 
#    z -0.020790 0.000000 1.792070 
# 
# From -- ./inp_files/37402.got.cif
#   From: 2010.06.25/outbox.cif.g09.slc.cpg/sg13_19_cif.got.tgz:37402.got - 2010.06.28 04:50:58.
