data_PCOD8119912
_publ_section_title
;
Structure prediction by ZEFSAII (Michael W. Deem and Ramdas Pophale) SiO2 
 PCOD8119912
Probable space group: P 2/C
;
_chemical_formula_sum "Si O2"
_cell_formula_units_Z 32
_cell_length_a 11.268851
_cell_length_b 10.949342
_cell_length_c 12.654684
_cell_angle_alpha 90.000000
_cell_angle_beta 83.271136
_cell_angle_gamma 90.000000
_cell_volume 1550.661777
_symmetry_space_group_name_H-M "P 2/C"
_symmetry_group_IT_number 13
_symmetry_cell_setting 'monoclinic'
loop_
_space_group_symop_operation_xyz
x,y,z
-x,y,1/2-z
-x,-y,-z
x,-y,1/2+z
loop_
_atom_site_type_symbol
_atom_site_label
_atom_site_fract_x
_atom_site_fract_y
_atom_site_fract_z
Si Si1 0.147882 0.280036 0.981018
Si Si2 0.358441 0.876438 0.469532
Si Si3 0.484890 0.651098 0.365805
Si Si4 0.064896 0.289294 0.635967
Si Si5 0.535219 0.895080 0.628123
Si Si6 0.731422 0.500915 0.637379
Si Si7 0.695848 0.703433 0.482279
Si Si8 0.117622 0.562680 0.684275
O O1 0.159528 0.342318 0.092921
O O2 0.216596 0.149403 0.981864
O O3 0.199962 0.373520 0.887926
O O4 0.014185 0.250966 0.957118
O O5 0.412801 0.743432 0.445374
O O6 0.411240 0.917888 0.577590
O O7 0.393477 0.976261 0.377351
O O8 0.500000 0.713462 0.250000
O O9 0.411637 0.524530 0.355537
O O10 0.611796 0.628666 0.409188
O O11 0.197779 0.233012 0.598613
O O12 0.078098 0.435132 0.637362
O O13 0.000000 0.239831 0.750000
O O14 0.500000 0.853367 0.750000
O O15 0.622231 0.798825 0.560933
O O16 0.762028 0.604564 0.548961
O O17 0.770757 0.548267 0.747933
O O18 0.000000 0.620340 0.750000
#
# Coordination Sequence:
#
# PCOD8119912 Si02
#       8
#     4   4   4   4   4   4   4   4
#     4  11  21  37  60  88 125 157 210 255 299 371
#     4   9  22  41  63  90 114 156 205 261 301 371
#     4  10  21  35  57  86 118 156 199 251 312 368
#     4  11  21  38  59  89 124 167 208 244 300 372
#     4  10  22  44  66  89 118 161 211 255 321 371
#     4  11  21  34  54  87 124 158 201 250 315 369
#     4  11  23  37  59  88 127 160 204 260 308 369
#     4  11  20  33  57  86 125 171 205 246 304 376
#
# _framework density 20.636351999999999
#
# number of rings (size 3 to 8) (size 9 to 14) (size 15 to 20)
#    0.000    1.500    3.750    2.625    3.500    0.500 
#    0.000    0.625    0.000    0.750    0.000    0.000 
#    0.000    0.000    0.000    0.000    0.000    0.000 
#
# Total GULP energy -396647.673509 kJ/mol
# GULP energy per Si atom -12395.239797 kJ/mol
# Density = 2.058938 g / cm^3
# Si number density = 20.636352 Si / 1000 Ang^3
#
#
#
# Elastic Constant Matrix: (Units=GPa)
#
#
# Indices 1 2 3 4 5 6 
#
# 1 146.8662 32.1020 64.7468 0.0000 8.8529 0.0000
# 2 32.1020 50.7821 25.4195 0.0000 3.6184 0.0000
# 3 64.7468 25.4195 127.0741 0.0000 2.4097 0.0000
# 4 0.0000 0.0000 0.0000 20.4192 0.0000 -2.2633
# 5 8.8529 3.6184 2.4097 0.0000 39.4574 0.0000
# 6 0.0000 0.0000 0.0000 -2.2633 0.0000 20.9402
#
#
#
# Elastic Compliance Matrix: (Units=1/GPa)
#
#
# Indices 1 2 3 4 5 6 
#
# 1 0.009539 -0.003892 -0.004053 0.000000 -0.001536 0.000000
# 2 -0.003892 0.023591 -0.002715 0.000000 -0.001124 0.000000
# 3 -0.004053 -0.002715 0.010467 0.000000 0.000519 0.000000
# 4 0.000000 0.000000 0.000000 0.049567 0.000000 0.005357
# 5 -0.001536 -0.001124 0.000519 0.000000 0.025760 0.000000
# 6 0.000000 0.000000 0.000000 0.005357 0.000000 0.048334
#
#
# Mechanical properties :
#
#
# Convention : Reuss Voigt Hill
#
# Bulk Modulus (GPa) = 44.88531 63.25102 54.06817
# Shear Modulus (GPa) = 25.50972 29.66031 27.58501
#
# Velocity S-wave (km/s) = 3.51971 3.79527 3.66008
# Velocity P-wave (km/s) = 6.18996 7.06557 6.64221
#
# Compressibility (1/GPa) = 0.02227900
#
# Stress axis : x y z
#
# Youngs Moduli (GPa) = 104.83510 42.38845 95.53395
#
# Poissons Ratio (x) = 0.16498 0.38715
# Poissons Ratio (y) = 0.40802 0.25935
# Poissons Ratio (z) = 0.42485 0.11507
#
# Static dielectric constant tensor:
#      x y z
#    x 4.129340 0.000000 -0.008230 
#    y 0.000000 3.325640 0.000000 
#    z -0.008230 0.000000 3.784670 
# 
# 
# High freq. dielectric constant tensor:
#      x y z
#    x 1.817730 0.000000 0.004590 
#    y 0.000000 1.757660 0.000000 
#    z 0.004590 0.000000 1.812760 
# 
# From -- ./inp_files/33857.got.cif
#   From: 2010.06.25/outbox.cif.g09.slc.cpg/sg13_17_cif.got.tgz:33857.got - 2010.06.28 04:50:58.
