data_PCOD8119880
_publ_section_title
;
Structure prediction by ZEFSAII (Michael W. Deem and Ramdas Pophale) SiO2 
 PCOD8119880
Probable space group: P 2/C
;
_chemical_formula_sum "Si O2"
_cell_formula_units_Z 26
_cell_length_a 15.041979
_cell_length_b 9.387132
_cell_length_c 16.374380
_cell_angle_alpha 90.000000
_cell_angle_beta 36.742461
_cell_angle_gamma 90.000000
_cell_volume 1383.130285
_symmetry_space_group_name_H-M "P 2/C"
_symmetry_group_IT_number 13
_symmetry_cell_setting 'monoclinic'
loop_
_space_group_symop_operation_xyz
x,y,z
-x,y,1/2-z
-x,-y,-z
x,-y,1/2+z
loop_
_atom_site_type_symbol
_atom_site_label
_atom_site_fract_x
_atom_site_fract_y
_atom_site_fract_z
Si Si1 0.760020 0.648225 0.269333
Si Si2 0.154927 0.949711 0.487818
Si Si3 0.960176 0.783659 0.501364
Si Si4 0.405068 0.754039 0.250134
Si Si5 0.493515 0.834922 0.486797
Si Si6 0.795062 0.331496 0.268115
Si Si7 0.000000 0.816689 0.750000
O O1 0.705262 0.642929 0.214024
O O2 0.648479 0.756085 0.400167
O O3 0.750181 0.494675 0.318807
O O4 0.928994 0.705114 0.143701
O O5 0.318924 0.887353 0.353993
O O6 0.046339 0.880015 0.502271
O O7 0.101993 0.918027 0.619016
O O8 0.149831 0.119372 0.473224
O O9 0.870918 0.670951 0.622762
O O10 0.500000 0.673572 0.250000
O O11 0.522667 0.817883 0.098828
O O12 0.350909 0.765410 0.633829
O O13 0.500000 0.000000 0.500000
O O14 0.899054 0.281952 0.266044
#
# Coordination Sequence:
#
# PCOD8119880 Si02
#       7
#     4   4   4   4   4   4   2
#     4   9  21  35  58  82 114 151 188 233 287 342
#     4   9  17  33  51  85 102 147 181 239 272 330
#     4   9  18  33  59  76 111 138 193 229 281 335
#     4   9  18  33  54  78 113 146 191 231 282 335
#     4  10  21  34  59  85 110 152 195 236 276 342
#     4  11  20  37  57  87 112 153 191 233 286 343
#     4  10  22  30  60  78 120 142 198 228 290 332
#
# _framework density 18.797939
#
# number of rings (size 3 to 8) (size 9 to 14) (size 15 to 20)
#    0.923    1.538    0.000    2.769    4.308    0.000 
#    0.000    0.769    0.000    5.538    0.000    0.000 
#    0.000    0.000    0.000    0.000    0.000    0.000 
#
# Total GULP energy -322124.381958 kJ/mol
# GULP energy per Si atom -12389.399306 kJ/mol
# Density = 1.875515 g / cm^3
# Si number density = 18.797939 Si / 1000 Ang^3
#
#
#
# Elastic Constant Matrix: (Units=GPa)
#
#
# Indices 1 2 3 4 5 6 
#
# 1 49.8681 25.3268 15.0090 0.0000 3.5149 0.0000
# 2 25.3268 110.7054 30.4434 0.0000 -2.2966 0.0000
# 3 15.0090 30.4434 90.7796 0.0000 -12.3542 0.0000
# 4 0.0000 0.0000 0.0000 27.8723 0.0000 -2.4489
# 5 3.5149 -2.2966 -12.3542 0.0000 23.7671 0.0000
# 6 0.0000 0.0000 0.0000 -2.4489 0.0000 21.1209
#
#
#
# Elastic Compliance Matrix: (Units=1/GPa)
#
#
# Indices 1 2 3 4 5 6 
#
# 1 0.023770 -0.004697 -0.003115 0.000000 -0.005589 0.000000
# 2 -0.004697 0.010894 -0.002840 0.000000 0.000271 0.000000
# 3 -0.003115 -0.002840 0.013461 0.000000 0.007183 0.000000
# 4 0.000000 0.000000 0.000000 0.036247 0.000000 0.004203
# 5 -0.005589 0.000271 0.007183 0.000000 0.046662 0.000000
# 6 0.000000 0.000000 0.000000 0.004203 0.000000 0.047834
#
#
# Mechanical properties :
#
#
# Convention : Reuss Voigt Hill
#
# Bulk Modulus (GPa) = 37.28561 43.65683 40.47122
# Shear Modulus (GPa) = 23.91059 26.59033 25.25046
#
# Velocity S-wave (km/s) = 3.57035 3.76511 3.66902
# Velocity P-wave (km/s) = 6.07244 6.49431 6.28692
#
# Compressibility (1/GPa) = 0.02682000
#
# Stress axis : x y z
#
# Youngs Moduli (GPa) = 42.06970 91.79199 74.29044
#
# Poissons Ratio (x) = 0.43117 0.23144
# Poissons Ratio (y) = 0.19761 0.21098
# Poissons Ratio (z) = 0.13106 0.26068
#
# Static dielectric constant tensor:
#      x y z
#    x 3.175330 0.000000 -0.062160 
#    y 0.000000 3.214540 0.000000 
#    z -0.062160 0.000000 3.792810 
# 
# 
# High freq. dielectric constant tensor:
#      x y z
#    x 1.698730 0.000000 -0.006070 
#    y 0.000000 1.708570 0.000000 
#    z -0.006070 0.000000 1.743030 
# 
# From -- ./inp_files/69643.got.cif
#   From: 2010.06.25/outbox.cif.g09.slc.cpg/sg13_35_cif.got.tgz:69643.got - 2010.06.28 04:50:58.
