data_PCOD8119915
_publ_section_title
;
Structure prediction by ZEFSAII (Michael W. Deem and Ramdas Pophale) SiO2 
 PCOD8119915
Probable space group: P 2/C
;
_chemical_formula_sum "Si O2"
_cell_formula_units_Z 26
_cell_length_a 8.881865
_cell_length_b 11.577632
_cell_length_c 25.148886
_cell_angle_alpha 90.000000
_cell_angle_beta 150.648796
_cell_angle_gamma 90.000000
_cell_volume 1267.599185
_symmetry_space_group_name_H-M "P 2/C"
_symmetry_group_IT_number 13
_symmetry_cell_setting 'monoclinic'
loop_
_space_group_symop_operation_xyz
x,y,z
-x,y,1/2-z
-x,-y,-z
x,-y,1/2+z
loop_
_atom_site_type_symbol
_atom_site_label
_atom_site_fract_x
_atom_site_fract_y
_atom_site_fract_z
Si Si1 0.920293 0.296032 0.964287
Si Si2 0.162358 0.628842 0.646155
Si Si3 0.797488 0.174002 0.082002
Si Si4 0.500000 0.411292 0.750000
Si Si5 0.694004 0.844476 0.983830
Si Si6 0.785530 0.955722 0.297194
Si Si7 0.593820 0.910565 0.414358
O O1 0.626942 0.337319 0.838862
O O2 0.851218 0.169713 0.967014
O O3 0.226547 0.273255 0.023403
O O4 0.011539 0.380903 0.040504
O O5 0.500000 0.690886 0.750000
O O6 0.218246 0.495872 0.682603
O O7 0.933464 0.697815 0.614479
O O8 0.634206 0.171485 0.088772
O O9 0.544679 0.137465 0.959334
O O10 0.076136 0.083923 0.164673
O O11 0.968468 0.860838 0.109955
O O12 0.699880 0.956418 0.947808
O O13 0.500000 0.958096 0.250000
O O14 0.707474 0.908907 0.214463
#
# Coordination Sequence:
#
# PCOD8119915 Si02
#       7
#     4   4   4   2   4   4   4
#     4  11  20  38  62  88 115 156 198 255 304 354
#     4   9  22  40  63  82 114 153 213 253 298 354
#     4  10  23  37  54  84 124 159 190 248 303 353
#     4  10  22  40  66  90 108 152 220 266 294 346
#     4  11  23  36  54  91 124 152 194 244 301 367
#     4  11  20  33  55  82 118 158 200 235 282 372
#     4  10  21  35  58  84 120 161 196 229 294 372
#
# _framework density 20.511216000000001
#
# number of rings (size 3 to 8) (size 9 to 14) (size 15 to 20)
#    0.462    1.231    1.538    4.154    6.462    2.462 
#    0.000    0.769    0.000    3.692    0.000    0.000 
#    0.000    0.000    0.000    0.000    0.000    0.000 
#
# Total GULP energy -322113.996410 kJ/mol
# GULP energy per Si atom -12388.999862 kJ/mol
# Density = 2.046453 g / cm^3
# Si number density = 20.511216 Si / 1000 Ang^3
#
#
#
# Elastic Constant Matrix: (Units=GPa)
#
#
# Indices 1 2 3 4 5 6 
#
# 1 76.7580 38.2373 25.3690 0.0000 11.0282 0.0000
# 2 38.2373 69.6563 11.4419 0.0000 4.0487 0.0000
# 3 25.3690 11.4419 89.5620 0.0000 -12.6617 0.0000
# 4 0.0000 0.0000 0.0000 25.3634 0.0000 -1.1280
# 5 11.0282 4.0487 -12.6617 0.0000 29.1234 0.0000
# 6 0.0000 0.0000 0.0000 -1.1280 0.0000 17.0470
#
#
#
# Elastic Compliance Matrix: (Units=1/GPa)
#
#
# Indices 1 2 3 4 5 6 
#
# 1 0.021500 -0.010255 -0.006105 0.000000 -0.009370 0.000000
# 2 -0.010255 0.019812 0.000568 0.000000 0.001376 0.000000
# 3 -0.006105 0.000568 0.013998 0.000000 0.008318 0.000000
# 4 0.000000 0.000000 0.000000 0.039543 0.000000 0.002617
# 5 -0.009370 0.001376 0.008318 0.000000 0.041310 0.000000
# 6 0.000000 0.000000 0.000000 0.002617 0.000000 0.058834
#
#
# Mechanical properties :
#
#
# Convention : Reuss Voigt Hill
#
# Bulk Modulus (GPa) = 42.14468 42.89695 42.52082
# Shear Modulus (GPa) = 21.32280 25.03530 23.17905
#
# Velocity S-wave (km/s) = 3.22773 3.49745 3.36529
# Velocity P-wave (km/s) = 5.87220 6.10482 5.98964
#
# Compressibility (1/GPa) = 0.02372779
#
# Stress axis : x y z
#
# Youngs Moduli (GPa) = 46.51068 50.47359 71.43854
#
# Poissons Ratio (x) = 0.51761 0.43611
# Poissons Ratio (y) = 0.47697 -0.04059
# Poissons Ratio (z) = 0.28393 -0.02868
#
# Static dielectric constant tensor:
#      x y z
#    x 3.653900 0.000000 -0.327310 
#    y 0.000000 3.549930 0.000000 
#    z -0.327310 0.000000 3.915280 
# 
# 
# High freq. dielectric constant tensor:
#      x y z
#    x 1.778050 0.000000 -0.020210 
#    y 0.000000 1.784150 0.000000 
#    z -0.020210 0.000000 1.809160 
# 
# From -- ./inp_files/91644.got.cif
#   From: 2010.06.25/outbox.cif.g09.slc.cpg/sg13_46_cif.got.tgz:91644.got - 2010.06.28 04:50:58.
