data_PCOD8119587
_publ_section_title
;
Structure prediction by ZEFSAII (Michael W. Deem and Ramdas Pophale) SiO2 
 PCOD8119587
Probable space group: P 2/C
;
_chemical_formula_sum "Si O2"
_cell_formula_units_Z 28
_cell_length_a 8.319150
_cell_length_b 6.474653
_cell_length_c 27.864951
_cell_angle_alpha 90.000000
_cell_angle_beta 59.034582
_cell_angle_gamma 90.000000
_cell_volume 1286.994604
_symmetry_space_group_name_H-M "P 2/C"
_symmetry_group_IT_number 13
_symmetry_cell_setting 'monoclinic'
loop_
_space_group_symop_operation_xyz
x,y,z
-x,y,1/2-z
-x,-y,-z
x,-y,1/2+z
loop_
_atom_site_type_symbol
_atom_site_label
_atom_site_fract_x
_atom_site_fract_y
_atom_site_fract_z
Si Si1 0.689554 0.151782 0.363486
Si Si2 0.832036 0.457853 0.420792
Si Si3 0.000000 0.721513 0.750000
Si Si4 0.623521 0.168360 0.158852
Si Si5 0.500000 0.840987 0.250000
Si Si6 0.989204 0.903059 0.949121
Si Si7 0.192663 0.493153 0.805113
Si Si8 0.665952 0.121387 0.948228
O O1 0.727530 0.300339 0.402233
O O2 0.515091 0.247870 0.361457
O O3 0.871948 0.130658 0.302107
O O4 0.646894 0.927474 0.393980
O O5 0.901326 0.331195 0.458040
O O6 0.675232 0.632243 0.456609
O O7 0.013270 0.555175 0.366155
O O8 0.869455 0.580738 0.736646
O O9 0.668134 0.346890 0.189975
O O10 0.807825 0.086225 0.105077
O O11 0.513080 0.981040 0.200743
O O12 0.691285 0.711938 0.223954
O O13 0.866687 0.052336 0.935979
O O14 0.000000 0.000000 0.000000
O O15 0.500000 0.000000 0.000000
#
# Coordination Sequence:
#
# PCOD8119587 Si02
#       8
#     4   4   2   4   2   4   4   4
#     4  10  22  38  61  87 121 161 203 255 308 365
#     4   9  22  42  62  86 122 163 203 255 311 370
#     4  10  20  40  60  84 122 160 204 256 298 360
#     4  11  23  40  61  92 124 157 206 256 303 370
#     4  12  22  36  62  90 124 160 196 250 306 364
#     4  10  22  42  64  90 123 160 206 259 314 371
#     4  10  22  39  58  87 124 160 203 250 312 371
#     4  11  23  41  63  91 123 162 212 255 308 375
#
# _framework density 21.756112000000002
#
# number of rings (size 3 to 8) (size 9 to 14) (size 15 to 20)
#    0.000    1.714    0.000    4.714    0.000    7.429 
#    0.000    7.143    0.000    0.000    0.000    0.000 
#    0.000    0.000    0.000    0.000    0.000    0.000 
#
# Total GULP energy -347078.335937 kJ/mol
# GULP energy per Si atom -12395.654855 kJ/mol
# Density = 2.170659 g / cm^3
# Si number density = 21.756112 Si / 1000 Ang^3
#
#
#
# Elastic Constant Matrix: (Units=GPa)
#
#
# Indices 1 2 3 4 5 6 
#
# 1 137.7679 41.4023 41.8784 0.0000 12.1371 0.0000
# 2 41.4023 113.0878 59.7882 0.0000 -0.3072 0.0000
# 3 41.8784 59.7882 116.6947 0.0000 3.4674 0.0000
# 4 0.0000 0.0000 0.0000 31.2450 0.0000 -15.0609
# 5 12.1371 -0.3072 3.4674 0.0000 34.4187 0.0000
# 6 0.0000 0.0000 0.0000 -15.0609 0.0000 32.5210
#
#
#
# Elastic Compliance Matrix: (Units=1/GPa)
#
#
# Indices 1 2 3 4 5 6 
#
# 1 0.008762 -0.002193 -0.001934 0.000000 -0.002915 0.000000
# 2 -0.002193 0.012695 -0.005761 0.000000 0.001467 0.000000
# 3 -0.001934 -0.005761 0.012233 0.000000 -0.000602 0.000000
# 4 0.000000 0.000000 0.000000 0.041203 0.000000 0.019082
# 5 -0.002915 0.001467 -0.000602 0.000000 0.030155 0.000000
# 6 0.000000 0.000000 0.000000 0.019082 0.000000 0.039586
#
#
# Mechanical properties :
#
#
# Convention : Reuss Voigt Hill
#
# Bulk Modulus (GPa) = 71.87074 72.63202 72.25138
# Shear Modulus (GPa) = 29.57696 34.60238 32.08967
#
# Velocity S-wave (km/s) = 3.69111 3.99239 3.84470
# Velocity P-wave (km/s) = 7.16046 7.39658 7.27948
#
# Compressibility (1/GPa) = 0.01391387
#
# Stress axis : x y z
#
# Youngs Moduli (GPa) = 114.12316 78.76879 81.74617
#
# Poissons Ratio (x) = 0.17276 0.15812
# Poissons Ratio (y) = 0.25031 0.47093
# Poissons Ratio (z) = 0.22074 0.45378
#
# Static dielectric constant tensor:
#      x y z
#    x 4.164600 0.000000 0.059050 
#    y 0.000000 3.823590 0.000000 
#    z 0.059050 0.000000 4.074400 
# 
# 
# High freq. dielectric constant tensor:
#      x y z
#    x 1.869480 0.000000 -0.007790 
#    y 0.000000 1.840470 0.000000 
#    z -0.007790 0.000000 1.859550 
# 
# From -- ./inp_files/95616.got.cif
#   From: 2010.06.25/outbox.cif.g09.slc.cpg/sg13_48_cif.got.tgz:95616.got - 2010.06.28 04:50:58.
