data_PCOD8119647
_publ_section_title
;
Structure prediction by ZEFSAII (Michael W. Deem and Ramdas Pophale) SiO2 
 PCOD8119647
Probable space group: P 2/C
;
_chemical_formula_sum "Si O2"
_cell_formula_units_Z 28
_cell_length_a 8.758017
_cell_length_b 10.496166
_cell_length_c 13.530069
_cell_angle_alpha 90.000000
_cell_angle_beta 75.545344
_cell_angle_gamma 90.000000
_cell_volume 1204.389108
_symmetry_space_group_name_H-M "P 2/C"
_symmetry_group_IT_number 13
_symmetry_cell_setting 'monoclinic'
loop_
_space_group_symop_operation_xyz
x,y,z
-x,y,1/2-z
-x,-y,-z
x,-y,1/2+z
loop_
_atom_site_type_symbol
_atom_site_label
_atom_site_fract_x
_atom_site_fract_y
_atom_site_fract_z
Si Si1 0.152682 0.130467 0.785556
Si Si2 0.707962 0.987587 0.560509
Si Si3 0.260372 0.419582 0.195369
Si Si4 0.029176 0.418681 0.397003
Si Si5 0.072958 0.774432 0.030761
Si Si6 0.426675 0.193324 0.056530
Si Si7 0.666544 0.681199 0.384785
O O1 0.277233 0.205960 0.698188
O O2 0.000000 0.073142 0.750000
O O3 0.078376 0.231263 0.873801
O O4 0.250429 0.026562 0.833239
O O5 0.856032 0.915095 0.488961
O O6 0.554549 0.896497 0.590985
O O7 0.692172 0.103555 0.485416
O O8 0.204007 0.426775 0.318705
O O9 0.344454 0.286218 0.151221
O O10 0.368119 0.544681 0.160266
O O11 0.104624 0.446159 0.158802
O O12 0.017432 0.271360 0.432327
O O13 0.000000 0.500000 0.500000
O O14 0.200957 0.672879 0.051483
O O15 0.501875 0.280676 0.959647
#
# Coordination Sequence:
#
# PCOD8119647 Si02
#       7
#     4   4   4   4   4   4   4
#     4  10  21  38  68 102 128 174 233 283 346 407
#     4  10  22  44  67  93 141 187 232 285 344 417
#     4  11  23  40  69 101 135 177 231 287 351 420
#     4  11  22  40  67 100 135 173 224 295 356 401
#     4  10  20  40  65  96 132 174 223 292 350 397
#     4  10  23  44  67  95 141 186 227 277 349 414
#     4  10  21  40  67  97 131 182 221 279 344 428
#
# _framework density 23.248298999999999
#
# number of rings (size 3 to 8) (size 9 to 14) (size 15 to 20)
#    0.000    1.714    1.429    2.571    4.000    0.571 
#   15.429    2.143    0.000    0.000    0.000    0.000 
#    0.000    0.000    0.000    0.000    0.000    0.000 
#
# Total GULP energy -346882.028401 kJ/mol
# GULP energy per Si atom -12388.643871 kJ/mol
# Density = 2.319539 g / cm^3
# Si number density = 23.248299 Si / 1000 Ang^3
#
#
#
# Elastic Constant Matrix: (Units=GPa)
#
#
# Indices 1 2 3 4 5 6 
#
# 1 53.3611 41.8490 37.7861 0.0000 2.1410 0.0000
# 2 41.8490 122.3928 63.6032 0.0000 -4.5013 0.0000
# 3 37.7861 63.6032 152.2440 0.0000 -13.4918 0.0000
# 4 0.0000 0.0000 0.0000 38.1077 0.0000 3.0377
# 5 2.1410 -4.5013 -13.4918 0.0000 40.0832 0.0000
# 6 0.0000 0.0000 0.0000 3.0377 0.0000 31.7136
#
#
#
# Elastic Compliance Matrix: (Units=1/GPa)
#
#
# Indices 1 2 3 4 5 6 
#
# 1 0.027622 -0.007469 -0.004061 0.000000 -0.003681 0.000000
# 2 -0.007469 0.012460 -0.003290 0.000000 0.000691 0.000000
# 3 -0.004061 -0.003290 0.009212 0.000000 0.002948 0.000000
# 4 0.000000 0.000000 0.000000 0.026443 0.000000 -0.002533
# 5 -0.003681 0.000691 0.002948 0.000000 0.026215 0.000000
# 6 0.000000 0.000000 0.000000 -0.002533 0.000000 0.031775
#
#
# Mechanical properties :
#
#
# Convention : Reuss Voigt Hill
#
# Bulk Modulus (GPa) = 50.88591 68.27496 59.58043
# Shear Modulus (GPa) = 29.42581 34.29819 31.86200
#
# Velocity S-wave (km/s) = 3.56155 3.84513 3.70605
# Velocity P-wave (km/s) = 6.23285 7.01034 6.63300
#
# Compressibility (1/GPa) = 0.01965180
#
# Stress axis : x y z
#
# Youngs Moduli (GPa) = 36.20327 80.25953 108.55165
#
# Poissons Ratio (x) = 0.59949 0.44086
# Poissons Ratio (y) = 0.27042 0.35715
# Poissons Ratio (z) = 0.14703 0.26407
#
# Static dielectric constant tensor:
#      x y z
#    x 4.159240 0.000000 0.095480 
#    y 0.000000 4.292090 0.000000 
#    z 0.095480 0.000000 4.507170 
# 
# 
# High freq. dielectric constant tensor:
#      x y z
#    x 1.905540 0.000000 -0.003030 
#    y 0.000000 1.918250 0.000000 
#    z -0.003030 0.000000 1.927020 
# 
# From -- ./inp_files/46860.got.cif
#   From: 2010.06.25/outbox.cif.g09.slc.cpg/sg13_24_cif.got.tgz:46860.got - 2010.06.28 04:50:58.
