data_PCOD8119087
_publ_section_title
;
Structure prediction by ZEFSAII (Michael W. Deem and Ramdas Pophale) SiO2 
 PCOD8119087
Probable space group: P 2/C
;
_chemical_formula_sum "Si O2"
_cell_formula_units_Z 28
_cell_length_a 14.710731
_cell_length_b 12.311458
_cell_length_c 9.236085
_cell_angle_alpha 90.000000
_cell_angle_beta 114.386421
_cell_angle_gamma 90.000000
_cell_volume 1523.512012
_symmetry_space_group_name_H-M "P 2/C"
_symmetry_group_IT_number 13
_symmetry_cell_setting 'monoclinic'
loop_
_space_group_symop_operation_xyz
x,y,z
-x,y,1/2-z
-x,-y,-z
x,-y,1/2+z
loop_
_atom_site_type_symbol
_atom_site_label
_atom_site_fract_x
_atom_site_fract_y
_atom_site_fract_z
Si Si1 0.331055 0.995900 0.369057
Si Si2 0.783647 0.901579 0.465401
Si Si3 0.060980 0.927648 0.427714
Si Si4 0.809270 0.731503 0.894851
Si Si5 0.926335 0.530760 0.078560
Si Si6 0.883276 0.700325 0.639190
Si Si7 0.607336 0.149342 0.336368
O O1 0.247866 0.930959 0.219230
O O2 0.387328 0.904433 0.500239
O O3 0.298171 0.092095 0.459388
O O4 0.396369 0.055811 0.289502
O O5 0.843155 0.787472 0.495445
O O6 0.851435 0.997509 0.574392
O O7 0.106279 0.822152 0.531697
O O8 0.000000 0.886888 0.250000
O O9 0.000000 0.000000 0.500000
O O10 0.808733 0.710747 0.724544
O O11 0.699919 0.768117 0.877109
O O12 0.843021 0.621369 0.995698
O O13 0.866025 0.421494 0.074229
O O14 0.000000 0.574149 0.250000
O O15 0.000000 0.500000 0.000000
O O16 0.000000 0.721789 0.750000
O O17 0.500000 0.210357 0.250000
#
# Coordination Sequence:
#
# PCOD8119087 Si02
#       7
#     4   4   4   4   4   4   4
#     4  10  20  37  58  88 121 153 196 243 300 359
#     4  11  19  35  55  86 121 160 191 232 298 358
#     4  12  23  32  54  87 128 163 192 235 296 367
#     4  12  22  40  59  87 124 155 206 253 297 356
#     4  11  23  40  59  88 118 160 206 240 294 361
#     4  11  21  37  59  84 121 164 198 241 294 352
#     4  11  23  40  64  88 118 161 205 253 304 357
#
# _framework density 18.378589000000002
#
# number of rings (size 3 to 8) (size 9 to 14) (size 15 to 20)
#    0.000    0.857    7.143    3.857    0.000    1.143 
#    0.000    0.000    0.000    0.857    0.000    0.000 
#    0.000    0.000    0.000    0.000    0.000    0.000 
#
# Total GULP energy -346910.154723 kJ/mol
# GULP energy per Si atom -12389.648383 kJ/mol
# Density = 1.833676 g / cm^3
# Si number density = 18.378589 Si / 1000 Ang^3
#
#
#
# Elastic Constant Matrix: (Units=GPa)
#
#
# Indices 1 2 3 4 5 6 
#
# 1 79.8516 42.2523 51.5607 0.0000 13.5301 0.0000
# 2 42.2523 123.3551 44.4811 0.0000 14.2816 0.0000
# 3 51.5607 44.4811 100.8176 0.0000 -2.6520 0.0000
# 4 0.0000 0.0000 0.0000 27.6413 0.0000 8.0344
# 5 13.5301 14.2816 -2.6520 0.0000 26.4879 0.0000
# 6 0.0000 0.0000 0.0000 8.0344 0.0000 3.8146
#
#
#
# Elastic Compliance Matrix: (Units=1/GPa)
#
#
# Indices 1 2 3 4 5 6 
#
# 1 0.022798 -0.002599 -0.010811 0.000000 -0.011326 0.000000
# 2 -0.002599 0.010857 -0.003589 0.000000 -0.004885 0.000000
# 3 -0.010811 -0.003589 0.017273 0.000000 0.009187 0.000000
# 4 0.000000 0.000000 0.000000 0.093291 0.000000 -0.196490
# 5 -0.011326 -0.004885 0.009187 0.000000 0.047092 0.000000
# 6 0.000000 0.000000 0.000000 -0.196490 0.000000 0.675995
#
#
# Mechanical properties :
#
#
# Convention : Reuss Voigt Hill
#
# Bulk Modulus (GPa) = 59.06827 64.51250 61.79039
# Shear Modulus (GPa) = 5.51299 22.63745 14.07522
#
# Velocity S-wave (km/s) = 1.73384 3.51341 2.77040
# Velocity P-wave (km/s) = 6.01812 7.18588 6.62777
#
# Compressibility (1/GPa) = 0.01692956
#
# Stress axis : x y z
#
# Youngs Moduli (GPa) = 43.86275 92.10731 57.89375
#
# Poissons Ratio (x) = 0.23943 0.62587
# Poissons Ratio (y) = 0.11402 0.20779
# Poissons Ratio (z) = 0.47419 0.33059
#
# Static dielectric constant tensor:
#      x y z
#    x 3.263850 0.000000 -0.167520 
#    y 0.000000 3.850860 0.000000 
#    z -0.167520 0.000000 3.358500 
# 
# 
# High freq. dielectric constant tensor:
#      x y z
#    x 1.696780 0.000000 -0.016570 
#    y 0.000000 1.696160 0.000000 
#    z -0.016570 0.000000 1.724670 
# 
# From -- ./inp_files/18821.got.cif
#   From: 2010.06.25/outbox.cif.g09.slc.cpg/sg13_10_cif.got.tgz:18821.got - 2010.06.28 04:50:58.
