data_PCOD8119048
_publ_section_title
;
Structure prediction by ZEFSAII (Michael W. Deem and Ramdas Pophale) SiO2 
 PCOD8119048
Probable space group: P 2/C
;
_chemical_formula_sum "Si O2"
_cell_formula_units_Z 32
_cell_length_a 11.706252
_cell_length_b 9.026934
_cell_length_c 19.656345
_cell_angle_alpha 90.000000
_cell_angle_beta 52.558669
_cell_angle_gamma 90.000000
_cell_volume 1649.181400
_symmetry_space_group_name_H-M "P 2/C"
_symmetry_group_IT_number 13
_symmetry_cell_setting 'monoclinic'
loop_
_space_group_symop_operation_xyz
x,y,z
-x,y,1/2-z
-x,-y,-z
x,-y,1/2+z
loop_
_atom_site_type_symbol
_atom_site_label
_atom_site_fract_x
_atom_site_fract_y
_atom_site_fract_z
Si Si1 0.903222 0.960910 0.099196
Si Si2 0.641316 0.419299 0.974746
Si Si3 0.083305 0.430166 0.152409
Si Si4 0.922359 0.900919 0.850775
Si Si5 0.369871 0.113121 0.348238
Si Si6 0.064875 0.625724 0.404885
Si Si7 0.234355 0.415981 0.424417
Si Si8 0.369360 0.076341 0.508673
O O1 0.906493 0.793638 0.126454
O O2 0.741343 0.993672 0.138120
O O3 0.951212 0.062330 0.143441
O O4 0.000000 0.000000 0.000000
O O5 0.773398 0.478440 0.882190
O O6 0.631332 0.245319 0.966794
O O7 0.500000 0.500000 0.000000
O O8 0.678864 0.462055 0.039252
O O9 0.126505 0.265675 0.111772
O O10 0.000000 0.400479 0.250000
O O11 0.977957 0.519646 0.141301
O O12 0.000000 0.921619 0.750000
O O13 0.782610 0.004735 0.913910
O O14 0.500000 0.092737 0.250000
O O15 0.316007 0.281929 0.358258
O O16 0.399931 0.074275 0.416534
O O17 0.212341 0.560896 0.385154
O O18 0.928971 0.637900 0.504424
O O19 0.500000 0.000000 0.500000
#
# Coordination Sequence:
#
# PCOD8119048 Si02
#       8
#     4   4   4   4   4   4   4   4
#     4  12  22  39  66  96 125 162 211 265 316 375
#     4  10  21  38  61  85 121 164 199 248 308 373
#     4  10  22  40  62  93 122 156 209 261 314 371
#     4  11  24  41  67  93 124 169 214 265 320 378
#     4  11  24  42  62  90 130 171 211 258 322 387
#     4  10  20  36  65  92 118 155 206 263 310 360
#     4   9  19  38  62  89 115 160 206 252 308 372
#     4  11  24  42  63  93 128 171 211 259 319 382
#
# _framework density 19.403566999999999
#
# number of rings (size 3 to 8) (size 9 to 14) (size 15 to 20)
#    0.000    1.500    2.500    3.000    5.250    3.000 
#    6.750    0.625    0.000    0.000    0.000    0.000 
#    0.000    0.000    0.000    0.000    0.000    0.000 
#
# Total GULP energy -396617.633751 kJ/mol
# GULP energy per Si atom -12394.301055 kJ/mol
# Density = 1.935940 g / cm^3
# Si number density = 19.403567 Si / 1000 Ang^3
#
#
#
# Elastic Constant Matrix: (Units=GPa)
#
#
# Indices 1 2 3 4 5 6 
#
# 1 139.0570 71.8860 42.3488 0.0000 -6.9995 0.0000
# 2 71.8860 150.6714 50.0036 0.0000 -3.3236 0.0000
# 3 42.3488 50.0036 102.7668 0.0000 -3.6508 0.0000
# 4 0.0000 0.0000 0.0000 27.9775 0.0000 -3.9322
# 5 -6.9995 -3.3236 -3.6508 0.0000 25.2457 0.0000
# 6 0.0000 0.0000 0.0000 -3.9322 0.0000 42.5983
#
#
#
# Elastic Compliance Matrix: (Units=1/GPa)
#
#
# Indices 1 2 3 4 5 6 
#
# 1 0.010015 -0.004041 -0.002092 0.000000 0.001942 0.000000
# 2 -0.004041 0.009552 -0.002993 0.000000 -0.000296 0.000000
# 3 -0.002092 -0.002993 0.012076 0.000000 0.000772 0.000000
# 4 0.000000 0.000000 0.000000 0.036213 0.000000 0.003343
# 5 0.001942 -0.000296 0.000772 0.000000 0.040222 0.000000
# 6 0.000000 0.000000 0.000000 0.003343 0.000000 0.023784
#
#
# Mechanical properties :
#
#
# Convention : Reuss Voigt Hill
#
# Bulk Modulus (GPa) = 74.67282 80.10800 77.39041
# Shear Modulus (GPa) = 32.34625 34.38143 33.36384
#
# Velocity S-wave (km/s) = 4.08735 4.21398 4.15115
# Velocity P-wave (km/s) = 7.80018 8.06546 7.93393
#
# Compressibility (1/GPa) = 0.01339175
#
# Stress axis : x y z
#
# Youngs Moduli (GPa) = 99.84779 104.69263 82.80608
#
# Poissons Ratio (x) = 0.42309 0.17321
# Poissons Ratio (y) = 0.40351 0.24782
# Poissons Ratio (z) = 0.20886 0.31332
#
# Static dielectric constant tensor:
#      x y z
#    x 3.694240 0.000000 0.165780 
#    y 0.000000 3.805290 0.000000 
#    z 0.165780 0.000000 3.431570 
# 
# 
# High freq. dielectric constant tensor:
#      x y z
#    x 1.765070 0.000000 0.003560 
#    y 0.000000 1.773180 0.000000 
#    z 0.003560 0.000000 1.735940 
# 
# From -- ./inp_files/78271.got.cif
#   From: 2010.06.25/outbox.cif.g09.slc.cpg/sg13_40_cif.got.tgz:78271.got - 2010.06.28 04:50:58.
