data_PCOD8119556
_publ_section_title
;
Structure prediction by ZEFSAII (Michael W. Deem and Ramdas Pophale) SiO2 
 PCOD8119556
Probable space group: P 2/C
;
_chemical_formula_sum "Si O2"
_cell_formula_units_Z 28
_cell_length_a 8.358880
_cell_length_b 16.400783
_cell_length_c 17.683346
_cell_angle_alpha 90.000000
_cell_angle_beta 146.874055
_cell_angle_gamma 90.000000
_cell_volume 1324.806285
_symmetry_space_group_name_H-M "P 2/C"
_symmetry_group_IT_number 13
_symmetry_cell_setting 'monoclinic'
loop_
_space_group_symop_operation_xyz
x,y,z
-x,y,1/2-z
-x,-y,-z
x,-y,1/2+z
loop_
_atom_site_type_symbol
_atom_site_label
_atom_site_fract_x
_atom_site_fract_y
_atom_site_fract_z
Si Si1 0.126039 0.179117 0.440173
Si Si2 0.025116 0.176425 0.946169
Si Si3 0.895660 0.353242 0.340294
Si Si4 0.229466 0.352141 0.038113
Si Si5 0.831037 0.484489 0.611397
Si Si6 0.420983 0.073805 0.305635
Si Si7 0.714315 0.899572 0.188148
O O1 0.446692 0.148325 0.541764
O O2 0.097381 0.169298 0.518379
O O3 0.087462 0.272801 0.399694
O O4 0.877151 0.124410 0.302895
O O5 0.777704 0.142515 0.793264
O O6 0.087722 0.269977 0.949761
O O7 0.319620 0.124222 0.053106
O O8 0.574598 0.337732 0.180435
O O9 0.895624 0.373387 0.429063
O O10 0.030346 0.428481 0.350324
O O11 0.136066 0.425078 0.946519
O O12 0.500000 0.500000 0.500000
O O13 0.000000 0.445497 0.750000
O O14 0.500000 0.055032 0.250000
O O15 0.388390 0.991599 0.339892
O O16 0.000000 0.894198 0.250000
#
# Coordination Sequence:
#
# PCOD8119556 Si02
#       7
#     4   4   4   4   4   4   4
#     4  10  21  41  68  92 116 162 215 260 314 362
#     4  10  21  40  67  93 119 157 210 269 310 361
#     4  10  21  43  69  96 123 163 216 263 314 370
#     4  10  21  42  70  96 125 160 214 267 311 373
#     4  12  25  42  63  96 134 168 203 247 315 385
#     4  10  20  39  67  91 117 160 212 263 311 364
#     4  12  26  39  53  91 136 167 204 251 310 375
#
# _framework density 21.135166000000002
#
# number of rings (size 3 to 8) (size 9 to 14) (size 15 to 20)
#    0.000    1.429    2.857    2.571    0.000    7.429 
#    0.000    2.143    0.000    0.000    0.000    0.000 
#    0.000    0.000    0.000    0.000    0.000    0.000 
#
# Total GULP energy -347330.141411 kJ/mol
# GULP energy per Si atom -12404.647908 kJ/mol
# Density = 2.108706 g / cm^3
# Si number density = 21.135166 Si / 1000 Ang^3
#
#
#
# Elastic Constant Matrix: (Units=GPa)
#
#
# Indices 1 2 3 4 5 6 
#
# 1 48.5622 27.9075 15.4929 0.0000 12.2209 0.0000
# 2 27.9075 111.9616 24.7240 0.0000 1.0624 0.0000
# 3 15.4929 24.7240 94.9778 0.0000 8.2679 0.0000
# 4 0.0000 0.0000 0.0000 15.1343 0.0000 10.9488
# 5 12.2209 1.0624 8.2679 0.0000 37.5448 0.0000
# 6 0.0000 0.0000 0.0000 10.9488 0.0000 15.3722
#
#
#
# Elastic Compliance Matrix: (Units=1/GPa)
#
#
# Indices 1 2 3 4 5 6 
#
# 1 0.026827 -0.006153 -0.002069 0.000000 -0.008103 0.000000
# 2 -0.006153 0.010891 -0.002017 0.000000 0.002139 0.000000
# 3 -0.002069 -0.002017 0.011549 0.000000 -0.001813 0.000000
# 4 0.000000 0.000000 0.000000 0.136312 0.000000 -0.097088
# 5 -0.008103 0.002139 -0.001813 0.000000 0.029611 0.000000
# 6 0.000000 0.000000 0.000000 -0.097088 0.000000 0.134202
#
#
# Mechanical properties :
#
#
# Convention : Reuss Voigt Hill
#
# Bulk Modulus (GPa) = 34.73683 43.52783 39.13233
# Shear Modulus (GPa) = 13.17633 26.10208 19.63921
#
# Velocity S-wave (km/s) = 2.49957 3.51808 3.05162
# Velocity P-wave (km/s) = 4.98013 6.09444 5.56525
#
# Compressibility (1/GPa) = 0.02878789
#
# Stress axis : x y z
#
# Youngs Moduli (GPa) = 37.27529 91.82236 86.58571
#
# Poissons Ratio (x) = 0.56500 0.17915
# Poissons Ratio (y) = 0.22936 0.17468
# Poissons Ratio (z) = 0.07712 0.18525
#
# Static dielectric constant tensor:
#      x y z
#    x 3.885710 0.000000 0.169690 
#    y 0.000000 3.472110 0.000000 
#    z 0.169690 0.000000 4.124840 
# 
# 
# High freq. dielectric constant tensor:
#      x y z
#    x 1.822230 0.000000 0.002530 
#    y 0.000000 1.836760 0.000000 
#    z 0.002530 0.000000 1.837110 
# 
# From -- ./inp_files/76767.got.cif
#   From: 2010.06.25/outbox.cif.g09.slc.cpg/sg13_39_cif.got.tgz:76767.got - 2010.06.28 04:50:58.
