data_PCOD8119633
_publ_section_title
;
Structure prediction by ZEFSAII (Michael W. Deem and Ramdas Pophale) SiO2 
 PCOD8119633
Probable space group: P 2/C
;
_chemical_formula_sum "Si O2"
_cell_formula_units_Z 28
_cell_length_a 9.318206
_cell_length_b 12.888091
_cell_length_c 14.424589
_cell_angle_alpha 90.000000
_cell_angle_beta 42.526616
_cell_angle_gamma 90.000000
_cell_volume 1170.921443
_symmetry_space_group_name_H-M "P 2/C"
_symmetry_group_IT_number 13
_symmetry_cell_setting 'monoclinic'
loop_
_space_group_symop_operation_xyz
x,y,z
-x,y,1/2-z
-x,-y,-z
x,-y,1/2+z
loop_
_atom_site_type_symbol
_atom_site_label
_atom_site_fract_x
_atom_site_fract_y
_atom_site_fract_z
Si Si1 0.261243 0.892948 0.857914
Si Si2 0.194523 0.218566 0.089678
Si Si3 0.584807 0.465813 0.838287
Si Si4 0.270746 0.662586 0.880225
Si Si5 0.949816 0.998956 0.375980
Si Si6 0.528921 0.335915 0.034950
Si Si7 0.178502 0.394979 0.949975
O O1 0.500000 0.931126 0.750000
O O2 0.247209 0.770903 0.835557
O O3 0.164391 0.958437 0.820323
O O4 0.148029 0.911841 0.010850
O O5 0.206860 0.097633 0.058221
O O6 0.408980 0.240013 0.045594
O O7 0.000000 0.246175 0.250000
O O8 0.188565 0.282918 0.995780
O O9 0.645188 0.587459 0.827859
O O10 0.322306 0.471293 0.945628
O O11 0.707293 0.398111 0.703787
O O12 0.641394 0.405327 0.904310
O O13 0.500000 0.605387 0.750000
O O14 0.288620 0.699780 0.979554
O O15 0.076386 0.582632 0.948645
O O16 0.000000 0.952017 0.250000
#
# Coordination Sequence:
#
# PCOD8119633 Si02
#       7
#     4   4   4   4   4   4   4
#     4  10  23  44  64  98 135 163 220 283 328 402
#     4  10  20  40  64  90 125 173 214 263 317 406
#     4   9  22  43  60  89 131 168 216 281 314 389
#     4  11  23  39  64  94 128 170 212 276 328 388
#     4  10  22  43  67  96 130 175 217 269 338 404
#     4  10  22  41  59  92 128 166 219 260 333 380
#     4  10  20  41  64  90 124 170 222 263 329 382
#
# _framework density 23.912792
#
# number of rings (size 3 to 8) (size 9 to 14) (size 15 to 20)
#    0.000    2.000    1.429    0.857    8.000    1.714 
#   15.429    0.000    0.000    0.000    0.000    0.000 
#    0.000    0.000    0.000    0.000    0.000    0.000 
#
# Total GULP energy -346873.457102 kJ/mol
# GULP energy per Si atom -12388.337754 kJ/mol
# Density = 2.385837 g / cm^3
# Si number density = 23.912792 Si / 1000 Ang^3
#
#
#
# Elastic Constant Matrix: (Units=GPa)
#
#
# Indices 1 2 3 4 5 6 
#
# 1 131.0121 11.8314 36.2866 0.0000 -10.4451 0.0000
# 2 11.8314 56.4258 11.8528 0.0000 -16.4020 0.0000
# 3 36.2866 11.8528 82.0440 0.0000 6.5208 0.0000
# 4 0.0000 0.0000 0.0000 15.8764 0.0000 9.2286
# 5 -10.4451 -16.4020 6.5208 0.0000 46.9285 0.0000
# 6 0.0000 0.0000 0.0000 9.2286 0.0000 15.2488
#
#
#
# Elastic Compliance Matrix: (Units=1/GPa)
#
#
# Indices 1 2 3 4 5 6 
#
# 1 0.009002 -0.000300 -0.004135 0.000000 0.002473 0.000000
# 2 -0.000300 0.020743 -0.003473 0.000000 0.007666 0.000000
# 3 -0.004135 -0.003473 0.014853 0.000000 -0.004198 0.000000
# 4 0.000000 0.000000 0.000000 0.097170 0.000000 -0.058808
# 5 0.002473 0.007666 -0.004198 0.000000 0.025122 0.000000
# 6 0.000000 0.000000 0.000000 -0.058808 0.000000 0.101170
#
#
# Mechanical properties :
#
#
# Convention : Reuss Voigt Hill
#
# Bulk Modulus (GPa) = 34.74398 43.26929 39.00663
# Shear Modulus (GPa) = 17.03747 29.57813 23.30780
#
# Velocity S-wave (km/s) = 2.67213 3.52080 3.12541
# Velocity P-wave (km/s) = 4.90728 5.88744 5.41956
#
# Compressibility (1/GPa) = 0.02878197
#
# Stress axis : x y z
#
# Youngs Moduli (GPa) = 111.08141 48.20849 67.32745
#
# Poissons Ratio (x) = 0.01447 0.27839
# Poissons Ratio (y) = 0.03334 0.23385
# Poissons Ratio (z) = 0.45930 0.16744
#
# Static dielectric constant tensor:
#      x y z
#    x 4.927300 0.000000 0.331850 
#    y 0.000000 4.115220 0.000000 
#    z 0.331850 0.000000 4.281430 
# 
# 
# High freq. dielectric constant tensor:
#      x y z
#    x 1.976920 0.000000 0.028650 
#    y 0.000000 1.935100 0.000000 
#    z 0.028650 0.000000 1.930110 
# 
# From -- ./inp_files/47635.got.cif
#   From: 2010.06.25/outbox.cif.g09.slc.cpg/sg13_24_cif.got.tgz:47635.got - 2010.06.28 04:50:58.
