data_PCOD8119758
_publ_section_title
;
Structure prediction by ZEFSAII (Michael W. Deem and Ramdas Pophale) SiO2 
 PCOD8119758
Probable space group: P 2/C
;
_chemical_formula_sum "Si O2"
_cell_formula_units_Z 18
_cell_length_a 11.258380
_cell_length_b 10.655855
_cell_length_c 10.764583
_cell_angle_alpha 90.000000
_cell_angle_beta 44.053969
_cell_angle_gamma 90.000000
_cell_volume 897.957750
_symmetry_space_group_name_H-M "P 2/C"
_symmetry_group_IT_number 13
_symmetry_cell_setting 'monoclinic'
loop_
_space_group_symop_operation_xyz
x,y,z
-x,y,1/2-z
-x,-y,-z
x,-y,1/2+z
loop_
_atom_site_type_symbol
_atom_site_label
_atom_site_fract_x
_atom_site_fract_y
_atom_site_fract_z
Si Si1 0.000000 0.544444 0.750000
Si Si2 0.746620 0.891939 0.867938
Si Si3 0.901599 0.225518 0.476782
Si Si4 0.841733 0.696691 0.295398
Si Si5 0.437674 0.860388 0.931714
O O1 0.073618 0.632026 0.587151
O O2 0.141230 0.455157 0.711479
O O3 0.595970 0.828695 0.902213
O O4 0.926730 0.860292 0.664311
O O5 0.754518 0.837798 0.002449
O O6 0.697043 0.038621 0.910633
O O7 0.836450 0.238832 0.664596
O O8 0.667402 0.731015 0.497800
O O9 0.000000 0.758896 0.250000
O O10 0.500000 0.904719 0.750000
#
# Coordination Sequence:
#
# PCOD8119758 Si02
#       5
#     2   4   4   4   4
#     4   8  20  38  62  90 110 152 196 250 282 336
#     4   9  23  37  60  83 121 156 184 244 290 343
#     4  10  20  42  62  86 117 151 204 233 294 348
#     4  10  22  35  65  86 114 158 193 242 288 336
#     4  11  23  39  55  88 124 150 193 238 290 349
#
# _framework density 20.045484999999999
#
# number of rings (size 3 to 8) (size 9 to 14) (size 15 to 20)
#    0.667    1.778    0.000    2.000    9.333    0.889 
#    0.000    4.444    0.000    0.000    0.000    0.000 
#    0.000    0.000    0.000    0.000    0.000    0.000 
#
# Total GULP energy -223001.080541 kJ/mol
# GULP energy per Si atom -12388.948919 kJ/mol
# Density = 1.999986 g / cm^3
# Si number density = 20.045485 Si / 1000 Ang^3
#
#
#
# Elastic Constant Matrix: (Units=GPa)
#
#
# Indices 1 2 3 4 5 6 
#
# 1 146.9030 43.1804 33.5706 0.0000 -12.1994 0.0000
# 2 43.1804 81.0587 34.9601 0.0000 -12.2351 0.0000
# 3 33.5706 34.9601 74.8286 0.0000 -0.3160 0.0000
# 4 0.0000 0.0000 0.0000 11.7924 0.0000 5.2856
# 5 -12.1994 -12.2351 -0.3160 0.0000 32.0894 0.0000
# 6 0.0000 0.0000 0.0000 5.2856 0.0000 26.5426
#
#
#
# Elastic Compliance Matrix: (Units=1/GPa)
#
#
# Indices 1 2 3 4 5 6 
#
# 1 0.008435 -0.003218 -0.002273 0.000000 0.001957 0.000000
# 2 -0.003218 0.017846 -0.006871 0.000000 0.005514 0.000000
# 3 -0.002273 -0.006871 0.017580 0.000000 -0.003311 0.000000
# 4 0.000000 0.000000 0.000000 0.093111 0.000000 -0.018542
# 5 0.001957 0.005514 -0.003311 0.000000 0.033977 0.000000
# 6 0.000000 0.000000 0.000000 -0.018542 0.000000 0.041368
#
#
# Mechanical properties :
#
#
# Convention : Reuss Voigt Hill
#
# Bulk Modulus (GPa) = 52.25124 58.46808 55.35966
# Shear Modulus (GPa) = 20.54074 26.82349 23.68211
#
# Velocity S-wave (km/s) = 3.20458 3.66202 3.44091
# Velocity P-wave (km/s) = 6.30994 6.86378 6.59268
#
# Compressibility (1/GPa) = 0.01913830
#
# Stress axis : x y z
#
# Youngs Moduli (GPa) = 118.55484 56.03340 56.88396
#
# Poissons Ratio (x) = 0.18030 0.12927
# Poissons Ratio (y) = 0.38147 0.39085
# Poissons Ratio (z) = 0.26943 0.38501
#
# Static dielectric constant tensor:
#      x y z
#    x 3.758270 0.000000 -0.001220 
#    y 0.000000 3.464260 0.000000 
#    z -0.001220 0.000000 3.336560 
# 
# 
# High freq. dielectric constant tensor:
#      x y z
#    x 1.793080 0.000000 0.008040 
#    y 0.000000 1.774590 0.000000 
#    z 0.008040 0.000000 1.765740 
# 
# From -- ./inp_files/32859.got.cif
#   From: 2010.06.25/outbox.cif.g09.slc.cpg/sg13_17_cif.got.tgz:32859.got - 2010.06.28 04:50:58.
