data_PCOD8119488
_publ_section_title
;
Structure prediction by ZEFSAII (Michael W. Deem and Ramdas Pophale) SiO2 
 PCOD8119488
Probable space group: P 2/C
;
_chemical_formula_sum "Si O2"
_cell_formula_units_Z 22
_cell_length_a 7.783180
_cell_length_b 6.822487
_cell_length_c 24.580125
_cell_angle_alpha 90.000000
_cell_angle_beta 128.603223
_cell_angle_gamma 90.000000
_cell_volume 1020.010716
_symmetry_space_group_name_H-M "P 2/C"
_symmetry_group_IT_number 13
_symmetry_cell_setting 'monoclinic'
loop_
_space_group_symop_operation_xyz
x,y,z
-x,y,1/2-z
-x,-y,-z
x,-y,1/2+z
loop_
_atom_site_type_symbol
_atom_site_label
_atom_site_fract_x
_atom_site_fract_y
_atom_site_fract_z
Si Si1 0.598665 0.085584 0.348970
Si Si2 0.000000 0.639206 0.250000
Si Si3 0.165386 0.979747 0.214120
Si Si4 0.614955 0.838607 0.450783
Si Si5 0.447562 0.555636 0.871465
Si Si6 0.737980 0.868670 0.590712
O O1 0.335698 0.033164 0.295790
O O2 0.709711 0.990538 0.318606
O O3 0.592864 0.323151 0.354762
O O4 0.709272 0.983479 0.423077
O O5 0.788716 0.505436 0.198068
O O6 0.940116 0.770014 0.291452
O O7 0.967348 0.134557 0.168812
O O8 0.590703 0.626730 0.418951
O O9 0.781951 0.829645 0.534990
O O10 0.380655 0.919900 0.426385
O O11 0.416685 0.697823 0.916970
#
# Coordination Sequence:
#
# PCOD8119488 Si02
#       6
#     4   2   4   4   4   4
#     4  10  23  40  60  85 128 156 199 251 317 350
#     4  12  20  38  72  88 118 164 220 246 304 362
#     4  11  21  42  59  87 121 163 198 255 302 368
#     4  10  20  39  61  89 121 160 195 253 304 369
#     4  11  20  38  61  91 114 156 204 255 295 365
#     4  10  21  37  63  89 122 155 204 247 306 360
#
# _framework density 21.568403
#
# number of rings (size 3 to 8) (size 9 to 14) (size 15 to 20)
#    0.000    1.455    3.636    2.727    0.000    0.727 
#    9.818    0.909    0.000    0.000    0.000    0.000 
#    0.000    0.000    0.000    0.000    0.000    0.000 
#
# Total GULP energy -272624.044749 kJ/mol
# GULP energy per Si atom -12392.002034 kJ/mol
# Density = 2.151931 g / cm^3
# Si number density = 21.568403 Si / 1000 Ang^3
#
#
#
# Elastic Constant Matrix: (Units=GPa)
#
#
# Indices 1 2 3 4 5 6 
#
# 1 84.8927 36.9064 14.2810 0.0000 -24.0448 0.0000
# 2 36.9064 126.7213 22.7154 0.0000 -14.6948 0.0000
# 3 14.2810 22.7154 56.2525 0.0000 -18.0345 0.0000
# 4 0.0000 0.0000 0.0000 29.3376 0.0000 -2.1681
# 5 -24.0448 -14.6948 -18.0345 0.0000 30.4677 0.0000
# 6 0.0000 0.0000 0.0000 -2.1681 0.0000 15.6252
#
#
#
# Elastic Compliance Matrix: (Units=1/GPa)
#
#
# Indices 1 2 3 4 5 6 
#
# 1 0.016565 -0.003633 0.001100 0.000000 0.011972 0.000000
# 2 -0.003633 0.009468 -0.002908 0.000000 -0.000022 0.000000
# 3 0.001100 -0.002908 0.022834 0.000000 0.012981 0.000000
# 4 0.000000 0.000000 0.000000 0.034439 0.000000 0.004779
# 5 0.011972 -0.000022 0.012981 0.000000 0.049943 0.000000
# 6 0.000000 0.000000 0.000000 0.004779 0.000000 0.064662
#
#
# Mechanical properties :
#
#
# Convention : Reuss Voigt Hill
#
# Bulk Modulus (GPa) = 26.32686 46.18575 36.25630
# Shear Modulus (GPa) = 22.57790 28.01701 25.29745
#
# Velocity S-wave (km/s) = 3.23895 3.60805 3.42847
# Velocity P-wave (km/s) = 5.12059 6.23037 5.70254
#
# Compressibility (1/GPa) = 0.03798402
#
# Stress axis : x y z
#
# Youngs Moduli (GPa) = 60.36868 105.61653 43.79453
#
# Poissons Ratio (x) = 0.38373 -0.04817
# Poissons Ratio (y) = 0.21934 0.12736
# Poissons Ratio (z) = -0.06640 0.30714
#
# Static dielectric constant tensor:
#      x y z
#    x 3.675670 0.000000 -0.051480 
#    y 0.000000 3.873910 0.000000 
#    z -0.051480 0.000000 4.101460 
# 
# 
# High freq. dielectric constant tensor:
#      x y z
#    x 1.825830 0.000000 -0.013830 
#    y 0.000000 1.840420 0.000000 
#    z -0.013830 0.000000 1.854450 
# 
# From -- ./inp_files/74561.got.cif
#   From: 2010.06.25/outbox.cif.g09.slc.cpg/sg13_38_cif.got.tgz:74561.got - 2010.06.28 04:50:58.
