data_PCOD8119348
_publ_section_title
;
Structure prediction by ZEFSAII (Michael W. Deem and Ramdas Pophale) SiO2 
 PCOD8119348
Probable space group: P 2/C
;
_chemical_formula_sum "Si O2"
_cell_formula_units_Z 18
_cell_length_a 11.084745
_cell_length_b 8.915495
_cell_length_c 16.896331
_cell_angle_alpha 90.000000
_cell_angle_beta 34.162939
_cell_angle_gamma 90.000000
_cell_volume 937.671408
_symmetry_space_group_name_H-M "P 2/C"
_symmetry_group_IT_number 13
_symmetry_cell_setting 'monoclinic'
loop_
_space_group_symop_operation_xyz
x,y,z
-x,y,1/2-z
-x,-y,-z
x,-y,1/2+z
loop_
_atom_site_type_symbol
_atom_site_label
_atom_site_fract_x
_atom_site_fract_y
_atom_site_fract_z
Si Si1 0.584466 0.615570 0.850903
Si Si2 0.771412 0.654154 0.335572
Si Si3 0.818984 0.808979 0.149144
Si Si4 0.272137 0.148460 0.336437
Si Si5 0.500000 0.586676 0.250000
O O1 0.737343 0.513395 0.821762
O O2 0.739087 0.747850 0.735418
O O3 0.471246 0.517051 0.843017
O O4 0.403187 0.693247 0.003008
O O5 0.752247 0.772334 0.274729
O O6 0.000000 0.667412 0.250000
O O7 0.709914 0.692364 0.146865
O O8 0.732899 0.974268 0.179883
O O9 0.076575 0.803044 0.999545
O O10 0.500000 0.190581 0.250000
#
# Coordination Sequence:
#
# PCOD8119348 Si02
#       5
#     4   4   4   4   2
#     4  10  22  36  61  88 115 153 198 237 298 336
#     4  10  22  39  55  86 122 157 186 243 288 354
#     4  10  23  38  62  86 122 153 198 239 297 337
#     4  11  21  39  61  92 114 156 196 245 284 357
#     4  10  20  38  62  90 112 156 196 252 280 352
#
# _framework density 19.196489
#
# number of rings (size 3 to 8) (size 9 to 14) (size 15 to 20)
#    0.000    1.778    2.222    1.333    3.111    2.667 
#    0.000    1.111    0.000    0.000    0.000    0.000 
#    0.000    0.000    0.000    0.000    0.000    0.000 
#
# Total GULP energy -223196.866197 kJ/mol
# GULP energy per Si atom -12399.825900 kJ/mol
# Density = 1.915280 g / cm^3
# Si number density = 19.196489 Si / 1000 Ang^3
#
#
#
# Elastic Constant Matrix: (Units=GPa)
#
#
# Indices 1 2 3 4 5 6 
#
# 1 62.6578 12.7452 20.8458 0.0000 2.5582 0.0000
# 2 12.7452 82.8652 54.2369 0.0000 11.7846 0.0000
# 3 20.8458 54.2369 103.3861 0.0000 14.5197 0.0000
# 4 0.0000 0.0000 0.0000 40.7802 0.0000 0.8053
# 5 2.5582 11.7846 14.5197 0.0000 35.1294 0.0000
# 6 0.0000 0.0000 0.0000 0.8053 0.0000 18.7357
#
#
#
# Elastic Compliance Matrix: (Units=1/GPa)
#
#
# Indices 1 2 3 4 5 6 
#
# 1 0.017127 -0.000590 -0.003181 0.000000 0.000266 0.000000
# 2 -0.000590 0.018578 -0.009297 0.000000 -0.002346 0.000000
# 3 -0.003181 -0.009297 0.015628 0.000000 -0.003109 0.000000
# 4 0.000000 0.000000 0.000000 0.024543 0.000000 -0.001055
# 5 0.000266 -0.002346 -0.003109 0.000000 0.030519 0.000000
# 6 0.000000 0.000000 0.000000 -0.001055 0.000000 0.053419
#
#
# Mechanical properties :
#
#
# Convention : Reuss Voigt Hill
#
# Bulk Modulus (GPa) = 39.68926 47.17388 43.43157
# Shear Modulus (GPa) = 25.72690 29.66781 27.69735
#
# Velocity S-wave (km/s) = 3.66483 3.93553 3.80259
# Velocity P-wave (km/s) = 6.21515 6.72895 6.47715
#
# Compressibility (1/GPa) = 0.02519573
#
# Stress axis : x y z
#
# Youngs Moduli (GPa) = 58.38659 53.82849 63.98779
#
# Poissons Ratio (x) = 0.03175 0.20356
# Poissons Ratio (y) = 0.03444 0.59492
# Poissons Ratio (z) = 0.18574 0.50047
#
# Static dielectric constant tensor:
#      x y z
#    x 3.564240 0.000000 0.086590 
#    y 0.000000 3.542510 0.000000 
#    z 0.086590 0.000000 3.661960 
# 
# 
# High freq. dielectric constant tensor:
#      x y z
#    x 1.745340 0.000000 0.001520 
#    y 0.000000 1.752480 0.000000 
#    z 0.001520 0.000000 1.749100 
# 
# From -- ./inp_files/28027.got.cif
#   From: 2010.06.25/outbox.cif.g09.slc.cpg/sg13_15_cif.got.tgz:28027.got - 2010.06.28 04:50:58.
