data_PCOD8119972
_publ_section_title
;
Structure prediction by ZEFSAII (Michael W. Deem and Ramdas Pophale) SiO2 
 PCOD8119972
Probable space group: P 2/C
;
_chemical_formula_sum "Si O2"
_cell_formula_units_Z 24
_cell_length_a 19.461591
_cell_length_b 4.844399
_cell_length_c 26.779472
_cell_angle_alpha 90.000000
_cell_angle_beta 153.177368
_cell_angle_gamma 90.000000
_cell_volume 1139.248065
_symmetry_space_group_name_H-M "P 2/C"
_symmetry_group_IT_number 13
_symmetry_cell_setting 'monoclinic'
loop_
_space_group_symop_operation_xyz
x,y,z
-x,y,1/2-z
-x,-y,-z
x,-y,1/2+z
loop_
_atom_site_type_symbol
_atom_site_label
_atom_site_fract_x
_atom_site_fract_y
_atom_site_fract_z
Si Si1 0.183399 0.716977 0.130801
Si Si2 0.456621 0.941379 0.855601
Si Si3 0.226991 0.938568 0.487828
Si Si4 0.533954 0.439725 0.965238
Si Si5 0.873981 0.216911 0.469220
Si Si6 0.147023 0.548565 0.875924
O O1 0.227453 0.423533 0.132624
O O2 0.318919 0.898117 0.240885
O O3 0.114238 0.905414 0.042443
O O4 0.048157 0.664244 0.083697
O O5 0.428074 0.634771 0.860031
O O6 0.500587 0.121436 0.932456
O O7 0.592132 0.915147 0.903538
O O8 0.199907 0.817815 0.524916
O O9 0.125598 0.754021 0.384830
O O10 0.176357 0.249911 0.442426
O O11 0.500000 0.500000 0.000000
O O12 0.712199 0.480213 0.070674
O O13 0.000000 0.643255 0.750000
#
# Coordination Sequence:
#
# PCOD8119972 Si02
#       6
#     4   4   4   4   4   4
#     4  10  21  37  57  82 111 144 185 231 278 333
#     4  10  21  37  55  80 112 144 182 229 277 332
#     4  10  21  37  55  80 112 144 182 229 277 332
#     4  10  21  36  55  80 110 143 183 228 275 331
#     4  10  21  37  57  82 111 144 185 231 278 333
#     4  10  21  36  55  80 110 143 183 228 275 331
#
# _framework density 21.066527000000001
#
# number of rings (size 3 to 8) (size 9 to 14) (size 15 to 20)
#    0.000    2.000    0.000    3.000    0.000    3.333 
#    0.000    1.667    0.000    0.000    0.000    0.000 
#    0.000    0.000    0.000    0.000    0.000    0.000 
#
# Total GULP energy -297376.419434 kJ/mol
# GULP energy per Si atom -12390.684143 kJ/mol
# Density = 2.101858 g / cm^3
# Si number density = 21.066527 Si / 1000 Ang^3
#
#
#
# Elastic Constant Matrix: (Units=GPa)
#
#
# Indices 1 2 3 4 5 6 
#
# 1 144.8015 34.3892 35.6532 0.0000 -4.8586 0.0000
# 2 34.3892 95.3075 5.5023 0.0000 5.3966 0.0000
# 3 35.6532 5.5023 69.2460 0.0000 5.1271 0.0000
# 4 0.0000 0.0000 0.0000 29.2480 0.0000 -3.7811
# 5 -4.8586 5.3966 5.1271 0.0000 14.4863 0.0000
# 6 0.0000 0.0000 0.0000 -3.7811 0.0000 32.2443
#
#
#
# Elastic Compliance Matrix: (Units=1/GPa)
#
#
# Indices 1 2 3 4 5 6 
#
# 1 0.009100 -0.003343 -0.004865 0.000000 0.006020 0.000000
# 2 -0.003343 0.011969 0.001215 0.000000 -0.006010 0.000000
# 3 -0.004865 0.001215 0.017462 0.000000 -0.008265 0.000000
# 4 0.000000 0.000000 0.000000 0.034717 0.000000 0.004071
# 5 0.006020 -0.006010 -0.008265 0.000000 0.076214 0.000000
# 6 0.000000 0.000000 0.000000 0.004071 0.000000 0.031491
#
#
# Mechanical properties :
#
#
# Convention : Reuss Voigt Hill
#
# Bulk Modulus (GPa) = 40.74355 51.16048 45.95201
# Shear Modulus (GPa) = 24.61603 30.78310 27.69956
#
# Velocity S-wave (km/s) = 3.42203 3.82675 3.63004
# Velocity P-wave (km/s) = 5.91575 6.62294 6.27931
#
# Compressibility (1/GPa) = 0.02454376
#
# Stress axis : x y z
#
# Youngs Moduli (GPa) = 109.89010 83.54991 57.26804
#
# Poissons Ratio (x) = 0.27934 0.27863
# Poissons Ratio (y) = 0.36741 -0.06961
# Poissons Ratio (z) = 0.53466 -0.10155
#
# Static dielectric constant tensor:
#      x y z
#    x 3.698850 0.000000 0.163520 
#    y 0.000000 4.314410 0.000000 
#    z 0.163520 0.000000 3.498970 
# 
# 
# High freq. dielectric constant tensor:
#      x y z
#    x 1.815250 0.000000 0.004790 
#    y 0.000000 1.853970 0.000000 
#    z 0.004790 0.000000 1.803640 
# 
# From -- ./inp_files/87754.got.cif
#   From: 2010.06.25/outbox.cif.g09.slc.cpg/sg13_44_cif.got.tgz:87754.got - 2010.06.28 04:50:58.
