data_PCOD8119910
_publ_section_title
;
Structure prediction by ZEFSAII (Michael W. Deem and Ramdas Pophale) SiO2 
 PCOD8119910
Probable space group: P 2/C
;
_chemical_formula_sum "Si O2"
_cell_formula_units_Z 20
_cell_length_a 26.409536
_cell_length_b 9.136979
_cell_length_c 9.583949
_cell_angle_alpha 90.000000
_cell_angle_beta 153.259045
_cell_angle_gamma 90.000000
_cell_volume 1040.589294
_symmetry_space_group_name_H-M "P 2/C"
_symmetry_group_IT_number 13
_symmetry_cell_setting 'monoclinic'
loop_
_space_group_symop_operation_xyz
x,y,z
-x,y,1/2-z
-x,-y,-z
x,-y,1/2+z
loop_
_atom_site_type_symbol
_atom_site_label
_atom_site_fract_x
_atom_site_fract_y
_atom_site_fract_z
Si Si1 0.201032 0.151916 0.471640
Si Si2 0.631914 0.394063 0.564210
Si Si3 0.744343 0.602370 0.043238
Si Si4 0.135543 0.103068 0.606982
Si Si5 0.060512 0.400171 0.035814
O O1 0.313400 0.250698 0.725837
O O2 0.198009 0.076471 0.614405
O O3 0.095717 0.262310 0.214221
O O4 0.180280 0.034294 0.302409
O O5 0.667723 0.394660 0.491472
O O6 0.668311 0.549232 0.724587
O O7 0.500000 0.375045 0.250000
O O8 0.811780 0.754565 0.186071
O O9 0.838249 0.480791 0.292273
O O10 0.000000 0.111050 0.250000
O O11 0.000000 0.339934 0.750000
O O12 0.000000 0.500000 0.000000
#
# Coordination Sequence:
#
# PCOD8119910 Si02
#       5
#     4   4   4   4   4
#     4  10  23  36  54  81 112 150 188 226 279 342
#     4  10  21  40  59  80 109 145 193 247 285 323
#     4  10  21  35  57  84 109 143 189 233 282 343
#     4  11  21  36  54  82 117 146 178 224 280 347
#     4  11  20  35  56  83 115 150 186 230 283 341
#
# _framework density 19.21988
#
# number of rings (size 3 to 8) (size 9 to 14) (size 15 to 20)
#    0.000    1.600    0.000    7.200    0.000    4.800 
#    0.000    5.000    0.000    0.000    0.000    0.000 
#    0.000    0.000    0.000    0.000    0.000    0.000 
#
# Total GULP energy -247771.272500 kJ/mol
# GULP energy per Si atom -12388.563625 kJ/mol
# Density = 1.917613 g / cm^3
# Si number density = 19.219880 Si / 1000 Ang^3
#
#
#
# Elastic Constant Matrix: (Units=GPa)
#
#
# Indices 1 2 3 4 5 6 
#
# 1 83.2240 46.5549 38.0908 0.0000 3.7581 0.0000
# 2 46.5549 126.1430 60.1694 0.0000 -7.8219 0.0000
# 3 38.0908 60.1694 121.6397 0.0000 8.6393 0.0000
# 4 0.0000 0.0000 0.0000 26.0172 0.0000 -11.2983
# 5 3.7581 -7.8219 8.6393 0.0000 29.5866 0.0000
# 6 0.0000 0.0000 0.0000 -11.2983 0.0000 32.8620
#
#
#
# Elastic Compliance Matrix: (Units=1/GPa)
#
#
# Indices 1 2 3 4 5 6 
#
# 1 0.015980 -0.004926 -0.002380 0.000000 -0.002637 0.000000
# 2 -0.004926 0.012468 -0.005007 0.000000 0.005384 0.000000
# 3 -0.002380 -0.005007 0.011759 0.000000 -0.004455 0.000000
# 4 0.000000 0.000000 0.000000 0.045182 0.000000 0.015534
# 5 -0.002637 0.005384 -0.004455 0.000000 0.036858 0.000000
# 6 0.000000 0.000000 0.000000 0.015534 0.000000 0.035771
#
#
# Mechanical properties :
#
#
# Convention : Reuss Voigt Hill
#
# Bulk Modulus (GPa) = 64.18101 68.95964 66.57032
# Shear Modulus (GPa) = 26.61877 30.10594 28.36236
#
# Velocity S-wave (km/s) = 3.72554 3.96207 3.84562
# Velocity P-wave (km/s) = 7.20914 7.54240 7.37766
#
# Compressibility (1/GPa) = 0.01558093
#
# Stress axis : x y z
#
# Youngs Moduli (GPa) = 62.57972 80.20798 85.03766
#
# Poissons Ratio (x) = 0.39508 0.20240
# Poissons Ratio (y) = 0.30825 0.42579
# Poissons Ratio (z) = 0.14895 0.40160
#
# Static dielectric constant tensor:
#      x y z
#    x 3.624100 0.000000 -0.255410 
#    y 0.000000 3.970220 0.000000 
#    z -0.255410 0.000000 3.706280 
# 
# 
# High freq. dielectric constant tensor:
#      x y z
#    x 1.752410 0.000000 -0.011060 
#    y 0.000000 1.748080 0.000000 
#    z -0.011060 0.000000 1.743350 
# 
# From -- ./inp_files/14804.got.cif
#   From: 2010.06.25/outbox.cif.g09.slc.cpg/sg13_8_cif.got.tgz:14804.got - 2010.06.28 04:50:58.
