data_PCOD8119446
_publ_section_title
;
Structure prediction by ZEFSAII (Michael W. Deem and Ramdas Pophale) SiO2 
 PCOD8119446
Probable space group: P 2/C
;
_chemical_formula_sum "Si O2"
_cell_formula_units_Z 18
_cell_length_a 10.187787
_cell_length_b 11.046329
_cell_length_c 11.713445
_cell_angle_alpha 90.000000
_cell_angle_beta 143.974111
_cell_angle_gamma 90.000000
_cell_volume 775.302393
_symmetry_space_group_name_H-M "P 2/C"
_symmetry_group_IT_number 13
_symmetry_cell_setting 'monoclinic'
loop_
_space_group_symop_operation_xyz
x,y,z
-x,y,1/2-z
-x,-y,-z
x,-y,1/2+z
loop_
_atom_site_type_symbol
_atom_site_label
_atom_site_fract_x
_atom_site_fract_y
_atom_site_fract_z
Si Si1 0.000000 0.086012 0.250000
Si Si2 0.659613 0.313724 0.642656
Si Si3 0.210516 0.573938 0.826255
Si Si4 0.771191 0.854384 0.041907
Si Si5 0.928637 0.238292 0.426792
O O1 0.936574 0.161654 0.316290
O O2 0.784170 0.999589 0.070483
O O3 0.776431 0.430025 0.667110
O O4 0.429911 0.363069 0.537024
O O5 0.590886 0.215790 0.494448
O O6 0.818885 0.251496 0.848281
O O7 0.173339 0.629242 0.672777
O O8 0.000000 0.617165 0.750000
O O9 0.000000 0.792625 0.250000
O O10 0.759720 0.826531 0.898390
#
# Coordination Sequence:
#
# PCOD8119446 Si02
#       5
#     2   4   4   4   4
#     4  10  20  38  68  98 132 172 222 274 322 382
#     4  10  23  41  67  98 131 172 214 266 339 391
#     4  11  23  41  65 101 132 166 218 270 328 396
#     4   8  19  37  66  92 129 170 212 268 324 383
#     4  11  20  40  67  94 135 168 214 273 329 383
#
# _framework density 23.216747999999999
#
# number of rings (size 3 to 8) (size 9 to 14) (size 15 to 20)
#    0.667    1.333    1.111    3.333    0.000    1.778 
#    0.000    5.556    4.889    0.000    0.000    0.000 
#    0.000    0.000    0.000    0.000    0.000    0.000 
#
# Total GULP energy -223002.906282 kJ/mol
# GULP energy per Si atom -12389.050349 kJ/mol
# Density = 2.316391 g / cm^3
# Si number density = 23.216748 Si / 1000 Ang^3
#
#
#
# Elastic Constant Matrix: (Units=GPa)
#
#
# Indices 1 2 3 4 5 6 
#
# 1 91.0213 44.6975 20.8268 0.0000 -15.5085 0.0000
# 2 44.6975 112.5381 23.5825 0.0000 -14.8360 0.0000
# 3 20.8268 23.5825 68.1658 0.0000 -20.5687 0.0000
# 4 0.0000 0.0000 0.0000 28.1997 0.0000 -5.6318
# 5 -15.5085 -14.8360 -20.5687 0.0000 35.8244 0.0000
# 6 0.0000 0.0000 0.0000 -5.6318 0.0000 22.3086
#
#
#
# Elastic Compliance Matrix: (Units=1/GPa)
#
#
# Indices 1 2 3 4 5 6 
#
# 1 0.014335 -0.004914 -0.001719 0.000000 0.003184 0.000000
# 2 -0.004914 0.011453 -0.002022 0.000000 0.001455 0.000000
# 3 -0.001719 -0.002022 0.018648 0.000000 0.009125 0.000000
# 4 0.000000 0.000000 0.000000 0.037344 0.000000 0.009428
# 5 0.003184 0.001455 0.009125 0.000000 0.035134 0.000000
# 6 0.000000 0.000000 0.000000 0.009428 0.000000 0.047206
#
#
# Mechanical properties :
#
#
# Convention : Reuss Voigt Hill
#
# Bulk Modulus (GPa) = 36.86368 49.99321 43.42844
# Shear Modulus (GPa) = 26.25047 29.44109 27.84578
#
# Velocity S-wave (km/s) = 3.36619 3.56490 3.46697
# Velocity P-wave (km/s) = 5.56964 6.20682 5.89684
#
# Compressibility (1/GPa) = 0.02712697
#
# Stress axis : x y z
#
# Youngs Moduli (GPa) = 69.75837 87.31363 53.62366
#
# Poissons Ratio (x) = 0.42903 0.09219
# Poissons Ratio (y) = 0.34277 0.10842
# Poissons Ratio (z) = 0.11993 0.17654
#
# Static dielectric constant tensor:
#      x y z
#    x 3.974930 0.000000 -0.084180 
#    y 0.000000 4.143000 0.000000 
#    z -0.084180 0.000000 4.092600 
# 
# 
# High freq. dielectric constant tensor:
#      x y z
#    x 1.901540 0.000000 -0.002980 
#    y 0.000000 1.925490 0.000000 
#    z -0.002980 0.000000 1.907870 
# 
# From -- ./inp_files/29193.got.cif
#   From: 2010.06.25/outbox.cif.g09.slc.cpg/sg13_15_cif.got.tgz:29193.got - 2010.06.28 04:50:58.
