data_PCOD8119430
_publ_section_title
;
Structure prediction by ZEFSAII (Michael W. Deem and Ramdas Pophale) SiO2 
 PCOD8119430
Probable space group: P 2/C
;
_chemical_formula_sum "Si O2"
_cell_formula_units_Z 32
_cell_length_a 29.144851
_cell_length_b 5.308322
_cell_length_c 18.622252
_cell_angle_alpha 90.000000
_cell_angle_beta 31.213959
_cell_angle_gamma 90.000000
_cell_volume 1493.063788
_symmetry_space_group_name_H-M "P 2/C"
_symmetry_group_IT_number 13
_symmetry_cell_setting 'monoclinic'
loop_
_space_group_symop_operation_xyz
x,y,z
-x,y,1/2-z
-x,-y,-z
x,-y,1/2+z
loop_
_atom_site_type_symbol
_atom_site_label
_atom_site_fract_x
_atom_site_fract_y
_atom_site_fract_z
Si Si1 0.605225 0.179889 0.187854
Si Si2 0.877034 0.945134 0.105639
Si Si3 0.721575 0.315777 0.755807
Si Si4 0.309659 0.677882 0.366461
Si Si5 0.945655 0.852473 0.159551
Si Si6 0.733418 0.706972 0.853889
Si Si7 0.848179 0.625536 0.827631
Si Si8 0.404475 0.079223 0.457869
O O1 0.666030 0.948621 0.132130
O O2 0.627960 0.445093 0.194041
O O3 0.506900 0.087738 0.341054
O O4 0.613423 0.232786 0.091558
O O5 0.822282 0.790505 0.119508
O O6 0.931182 0.787049 0.093851
O O7 0.802574 0.067834 0.255259
O O8 0.948096 0.123220 0.970348
O O9 0.681346 0.314727 0.731062
O O10 0.731154 0.589315 0.777709
O O11 0.652406 0.174051 0.899382
O O12 0.207556 0.632998 0.524178
O O13 0.915130 0.609397 0.245460
O O14 0.899644 0.112310 0.247132
O O15 0.775095 0.547901 0.863891
O O16 0.633145 0.796808 0.007438
#
# Coordination Sequence:
#
# PCOD8119430 Si02
#       8
#     4   4   4   4   4   4   4   4
#     4  11  26  45  69  99 128 175 224 283 322 404
#     4   9  21  36  62  98 124 163 215 274 322 381
#     4  11  24  41  66  94 138 179 212 273 336 411
#     4  12  27  43  65  95 140 174 220 266 348 400
#     4  10  21  37  67  97 122 160 222 277 314 376
#     4  10  20  38  66  92 127 169 218 265 327 398
#     4  11  21  40  65  91 127 169 216 267 323 390
#     4  10  24  43  70  97 127 172 232 277 331 385
#
# _framework density 21.432441000000001
#
# number of rings (size 3 to 8) (size 9 to 14) (size 15 to 20)
#    0.000    1.500    2.500    1.500    8.750    3.500 
#    0.000    0.625    0.000    0.000    0.000    0.000 
#    0.000    0.000    0.000    0.000    0.000    0.000 
#
# Total GULP energy -396449.588370 kJ/mol
# GULP energy per Si atom -12389.049637 kJ/mol
# Density = 2.138366 g / cm^3
# Si number density = 21.432441 Si / 1000 Ang^3
#
#
#
# Elastic Constant Matrix: (Units=GPa)
#
#
# Indices 1 2 3 4 5 6 
#
# 1 70.3863 15.2920 34.6908 0.0000 18.4210 0.0000
# 2 15.2920 90.7294 20.0546 0.0000 0.6921 0.0000
# 3 34.6908 20.0546 119.4300 0.0000 -1.6173 0.0000
# 4 0.0000 0.0000 0.0000 35.0030 0.0000 -2.9623
# 5 18.4210 0.6921 -1.6173 0.0000 34.0120 0.0000
# 6 0.0000 0.0000 0.0000 -2.9623 0.0000 19.4532
#
#
#
# Elastic Compliance Matrix: (Units=1/GPa)
#
#
# Indices 1 2 3 4 5 6 
#
# 1 0.020451 -0.002091 -0.005742 0.000000 -0.011307 0.000000
# 2 -0.002091 0.011664 -0.001340 0.000000 0.000832 0.000000
# 3 -0.005742 -0.001340 0.010315 0.000000 0.003628 0.000000
# 4 0.000000 0.000000 0.000000 0.028942 0.000000 0.004407
# 5 -0.011307 0.000832 0.003628 0.000000 0.035681 0.000000
# 6 0.000000 0.000000 0.000000 0.004407 0.000000 0.052077
#
#
# Mechanical properties :
#
#
# Convention : Reuss Voigt Hill
#
# Bulk Modulus (GPa) = 41.52290 46.73560 44.12925
# Shear Modulus (GPa) = 26.95352 31.72752 29.34052
#
# Velocity S-wave (km/s) = 3.55012 3.85171 3.70398
# Velocity P-wave (km/s) = 6.01834 6.45246 6.23917
#
# Compressibility (1/GPa) = 0.02408310
#
# Stress axis : x y z
#
# Youngs Moduli (GPa) = 48.89741 85.73315 96.94439
#
# Poissons Ratio (x) = 0.17930 0.55669
# Poissons Ratio (y) = 0.10226 0.12989
# Poissons Ratio (z) = 0.28078 0.11487
#
# Static dielectric constant tensor:
#      x y z
#    x 3.746290 0.000000 -0.197110 
#    y 0.000000 3.856600 0.000000 
#    z -0.197110 0.000000 3.973480 
# 
# 
# High freq. dielectric constant tensor:
#      x y z
#    x 1.813610 0.000000 -0.014430 
#    y 0.000000 1.837130 0.000000 
#    z -0.014430 0.000000 1.851960 
# 
# From -- ./inp_files/72214.got.cif
#   From: 2010.06.25/outbox.cif.g09.slc.cpg/sg13_37_cif.got.tgz:72214.got - 2010.06.28 04:50:58.
