data_PCOD8119851
_publ_section_title
;
Structure prediction by ZEFSAII (Michael W. Deem and Ramdas Pophale) SiO2 
 PCOD8119851
Probable space group: P 2/C
;
_chemical_formula_sum "Si O2"
_cell_formula_units_Z 24
_cell_length_a 14.567905
_cell_length_b 10.176544
_cell_length_c 20.503090
_cell_angle_alpha 90.000000
_cell_angle_beta 156.931597
_cell_angle_gamma 90.000000
_cell_volume 1191.006681
_symmetry_space_group_name_H-M "P 2/C"
_symmetry_group_IT_number 13
_symmetry_cell_setting 'monoclinic'
loop_
_space_group_symop_operation_xyz
x,y,z
-x,y,1/2-z
-x,-y,-z
x,-y,1/2+z
loop_
_atom_site_type_symbol
_atom_site_label
_atom_site_fract_x
_atom_site_fract_y
_atom_site_fract_z
Si Si1 0.739065 0.849494 0.946451
Si Si2 0.185556 0.752739 0.170218
Si Si3 0.055070 0.336290 0.440879
Si Si4 0.364101 0.498505 0.344159
Si Si5 0.341540 0.571512 0.583345
Si Si6 0.624357 0.124946 0.900933
O O1 0.500000 0.855088 0.750000
O O2 0.744656 0.717552 0.994283
O O3 0.738430 0.981752 0.990207
O O4 0.970387 0.846910 0.051276
O O5 0.212424 0.632348 0.238268
O O6 0.427708 0.837050 0.325949
O O7 0.128713 0.693243 0.062461
O O8 0.132319 0.480842 0.469762
O O9 0.159266 0.228034 0.459428
O O10 0.776095 0.358937 0.252622
O O11 0.500000 0.500000 0.500000
O O12 0.540565 0.502652 0.399175
O O13 0.500000 0.590415 0.750000
O O14 0.500000 0.127356 0.750000
#
# Coordination Sequence:
#
# PCOD8119851 Si02
#       6
#     4   4   4   4   4   4
#     4  10  21  33  58  95 122 151 197 255 299 351
#     4  11  20  39  63  87 125 159 202 249 304 357
#     4  11  19  37  64  86 118 161 201 244 302 361
#     4  12  25  37  59  94 122 155 205 259 303 349
#     4  11  19  36  62  90 117 153 206 246 298 359
#     4   9  20  35  58  91 121 157 196 248 300 357
#
# _framework density 20.151019999999999
#
# number of rings (size 3 to 8) (size 9 to 14) (size 15 to 20)
#    0.000    1.333    5.000    3.000    0.000    8.000 
#    0.000    0.000    0.000    6.000    0.000    0.000 
#    0.000    0.000    0.000    0.000    0.000    0.000 
#
# Total GULP energy -297380.961908 kJ/mol
# GULP energy per Si atom -12390.873413 kJ/mol
# Density = 2.010516 g / cm^3
# Si number density = 20.151020 Si / 1000 Ang^3
#
#
#
# Elastic Constant Matrix: (Units=GPa)
#
#
# Indices 1 2 3 4 5 6 
#
# 1 83.2695 32.9018 47.5608 0.0000 17.7266 0.0000
# 2 32.9018 149.3205 36.6635 0.0000 12.6479 0.0000
# 3 47.5608 36.6635 61.1128 0.0000 8.2529 0.0000
# 4 0.0000 0.0000 0.0000 25.6198 0.0000 21.3704
# 5 17.7266 12.6479 8.2529 0.0000 33.0395 0.0000
# 6 0.0000 0.0000 0.0000 21.3704 0.0000 26.2488
#
#
#
# Elastic Compliance Matrix: (Units=1/GPa)
#
#
# Indices 1 2 3 4 5 6 
#
# 1 0.023679 -0.000310 -0.017120 0.000000 -0.008309 0.000000
# 2 -0.000310 0.007974 -0.004298 0.000000 -0.001813 0.000000
# 3 -0.017120 -0.004298 0.031878 0.000000 0.002868 0.000000
# 4 0.000000 0.000000 0.000000 0.121639 0.000000 -0.099033
# 5 -0.008309 -0.001813 0.002868 0.000000 0.034703 0.000000
# 6 0.000000 0.000000 0.000000 -0.099033 0.000000 0.118724
#
#
# Mechanical properties :
#
#
# Convention : Reuss Voigt Hill
#
# Bulk Modulus (GPa) = 49.81257 58.66169 54.23713
# Shear Modulus (GPa) = 12.86192 28.75338 20.80765
#
# Velocity S-wave (km/s) = 2.52915 3.78152 3.21687
# Velocity P-wave (km/s) = 5.77080 6.94556 6.38525
#
# Compressibility (1/GPa) = 0.02007525
#
# Stress axis : x y z
#
# Youngs Moduli (GPa) = 42.23161 125.40542 31.36983
#
# Poissons Ratio (x) = 0.03889 0.53705
# Poissons Ratio (y) = 0.01310 0.13482
# Poissons Ratio (z) = 0.72300 0.53897
#
# Static dielectric constant tensor:
#      x y z
#    x 3.003620 0.000000 0.508440 
#    y 0.000000 4.583130 0.000000 
#    z 0.508440 0.000000 3.457190 
# 
# 
# High freq. dielectric constant tensor:
#      x y z
#    x 1.763520 0.000000 0.049520 
#    y 0.000000 1.799600 0.000000 
#    z 0.049520 0.000000 1.756510 
# 
# From -- ./inp_files/80191.got.cif
#   From: 2010.06.25/outbox.cif.g09.slc.cpg/sg13_41_cif.got.tgz:80191.got - 2010.06.28 04:50:58.
