data_PCOD8119388
_publ_section_title
;
Structure prediction by ZEFSAII (Michael W. Deem and Ramdas Pophale) SiO2 
 PCOD8119388
Probable space group: P 2/C
;
_chemical_formula_sum "Si O2"
_cell_formula_units_Z 26
_cell_length_a 5.086190
_cell_length_b 13.180297
_cell_length_c 21.618837
_cell_angle_alpha 90.000000
_cell_angle_beta 62.779272
_cell_angle_gamma 90.000000
_cell_volume 1288.767101
_symmetry_space_group_name_H-M "P 2/C"
_symmetry_group_IT_number 13
_symmetry_cell_setting 'monoclinic'
loop_
_space_group_symop_operation_xyz
x,y,z
-x,y,1/2-z
-x,-y,-z
x,-y,1/2+z
loop_
_atom_site_type_symbol
_atom_site_label
_atom_site_fract_x
_atom_site_fract_y
_atom_site_fract_z
Si Si1 0.662762 0.077088 0.296662
Si Si2 0.585868 0.269005 0.123566
Si Si3 0.336802 0.847284 0.203213
Si Si4 0.013328 0.464738 0.857788
Si Si5 0.538053 0.340960 0.611823
Si Si6 0.779985 0.652218 0.948922
Si Si7 0.500000 0.401559 0.250000
O O1 0.500000 0.091067 0.250000
O O2 0.515082 0.152063 0.362232
O O3 0.000000 0.108323 0.250000
O O4 0.632589 0.962376 0.324973
O O5 0.469775 0.316797 0.072883
O O6 0.447985 0.331679 0.195608
O O7 0.940896 0.272384 0.085892
O O8 0.500000 0.831629 0.250000
O O9 0.472687 0.774985 0.136568
O O10 0.000000 0.817184 0.250000
O O11 0.206888 0.379853 0.870649
O O12 0.209402 0.529232 0.788747
O O13 0.750834 0.411330 0.847865
O O14 0.881986 0.537375 0.925118
O O15 0.634902 0.342660 0.530998
#
# Coordination Sequence:
#
# PCOD8119388 Si02
#       7
#     4   4   4   4   4   4   2
#     4  10  20  38  64  90 120 153 191 247 314 357
#     4  11  22  39  64  90 125 148 199 248 310 345
#     4  10  23  41  62  91 117 154 204 250 298 355
#     4  11  24  38  62  84 124 160 207 243 299 346
#     4  12  24  42  62  82 126 166 204 240 295 350
#     4  11  24  41  58  90 122 168 198 241 291 373
#     4  10  24  38  58  98 116 150 200 264 292 346
#
# _framework density 20.174320999999999
#
# number of rings (size 3 to 8) (size 9 to 14) (size 15 to 20)
#    0.000    1.231    0.769    5.538    5.385    2.462 
#    0.000    1.538    0.000    0.000    0.000    0.000 
#    0.000    0.000    0.000    0.000    0.000    0.000 
#
# Total GULP energy -322565.808633 kJ/mol
# GULP energy per Si atom -12406.377255 kJ/mol
# Density = 2.012840 g / cm^3
# Si number density = 20.174321 Si / 1000 Ang^3
#
#
#
# Elastic Constant Matrix: (Units=GPa)
#
#
# Indices 1 2 3 4 5 6 
#
# 1 92.6876 10.6467 4.7261 0.0000 -3.5234 0.0000
# 2 10.6467 106.4013 23.8674 0.0000 -18.2151 0.0000
# 3 4.7261 23.8674 67.7442 0.0000 -10.4933 0.0000
# 4 0.0000 0.0000 0.0000 23.0172 0.0000 -1.7234
# 5 -3.5234 -18.2151 -10.4933 0.0000 19.2869 0.0000
# 6 0.0000 0.0000 0.0000 -1.7234 0.0000 35.1833
#
#
#
# Elastic Compliance Matrix: (Units=1/GPa)
#
#
# Indices 1 2 3 4 5 6 
#
# 1 0.010941 -0.000850 -0.000304 0.000000 0.001030 0.000000
# 2 -0.000850 0.011686 -0.002591 0.000000 0.009472 0.000000
# 3 -0.000304 -0.002591 0.016717 0.000000 0.006593 0.000000
# 4 0.000000 0.000000 0.000000 0.043606 0.000000 0.002136
# 5 0.001030 0.009472 0.006593 0.000000 0.064569 0.000000
# 6 0.000000 0.000000 0.000000 0.002136 0.000000 0.028527
#
#
# Mechanical properties :
#
#
# Convention : Reuss Voigt Hill
#
# Bulk Modulus (GPa) = 31.39352 38.36817 34.88084
# Shear Modulus (GPa) = 25.75276 30.67035 28.21155
#
# Velocity S-wave (km/s) = 3.57671 3.90329 3.74356
# Velocity P-wave (km/s) = 5.71419 6.27486 6.00108
#
# Compressibility (1/GPa) = 0.03185371
#
# Stress axis : x y z
#
# Youngs Moduli (GPa) = 91.39709 85.57172 59.82095
#
# Poissons Ratio (x) = 0.07275 0.01820
# Poissons Ratio (y) = 0.07770 0.15498
# Poissons Ratio (z) = 0.02780 0.22169
#
# Static dielectric constant tensor:
#      x y z
#    x 3.894390 0.000000 -0.078180 
#    y 0.000000 3.846600 0.000000 
#    z -0.078180 0.000000 3.497650 
# 
# 
# High freq. dielectric constant tensor:
#      x y z
#    x 1.810970 0.000000 -0.000060 
#    y 0.000000 1.790350 0.000000 
#    z -0.000060 0.000000 1.770880 
# 
# From -- ./inp_files/73391.got.cif
#   From: 2010.06.25/outbox.cif.g09.slc.cpg/sg13_37_cif.got.tgz:73391.got - 2010.06.28 04:50:58.
