data_PCOD8119377
_publ_section_title
;
Structure prediction by ZEFSAII (Michael W. Deem and Ramdas Pophale) SiO2 
 PCOD8119377
Probable space group: P 2/C
;
_chemical_formula_sum "Si O2"
_cell_formula_units_Z 32
_cell_length_a 11.248721
_cell_length_b 12.561009
_cell_length_c 12.421324
_cell_angle_alpha 90.000000
_cell_angle_beta 65.875375
_cell_angle_gamma 90.000000
_cell_volume 1601.783854
_symmetry_space_group_name_H-M "P 2/C"
_symmetry_group_IT_number 13
_symmetry_cell_setting 'monoclinic'
loop_
_space_group_symop_operation_xyz
x,y,z
-x,y,1/2-z
-x,-y,-z
x,-y,1/2+z
loop_
_atom_site_type_symbol
_atom_site_label
_atom_site_fract_x
_atom_site_fract_y
_atom_site_fract_z
Si Si1 0.194682 0.624654 0.487638
Si Si2 0.368699 0.734906 0.243597
Si Si3 0.446805 0.383682 0.502944
Si Si4 0.126319 0.126562 0.772614
Si Si5 0.793298 0.390792 0.064221
Si Si6 0.703120 0.312553 0.331400
Si Si7 0.982488 0.218773 0.011459
Si Si8 0.865941 0.883497 0.744846
O O1 0.298557 0.669240 0.363554
O O2 0.146897 0.509625 0.462546
O O3 0.253474 0.612552 0.585071
O O4 0.074652 0.705027 0.548212
O O5 0.500000 0.788779 0.250000
O O6 0.417757 0.657393 0.132776
O O7 0.264660 0.811838 0.220516
O O8 0.500000 0.500000 0.500000
O O9 0.325173 0.386057 0.471408
O O10 0.547291 0.309983 0.398005
O O11 0.000000 0.168173 0.750000
O O12 0.165243 0.007131 0.724844
O O13 0.071523 0.137390 0.912631
O O14 0.756265 0.362446 0.201174
O O15 0.893873 0.303412 0.978811
O O16 0.750163 0.190486 0.332318
O O17 0.885552 0.142168 0.112250
O O18 0.000000 0.850134 0.750000
#
# Coordination Sequence:
#
# PCOD8119377 Si02
#       8
#     4   4   4   4   4   4   4   4
#     4  11  21  38  60  90 119 162 197 241 295 359
#     4  11  22  39  63  87 120 161 206 244 298 365
#     4  12  22  39  60  83 124 161 202 241 295 357
#     4  10  22  40  61  90 119 153 199 254 306 353
#     4  11  23  36  58  91 122 161 195 243 299 357
#     4  11  22  38  60  88 119 154 204 244 288 356
#     4  10  21  38  60  88 120 152 196 246 299 354
#     4  10  20  38  64  86 114 153 201 245 302 351
#
# _framework density 19.977727999999999
#
# number of rings (size 3 to 8) (size 9 to 14) (size 15 to 20)
#    0.000    1.250    3.750    2.625    0.000    0.000 
#    0.000    3.125    0.000    0.000    0.000    0.000 
#    0.000    0.000    0.000    0.000    0.000    0.000 
#
# Total GULP energy -396425.375417 kJ/mol
# GULP energy per Si atom -12388.292982 kJ/mol
# Density = 1.993226 g / cm^3
# Si number density = 19.977728 Si / 1000 Ang^3
#
#
#
# Elastic Constant Matrix: (Units=GPa)
#
#
# Indices 1 2 3 4 5 6 
#
# 1 109.5298 42.8114 13.1372 0.0000 2.9828 0.0000
# 2 42.8114 85.6612 28.2023 0.0000 -2.4799 0.0000
# 3 13.1372 28.2023 74.0236 0.0000 0.9048 0.0000
# 4 0.0000 0.0000 0.0000 21.1964 0.0000 0.9294
# 5 2.9828 -2.4799 0.9048 0.0000 33.7612 0.0000
# 6 0.0000 0.0000 0.0000 0.9294 0.0000 26.7532
#
#
#
# Elastic Compliance Matrix: (Units=1/GPa)
#
#
# Indices 1 2 3 4 5 6 
#
# 1 0.011418 -0.005816 0.000207 0.000000 -0.001442 0.000000
# 2 -0.005816 0.016353 -0.005221 0.000000 0.001855 0.000000
# 3 0.000207 -0.005221 0.015472 0.000000 -0.000816 0.000000
# 4 0.000000 0.000000 0.000000 0.047250 0.000000 -0.001642
# 5 -0.001442 0.001855 -0.000816 0.000000 0.029905 0.000000
# 6 0.000000 0.000000 0.000000 -0.001642 0.000000 0.037436
#
#
# Mechanical properties :
#
#
# Convention : Reuss Voigt Hill
#
# Bulk Modulus (GPa) = 46.33348 48.61294 47.47321
# Shear Modulus (GPa) = 26.78274 28.67973 27.73123
#
# Velocity S-wave (km/s) = 3.66543 3.79302 3.72977
# Velocity P-wave (km/s) = 6.41536 6.60069 6.50868
#
# Compressibility (1/GPa) = 0.02158266
#
# Stress axis : x y z
#
# Youngs Moduli (GPa) = 87.58324 61.14971 64.63489
#
# Poissons Ratio (x) = 0.35566 -0.01339
# Poissons Ratio (y) = 0.50941 0.33745
# Poissons Ratio (z) = -0.01815 0.31926
#
# Static dielectric constant tensor:
#      x y z
#    x 3.900250 0.000000 0.000610 
#    y 0.000000 3.494980 0.000000 
#    z 0.000610 0.000000 3.622950 
# 
# 
# High freq. dielectric constant tensor:
#      x y z
#    x 1.791290 0.000000 0.001710 
#    y 0.000000 1.768020 0.000000 
#    z 0.001710 0.000000 1.780280 
# 
# From -- ./inp_files/34143.got.cif
#   From: 2010.06.25/outbox.cif.g09.slc.cpg/sg13_18_cif.got.tgz:34143.got - 2010.06.28 04:50:58.
