data_PCOD8119562
_publ_section_title
;
Structure prediction by ZEFSAII (Michael W. Deem and Ramdas Pophale) SiO2 
 PCOD8119562
Probable space group: P 2/C
;
_chemical_formula_sum "Si O2"
_cell_formula_units_Z 22
_cell_length_a 11.703962
_cell_length_b 11.601645
_cell_length_c 13.928136
_cell_angle_alpha 90.000000
_cell_angle_beta 147.786784
_cell_angle_gamma 90.000000
_cell_volume 1008.163326
_symmetry_space_group_name_H-M "P 2/C"
_symmetry_group_IT_number 13
_symmetry_cell_setting 'monoclinic'
loop_
_space_group_symop_operation_xyz
x,y,z
-x,y,1/2-z
-x,-y,-z
x,-y,1/2+z
loop_
_atom_site_type_symbol
_atom_site_label
_atom_site_fract_x
_atom_site_fract_y
_atom_site_fract_z
Si Si1 0.370511 0.704734 0.755671
Si Si2 0.200354 0.523545 0.207443
Si Si3 0.474294 0.133621 0.965732
Si Si4 0.300287 0.255724 0.545514
Si Si5 0.883536 0.767261 0.397079
Si Si6 0.000000 0.554143 0.750000
O O1 0.500000 0.694524 0.750000
O O2 0.371729 0.579095 0.809478
O O3 0.133037 0.746016 0.555490
O O4 0.479835 0.796506 0.904122
O O5 0.270649 0.653030 0.231011
O O6 0.124979 0.525684 0.264143
O O7 0.000000 0.500000 0.000000
O O8 0.640097 0.172841 0.000280
O O9 0.225292 0.144299 0.754602
O O10 0.500000 0.000000 0.000000
O O11 0.500000 0.296171 0.750000
O O12 0.143482 0.190839 0.511177
O O13 0.179982 0.369325 0.427354
#
# Coordination Sequence:
#
# PCOD8119562 Si02
#       6
#     4   4   4   4   4   2
#     4  11  24  41  64  96 138 176 218 272 346 404
#     4  10  21  39  65 101 136 170 218 277 338 409
#     4  11  25  44  67  97 127 175 236 277 337 394
#     4  10  20  39  68  94 121 168 228 270 330 395
#     4  10  23  45  65  99 139 168 223 283 332 408
#     4  12  18  40  70  90 136 174 216 268 332 400
#
# _framework density 21.821861999999999
#
# number of rings (size 3 to 8) (size 9 to 14) (size 15 to 20)
#    0.000    1.455    5.455    0.000    0.000    9.455 
#    0.000    3.636    0.000    0.000    0.000    0.000 
#    0.000    0.000    0.000    0.000    0.000    0.000 
#
# Total GULP energy -272611.752158 kJ/mol
# GULP energy per Si atom -12391.443280 kJ/mol
# Density = 2.177219 g / cm^3
# Si number density = 21.821862 Si / 1000 Ang^3
#
#
#
# Elastic Constant Matrix: (Units=GPa)
#
#
# Indices 1 2 3 4 5 6 
#
# 1 187.9549 39.6492 31.5473 0.0000 -5.4884 0.0000
# 2 39.6492 81.2040 8.3797 0.0000 -13.6577 0.0000
# 3 31.5473 8.3797 64.6195 0.0000 -5.6527 0.0000
# 4 0.0000 0.0000 0.0000 35.2907 0.0000 -8.2958
# 5 -5.4884 -13.6577 -5.6527 0.0000 37.3153 0.0000
# 6 0.0000 0.0000 0.0000 -8.2958 0.0000 19.1194
#
#
#
# Elastic Compliance Matrix: (Units=1/GPa)
#
#
# Indices 1 2 3 4 5 6 
#
# 1 0.006389 -0.002925 -0.002788 0.000000 -0.000553 0.000000
# 2 -0.002925 0.014570 -0.000033 0.000000 0.004897 0.000000
# 3 -0.002788 -0.000033 0.017030 0.000000 0.002158 0.000000
# 4 0.000000 0.000000 0.000000 0.031554 0.000000 0.013691
# 5 -0.000553 0.004897 0.002158 0.000000 0.028837 0.000000
# 6 0.000000 0.000000 0.000000 0.013691 0.000000 0.058244
#
#
# Mechanical properties :
#
#
# Convention : Reuss Voigt Hill
#
# Bulk Modulus (GPa) = 37.74144 54.77011 46.25577
# Shear Modulus (GPa) = 28.25684 35.29188 31.77436
#
# Velocity S-wave (km/s) = 3.60236 4.02589 3.82000
# Velocity P-wave (km/s) = 5.88519 6.83840 6.37962
#
# Compressibility (1/GPa) = 0.02649608
#
# Stress axis : x y z
#
# Youngs Moduli (GPa) = 156.51134 68.63442 58.72160
#
# Poissons Ratio (x) = 0.20076 0.16374
# Poissons Ratio (y) = 0.45779 0.00194
# Poissons Ratio (z) = 0.43641 0.00226
#
# Static dielectric constant tensor:
#      x y z
#    x 4.170270 0.000000 -0.120760 
#    y 0.000000 5.670670 0.000000 
#    z -0.120760 0.000000 3.981290 
# 
# 
# High freq. dielectric constant tensor:
#      x y z
#    x 1.872940 0.000000 -0.010810 
#    y 0.000000 1.825460 0.000000 
#    z -0.010810 0.000000 1.869250 
# 
# From -- ./inp_files/51269.got.cif
#   From: 2010.06.25/outbox.cif.g09.slc.cpg/sg13_26_cif.got.tgz:51269.got - 2010.06.28 04:50:58.
