data_PCOD8119185
_publ_section_title
;
Structure prediction by ZEFSAII (Michael W. Deem and Ramdas Pophale) SiO2 
 PCOD8119185
Probable space group: P 2/C
;
_chemical_formula_sum "Si O2"
_cell_formula_units_Z 26
_cell_length_a 30.573375
_cell_length_b 5.205513
_cell_length_c 18.303623
_cell_angle_alpha 90.000000
_cell_angle_beta 26.363022
_cell_angle_gamma 90.000000
_cell_volume 1293.548469
_symmetry_space_group_name_H-M "P 2/C"
_symmetry_group_IT_number 13
_symmetry_cell_setting 'monoclinic'
loop_
_space_group_symop_operation_xyz
x,y,z
-x,y,1/2-z
-x,-y,-z
x,-y,1/2+z
loop_
_atom_site_type_symbol
_atom_site_label
_atom_site_fract_x
_atom_site_fract_y
_atom_site_fract_z
Si Si1 0.886068 0.827299 0.936297
Si Si2 0.867711 0.000342 0.119375
Si Si3 0.670304 0.733336 0.566955
Si Si4 0.694691 0.748017 0.946158
Si Si5 0.054148 0.698607 0.367631
Si Si6 0.182416 0.655207 0.039615
Si Si7 0.500000 0.517305 0.250000
O O1 0.817505 0.599953 0.008724
O O2 0.000000 0.763557 0.750000
O O3 0.858173 0.101874 0.944075
O O4 0.859671 0.815331 0.061820
O O5 0.873574 0.866978 0.189970
O O6 0.770947 0.184176 0.267184
O O7 0.969751 0.143861 0.952827
O O8 0.732283 0.516283 0.428006
O O9 0.706929 0.715114 0.596326
O O10 0.554360 0.659383 0.730273
O O11 0.690404 0.020250 0.510288
O O12 0.582545 0.693888 0.085423
O O13 0.116370 0.582392 0.208848
O O14 0.000000 0.500000 0.500000
#
# Coordination Sequence:
#
# PCOD8119185 Si02
#       7
#     4   4   4   4   4   4   2
#     4  12  26  42  57  89 135 181 206 248 313 378
#     4  11  24  39  61  93 126 167 217 260 313 370
#     4  10  20  38  63  96 119 157 204 269 321 368
#     4  10  20  37  63  95 120 154 204 271 320 366
#     4  11  23  38  63  90 123 169 214 272 296 365
#     4  12  24  41  63  88 132 171 213 250 309 385
#     4   8  22  36  66  96 124 146 208 284 330 364
#
# _framework density 20.099748999999999
#
# number of rings (size 3 to 8) (size 9 to 14) (size 15 to 20)
#    0.923    0.308    3.077    3.692    4.308    0.000 
#    0.000    0.000    0.000    1.846    0.000    0.000 
#    0.000    0.000    0.000    0.000    0.000    0.000 
#
# Total GULP energy -322108.264911 kJ/mol
# GULP energy per Si atom -12388.779420 kJ/mol
# Density = 2.005400 g / cm^3
# Si number density = 20.099749 Si / 1000 Ang^3
#
#
#
# Elastic Constant Matrix: (Units=GPa)
#
#
# Indices 1 2 3 4 5 6 
#
# 1 95.9047 14.5971 36.7467 0.0000 -17.6191 0.0000
# 2 14.5971 83.9307 1.8212 0.0000 -6.7699 0.0000
# 3 36.7467 1.8212 62.5750 0.0000 -12.9889 0.0000
# 4 0.0000 0.0000 0.0000 24.6316 0.0000 0.9392
# 5 -17.6191 -6.7699 -12.9889 0.0000 26.3146 0.0000
# 6 0.0000 0.0000 0.0000 0.9392 0.0000 25.0264
#
#
#
# Elastic Compliance Matrix: (Units=1/GPa)
#
#
# Indices 1 2 3 4 5 6 
#
# 1 0.014562 -0.001919 -0.007325 0.000000 0.005641 0.000000
# 2 -0.001919 0.012426 0.001295 0.000000 0.002551 0.000000
# 3 -0.007325 0.001295 0.021498 0.000000 0.006040 0.000000
# 4 0.000000 0.000000 0.000000 0.040656 0.000000 -0.001526
# 5 0.005641 0.002551 0.006040 0.000000 0.045417 0.000000
# 6 0.000000 0.000000 0.000000 -0.001526 0.000000 0.040015
#
#
# Mechanical properties :
#
#
# Convention : Reuss Voigt Hill
#
# Bulk Modulus (GPa) = 30.68534 38.74895 34.71715
# Shear Modulus (GPa) = 24.83432 27.81088 26.32260
#
# Velocity S-wave (km/s) = 3.51886 3.72377 3.62276
# Velocity P-wave (km/s) = 5.63999 6.14889 5.89993
#
# Compressibility (1/GPa) = 0.03258885
#
# Stress axis : x y z
#
# Youngs Moduli (GPa) = 68.67259 80.47661 46.51535
#
# Poissons Ratio (x) = 0.15441 0.34071
# Poissons Ratio (y) = 0.13176 -0.06022
# Poissons Ratio (z) = 0.50300 -0.10419
#
# Static dielectric constant tensor:
#      x y z
#    x 3.691220 0.000000 -0.338230 
#    y 0.000000 4.096510 0.000000 
#    z -0.338230 0.000000 3.497940 
# 
# 
# High freq. dielectric constant tensor:
#      x y z
#    x 1.773950 0.000000 -0.025240 
#    y 0.000000 1.796650 0.000000 
#    z -0.025240 0.000000 1.759790 
# 
# From -- ./inp_files/71668.got.cif
#   From: 2010.06.25/outbox.cif.g09.slc.cpg/sg13_36_cif.got.tgz:71668.got - 2010.06.28 04:50:58.
