data_PCOD8119522
_publ_section_title
;
Structure prediction by ZEFSAII (Michael W. Deem and Ramdas Pophale) SiO2 
 PCOD8119522
Probable space group: P 2/C
;
_chemical_formula_sum "Si O2"
_cell_formula_units_Z 22
_cell_length_a 7.673005
_cell_length_b 5.113105
_cell_length_c 32.036306
_cell_angle_alpha 90.000000
_cell_angle_beta 118.526214
_cell_angle_gamma 90.000000
_cell_volume 1104.290122
_symmetry_space_group_name_H-M "P 2/C"
_symmetry_group_IT_number 13
_symmetry_cell_setting 'monoclinic'
loop_
_space_group_symop_operation_xyz
x,y,z
-x,y,1/2-z
-x,-y,-z
x,-y,1/2+z
loop_
_atom_site_type_symbol
_atom_site_label
_atom_site_fract_x
_atom_site_fract_y
_atom_site_fract_z
Si Si1 0.784185 0.214473 0.085284
Si Si2 0.423169 0.777312 0.159166
Si Si3 0.500000 0.985680 0.750000
Si Si4 0.788684 0.743047 0.840738
Si Si5 0.555483 0.712889 0.085482
Si Si6 0.120962 0.750369 0.000114
O O1 0.618614 0.424283 0.078817
O O2 0.974389 0.253230 0.137017
O O3 0.697178 0.924746 0.080224
O O4 0.851296 0.257727 0.045989
O O5 0.553791 0.831548 0.216113
O O6 0.280333 0.531342 0.148797
O O7 0.571056 0.736641 0.137453
O O8 0.281026 0.029135 0.134932
O O9 0.688763 0.803061 0.783919
O O10 0.331211 0.758424 0.046684
O O11 0.000000 0.500000 0.000000
O O12 0.000000 0.000000 0.000000
#
# Coordination Sequence:
#
# PCOD8119522 Si02
#       6
#     4   4   2   4   4   4
#     4  12  24  40  62  94 132 159 193 257 314 357
#     4  10  20  39  64  87 115 165 207 250 295 360
#     4   8  22  36  72  78 122 148 232 244 298 342
#     4  10  20  39  64  87 115 165 207 250 295 360
#     4  12  24  40  62  94 132 159 193 257 314 357
#     4  12  24  42  66  94 120 168 212 238 290 374
#
# _framework density 19.9223
#
# number of rings (size 3 to 8) (size 9 to 14) (size 15 to 20)
#    1.091    0.000    0.000    8.182    0.000    0.000 
#    0.000    0.909    0.000    0.000    0.000    0.000 
#    0.000    0.000    0.000    0.000    0.000    0.000 
#
# Total GULP energy -272765.381228 kJ/mol
# GULP energy per Si atom -12398.426419 kJ/mol
# Density = 1.987696 g / cm^3
# Si number density = 19.922300 Si / 1000 Ang^3
#
#
#
# Elastic Constant Matrix: (Units=GPa)
#
#
# Indices 1 2 3 4 5 6 
#
# 1 93.8736 26.2052 53.5918 0.0000 3.2806 0.0000
# 2 26.2052 107.3128 17.2604 0.0000 2.1459 0.0000
# 3 53.5918 17.2604 123.7921 0.0000 2.0025 0.0000
# 4 0.0000 0.0000 0.0000 19.2811 0.0000 -3.7569
# 5 3.2806 2.1459 2.0025 0.0000 27.8488 0.0000
# 6 0.0000 0.0000 0.0000 -3.7569 0.0000 52.5596
#
#
#
# Elastic Compliance Matrix: (Units=1/GPa)
#
#
# Indices 1 2 3 4 5 6 
#
# 1 0.014887 -0.002639 -0.006059 0.000000 -0.001115 0.000000
# 2 -0.002639 0.010011 -0.000246 0.000000 -0.000443 0.000000
# 3 -0.006059 -0.000246 0.010736 0.000000 -0.000039 0.000000
# 4 0.000000 0.000000 0.000000 0.052597 0.000000 0.003760
# 5 -0.001115 -0.000443 -0.000039 0.000000 0.036077 0.000000
# 6 0.000000 0.000000 0.000000 0.003760 0.000000 0.019295
#
#
# Mechanical properties :
#
#
# Convention : Reuss Voigt Hill
#
# Bulk Modulus (GPa) = 56.34860 57.67703 57.01282
# Shear Modulus (GPa) = 29.86747 35.13263 32.50005
#
# Velocity S-wave (km/s) = 3.87615 4.20394 4.04337
# Velocity P-wave (km/s) = 6.95545 7.25107 7.10480
#
# Compressibility (1/GPa) = 0.01774667
#
# Stress axis : x y z
#
# Youngs Moduli (GPa) = 67.17190 99.88647 93.14367
#
# Poissons Ratio (x) = 0.26355 0.56436
# Poissons Ratio (y) = 0.17724 0.02296
# Poissons Ratio (z) = 0.40699 0.02462
#
# Static dielectric constant tensor:
#      x y z
#    x 3.528190 0.000000 -0.008860 
#    y 0.000000 3.798100 0.000000 
#    z -0.008860 0.000000 3.750290 
# 
# 
# High freq. dielectric constant tensor:
#      x y z
#    x 1.763000 0.000000 0.003120 
#    y 0.000000 1.798940 0.000000 
#    z 0.003120 0.000000 1.780350 
# 
# From -- ./inp_files/94654.got.cif
#   From: 2010.06.25/outbox.cif.g09.slc.cpg/sg13_48_cif.got.tgz:94654.got - 2010.06.28 04:50:58.
