data_PCOD8119245
_publ_section_title
;
Structure prediction by ZEFSAII (Michael W. Deem and Ramdas Pophale) SiO2 
 PCOD8119245
Probable space group: P 2/C
;
_chemical_formula_sum "Si O2"
_cell_formula_units_Z 30
_cell_length_a 13.408145
_cell_length_b 6.609760
_cell_length_c 20.893242
_cell_angle_alpha 90.000000
_cell_angle_beta 120.976080
_cell_angle_gamma 90.000000
_cell_volume 1587.576673
_symmetry_space_group_name_H-M "P 2/C"
_symmetry_group_IT_number 13
_symmetry_cell_setting 'monoclinic'
loop_
_space_group_symop_operation_xyz
x,y,z
-x,y,1/2-z
-x,-y,-z
x,-y,1/2+z
loop_
_atom_site_type_symbol
_atom_site_label
_atom_site_fract_x
_atom_site_fract_y
_atom_site_fract_z
Si Si1 0.065532 0.834783 0.609818
Si Si2 0.058178 0.447113 0.872674
Si Si3 0.000000 0.841489 0.250000
Si Si4 0.352234 0.924637 0.002710
Si Si5 0.723888 0.602208 0.619951
Si Si6 0.141173 0.130861 0.994165
Si Si7 0.601202 0.800080 0.102634
Si Si8 0.213845 0.953554 0.775388
O O1 0.129127 0.803374 0.563597
O O2 0.161041 0.935943 0.687387
O O3 0.021522 0.624140 0.625231
O O4 0.957869 0.982559 0.564496
O O5 0.978488 0.287008 0.807869
O O6 0.148307 0.511113 0.847289
O O7 0.131462 0.341232 0.953077
O O8 0.886708 0.985019 0.206414
O O9 0.469251 0.855801 0.078263
O O10 0.303255 0.723658 0.953632
O O11 0.263796 0.017405 0.025362
O O12 0.372276 0.094923 0.956204
O O13 0.623133 0.438333 0.600179
O O14 0.728729 0.743217 0.683912
O O15 0.684971 0.877592 0.187429
#
# Coordination Sequence:
#
# PCOD8119245 Si02
#       8
#     4   4   2   4   4   4   4   4
#     4  11  24  37  56  82 118 158 194 236 281 355
#     4  12  20  35  56  86 117 151 188 235 302 349
#     4  12  20  34  56  82 126 152 182 250 302 366
#     4  10  20  38  58  85 114 147 194 239 293 342
#     4  11  19  34  59  86 118 145 186 245 304 348
#     4  11  22  40  57  81 115 157 201 232 280 351
#     4  10  21  36  59  86 115 147 186 247 295 344
#     4  11  22  36  52  88 116 150 192 234 299 353
#
# _framework density 18.896726000000001
#
# number of rings (size 3 to 8) (size 9 to 14) (size 15 to 20)
#    0.000    1.067    5.333    3.200    0.000    0.000 
#    0.000    0.667    0.000    0.000    0.000    0.000 
#    0.000    0.000    0.000    0.000    0.000    0.000 
#
# Total GULP energy -371997.419311 kJ/mol
# GULP energy per Si atom -12399.913977 kJ/mol
# Density = 1.885372 g / cm^3
# Si number density = 18.896726 Si / 1000 Ang^3
#
#
#
# Elastic Constant Matrix: (Units=GPa)
#
#
# Indices 1 2 3 4 5 6 
#
# 1 69.8511 12.7306 38.1143 0.0000 7.4753 0.0000
# 2 12.7306 82.5367 28.4599 0.0000 -3.0910 0.0000
# 3 38.1143 28.4599 96.8573 0.0000 3.2285 0.0000
# 4 0.0000 0.0000 0.0000 20.5694 0.0000 2.2018
# 5 7.4753 -3.0910 3.2285 0.0000 30.6254 0.0000
# 6 0.0000 0.0000 0.0000 2.2018 0.0000 26.5938
#
#
#
# Elastic Compliance Matrix: (Units=1/GPa)
#
#
# Indices 1 2 3 4 5 6 
#
# 1 0.018686 -0.000597 -0.007048 0.000000 -0.003878 0.000000
# 2 -0.000597 0.013599 -0.003825 0.000000 0.001921 0.000000
# 3 -0.007048 -0.003825 0.014227 0.000000 -0.000165 0.000000
# 4 0.000000 0.000000 0.000000 0.049051 0.000000 -0.004061
# 5 -0.003878 0.001921 -0.000165 0.000000 0.033811 0.000000
# 6 0.000000 0.000000 0.000000 -0.004061 0.000000 0.037939
#
#
# Mechanical properties :
#
#
# Convention : Reuss Voigt Hill
#
# Bulk Modulus (GPa) = 42.42395 45.31720 43.87057
# Shear Modulus (GPa) = 25.23847 26.88708 26.06277
#
# Velocity S-wave (km/s) = 3.65855 3.77615 3.71782
# Velocity P-wave (km/s) = 6.35184 6.56094 6.45724
#
# Compressibility (1/GPa) = 0.02357159
#
# Stress axis : x y z
#
# Youngs Moduli (GPa) = 53.51598 73.53625 70.28647
#
# Poissons Ratio (x) = 0.04390 0.49541
# Poissons Ratio (y) = 0.03195 0.26884
# Poissons Ratio (z) = 0.37720 0.28127
#
# Static dielectric constant tensor:
#      x y z
#    x 3.346630 0.000000 0.200190 
#    y 0.000000 3.624840 0.000000 
#    z 0.200190 0.000000 3.414310 
# 
# 
# High freq. dielectric constant tensor:
#      x y z
#    x 1.707710 0.000000 0.019970 
#    y 0.000000 1.751090 0.000000 
#    z 0.019970 0.000000 1.724630 
# 
# From -- ./inp_files/79360.got.cif
#   From: 2010.06.25/outbox.cif.g09.slc.cpg/sg13_40_cif.got.tgz:79360.got - 2010.06.28 04:50:58.
