data_PCOD8119172
_publ_section_title
;
Structure prediction by ZEFSAII (Michael W. Deem and Ramdas Pophale) SiO2 
 PCOD8119172
Probable space group: P 2/C
;
_chemical_formula_sum "Si O2"
_cell_formula_units_Z 32
_cell_length_a 11.828370
_cell_length_b 15.266219
_cell_length_c 14.321964
_cell_angle_alpha 90.000000
_cell_angle_beta 40.203145
_cell_angle_gamma 90.000000
_cell_volume 1669.379025
_symmetry_space_group_name_H-M "P 2/C"
_symmetry_group_IT_number 13
_symmetry_cell_setting 'monoclinic'
loop_
_space_group_symop_operation_xyz
x,y,z
-x,y,1/2-z
-x,-y,-z
x,-y,1/2+z
loop_
_atom_site_type_symbol
_atom_site_label
_atom_site_fract_x
_atom_site_fract_y
_atom_site_fract_z
Si Si1 0.417453 0.791022 0.705250
Si Si2 0.787184 0.024918 0.564822
Si Si3 0.287184 0.475082 0.064822
Si Si4 0.499727 0.017424 0.109077
Si Si5 0.999727 0.482576 0.609077
Si Si6 0.957224 0.854113 0.509985
Si Si7 0.917453 0.291022 0.705250
Si Si8 0.457224 0.354113 0.509985
O O1 0.500000 0.757224 0.750000
O O2 0.522227 0.879021 0.612224
O O3 0.210873 0.808519 0.838687
O O4 0.440614 0.716323 0.614986
O O5 0.910782 0.110605 0.492547
O O6 0.677065 0.017094 0.730867
O O7 0.663378 0.032982 0.552701
O O8 0.903992 0.937382 0.480079
O O9 0.163378 0.467018 0.052701
O O10 0.403992 0.562618 0.980079
O O11 0.177065 0.482906 0.230867
O O12 0.410782 0.389395 0.992547
O O13 0.500000 0.000000 0.000000
O O14 0.000000 0.500000 0.500000
O O15 0.022227 0.379021 0.612224
O O16 0.059386 0.783677 0.385014
O O17 0.710873 0.308519 0.838687
O O18 0.000000 0.257224 0.750000
#
# Coordination Sequence:
#
# PCOD8119172 Si02
#       8
#     4   4   4   4   4   4   4   4
#     4  11  21  37  58  94 120 154 209 255 297 361
#     4   9  20  40  56  88 123 152 199 249 299 369
#     4   9  20  40  56  88 123 152 199 249 299 369
#     4  10  20  37  63  84 118 162 200 246 305 361
#     4  10  20  37  63  84 118 162 200 246 305 361
#     4  10  21  36  61  85 121 154 194 257 303 347
#     4  11  21  37  58  94 120 154 209 255 297 361
#     4  10  21  36  61  85 121 154 194 257 303 347
#
# _framework density 19.168806
#
# number of rings (size 3 to 8) (size 9 to 14) (size 15 to 20)
#    0.000    2.000    5.000    0.750    3.500    0.000 
#    0.000   11.250    0.000    0.000    0.000    0.000 
#    0.000    0.000    0.000    0.000    0.000    0.000 
#
# Total GULP energy -396788.406697 kJ/mol
# GULP energy per Si atom -12399.637709 kJ/mol
# Density = 1.912518 g / cm^3
# Si number density = 19.168806 Si / 1000 Ang^3
#
#
#
# Elastic Constant Matrix: (Units=GPa)
#
#
# Indices 1 2 3 4 5 6 
#
# 1 140.4912 53.5437 73.2833 0.0000 -5.8632 0.0000
# 2 53.5437 96.1839 58.4902 0.0000 -14.3541 0.0000
# 3 73.2833 58.4902 89.9375 0.0000 -4.7283 0.0000
# 4 0.0000 0.0000 0.0000 22.8993 0.0000 1.8935
# 5 -5.8632 -14.3541 -4.7283 0.0000 36.3124 0.0000
# 6 0.0000 0.0000 0.0000 1.8935 0.0000 25.0790
#
#
#
# Elastic Compliance Matrix: (Units=1/GPa)
#
#
# Indices 1 2 3 4 5 6 
#
# 1 0.012475 -0.001200 -0.009367 0.000000 0.000320 0.000000
# 2 -0.001200 0.018425 -0.010705 0.000000 0.005695 0.000000
# 3 -0.009367 -0.010705 0.025587 0.000000 -0.002412 0.000000
# 4 0.000000 0.000000 0.000000 0.043944 0.000000 -0.003318
# 5 0.000320 0.005695 -0.002412 0.000000 0.029528 0.000000
# 6 0.000000 0.000000 0.000000 -0.003318 0.000000 0.040125
#
#
# Mechanical properties :
#
#
# Convention : Reuss Voigt Hill
#
# Bulk Modulus (GPa) = 71.73094 77.47190 74.60142
# Shear Modulus (GPa) = 23.01236 26.27783 24.64510
#
# Velocity S-wave (km/s) = 3.46860 3.70654 3.58954
# Velocity P-wave (km/s) = 7.31734 7.66950 7.49549
#
# Compressibility (1/GPa) = 0.01394098
#
# Stress axis : x y z
#
# Youngs Moduli (GPa) = 80.16030 54.27528 39.08297
#
# Poissons Ratio (x) = 0.06515 0.36611
# Poissons Ratio (y) = 0.09623 0.41837
# Poissons Ratio (z) = 0.75090 0.58100
#
# Static dielectric constant tensor:
#      x y z
#    x 3.536610 0.000000 -0.238070 
#    y 0.000000 3.474430 0.000000 
#    z -0.238070 0.000000 3.452610 
# 
# 
# High freq. dielectric constant tensor:
#      x y z
#    x 1.739750 0.000000 -0.022500 
#    y 0.000000 1.738190 0.000000 
#    z -0.022500 0.000000 1.738130 
# 
# From -- ./inp_files/51481.got.cif
#   From: 2010.06.25/outbox.cif.g09.slc.cpg/sg13_26_cif.got.tgz:51481.got - 2010.06.28 04:50:58.
