data_PCOD8119631
_publ_section_title
;
Structure prediction by ZEFSAII (Michael W. Deem and Ramdas Pophale) SiO2 
 PCOD8119631
Probable space group: P 2/C
;
_chemical_formula_sum "Si O2"
_cell_formula_units_Z 22
_cell_length_a 7.680770
_cell_length_b 15.666506
_cell_length_c 9.137789
_cell_angle_alpha 90.000000
_cell_angle_beta 92.370019
_cell_angle_gamma 90.000000
_cell_volume 1098.617173
_symmetry_space_group_name_H-M "P 2/C"
_symmetry_group_IT_number 13
_symmetry_cell_setting 'monoclinic'
loop_
_space_group_symop_operation_xyz
x,y,z
-x,y,1/2-z
-x,-y,-z
x,-y,1/2+z
loop_
_atom_site_type_symbol
_atom_site_label
_atom_site_fract_x
_atom_site_fract_y
_atom_site_fract_z
Si Si1 0.827208 0.597985 0.437376
Si Si2 0.232036 0.032533 0.511693
Si Si3 0.445152 0.125815 0.079606
Si Si4 0.000000 0.010565 0.750000
Si Si5 0.503913 0.705063 0.420392
Si Si6 0.790643 0.426357 0.600080
O O1 0.703506 0.679472 0.469720
O O2 0.776194 0.522491 0.544255
O O3 0.790383 0.565514 0.273747
O O4 0.033639 0.619984 0.456716
O O5 0.405665 0.086315 0.517664
O O6 0.117494 0.067506 0.644455
O O7 0.273023 0.931528 0.544286
O O8 0.125993 0.046346 0.357557
O O9 0.500000 0.123671 0.250000
O O10 0.425361 0.221289 0.020780
O O11 0.500000 0.732499 0.250000
O O12 0.379177 0.625756 0.453090
#
# Coordination Sequence:
#
# PCOD8119631 Si02
#       6
#     4   4   4   2   4   4
#     4   9  18  35  56  80 108 143 187 233 281 340
#     4  10  22  40  62  86 114 150 196 236 288 344
#     4  11  23  40  57  83 119 155 189 238 287 350
#     4  10  20  40  64  90 108 144 198 242 288 340
#     4  10  22  36  53  82 114 153 186 231 286 343
#     4   9  18  35  56  80 108 143 187 233 281 340
#
# _framework density 20.025172999999999
#
# number of rings (size 3 to 8) (size 9 to 14) (size 15 to 20)
#    0.000    2.182    1.818    0.545    2.545    1.455 
#    6.545    0.000    0.000    0.000    0.000    0.000 
#    0.000    0.000    0.000    0.000    0.000    0.000 
#
# Total GULP energy -272667.385523 kJ/mol
# GULP energy per Si atom -12393.972069 kJ/mol
# Density = 1.997960 g / cm^3
# Si number density = 20.025173 Si / 1000 Ang^3
#
#
#
# Elastic Constant Matrix: (Units=GPa)
#
#
# Indices 1 2 3 4 5 6 
#
# 1 86.9725 12.8276 24.1270 0.0000 -1.1817 0.0000
# 2 12.8276 53.8944 19.1541 0.0000 -2.2019 0.0000
# 3 24.1270 19.1541 78.6266 0.0000 -3.6962 0.0000
# 4 0.0000 0.0000 0.0000 23.5388 0.0000 -0.9167
# 5 -1.1817 -2.2019 -3.6962 0.0000 28.6523 0.0000
# 6 0.0000 0.0000 0.0000 -0.9167 0.0000 15.5846
#
#
#
# Elastic Compliance Matrix: (Units=1/GPa)
#
#
# Indices 1 2 3 4 5 6 
#
# 1 0.012725 -0.001798 -0.003470 0.000000 -0.000061 0.000000
# 2 -0.001798 0.020592 -0.004421 0.000000 0.000938 0.000000
# 3 -0.003470 -0.004421 0.014928 0.000000 0.001443 0.000000
# 4 0.000000 0.000000 0.000000 0.042581 0.000000 0.002505
# 5 -0.000061 0.000938 0.001443 0.000000 0.035157 0.000000
# 6 0.000000 0.000000 0.000000 0.002505 0.000000 0.064313
#
#
# Mechanical properties :
#
#
# Convention : Reuss Voigt Hill
#
# Bulk Modulus (GPa) = 34.64007 36.85676 35.74842
# Shear Modulus (GPa) = 22.80041 24.44746 23.62393
#
# Velocity S-wave (km/s) = 3.37796 3.49784 3.43842
# Velocity P-wave (km/s) = 5.70526 5.89562 5.80122
#
# Compressibility (1/GPa) = 0.02886830
#
# Stress axis : x y z
#
# Youngs Moduli (GPa) = 78.58709 48.56215 66.98956
#
# Poissons Ratio (x) = 0.08732 0.23242
# Poissons Ratio (y) = 0.14131 0.29613
# Poissons Ratio (z) = 0.27266 0.21467
#
# Static dielectric constant tensor:
#      x y z
#    x 4.036270 0.000000 -0.117770 
#    y 0.000000 3.294100 0.000000 
#    z -0.117770 0.000000 3.653330 
# 
# 
# High freq. dielectric constant tensor:
#      x y z
#    x 1.801910 0.000000 -0.009680 
#    y 0.000000 1.738390 0.000000 
#    z -0.009680 0.000000 1.786090 
# 
# From -- ./inp_files/12509.got.cif
#   From: 2010.06.25/outbox.cif.g09.slc.cpg/sg13_7_cif.got.tgz:12509.got - 2010.06.28 04:50:58.
