data_PCOD8119536
_publ_section_title
;
Structure prediction by ZEFSAII (Michael W. Deem and Ramdas Pophale) SiO2 
 PCOD8119536
Probable space group: P 2/C
;
_chemical_formula_sum "Si O2"
_cell_formula_units_Z 30
_cell_length_a 14.777424
_cell_length_b 13.628857
_cell_length_c 15.263070
_cell_angle_alpha 90.000000
_cell_angle_beta 27.065242
_cell_angle_gamma 90.000000
_cell_volume 1398.672472
_symmetry_space_group_name_H-M "P 2/C"
_symmetry_group_IT_number 13
_symmetry_cell_setting 'monoclinic'
loop_
_space_group_symop_operation_xyz
x,y,z
-x,y,1/2-z
-x,-y,-z
x,-y,1/2+z
loop_
_atom_site_type_symbol
_atom_site_label
_atom_site_fract_x
_atom_site_fract_y
_atom_site_fract_z
Si Si1 0.412085 0.838914 0.417417
Si Si2 0.144488 0.908065 0.782714
Si Si3 0.872526 0.673536 0.162321
Si Si4 0.793142 0.540567 0.394240
Si Si5 0.299793 0.271158 0.251484
Si Si6 0.500000 0.332308 0.250000
Si Si7 0.777389 0.114081 0.708226
Si Si8 0.475814 0.637302 0.432404
O O1 0.500000 0.877661 0.250000
O O2 0.196573 0.879756 0.636036
O O3 0.550936 0.881614 0.374063
O O4 0.406892 0.720510 0.422824
O O5 0.265712 0.839443 0.746822
O O6 0.192658 0.021751 0.755179
O O7 0.911522 0.890679 0.003581
O O8 0.857162 0.615648 0.264850
O O9 0.826481 0.788356 0.221179
O O10 0.717692 0.628919 0.222908
O O11 0.095152 0.666910 0.933132
O O12 0.685236 0.599666 0.564031
O O13 0.635773 0.461588 0.495130
O O14 0.000000 0.491770 0.250000
O O15 0.419591 0.264852 0.239787
O O16 0.431848 0.332889 0.070259
#
# Coordination Sequence:
#
# PCOD8119536 Si02
#       8
#     4   4   4   4   4   2   4   4
#     4  10  21  38  58  89 123 156 201 254 305 354
#     4   9  19  39  63  89 121 162 206 240 308 376
#     4  10  20  39  65  85 119 160 205 250 306 370
#     4  12  25  41  58  90 121 160 208 257 312 370
#     4  10  21  39  62  91 120 163 201 254 312 370
#     4  12  24  38  60  88 126 154 204 262 306 362
#     4   9  19  38  65  87 118 164 200 249 304 374
#     4  10  23  41  60  85 119 164 203 252 311 369
#
# _framework density 21.448910999999999
#
# number of rings (size 3 to 8) (size 9 to 14) (size 15 to 20)
#    0.000    1.867    2.667    0.800    0.933    2.133 
#    8.400    0.000    0.000    0.000    0.000    0.000 
#    0.000    0.000    0.000    0.000    0.000    0.000 
#
# Total GULP energy -371847.220451 kJ/mol
# GULP energy per Si atom -12394.907348 kJ/mol
# Density = 2.140009 g / cm^3
# Si number density = 21.448911 Si / 1000 Ang^3
#
#
#
# Elastic Constant Matrix: (Units=GPa)
#
#
# Indices 1 2 3 4 5 6 
#
# 1 59.3888 31.5617 28.4765 0.0000 -3.8453 0.0000
# 2 31.5617 96.5378 27.8693 0.0000 -0.4937 0.0000
# 3 28.4765 27.8693 105.9223 0.0000 3.5293 0.0000
# 4 0.0000 0.0000 0.0000 27.9646 0.0000 -4.5914
# 5 -3.8453 -0.4937 3.5293 0.0000 40.4755 0.0000
# 6 0.0000 0.0000 0.0000 -4.5914 0.0000 16.1747
#
#
#
# Elastic Compliance Matrix: (Units=1/GPa)
#
#
# Indices 1 2 3 4 5 6 
#
# 1 0.022343 -0.005990 -0.004512 0.000000 0.002443 0.000000
# 2 -0.005990 0.012822 -0.001755 0.000000 -0.000260 0.000000
# 3 -0.004512 -0.001755 0.011163 0.000000 -0.001423 0.000000
# 4 0.000000 0.000000 0.000000 0.037508 0.000000 0.010647
# 5 0.002443 -0.000260 -0.001423 0.000000 0.025059 0.000000
# 6 0.000000 0.000000 0.000000 0.010647 0.000000 0.064847
#
#
# Mechanical properties :
#
#
# Convention : Reuss Voigt Hill
#
# Bulk Modulus (GPa) = 45.83984 48.62932 47.23458
# Shear Modulus (GPa) = 24.32766 28.51905 26.42335
#
# Velocity S-wave (km/s) = 3.37146 3.65036 3.51368
# Velocity P-wave (km/s) = 6.04762 6.36304 6.20733
#
# Compressibility (1/GPa) = 0.02181509
#
# Stress axis : x y z
#
# Youngs Moduli (GPa) = 44.75648 77.99027 89.58099
#
# Poissons Ratio (x) = 0.46714 0.40421
# Poissons Ratio (y) = 0.26808 0.15719
# Poissons Ratio (z) = 0.20195 0.13685
#
# Static dielectric constant tensor:
#      x y z
#    x 3.559860 0.000000 -0.174740 
#    y 0.000000 3.721260 0.000000 
#    z -0.174740 0.000000 4.441200 
# 
# 
# High freq. dielectric constant tensor:
#      x y z
#    x 1.812610 0.000000 -0.009670 
#    y 0.000000 1.829660 0.000000 
#    z -0.009670 0.000000 1.870710 
# 
# From -- ./inp_files/53868.got.cif
#   From: 2010.06.25/outbox.cif.g09.slc.cpg/sg13_27_cif.got.tgz:53868.got - 2010.06.28 04:50:58.
