data_PCOD8119813
_publ_section_title
;
Structure prediction by ZEFSAII (Michael W. Deem and Ramdas Pophale) SiO2 
 PCOD8119813
Probable space group: P 2/C
;
_chemical_formula_sum "Si O2"
_cell_formula_units_Z 24
_cell_length_a 13.285706
_cell_length_b 8.908851
_cell_length_c 18.602861
_cell_angle_alpha 90.000000
_cell_angle_beta 29.214612
_cell_angle_gamma 90.000000
_cell_volume 1074.679833
_symmetry_space_group_name_H-M "P 2/C"
_symmetry_group_IT_number 13
_symmetry_cell_setting 'monoclinic'
loop_
_space_group_symop_operation_xyz
x,y,z
-x,y,1/2-z
-x,-y,-z
x,-y,1/2+z
loop_
_atom_site_type_symbol
_atom_site_label
_atom_site_fract_x
_atom_site_fract_y
_atom_site_fract_z
Si Si1 0.726675 0.206836 0.442465
Si Si2 0.340036 0.078182 0.753206
Si Si3 0.500000 0.178740 0.250000
Si Si4 0.868864 0.393665 0.978576
Si Si5 0.901136 0.311898 0.526141
Si Si6 0.103603 0.113566 0.300498
Si Si7 0.000000 0.512086 0.750000
O O1 0.500832 0.191291 0.615796
O O2 0.716627 0.130286 0.370297
O O3 0.799232 0.379113 0.382104
O O4 0.883621 0.115325 0.396482
O O5 0.248826 0.167682 0.877823
O O6 0.429808 0.922392 0.726655
O O7 0.154245 0.038557 0.812989
O O8 0.317833 0.277480 0.398576
O O9 0.048228 0.359706 0.924395
O O10 0.981835 0.401167 0.830342
O O11 0.785298 0.558989 0.053053
O O12 0.102545 0.256509 0.356100
#
# Coordination Sequence:
#
# PCOD8119813 Si02
#       7
#     4   4   2   4   4   4   2
#     4  10  22  41  72  95 133 192 224 279 345 414
#     4  12  25  42  67 108 136 179 231 286 350 414
#     4  12  28  40  72 108 138 176 236 296 340 416
#     4  11  25  46  67 102 135 184 233 285 341 410
#     4  11  23  44  71  94 140 187 226 281 346 411
#     4  10  20  43  65  95 141 175 227 280 344 402
#     4  10  22  48  68  94 138 186 232 278 348 410
#
# _framework density 22.332232000000001
#
# number of rings (size 3 to 8) (size 9 to 14) (size 15 to 20)
#    0.000    1.333    5.000    2.000    4.667    0.000 
#    6.000    0.833    0.000    0.000    0.000    0.000 
#    0.000    0.000    0.000    0.000    0.000    0.000 
#
# Total GULP energy -297357.048840 kJ/mol
# GULP energy per Si atom -12389.877035 kJ/mol
# Density = 2.228140 g / cm^3
# Si number density = 22.332232 Si / 1000 Ang^3
#
#
#
# Elastic Constant Matrix: (Units=GPa)
#
#
# Indices 1 2 3 4 5 6 
#
# 1 73.1194 28.2552 57.2442 0.0000 28.3992 0.0000
# 2 28.2552 90.7435 61.3933 0.0000 9.8965 0.0000
# 3 57.2442 61.3933 128.3970 0.0000 24.9038 0.0000
# 4 0.0000 0.0000 0.0000 42.1274 0.0000 -3.8360
# 5 28.3992 9.8965 24.9038 0.0000 39.9047 0.0000
# 6 0.0000 0.0000 0.0000 -3.8360 0.0000 29.8683
#
#
#
# Elastic Compliance Matrix: (Units=1/GPa)
#
#
# Indices 1 2 3 4 5 6 
#
# 1 0.025634 -0.000785 -0.008593 0.000000 -0.012686 0.000000
# 2 -0.000785 0.016344 -0.007722 0.000000 0.001324 0.000000
# 3 -0.008593 -0.007722 0.015648 0.000000 -0.001735 0.000000
# 4 0.000000 0.000000 0.000000 0.024018 0.000000 0.003085
# 5 -0.012686 0.001324 -0.001735 0.000000 0.034842 0.000000
# 6 0.000000 0.000000 0.000000 0.003085 0.000000 0.033876
#
#
# Mechanical properties :
#
#
# Convention : Reuss Voigt Hill
#
# Bulk Modulus (GPa) = 42.68525 65.11614 53.90070
# Shear Modulus (GPa) = 25.99130 32.07123 29.03126
#
# Velocity S-wave (km/s) = 3.41522 3.79370 3.60942
# Velocity P-wave (km/s) = 5.89125 6.95778 6.44661
#
# Compressibility (1/GPa) = 0.02342730
#
# Stress axis : x y z
#
# Youngs Moduli (GPa) = 39.01112 61.18278 63.90472
#
# Poissons Ratio (x) = 0.04801 0.54912
# Poissons Ratio (y) = 0.03061 0.49348
# Poissons Ratio (z) = 0.33521 0.47246
#
# Static dielectric constant tensor:
#      x y z
#    x 3.985010 0.000000 0.379400 
#    y 0.000000 4.076060 0.000000 
#    z 0.379400 0.000000 4.012990 
# 
# 
# High freq. dielectric constant tensor:
#      x y z
#    x 1.871610 0.000000 0.032240 
#    y 0.000000 1.874680 0.000000 
#    z 0.032240 0.000000 1.881500 
# 
# From -- ./inp_files/68132.got.cif
#   From: 2010.06.25/outbox.cif.g09.slc.cpg/sg13_35_cif.got.tgz:68132.got - 2010.06.28 04:50:58.
