data_PCOD8119225
_publ_section_title
;
Structure prediction by ZEFSAII (Michael W. Deem and Ramdas Pophale) SiO2 
 PCOD8119225
Probable space group: P 2/C
;
_chemical_formula_sum "Si O2"
_cell_formula_units_Z 28
_cell_length_a 6.212622
_cell_length_b 10.583478
_cell_length_c 23.306024
_cell_angle_alpha 90.000000
_cell_angle_beta 60.303543
_cell_angle_gamma 90.000000
_cell_volume 1331.136003
_symmetry_space_group_name_H-M "P 2/C"
_symmetry_group_IT_number 13
_symmetry_cell_setting 'monoclinic'
loop_
_space_group_symop_operation_xyz
x,y,z
-x,y,1/2-z
-x,-y,-z
x,-y,1/2+z
loop_
_atom_site_type_symbol
_atom_site_label
_atom_site_fract_x
_atom_site_fract_y
_atom_site_fract_z
Si Si1 0.103346 0.549136 0.069736
Si Si2 0.553955 0.273330 0.914487
Si Si3 0.298068 0.965110 0.321596
Si Si4 0.983786 0.306145 0.475908
Si Si5 0.285995 0.935557 0.945105
Si Si6 0.366454 0.683547 0.320879
Si Si7 0.217074 0.013284 0.578896
O O1 0.347812 0.595251 0.071087
O O2 0.085991 0.396200 0.068842
O O3 0.856244 0.594107 0.133099
O O4 0.122921 0.607915 0.003906
O O5 0.567736 0.293424 0.844428
O O6 0.718961 0.158292 0.915375
O O7 0.268235 0.244854 0.967240
O O8 0.500000 0.024847 0.250000
O O9 0.264151 0.818148 0.312112
O O10 0.023590 0.028431 0.351899
O O11 0.367139 0.976583 0.380418
O O12 0.174703 0.194331 0.434757
O O13 0.556700 0.916290 0.940765
O O14 0.129048 0.991759 0.021812
O O15 0.500000 0.615377 0.250000
#
# Coordination Sequence:
#
# PCOD8119225 Si02
#       7
#     4   4   4   4   4   4   4
#     4  10  20  38  55  87 116 153 201 251 311 365
#     4  11  19  36  59  90 119 151 205 256 315 372
#     4  11  23  39  56  85 126 159 199 256 320 375
#     4  10  22  35  58  85 123 153 194 260 311 357
#     4  11  23  37  60  89 121 159 205 253 306 374
#     4  10  21  37  56  83 117 156 196 254 314 373
#     4  11  22  35  62  92 118 158 211 253 310 376
#
# _framework density 21.034665
#
# number of rings (size 3 to 8) (size 9 to 14) (size 15 to 20)
#    0.000    1.429    4.286    1.714    4.000    1.143 
#    0.000    0.714    0.000    0.000    3.714    0.000 
#    0.000    0.000    0.000    0.000    0.000    0.000 
#
# Total GULP energy -347018.610503 kJ/mol
# GULP energy per Si atom -12393.521804 kJ/mol
# Density = 2.098679 g / cm^3
# Si number density = 21.034665 Si / 1000 Ang^3
#
#
#
# Elastic Constant Matrix: (Units=GPa)
#
#
# Indices 1 2 3 4 5 6 
#
# 1 69.9281 29.7294 39.2478 0.0000 -3.4715 0.0000
# 2 29.7294 74.9160 29.0408 0.0000 -6.4000 0.0000
# 3 39.2478 29.0408 137.1725 0.0000 -14.5134 0.0000
# 4 0.0000 0.0000 0.0000 18.5332 0.0000 1.8615
# 5 -3.4715 -6.4000 -14.5134 0.0000 30.9922 0.0000
# 6 0.0000 0.0000 0.0000 1.8615 0.0000 34.7234
#
#
#
# Elastic Compliance Matrix: (Units=1/GPa)
#
#
# Indices 1 2 3 4 5 6 
#
# 1 0.019258 -0.006053 -0.004348 0.000000 -0.001129 0.000000
# 2 -0.006053 0.016524 -0.001554 0.000000 0.002007 0.000000
# 3 -0.004348 -0.001554 0.009235 0.000000 0.003517 0.000000
# 4 0.000000 0.000000 0.000000 0.054249 0.000000 -0.002908
# 5 -0.001129 0.002007 0.003517 0.000000 0.034201 0.000000
# 6 0.000000 0.000000 0.000000 -0.002908 0.000000 0.028955
#
#
# Mechanical properties :
#
#
# Convention : Reuss Voigt Hill
#
# Bulk Modulus (GPa) = 47.37793 53.11694 50.24744
# Shear Modulus (GPa) = 25.85722 29.11634 27.48678
#
# Velocity S-wave (km/s) = 3.50989 3.72453 3.61880
# Velocity P-wave (km/s) = 6.24487 6.61839 6.43434
#
# Compressibility (1/GPa) = 0.02110688
#
# Stress axis : x y z
#
# Youngs Moduli (GPa) = 51.92574 60.51686 108.28047
#
# Poissons Ratio (x) = 0.36633 0.47081
# Poissons Ratio (y) = 0.31432 0.16828
# Poissons Ratio (z) = 0.22578 0.09405
#
# Static dielectric constant tensor:
#      x y z
#    x 4.076050 0.000000 0.079840 
#    y 0.000000 3.590400 0.000000 
#    z 0.079840 0.000000 3.923360 
# 
# 
# High freq. dielectric constant tensor:
#      x y z
#    x 1.844850 0.000000 -0.000080 
#    y 0.000000 1.791950 0.000000 
#    z -0.000080 0.000000 1.804040 
# 
# From -- ./inp_files/73579.got.cif
#   From: 2010.06.25/outbox.cif.g09.slc.cpg/sg13_37_cif.got.tgz:73579.got - 2010.06.28 04:50:58.
