data_PCOD8119970
_publ_section_title
;
Structure prediction by ZEFSAII (Michael W. Deem and Ramdas Pophale) SiO2 
 PCOD8119970
Probable space group: P 2/C
;
_chemical_formula_sum "Si O2"
_cell_formula_units_Z 26
_cell_length_a 14.808724
_cell_length_b 6.610978
_cell_length_c 17.193426
_cell_angle_alpha 90.000000
_cell_angle_beta 56.375347
_cell_angle_gamma 90.000000
_cell_volume 1401.604555
_symmetry_space_group_name_H-M "P 2/C"
_symmetry_group_IT_number 13
_symmetry_cell_setting 'monoclinic'
loop_
_space_group_symop_operation_xyz
x,y,z
-x,y,1/2-z
-x,-y,-z
x,-y,1/2+z
loop_
_atom_site_type_symbol
_atom_site_label
_atom_site_fract_x
_atom_site_fract_y
_atom_site_fract_z
Si Si1 0.902872 0.024504 0.716448
Si Si2 0.000000 0.401468 0.750000
Si Si3 0.494650 0.968654 0.411475
Si Si4 0.301908 0.965886 0.287815
Si Si5 0.398267 0.703103 0.846230
Si Si6 0.316745 0.294025 0.928049
Si Si7 0.110721 0.778750 0.627246
O O1 0.820015 0.030121 0.685164
O O2 0.929961 0.256171 0.726935
O O3 0.852125 0.899817 0.813129
O O4 0.010216 0.902801 0.637872
O O5 0.078864 0.546964 0.662255
O O6 0.615582 0.931416 0.322501
O O7 0.420701 0.775453 0.427845
O O8 0.500000 0.000000 0.500000
O O9 0.440768 0.160365 0.396093
O O10 0.319324 0.782929 0.338739
O O11 0.323732 0.173919 0.322071
O O12 0.500000 0.610449 0.750000
O O13 0.322763 0.535089 0.920954
O O14 0.207133 0.219663 0.020302
#
# Coordination Sequence:
#
# PCOD8119970 Si02
#       7
#     4   2   4   4   4   4   4
#     4   9  19  38  58  77 107 141 178 224 264 304
#     4   8  18  36  56  76 104 140 178 220 266 308
#     4  10  21  37  57  81 105 138 182 220 261 315
#     4  10  21  36  55  79 109 142 177 217 265 318
#     4   9  20  37  53  76 111 142 171 214 265 318
#     4  11  21  35  55  79 110 142 174 217 268 317
#     4   9  20  35  54  81 106 137 183 221 258 315
#
# _framework density 18.550167999999999
#
# number of rings (size 3 to 8) (size 9 to 14) (size 15 to 20)
#    0.000    2.769    0.000    3.231    0.000    9.846 
#    0.000    1.538    0.000    0.000    0.000    0.000 
#    0.000    0.000    0.000    0.000    0.000    0.000 
#
# Total GULP energy -322373.804295 kJ/mol
# GULP energy per Si atom -12398.992473 kJ/mol
# Density = 1.850795 g / cm^3
# Si number density = 18.550168 Si / 1000 Ang^3
#
#
#
# Elastic Constant Matrix: (Units=GPa)
#
#
# Indices 1 2 3 4 5 6 
#
# 1 124.1647 29.2231 18.2995 0.0000 15.4139 0.0000
# 2 29.2231 105.9015 21.2620 0.0000 -0.3753 0.0000
# 3 18.2995 21.2620 77.2206 0.0000 8.4789 0.0000
# 4 0.0000 0.0000 0.0000 17.7918 0.0000 -8.0768
# 5 15.4139 -0.3753 8.4789 0.0000 28.0991 0.0000
# 6 0.0000 0.0000 0.0000 -8.0768 0.0000 11.1848
#
#
#
# Elastic Compliance Matrix: (Units=1/GPa)
#
#
# Indices 1 2 3 4 5 6 
#
# 1 0.009373 -0.002398 -0.001027 0.000000 -0.004864 0.000000
# 2 -0.002398 0.010636 -0.002607 0.000000 0.002244 0.000000
# 3 -0.001027 -0.002607 0.014328 0.000000 -0.003795 0.000000
# 4 0.000000 0.000000 0.000000 0.083616 0.000000 0.060381
# 5 -0.004864 0.002244 -0.003795 0.000000 0.039431 0.000000
# 6 0.000000 0.000000 0.000000 0.060381 0.000000 0.133010
#
#
# Mechanical properties :
#
#
# Convention : Reuss Voigt Hill
#
# Bulk Modulus (GPa) = 44.89516 49.42844 47.16180
# Shear Modulus (GPa) = 16.13522 27.31529 21.72525
#
# Velocity S-wave (km/s) = 2.95246 3.84149 3.42594
# Velocity P-wave (km/s) = 5.98976 6.81027 6.41315
#
# Compressibility (1/GPa) = 0.02227411
#
# Stress axis : x y z
#
# Youngs Moduli (GPa) = 106.68632 94.02368 69.79500
#
# Poissons Ratio (x) = 0.22543 0.07168
# Poissons Ratio (y) = 0.25579 0.18193
# Poissons Ratio (z) = 0.10957 0.24508
#
# Static dielectric constant tensor:
#      x y z
#    x 3.307030 0.000000 -0.053710 
#    y 0.000000 3.397290 0.000000 
#    z -0.053710 0.000000 3.296770 
# 
# 
# High freq. dielectric constant tensor:
#      x y z
#    x 1.717000 0.000000 -0.004300 
#    y 0.000000 1.723620 0.000000 
#    z -0.004300 0.000000 1.715600 
# 
# From -- ./inp_files/67288.got.cif
#   From: 2010.06.25/outbox.cif.g09.slc.cpg/sg13_34_cif.got.tgz:67288.got - 2010.06.28 04:50:58.
