data_PCOD8119073
_publ_section_title
;
Structure prediction by ZEFSAII (Michael W. Deem and Ramdas Pophale) SiO2 
 PCOD8119073
Probable space group: P 2/C
;
_chemical_formula_sum "Si O2"
_cell_formula_units_Z 32
_cell_length_a 11.313456
_cell_length_b 11.626160
_cell_length_c 11.562905
_cell_angle_alpha 90.000000
_cell_angle_beta 86.475954
_cell_angle_gamma 90.000000
_cell_volume 1518.016722
_symmetry_space_group_name_H-M "P 2/C"
_symmetry_group_IT_number 13
_symmetry_cell_setting 'monoclinic'
loop_
_space_group_symop_operation_xyz
x,y,z
-x,y,1/2-z
-x,-y,-z
x,-y,1/2+z
loop_
_atom_site_type_symbol
_atom_site_label
_atom_site_fract_x
_atom_site_fract_y
_atom_site_fract_z
Si Si1 0.120523 0.064421 0.964920
Si Si2 0.481146 0.874025 0.546351
Si Si3 0.245595 0.800559 0.650417
Si Si4 0.741890 0.654270 0.417476
Si Si5 0.260140 0.842557 0.903664
Si Si6 0.756152 0.588702 0.003372
Si Si7 0.119585 0.718626 0.309176
Si Si8 0.520772 0.330124 0.614053
O O1 0.113137 0.149472 0.854463
O O2 0.223081 0.972566 0.933993
O O3 0.149889 0.134698 0.078254
O O4 0.000000 0.000000 0.000000
O O5 0.371128 0.867339 0.640080
O O6 0.597915 0.831709 0.605796
O O7 0.447225 0.795890 0.437280
O O8 0.500000 0.000000 0.500000
O O9 0.204209 0.802784 0.785494
O O10 0.257893 0.669294 0.608336
O O11 0.790315 0.755224 0.497383
O O12 0.800379 0.534758 0.454881
O O13 0.773166 0.696624 0.286455
O O14 0.601748 0.629761 0.436682
O O15 0.857974 0.635469 0.083119
O O16 0.628708 0.583758 0.076821
O O17 0.000000 0.684311 0.250000
O O18 0.500000 0.321514 0.750000
#
# Coordination Sequence:
#
# PCOD8119073 Si02
#       8
#     4   4   4   4   4   4   4   4
#     4  11  25  44  66  93 127 167 218 273 328 393
#     4  10  20  37  56  95 131 167 214 261 325 396
#     4  10  23  41  62  94 129 170 210 264 332 386
#     4  11  24  41  68 101 130 170 222 265 328 392
#     4  11  24  37  66  96 128 168 209 266 328 398
#     4  10  23  44  66  96 134 170 219 274 321 389
#     4  11  25  44  70  93 127 173 222 274 330 386
#     4  10  20  37  64  99 129 174 215 261 330 398
#
# _framework density 21.080138000000002
#
# number of rings (size 3 to 8) (size 9 to 14) (size 15 to 20)
#    0.000    1.500    2.500    1.500    5.250    1.500 
#    0.000    0.000    0.000    0.000    0.000    0.000 
#    0.000    0.000    0.000    0.000    0.000    0.000 
#
# Total GULP energy -396827.336695 kJ/mol
# GULP energy per Si atom -12400.854272 kJ/mol
# Density = 2.103216 g / cm^3
# Si number density = 21.080138 Si / 1000 Ang^3
#
#
#
# Elastic Constant Matrix: (Units=GPa)
#
#
# Indices 1 2 3 4 5 6 
#
# 1 77.0878 21.0488 6.0473 0.0000 7.1190 0.0000
# 2 21.0488 123.2309 43.8771 0.0000 1.4654 0.0000
# 3 6.0473 43.8771 118.9932 0.0000 7.9676 0.0000
# 4 0.0000 0.0000 0.0000 29.9625 0.0000 -0.1417
# 5 7.1190 1.4654 7.9676 0.0000 27.6427 0.0000
# 6 0.0000 0.0000 0.0000 -0.1417 0.0000 22.4162
#
#
#
# Elastic Compliance Matrix: (Units=1/GPa)
#
#
# Indices 1 2 3 4 5 6 
#
# 1 0.013951 -0.002502 0.000454 0.000000 -0.003591 0.000000
# 2 -0.002502 0.009797 -0.003562 0.000000 0.001152 0.000000
# 3 0.000454 -0.003562 0.009880 0.000000 -0.002776 0.000000
# 4 0.000000 0.000000 0.000000 0.033376 0.000000 0.000211
# 5 -0.003591 0.001152 -0.002776 0.000000 0.037840 0.000000
# 6 0.000000 0.000000 0.000000 0.000211 0.000000 0.044612
#
#
# Mechanical properties :
#
#
# Convention : Reuss Voigt Hill
#
# Bulk Modulus (GPa) = 44.62735 51.25091 47.93913
# Shear Modulus (GPa) = 29.73595 32.56018 31.14806
#
# Velocity S-wave (km/s) = 3.75989 3.93439 3.84813
# Velocity P-wave (km/s) = 6.32972 6.70854 6.52188
#
# Compressibility (1/GPa) = 0.02240779
#
# Stress axis : x y z
#
# Youngs Moduli (GPa) = 71.67734 102.07267 101.21204
#
# Poissons Ratio (x) = 0.25538 -0.04595
# Poissons Ratio (y) = 0.17933 0.36056
# Poissons Ratio (z) = -0.03254 0.36363
#
# Static dielectric constant tensor:
#      x y z
#    x 3.837980 0.000000 0.035050 
#    y 0.000000 3.740370 0.000000 
#    z 0.035050 0.000000 3.792900 
# 
# 
# High freq. dielectric constant tensor:
#      x y z
#    x 1.823230 0.000000 0.008540 
#    y 0.000000 1.821340 0.000000 
#    z 0.008540 0.000000 1.827580 
# 
# From -- ./inp_files/33854.got.cif
#   From: 2010.06.25/outbox.cif.g09.slc.cpg/sg13_17_cif.got.tgz:33854.got - 2010.06.28 04:50:58.
