data_PCOD8119802
_publ_section_title
;
Structure prediction by ZEFSAII (Michael W. Deem and Ramdas Pophale) SiO2 
 PCOD8119802
Probable space group: P 2/C
;
_chemical_formula_sum "Si O2"
_cell_formula_units_Z 30
_cell_length_a 18.531601
_cell_length_b 13.041793
_cell_length_c 11.904962
_cell_angle_alpha 90.000000
_cell_angle_beta 151.683329
_cell_angle_gamma 90.000000
_cell_volume 1364.809425
_symmetry_space_group_name_H-M "P 2/C"
_symmetry_group_IT_number 13
_symmetry_cell_setting 'monoclinic'
loop_
_space_group_symop_operation_xyz
x,y,z
-x,y,1/2-z
-x,-y,-z
x,-y,1/2+z
loop_
_atom_site_type_symbol
_atom_site_label
_atom_site_fract_x
_atom_site_fract_y
_atom_site_fract_z
Si Si1 0.000000 0.140161 0.750000
Si Si2 0.678170 0.086480 0.313576
Si Si3 0.205704 0.596588 0.295703
Si Si4 0.655409 0.683939 0.227908
Si Si5 0.534879 0.882983 0.174120
Si Si6 0.681420 0.618293 0.498314
Si Si7 0.342554 0.317221 0.192552
Si Si8 0.096322 0.310528 0.035212
O O1 0.857067 0.065783 0.558605
O O2 0.991044 0.207362 0.622147
O O3 0.641934 0.197002 0.317677
O O4 0.613862 0.993072 0.297722
O O5 0.618915 0.092494 0.104343
O O6 0.228104 0.666557 0.215081
O O7 0.249582 0.477880 0.337089
O O8 0.332890 0.627215 0.560877
O O9 0.031931 0.608666 0.099371
O O10 0.640097 0.802200 0.249109
O O11 0.722824 0.616231 0.422960
O O12 0.488487 0.643298 0.962296
O O13 0.500000 0.837535 0.250000
O O14 0.500000 0.633300 0.250000
O O15 0.774113 0.709408 0.690232
O O16 0.188858 0.344753 0.050247
#
# Coordination Sequence:
#
# PCOD8119802 Si02
#       8
#     2   4   4   4   4   4   4   4
#     4  10  20  42  70  96 130 178 226 262 334 398
#     4   9  20  39  66  98 127 169 227 261 323 396
#     4  12  25  41  65 102 134 174 228 287 328 393
#     4  11  25  41  66  97 136 171 224 281 336 394
#     4  10  22  41  69  99 133 178 217 273 334 398
#     4  12  26  42  67  93 135 181 226 275 340 403
#     4  10  20  42  70  93 131 181 224 267 330 406
#     4  11  22  43  68  92 129 183 220 273 336 398
#
# _framework density 21.981090999999999
#
# number of rings (size 3 to 8) (size 9 to 14) (size 15 to 20)
#    0.000    1.333    4.000    2.000    5.600    4.800 
#    2.400    2.000    0.000    0.000    0.000    0.000 
#    0.000    0.000    0.000    0.000    0.000    0.000 
#
# Total GULP energy -371752.965431 kJ/mol
# GULP energy per Si atom -12391.765514 kJ/mol
# Density = 2.193106 g / cm^3
# Si number density = 21.981091 Si / 1000 Ang^3
#
#
#
# Elastic Constant Matrix: (Units=GPa)
#
#
# Indices 1 2 3 4 5 6 
#
# 1 112.5113 39.6197 32.7846 0.0000 -15.5349 0.0000
# 2 39.6197 72.5594 35.6423 0.0000 1.6663 0.0000
# 3 32.7846 35.6423 125.6232 0.0000 -0.9628 0.0000
# 4 0.0000 0.0000 0.0000 28.4532 0.0000 -3.3783
# 5 -15.5349 1.6663 -0.9628 0.0000 38.3729 0.0000
# 6 0.0000 0.0000 0.0000 -3.3783 0.0000 24.3813
#
#
#
# Elastic Compliance Matrix: (Units=1/GPa)
#
#
# Indices 1 2 3 4 5 6 
#
# 1 0.012141 -0.006054 -0.001411 0.000000 0.005143 0.000000
# 2 -0.006054 0.019058 -0.003853 0.000000 -0.003375 0.000000
# 3 -0.001411 -0.003853 0.009421 0.000000 -0.000168 0.000000
# 4 0.000000 0.000000 0.000000 0.035733 0.000000 0.004951
# 5 0.005143 -0.003375 -0.000168 0.000000 0.028284 0.000000
# 6 0.000000 0.000000 0.000000 0.004951 0.000000 0.041701
#
#
# Mechanical properties :
#
#
# Convention : Reuss Voigt Hill
#
# Bulk Modulus (GPa) = 55.61048 58.53189 57.07119
# Shear Modulus (GPa) = 28.57632 31.75131 30.16381
#
# Velocity S-wave (km/s) = 3.60952 3.80476 3.70842
# Velocity P-wave (km/s) = 6.53649 6.78142 6.66008
#
# Compressibility (1/GPa) = 0.01798222
#
# Stress axis : x y z
#
# Youngs Moduli (GPa) = 82.36331 52.47190 106.15080
#
# Poissons Ratio (x) = 0.31768 0.14982
# Poissons Ratio (y) = 0.49866 0.40900
# Poissons Ratio (z) = 0.11625 0.20217
#
# Static dielectric constant tensor:
#      x y z
#    x 3.852360 0.000000 -0.132920 
#    y 0.000000 3.867490 0.000000 
#    z -0.132920 0.000000 4.328620 
# 
# 
# High freq. dielectric constant tensor:
#      x y z
#    x 1.845540 0.000000 -0.012410 
#    y 0.000000 1.845330 0.000000 
#    z -0.012410 0.000000 1.884030 
# 
# From -- ./inp_files/39405.got.cif
#   From: 2010.06.25/outbox.cif.g09.slc.cpg/sg13_20_cif.got.tgz:39405.got - 2010.06.28 04:50:58.
