data_PCOD8119548
_publ_section_title
;
Structure prediction by ZEFSAII (Michael W. Deem and Ramdas Pophale) SiO2 
 PCOD8119548
Probable space group: P 2/C
;
_chemical_formula_sum "Si O2"
_cell_formula_units_Z 18
_cell_length_a 7.826070
_cell_length_b 5.435557
_cell_length_c 20.051904
_cell_angle_alpha 90.000000
_cell_angle_beta 129.699424
_cell_angle_gamma 90.000000
_cell_volume 656.294787
_symmetry_space_group_name_H-M "P 2/C"
_symmetry_group_IT_number 13
_symmetry_cell_setting 'monoclinic'
loop_
_space_group_symop_operation_xyz
x,y,z
-x,y,1/2-z
-x,-y,-z
x,-y,1/2+z
loop_
_atom_site_type_symbol
_atom_site_label
_atom_site_fract_x
_atom_site_fract_y
_atom_site_fract_z
Si Si1 0.500000 0.523121 0.250000
Si Si2 0.209336 0.790113 0.500736
Si Si3 0.269926 0.715357 0.071961
Si Si4 0.210382 0.095902 0.850294
Si Si5 0.738663 0.598102 0.686735
O O1 0.341195 0.696986 0.166830
O O2 0.349285 0.347987 0.260342
O O3 0.346024 0.537475 0.550594
O O4 0.141077 0.820010 0.406604
O O5 0.996085 0.753230 0.495189
O O6 0.354971 0.031781 0.557746
O O7 0.360914 0.322116 0.857954
O O8 0.000000 0.047604 0.750000
O O9 0.327122 0.823996 0.879049
O O10 0.000000 0.543004 0.750000
#
# Coordination Sequence:
#
# PCOD8119548 Si02
#       5
#     2   4   4   4   4
#     4  12  26  46  70 104 134 176 236 276 334 408
#     4  10  21  42  65  97 136 178 220 274 342 397
#     4  10  23  39  67  98 136 177 221 280 333 398
#     4  10  20  39  66  93 127 176 224 270 332 402
#     4  10  23  40  66  96 130 174 220 279 333 394
#
# _framework density 27.426697000000001
#
# number of rings (size 3 to 8) (size 9 to 14) (size 15 to 20)
#    0.000    1.778    0.000    4.000    0.000   14.222 
#    0.000    6.667    0.000    0.000    0.000    0.000 
#    0.000    0.000    0.000    0.000    0.000    0.000 
#
# Total GULP energy -223151.884325 kJ/mol
# GULP energy per Si atom -12397.326907 kJ/mol
# Density = 2.736427 g / cm^3
# Si number density = 27.426697 Si / 1000 Ang^3
#
#
#
# Elastic Constant Matrix: (Units=GPa)
#
#
# Indices 1 2 3 4 5 6 
#
# 1 104.4870 69.3180 5.9267 0.0000 -22.0973 0.0000
# 2 69.3180 287.5163 76.8175 0.0000 -2.2055 0.0000
# 3 5.9267 76.8175 138.9336 0.0000 -20.5255 0.0000
# 4 0.0000 0.0000 0.0000 47.2078 0.0000 -4.3535
# 5 -22.0973 -2.2055 -20.5255 0.0000 46.7141 0.0000
# 6 0.0000 0.0000 0.0000 -4.3535 0.0000 23.2489
#
#
#
# Elastic Compliance Matrix: (Units=1/GPa)
#
#
# Indices 1 2 3 4 5 6 
#
# 1 0.013607 -0.003945 0.002699 0.000000 0.007436 0.000000
# 2 -0.003945 0.005257 -0.003184 0.000000 -0.003017 0.000000
# 3 0.002699 -0.003184 0.009635 0.000000 0.005360 0.000000
# 4 0.000000 0.000000 0.000000 0.021555 0.000000 0.004036
# 5 0.007436 -0.003017 0.005360 0.000000 0.027137 0.000000
# 6 0.000000 0.000000 0.000000 0.004036 0.000000 0.043769
#
#
# Mechanical properties :
#
#
# Convention : Reuss Voigt Hill
#
# Bulk Modulus (GPa) = 50.91696 92.78461 71.85079
# Shear Modulus (GPa) = 36.66643 48.69247 42.67945
#
# Velocity S-wave (km/s) = 3.66032 4.21808 3.94906
# Velocity P-wave (km/s) = 6.03895 7.59121 6.85913
#
# Compressibility (1/GPa) = 0.01963982
#
# Stress axis : x y z
#
# Youngs Moduli (GPa) = 73.49115 190.23712 103.79107
#
# Poissons Ratio (x) = 0.75043 -0.28015
# Poissons Ratio (y) = 0.28990 0.33045
# Poissons Ratio (z) = -0.19837 0.60568
#
# Static dielectric constant tensor:
#      x y z
#    x 5.288790 0.000000 0.322020 
#    y 0.000000 6.040420 0.000000 
#    z 0.322020 0.000000 4.508130 
# 
# 
# High freq. dielectric constant tensor:
#      x y z
#    x 2.149210 0.000000 0.040900 
#    y 0.000000 2.141950 0.000000 
#    z 0.040900 0.000000 2.088210 
# 
# From -- ./inp_files/62264.got.cif
#   From: 2010.06.25/outbox.cif.g09.slc.cpg/sg13_32_cif.got.tgz:62264.got - 2010.06.28 04:50:58.
