data_PCOD8119212
_publ_section_title
;
Structure prediction by ZEFSAII (Michael W. Deem and Ramdas Pophale) SiO2 
 PCOD8119212
Probable space group: P 2/C
;
_chemical_formula_sum "Si O2"
_cell_formula_units_Z 22
_cell_length_a 23.504328
_cell_length_b 9.731313
_cell_length_c 14.216096
_cell_angle_alpha 90.000000
_cell_angle_beta 160.904844
_cell_angle_gamma 90.000000
_cell_volume 1063.728103
_symmetry_space_group_name_H-M "P 2/C"
_symmetry_group_IT_number 13
_symmetry_cell_setting 'monoclinic'
loop_
_space_group_symop_operation_xyz
x,y,z
-x,y,1/2-z
-x,-y,-z
x,-y,1/2+z
loop_
_atom_site_type_symbol
_atom_site_label
_atom_site_fract_x
_atom_site_fract_y
_atom_site_fract_z
Si Si1 0.385308 0.962399 0.180596
Si Si2 0.862712 0.321646 0.825570
Si Si3 0.500000 0.211520 0.250000
Si Si4 0.019969 0.920588 0.680902
Si Si5 0.951463 0.402298 0.565063
Si Si6 0.266181 0.853233 0.795644
O O1 0.558398 0.885537 0.492253
O O2 0.441451 0.118376 0.246492
O O3 0.318434 0.886147 0.983201
O O4 0.222431 0.964256 0.995633
O O5 0.659215 0.307275 0.527873
O O6 0.897921 0.346444 0.769780
O O7 0.965714 0.181880 0.012704
O O8 0.919704 0.442983 0.983059
O O9 0.000000 0.844951 0.750000
O O10 0.900171 0.056307 0.494005
O O11 0.780693 0.307342 0.286595
O O12 0.000000 0.400179 0.750000
#
# Coordination Sequence:
#
# PCOD8119212 Si02
#       6
#     4   4   2   4   4   4
#     4  10  20  37  66  94 125 166 208 259 314 371
#     4  11  23  44  65  89 131 166 211 261 315 371
#     4  10  20  40  68  90 126 170 204 264 320 366
#     4  12  22  38  65  94 130 169 209 262 315 370
#     4  11  24  43  66  93 125 169 211 257 316 379
#     4  10  20  39  63  91 126 163 212 260 310 375
#
# _framework density 20.681977
#
# number of rings (size 3 to 8) (size 9 to 14) (size 15 to 20)
#    0.000    1.455    5.455    2.727    0.000    2.182 
#    3.273    0.909    0.000    0.000    0.000    0.000 
#    0.000    0.000    0.000    0.000    0.000    0.000 
#
# Total GULP energy -272687.494050 kJ/mol
# GULP energy per Si atom -12394.886093 kJ/mol
# Density = 2.063490 g / cm^3
# Si number density = 20.681977 Si / 1000 Ang^3
#
#
#
# Elastic Constant Matrix: (Units=GPa)
#
#
# Indices 1 2 3 4 5 6 
#
# 1 122.6286 29.5675 55.9196 0.0000 9.4121 0.0000
# 2 29.5675 63.3064 33.4373 0.0000 11.7663 0.0000
# 3 55.9196 33.4373 138.2031 0.0000 41.1159 0.0000
# 4 0.0000 0.0000 0.0000 31.9004 0.0000 6.9213
# 5 9.4121 11.7663 41.1159 0.0000 41.7930 0.0000
# 6 0.0000 0.0000 0.0000 6.9213 0.0000 11.6959
#
#
#
# Elastic Compliance Matrix: (Units=1/GPa)
#
#
# Indices 1 2 3 4 5 6 
#
# 1 0.010717 -0.003206 -0.004399 0.000000 0.002816 0.000000
# 2 -0.003206 0.019106 -0.002743 0.000000 -0.001959 0.000000
# 3 -0.004399 -0.002743 0.012943 0.000000 -0.010970 0.000000
# 4 0.000000 0.000000 0.000000 0.035965 0.000000 -0.021283
# 5 0.002816 -0.001959 -0.010970 0.000000 0.034637 0.000000
# 6 0.000000 0.000000 0.000000 -0.021283 0.000000 0.098095
#
#
# Mechanical properties :
#
#
# Convention : Reuss Voigt Hill
#
# Bulk Modulus (GPa) = 45.30628 62.44298 53.87463
# Shear Modulus (GPa) = 20.87551 30.75878 25.81715
#
# Velocity S-wave (km/s) = 3.18049 3.86064 3.53695
# Velocity P-wave (km/s) = 5.95324 7.08027 6.54107
#
# Compressibility (1/GPa) = 0.02207199
#
# Stress axis : x y z
#
# Youngs Moduli (GPa) = 93.30679 52.33910 77.26288
#
# Poissons Ratio (x) = 0.16778 0.33986
# Poissons Ratio (y) = 0.29911 0.21191
# Poissons Ratio (z) = 0.41043 0.14355
#
# Static dielectric constant tensor:
#      x y z
#    x 3.926970 0.000000 0.434570 
#    y 0.000000 3.662330 0.000000 
#    z 0.434570 0.000000 4.177380 
# 
# 
# High freq. dielectric constant tensor:
#      x y z
#    x 1.803220 0.000000 0.013140 
#    y 0.000000 1.798760 0.000000 
#    z 0.013140 0.000000 1.816560 
# 
# From -- ./inp_files/58737.got.cif
#   From: 2010.06.25/outbox.cif.g09.slc.cpg/sg13_30_cif.got.tgz:58737.got - 2010.06.28 04:50:58.
