data_PCOD8119927
_publ_section_title
;
Structure prediction by ZEFSAII (Michael W. Deem and Ramdas Pophale) SiO2 
 PCOD8119927
Probable space group: P 2/C
;
_chemical_formula_sum "Si O2"
_cell_formula_units_Z 32
_cell_length_a 20.621925
_cell_length_b 11.297919
_cell_length_c 9.152187
_cell_angle_alpha 90.000000
_cell_angle_beta 48.262964
_cell_angle_gamma 90.000000
_cell_volume 1591.154891
_symmetry_space_group_name_H-M "P 2/C"
_symmetry_group_IT_number 13
_symmetry_cell_setting 'monoclinic'
loop_
_space_group_symop_operation_xyz
x,y,z
-x,y,1/2-z
-x,-y,-z
x,-y,1/2+z
loop_
_atom_site_type_symbol
_atom_site_label
_atom_site_fract_x
_atom_site_fract_y
_atom_site_fract_z
Si Si1 0.187453 0.124705 0.390357
Si Si2 0.660787 0.701612 0.848345
Si Si3 0.082895 0.317626 0.039846
Si Si4 0.917105 0.682374 0.288530
Si Si5 0.218635 0.500000 0.922048
Si Si6 0.187453 0.124705 0.047283
Si Si7 0.500000 0.374563 0.421943
Si Si8 0.660787 0.298388 0.669295
O O1 0.280848 0.185002 0.276477
O O2 0.112929 0.202787 0.576632
O O3 0.189728 0.000000 0.465408
O O4 0.166772 0.111341 0.249842
O O5 0.719859 0.583528 0.767162
O O6 0.585851 0.696986 0.839286
O O7 0.618279 0.714671 0.072582
O O8 0.057064 0.280547 0.914403
O O9 0.157635 0.417005 0.914425
O O10 0.112929 0.202787 0.084580
O O11 0.000000 0.370392 0.250000
O O12 0.842364 0.582995 0.387332
O O13 0.000000 0.629608 0.250000
O O14 0.280141 0.416472 0.926740
O O15 0.280848 0.185002 0.880979
O O16 0.500000 0.393579 0.250000
O O17 0.500000 0.500000 0.500000
O O18 0.414149 0.303014 0.596839
#
# Coordination Sequence:
#
# PCOD8119927 Si02
#       8
#     4   4   4   4   4   4   4   4
#     4  10  22  41  64  88 115 151 195 244 294 348
#     4  10  21  38  60  87 119 153 193 238 288 345
#     4  11  23  38  58  86 119 156 197 243 294 349
#     4  11  23  38  58  86 119 156 197 243 294 349
#     4  10  21  35  60  86 118 154 194 237 291 352
#     4  10  22  41  64  88 115 151 195 244 294 348
#     4  12  24  36  57  88 123 158 193 235 285 341
#     4  10  21  38  60  87 119 153 193 238 288 345
#
# _framework density 20.111179
#
# number of rings (size 3 to 8) (size 9 to 14) (size 15 to 20)
#    0.000    1.500    1.250    3.750    0.000    9.500 
#    0.000    3.125    0.000    0.000    0.000    0.000 
#    0.000    0.000    0.000    0.000    0.000    0.000 
#
# Total GULP energy -396818.807676 kJ/mol
# GULP energy per Si atom -12400.587740 kJ/mol
# Density = 2.006540 g / cm^3
# Si number density = 20.111179 Si / 1000 Ang^3
#
#
#
# Elastic Constant Matrix: (Units=GPa)
#
#
# Indices 1 2 3 4 5 6 
#
# 1 124.4347 31.8289 60.8998 0.0000 13.4824 0.0000
# 2 31.8289 104.3964 32.9346 0.0000 3.1370 0.0000
# 3 60.8998 32.9346 134.6553 0.0000 15.5153 0.0000
# 4 0.0000 0.0000 0.0000 21.0407 0.0000 3.3877
# 5 13.4824 3.1370 15.5153 0.0000 39.9112 0.0000
# 6 0.0000 0.0000 0.0000 3.3877 0.0000 19.8467
#
#
#
# Elastic Compliance Matrix: (Units=1/GPa)
#
#
# Indices 1 2 3 4 5 6 
#
# 1 0.010778 -0.001907 -0.004194 0.000000 -0.001861 0.000000
# 2 -0.001907 0.010718 -0.001818 0.000000 0.000508 0.000000
# 3 -0.004194 -0.001818 0.010038 0.000000 -0.002342 0.000000
# 4 0.000000 0.000000 0.000000 0.048870 0.000000 -0.008342
# 5 -0.001861 0.000508 -0.002342 0.000000 0.026555 0.000000
# 6 0.000000 0.000000 0.000000 -0.008342 0.000000 0.051810
#
#
# Mechanical properties :
#
#
# Convention : Reuss Voigt Hill
#
# Bulk Modulus (GPa) = 63.70567 68.31256 66.00912
# Shear Modulus (GPa) = 27.80273 32.01461 29.90867
#
# Velocity S-wave (km/s) = 3.72217 3.99417 3.86056
# Velocity P-wave (km/s) = 7.08648 7.43723 7.26397
#
# Compressibility (1/GPa) = 0.01569719
#
# Stress axis : x y z
#
# Youngs Moduli (GPa) = 92.77933 93.29679 99.62625
#
# Poissons Ratio (x) = 0.17793 0.41781
# Poissons Ratio (y) = 0.17695 0.18108
# Poissons Ratio (z) = 0.38909 0.16958
#
# Static dielectric constant tensor:
#      x y z
#    x 3.713050 0.000000 -0.102830 
#    y 0.000000 3.525250 0.000000 
#    z -0.102830 0.000000 3.676810 
# 
# 
# High freq. dielectric constant tensor:
#      x y z
#    x 1.790050 0.000000 0.002180 
#    y 0.000000 1.771330 0.000000 
#    z 0.002180 0.000000 1.790820 
# 
# From -- ./inp_files/23346.got.cif
#   From: 2010.06.25/outbox.cif.g09.slc.cpg/sg13_12_cif.got.tgz:23346.got - 2010.06.28 04:50:58.
