data_PCOD8119694
_publ_section_title
;
Structure prediction by ZEFSAII (Michael W. Deem and Ramdas Pophale) SiO2 
 PCOD8119694
Probable space group: P 2/C
;
_chemical_formula_sum "Si O2"
_cell_formula_units_Z 26
_cell_length_a 8.244740
_cell_length_b 17.079383
_cell_length_c 18.266845
_cell_angle_alpha 90.000000
_cell_angle_beta 30.100056
_cell_angle_gamma 90.000000
_cell_volume 1290.011713
_symmetry_space_group_name_H-M "P 2/C"
_symmetry_group_IT_number 13
_symmetry_cell_setting 'monoclinic'
loop_
_space_group_symop_operation_xyz
x,y,z
-x,y,1/2-z
-x,-y,-z
x,-y,1/2+z
loop_
_atom_site_type_symbol
_atom_site_label
_atom_site_fract_x
_atom_site_fract_y
_atom_site_fract_z
Si Si1 0.424631 0.104462 0.984349
Si Si2 0.336644 0.345896 0.984887
Si Si3 0.363580 0.490374 0.879336
Si Si4 0.300915 0.753557 0.039949
Si Si5 0.000000 0.987404 0.750000
Si Si6 0.399530 0.338094 0.206964
Si Si7 0.450773 0.216976 0.687614
O O1 0.544554 0.162331 0.002050
O O2 0.366987 0.153442 0.933676
O O3 0.685111 0.039414 0.858538
O O4 0.090414 0.065599 0.143520
O O5 0.983542 0.333362 0.157156
O O6 0.410419 0.434819 0.931899
O O7 0.600562 0.313021 0.939220
O O8 0.359879 0.297958 0.899622
O O9 0.500000 0.456166 0.750000
O O10 0.507215 0.573070 0.848362
O O11 0.000000 0.500000 0.000000
O O12 0.919596 0.768968 0.190379
O O13 0.418577 0.724241 0.915066
O O14 0.500000 0.316938 0.250000
O O15 0.500000 0.187604 0.750000
#
# Coordination Sequence:
#
# PCOD8119694 Si02
#       7
#     4   4   4   4   2   4   4
#     4  10  21  41  67  96 128 167 212 249 316 382
#     4  11  22  39  62  89 123 170 217 266 312 378
#     4  11  22  40  60  88 128 171 214 261 330 380
#     4  11  24  41  62  96 127 162 222 265 313 385
#     4  10  20  40  72  92 130 170 202 252 314 384
#     4  11  23  39  61  91 126 170 216 265 323 375
#     4  11  23  41  65  93 129 168 214 267 323 379
#
# _framework density 20.154857
#
# number of rings (size 3 to 8) (size 9 to 14) (size 15 to 20)
#    0.000    1.231    4.615    3.231    6.462    0.615 
#    0.000    2.308    0.000    0.000    0.000    0.000 
#    0.000    0.000    0.000    0.000    0.000    0.000 
#
# Total GULP energy -322268.088945 kJ/mol
# GULP energy per Si atom -12394.926498 kJ/mol
# Density = 2.010898 g / cm^3
# Si number density = 20.154857 Si / 1000 Ang^3
#
#
#
# Elastic Constant Matrix: (Units=GPa)
#
#
# Indices 1 2 3 4 5 6 
#
# 1 93.6107 43.8863 34.3378 0.0000 11.3614 0.0000
# 2 43.8863 112.9895 55.2220 0.0000 14.1748 0.0000
# 3 34.3378 55.2220 123.0151 0.0000 11.6238 0.0000
# 4 0.0000 0.0000 0.0000 47.8969 0.0000 8.2600
# 5 11.3614 14.1748 11.6238 0.0000 35.1895 0.0000
# 6 0.0000 0.0000 0.0000 8.2600 0.0000 13.2224
#
#
#
# Elastic Compliance Matrix: (Units=1/GPa)
#
#
# Indices 1 2 3 4 5 6 
#
# 1 0.013511 -0.004146 -0.001709 0.000000 -0.002128 0.000000
# 2 -0.004146 0.012921 -0.004415 0.000000 -0.002408 0.000000
# 3 -0.001709 -0.004415 0.010702 0.000000 -0.001205 0.000000
# 4 0.000000 0.000000 0.000000 0.023399 0.000000 -0.014617
# 5 -0.002128 -0.002408 -0.001205 0.000000 0.030472 0.000000
# 6 0.000000 0.000000 0.000000 -0.014617 0.000000 0.084761
#
#
# Mechanical properties :
#
#
# Convention : Reuss Voigt Hill
#
# Bulk Modulus (GPa) = 60.26564 66.27862 63.27213
# Shear Modulus (GPa) = 24.77236 32.33971 28.55603
#
# Velocity S-wave (km/s) = 3.50966 4.01004 3.76817
# Velocity P-wave (km/s) = 6.81101 7.37541 7.09882
#
# Compressibility (1/GPa) = 0.01659320
#
# Stress axis : x y z
#
# Youngs Moduli (GPa) = 74.01194 77.39606 93.43877
#
# Poissons Ratio (x) = 0.32085 0.15973
# Poissons Ratio (y) = 0.30682 0.41257
# Poissons Ratio (z) = 0.12652 0.34174
#
# Static dielectric constant tensor:
#      x y z
#    x 3.351620 0.000000 0.072110 
#    y 0.000000 3.619340 0.000000 
#    z 0.072110 0.000000 3.875310 
# 
# 
# High freq. dielectric constant tensor:
#      x y z
#    x 1.759190 0.000000 0.005160 
#    y 0.000000 1.790910 0.000000 
#    z 0.005160 0.000000 1.812690 
# 
# From -- ./inp_files/64747.got.cif
#   From: 2010.06.25/outbox.cif.g09.slc.cpg/sg13_33_cif.got.tgz:64747.got - 2010.06.28 04:50:58.
