data_PCOD8119744
_publ_section_title
;
Structure prediction by ZEFSAII (Michael W. Deem and Ramdas Pophale) SiO2 
 PCOD8119744
Probable space group: P 2/C
;
_chemical_formula_sum "Si O2"
_cell_formula_units_Z 32
_cell_length_a 13.081885
_cell_length_b 18.172409
_cell_length_c 10.771002
_cell_angle_alpha 90.000000
_cell_angle_beta 145.928313
_cell_angle_gamma 90.000000
_cell_volume 1434.514997
_symmetry_space_group_name_H-M "P 2/C"
_symmetry_group_IT_number 13
_symmetry_cell_setting 'monoclinic'
loop_
_space_group_symop_operation_xyz
x,y,z
-x,y,1/2-z
-x,-y,-z
x,-y,1/2+z
loop_
_atom_site_type_symbol
_atom_site_label
_atom_site_fract_x
_atom_site_fract_y
_atom_site_fract_z
Si Si1 0.556782 0.127409 0.034910
Si Si2 0.536773 0.283777 0.647832
Si Si3 0.702622 0.797698 0.913578
Si Si4 0.764393 0.343170 0.329952
Si Si5 0.889862 0.507700 0.017105
Si Si6 0.174288 0.905354 0.252796
Si Si7 0.909147 0.345326 0.032120
Si Si8 0.902605 0.068749 0.274160
O O1 0.682904 0.145021 0.280961
O O2 0.687021 0.085162 0.069736
O O3 0.499212 0.198553 0.901978
O O4 0.375290 0.082380 0.892955
O O5 0.500000 0.311287 0.750000
O O6 0.415049 0.329809 0.430655
O O7 0.747913 0.292660 0.825683
O O8 0.500000 0.775678 0.750000
O O9 0.793241 0.720095 0.963794
O O10 0.816980 0.838858 0.137517
O O11 0.740857 0.426428 0.359223
O O12 0.944965 0.343536 0.429491
O O13 0.814322 0.425272 0.963201
O O14 0.000000 0.530938 0.250000
O O15 0.000000 0.500000 0.000000
O O16 0.095317 0.980504 0.230111
O O17 0.020860 0.887891 0.996578
O O18 0.000000 0.315522 0.250000
O O19 0.000000 0.099494 0.250000
#
# Coordination Sequence:
#
# PCOD8119744 Si02
#       8
#     4   4   4   4   4   4   4   4
#     4  10  24  45  65  94 134 176 217 279 338 397
#     4  11  23  40  64  99 135 176 229 273 340 410
#     4   9  21  45  67  97 134 171 224 272 339 405
#     4  10  21  43  67 101 136 178 229 284 344 409
#     4   9  20  41  67 100 137 181 237 282 345 419
#     4  10  24  47  71  94 133 177 213 277 345 401
#     4  10  20  41  69  96 138 186 225 281 340 408
#     4  11  26  44  69 104 128 168 234 272 328 420
#
# _framework density 22.307191
#
# number of rings (size 3 to 8) (size 9 to 14) (size 15 to 20)
#    0.000    2.000    1.250    0.375    5.250    2.500 
#   20.250    1.875    0.000    0.000    0.000    0.000 
#    0.000    0.000    0.000    0.000    0.000    0.000 
#
# Total GULP energy -396525.035776 kJ/mol
# GULP energy per Si atom -12391.407368 kJ/mol
# Density = 2.225642 g / cm^3
# Si number density = 22.307191 Si / 1000 Ang^3
#
#
#
# Elastic Constant Matrix: (Units=GPa)
#
#
# Indices 1 2 3 4 5 6 
#
# 1 108.9788 30.9362 45.5550 0.0000 2.5630 0.0000
# 2 30.9362 88.4717 60.6901 0.0000 -10.9875 0.0000
# 3 45.5550 60.6901 126.8100 0.0000 -7.4953 0.0000
# 4 0.0000 0.0000 0.0000 17.0592 0.0000 7.7689
# 5 2.5630 -10.9875 -7.4953 0.0000 33.2029 0.0000
# 6 0.0000 0.0000 0.0000 7.7689 0.0000 34.7821
#
#
#
# Elastic Compliance Matrix: (Units=1/GPa)
#
#
# Indices 1 2 3 4 5 6 
#
# 1 0.011120 -0.001987 -0.003176 0.000000 -0.002233 0.000000
# 2 -0.001987 0.017670 -0.007488 0.000000 0.004310 0.000000
# 3 -0.003176 -0.007488 0.012647 0.000000 0.000622 0.000000
# 4 0.000000 0.000000 0.000000 0.065257 0.000000 -0.014576
# 5 -0.002233 0.004310 0.000622 0.000000 0.031857 0.000000
# 6 0.000000 0.000000 0.000000 -0.014576 0.000000 0.032006
#
#
# Mechanical properties :
#
#
# Convention : Reuss Voigt Hill
#
# Bulk Modulus (GPa) = 61.97582 66.51367 64.24474
# Shear Modulus (GPa) = 24.84623 29.48080 27.16351
#
# Velocity S-wave (km/s) = 3.34102 3.63930 3.49334
# Velocity P-wave (km/s) = 6.53654 6.89501 6.71817
#
# Compressibility (1/GPa) = 0.01613533
#
# Stress axis : x y z
#
# Youngs Moduli (GPa) = 89.92607 56.59346 79.06949
#
# Poissons Ratio (x) = 0.11247 0.25110
# Poissons Ratio (y) = 0.17871 0.59207
# Poissons Ratio (z) = 0.28558 0.42377
#
# Static dielectric constant tensor:
#      x y z
#    x 4.138390 0.000000 -0.095390 
#    y 0.000000 4.117830 0.000000 
#    z -0.095390 0.000000 3.986880 
# 
# 
# High freq. dielectric constant tensor:
#      x y z
#    x 1.882530 0.000000 -0.007010 
#    y 0.000000 1.877450 0.000000 
#    z -0.007010 0.000000 1.873420 
# 
# From -- ./inp_files/37733.got.cif
#   From: 2010.06.25/outbox.cif.g09.slc.cpg/sg13_19_cif.got.tgz:37733.got - 2010.06.28 04:50:58.
