data_PCOD8119543
_publ_section_title
;
Structure prediction by ZEFSAII (Michael W. Deem and Ramdas Pophale) SiO2 
 PCOD8119543
Probable space group: P 2/C
;
_chemical_formula_sum "Si O2"
_cell_formula_units_Z 24
_cell_length_a 14.341799
_cell_length_b 9.383791
_cell_length_c 13.744908
_cell_angle_alpha 90.000000
_cell_angle_beta 36.862015
_cell_angle_gamma 90.000000
_cell_volume 1109.673892
_symmetry_space_group_name_H-M "P 2/C"
_symmetry_group_IT_number 13
_symmetry_cell_setting 'monoclinic'
loop_
_space_group_symop_operation_xyz
x,y,z
-x,y,1/2-z
-x,-y,-z
x,-y,1/2+z
loop_
_atom_site_type_symbol
_atom_site_label
_atom_site_fract_x
_atom_site_fract_y
_atom_site_fract_z
Si Si1 0.858626 0.912420 0.665763
Si Si2 0.144830 0.346705 0.192548
Si Si3 0.669054 0.562873 0.343859
Si Si4 0.800077 0.823805 0.322560
Si Si5 0.324962 0.535893 0.378692
Si Si6 0.847027 0.758143 0.490783
O O1 0.900149 0.802898 0.718906
O O2 0.771308 0.826644 0.652028
O O3 0.752544 0.031987 0.805596
O O4 0.000000 0.000000 0.500000
O O5 0.194679 0.455566 0.235921
O O6 0.000000 0.402463 0.250000
O O7 0.284304 0.346414 0.995713
O O8 0.500000 0.500000 0.500000
O O9 0.671376 0.706608 0.404659
O O10 0.698834 0.604592 0.207142
O O11 0.800502 0.856052 0.437520
O O12 0.966891 0.758802 0.150518
O O13 0.500000 0.483493 0.250000
O O14 0.212799 0.399733 0.480240
#
# Coordination Sequence:
#
# PCOD8119543 Si02
#       6
#     4   4   4   4   4   4
#     4  10  24  41  64  97 138 179 215 286 346 410
#     4  12  26  41  69 105 137 175 234 287 338 411
#     4  12  24  44  68 100 139 178 230 287 344 401
#     4  10  22  39  65  94 131 174 225 274 337 408
#     4  12  24  41  70  99 137 177 227 290 345 396
#     4  10  20  39  65  94 131 173 224 272 344 402
#
# _framework density 21.627973000000001
#
# number of rings (size 3 to 8) (size 9 to 14) (size 15 to 20)
#    0.000    1.000    5.000    1.000    9.333    1.333 
#    0.000    0.833    0.000    0.000    0.000    0.000 
#    0.000    0.000    0.000    0.000    0.000    0.000 
#
# Total GULP energy -297421.770828 kJ/mol
# GULP energy per Si atom -12392.573784 kJ/mol
# Density = 2.157875 g / cm^3
# Si number density = 21.627973 Si / 1000 Ang^3
#
#
#
# Elastic Constant Matrix: (Units=GPa)
#
#
# Indices 1 2 3 4 5 6 
#
# 1 133.3306 56.2879 50.1812 0.0000 22.8167 0.0000
# 2 56.2879 111.0482 38.6235 0.0000 10.0359 0.0000
# 3 50.1812 38.6235 80.4330 0.0000 23.9131 0.0000
# 4 0.0000 0.0000 0.0000 25.4699 0.0000 9.7648
# 5 22.8167 10.0359 23.9131 0.0000 44.6079 0.0000
# 6 0.0000 0.0000 0.0000 9.7648 0.0000 27.7084
#
#
#
# Elastic Compliance Matrix: (Units=1/GPa)
#
#
# Indices 1 2 3 4 5 6 
#
# 1 0.011244 -0.003952 -0.004368 0.000000 -0.002521 0.000000
# 2 -0.003952 0.012206 -0.003783 0.000000 0.001303 0.000000
# 3 -0.004368 -0.003783 0.019101 0.000000 -0.007155 0.000000
# 4 0.000000 0.000000 0.000000 0.045395 0.000000 -0.015998
# 5 -0.002521 0.001303 -0.007155 0.000000 0.027249 0.000000
# 6 0.000000 0.000000 0.000000 -0.015998 0.000000 0.041728
#
#
# Mechanical properties :
#
#
# Convention : Reuss Voigt Hill
#
# Bulk Modulus (GPa) = 54.50960 68.33299 61.42130
# Shear Modulus (GPa) = 26.70289 31.53853 29.12071
#
# Velocity S-wave (km/s) = 3.51756 3.82282 3.67336
# Velocity P-wave (km/s) = 6.46186 7.15182 6.81558
#
# Compressibility (1/GPa) = 0.01834539
#
# Stress axis : x y z
#
# Youngs Moduli (GPa) = 88.93710 81.92361 52.35227
#
# Poissons Ratio (x) = 0.32379 0.22866
# Poissons Ratio (y) = 0.35151 0.19806
# Poissons Ratio (z) = 0.38844 0.30993
#
# Static dielectric constant tensor:
#      x y z
#    x 4.286290 0.000000 0.478570 
#    y 0.000000 3.941450 0.000000 
#    z 0.478570 0.000000 4.047570 
# 
# 
# High freq. dielectric constant tensor:
#      x y z
#    x 1.862340 0.000000 0.033330 
#    y 0.000000 1.831970 0.000000 
#    z 0.033330 0.000000 1.836050 
# 
# From -- ./inp_files/52883.got.cif
#   From: 2010.06.25/outbox.cif.g09.slc.cpg/sg13_27_cif.got.tgz:52883.got - 2010.06.28 04:50:58.
