data_PCOD8120877
_publ_section_title
;
Structure prediction by ZEFSAII (Michael W. Deem and Ramdas Pophale) SiO2 
 PCOD8120877
Probable space group: P 2/C
;
_chemical_formula_sum "Si O2"
_cell_formula_units_Z 30
_cell_length_a 26.476676
_cell_length_b 8.291276
_cell_length_c 14.048295
_cell_angle_alpha 90.000000
_cell_angle_beta 27.919410
_cell_angle_gamma 90.000000
_cell_volume 1443.999112
_symmetry_space_group_name_H-M "P 2/C"
_symmetry_group_IT_number 13
_symmetry_cell_setting 'monoclinic'
loop_
_space_group_symop_operation_xyz
x,y,z
-x,y,1/2-z
-x,-y,-z
x,-y,1/2+z
loop_
_atom_site_type_symbol
_atom_site_label
_atom_site_fract_x
_atom_site_fract_y
_atom_site_fract_z
Si Si1 0.500000 0.615478 0.750000
Si Si2 0.975343 0.136744 0.684773
Si Si3 0.522025 0.881884 0.376563
Si Si4 0.663937 0.139847 0.060759
Si Si5 0.367099 0.362761 0.058339
Si Si6 0.768331 0.654039 0.537101
Si Si7 0.145534 0.072710 0.260702
Si Si8 0.701822 0.662292 0.043835
O O1 0.393927 0.719329 0.901953
O O2 0.538843 0.501981 0.596502
O O3 0.893489 0.288893 0.826755
O O4 0.000000 0.075527 0.750000
O O5 0.089010 0.171513 0.441749
O O6 0.933831 0.991731 0.688502
O O7 0.414291 0.812449 0.507785
O O8 0.500000 0.000000 0.500000
O O9 0.582984 0.989572 0.197117
O O10 0.597115 0.726304 0.277569
O O11 0.691605 0.206112 0.121018
O O12 0.776857 0.072809 0.827776
O O13 0.269421 0.394877 0.294100
O O14 0.324636 0.363179 0.022536
O O15 0.755161 0.498618 0.493854
O O16 0.211944 0.198025 0.088185
#
# Coordination Sequence:
#
# PCOD8120877 Si02
#       8
#     2   4   4   4   4   4   4   4
#     4  12  24  38  60  94 142 182 214 254 322 396
#     4  10  21  45  69  91 116 164 217 275 340 390
#     4  11  22  37  60  87 129 177 220 258 309 375
#     4  10  22  39  59  95 129 169 217 258 314 392
#     4  12  23  40  61  93 137 181 213 265 314 388
#     4  11  23  41  64  92 130 170 217 266 333 383
#     4   9  22  42  66  92 127 161 210 282 330 383
#     4  11  23  42  58  97 132 169 218 266 325 392
#
# _framework density 20.775635999999999
#
# number of rings (size 3 to 8) (size 9 to 14) (size 15 to 20)
#    0.000    1.333    4.000    0.800    5.600    1.600 
#    2.400    0.667    0.000    0.000    0.000    0.000 
#    0.000    0.000    0.000    0.000    0.000    0.000 
#
# Total GULP energy -371691.498213 kJ/mol
# GULP energy per Si atom -12389.716607 kJ/mol
# Density = 2.072835 g / cm^3
# Si number density = 20.775636 Si / 1000 Ang^3
#
#
#
# Elastic Constant Matrix: (Units=GPa)
#
#
# Indices 1 2 3 4 5 6 
#
# 1 106.1534 47.4075 56.1003 0.0000 9.1440 0.0000
# 2 47.4075 103.5806 48.5391 0.0000 1.3004 0.0000
# 3 56.1003 48.5391 123.9320 0.0000 14.2050 0.0000
# 4 0.0000 0.0000 0.0000 27.1226 0.0000 0.9393
# 5 9.1440 1.3004 14.2050 0.0000 24.1916 0.0000
# 6 0.0000 0.0000 0.0000 0.9393 0.0000 28.2046
#
#
#
# Elastic Compliance Matrix: (Units=1/GPa)
#
#
# Indices 1 2 3 4 5 6 
#
# 1 0.013813 -0.004279 -0.004294 0.000000 -0.002470 0.000000
# 2 -0.004279 0.013264 -0.003604 0.000000 0.003021 0.000000
# 3 -0.004294 -0.003604 0.012025 0.000000 -0.005244 0.000000
# 4 0.000000 0.000000 0.000000 0.036912 0.000000 -0.001229
# 5 -0.002470 0.003021 -0.005244 0.000000 0.045187 0.000000
# 6 0.000000 0.000000 0.000000 -0.001229 0.000000 0.035496
#
#
# Mechanical properties :
#
#
# Convention : Reuss Voigt Hill
#
# Bulk Modulus (GPa) = 67.80389 70.86220 69.33305
# Shear Modulus (GPa) = 26.88631 28.01169 27.44900
#
# Velocity S-wave (km/s) = 3.60130 3.67590 3.63879
# Velocity P-wave (km/s) = 7.07104 7.22486 7.14837
#
# Compressibility (1/GPa) = 0.01474842
#
# Stress axis : x y z
#
# Youngs Moduli (GPa) = 72.39406 75.39331 83.15766
#
# Poissons Ratio (x) = 0.32261 0.35707
# Poissons Ratio (y) = 0.30977 0.29971
# Poissons Ratio (z) = 0.31085 0.27173
#
# Static dielectric constant tensor:
#      x y z
#    x 3.579550 0.000000 -0.112120 
#    y 0.000000 3.988460 0.000000 
#    z -0.112120 0.000000 4.267030 
# 
# 
# High freq. dielectric constant tensor:
#      x y z
#    x 1.797150 0.000000 -0.009390 
#    y 0.000000 1.814700 0.000000 
#    z -0.009390 0.000000 1.816440 
# 
# From -- ./inp_files/59405.got.cif
#   From: 2010.06.25/outbox.cif.g09.slc.cpg/sg13_30_cif.got.tgz:59405.got - 2010.06.28 04:50:58.
