data_PCOD8120446
_publ_section_title
;
Structure prediction by ZEFSAII (Michael W. Deem and Ramdas Pophale) SiO2 
 PCOD8120446
Probable space group: P 2/C
;
_chemical_formula_sum "Si O2"
_cell_formula_units_Z 30
_cell_length_a 17.888736
_cell_length_b 6.198846
_cell_length_c 14.048327
_cell_angle_alpha 90.000000
_cell_angle_beta 118.976914
_cell_angle_gamma 90.000000
_cell_volume 1362.797475
_symmetry_space_group_name_H-M "P 2/C"
_symmetry_group_IT_number 13
_symmetry_cell_setting 'monoclinic'
loop_
_space_group_symop_operation_xyz
x,y,z
-x,y,1/2-z
-x,-y,-z
x,-y,1/2+z
loop_
_atom_site_type_symbol
_atom_site_label
_atom_site_fract_x
_atom_site_fract_y
_atom_site_fract_z
Si Si1 0.500000 0.850183 0.750000
Si Si2 0.517402 0.844977 0.098585
Si Si3 0.752557 0.468930 0.350214
Si Si4 0.305738 0.717641 0.357785
Si Si5 0.041232 0.639232 0.672201
Si Si6 0.089748 0.289307 0.560286
Si Si7 0.380858 0.490550 0.079268
Si Si8 0.194916 0.079399 0.217688
O O1 0.560291 0.705620 0.851972
O O2 0.452844 0.009968 0.794081
O O3 0.597506 0.699745 0.121106
O O4 0.435989 0.690871 0.072667
O O5 0.500000 0.000000 0.000000
O O6 0.752389 0.575045 0.245505
O O7 0.843516 0.543207 0.449428
O O8 0.674080 0.561475 0.363327
O O9 0.749767 0.213150 0.326983
O O10 0.310269 0.608000 0.463986
O O11 0.261847 0.956527 0.330266
O O12 0.050413 0.402336 0.630504
O O13 0.131989 0.763714 0.738549
O O14 0.000000 0.613933 0.750000
O O15 0.980509 0.773210 0.562234
O O16 0.137265 0.074243 0.618843
#
# Coordination Sequence:
#
# PCOD8120446 Si02
#       8
#     2   4   4   4   4   4   4   4
#     4  12  24  42  68  92 124 176 224 276 342 402
#     4  12  26  45  66  96 132 177 223 278 340 409
#     4  10  23  41  63  91 133 171 220 277 332 400
#     4  11  24  42  64  93 132 168 223 283 332 395
#     4  10  21  39  66  96 130 172 218 270 336 409
#     4   9  21  41  61  92 134 171 211 276 332 393
#     4  12  26  41  66  96 128 177 228 282 340 402
#     4  10  22  41  65  95 130 178 217 276 340 396
#
# _framework density 22.013542000000001
#
# number of rings (size 3 to 8) (size 9 to 14) (size 15 to 20)
#    0.000    1.333    1.333    3.600    3.733    5.867 
#    0.000    0.000    0.000    0.000    0.000    0.000 
#    0.000    0.000    0.000    0.000    0.000    0.000 
#
# Total GULP energy -371809.581050 kJ/mol
# GULP energy per Si atom -12393.652702 kJ/mol
# Density = 2.196344 g / cm^3
# Si number density = 22.013542 Si / 1000 Ang^3
#
#
#
# Elastic Constant Matrix: (Units=GPa)
#
#
# Indices 1 2 3 4 5 6 
#
# 1 106.7812 38.4913 32.1590 0.0000 -3.6911 0.0000
# 2 38.4913 99.2318 36.4402 0.0000 -6.3390 0.0000
# 3 32.1590 36.4402 99.4624 0.0000 -5.4076 0.0000
# 4 0.0000 0.0000 0.0000 39.0116 0.0000 3.1973
# 5 -3.6911 -6.3390 -5.4076 0.0000 33.8816 0.0000
# 6 0.0000 0.0000 0.0000 3.1973 0.0000 38.8256
#
#
#
# Elastic Compliance Matrix: (Units=1/GPa)
#
#
# Indices 1 2 3 4 5 6 
#
# 1 0.011355 -0.003521 -0.002370 0.000000 0.000200 0.000000
# 2 -0.003521 0.012813 -0.003477 0.000000 0.001459 0.000000
# 3 -0.002370 -0.003477 0.012150 0.000000 0.001031 0.000000
# 4 0.000000 0.000000 0.000000 0.025808 0.000000 -0.002125
# 5 0.000200 0.001459 0.001031 0.000000 0.029974 0.000000
# 6 0.000000 0.000000 0.000000 -0.002125 0.000000 0.025931
#
#
# Mechanical properties :
#
#
# Convention : Reuss Voigt Hill
#
# Bulk Modulus (GPa) = 56.87671 57.73961 57.30816
# Shear Modulus (GPa) = 35.05619 35.56941 35.31280
#
# Velocity S-wave (km/s) = 3.99492 4.02406 4.00952
# Velocity P-wave (km/s) = 6.86822 6.91931 6.89381
#
# Compressibility (1/GPa) = 0.01758189
#
# Stress axis : x y z
#
# Youngs Moduli (GPa) = 88.06633 78.04477 82.30308
#
# Poissons Ratio (x) = 0.27482 0.19509
# Poissons Ratio (y) = 0.31011 0.28613
# Poissons Ratio (z) = 0.20876 0.27133
#
# Static dielectric constant tensor:
#      x y z
#    x 4.227460 0.000000 0.304240 
#    y 0.000000 4.033800 0.000000 
#    z 0.304240 0.000000 4.211890 
# 
# 
# High freq. dielectric constant tensor:
#      x y z
#    x 1.865590 0.000000 0.013130 
#    y 0.000000 1.869350 0.000000 
#    z 0.013130 0.000000 1.864190 
# 
# From -- ./inp_files/54739.got.cif
#   From: 2010.06.25/outbox.cif.g09.slc.cpg/sg13_28_cif.got.tgz:54739.got - 2010.06.28 04:50:58.
