data_PCOD8120221
_publ_section_title
;
Structure prediction by ZEFSAII (Michael W. Deem and Ramdas Pophale) SiO2 
 PCOD8120221
Probable space group: P 2/C
;
_chemical_formula_sum "Si O2"
_cell_formula_units_Z 28
_cell_length_a 14.971161
_cell_length_b 8.907910
_cell_length_c 19.551986
_cell_angle_alpha 90.000000
_cell_angle_beta 151.535038
_cell_angle_gamma 90.000000
_cell_volume 1242.783789
_symmetry_space_group_name_H-M "P 2/C"
_symmetry_group_IT_number 13
_symmetry_cell_setting 'monoclinic'
loop_
_space_group_symop_operation_xyz
x,y,z
-x,y,1/2-z
-x,-y,-z
x,-y,1/2+z
loop_
_atom_site_type_symbol
_atom_site_label
_atom_site_fract_x
_atom_site_fract_y
_atom_site_fract_z
Si Si1 0.863972 0.902062 0.838102
Si Si2 0.696656 0.685825 0.625244
Si Si3 0.190241 0.676912 0.089279
Si Si4 0.573343 0.543742 0.153163
Si Si5 0.797481 0.900129 0.943587
Si Si6 0.000000 0.519389 0.750000
Si Si7 0.265936 0.577119 0.536929
Si Si8 0.500000 0.881484 0.250000
O O1 0.735925 0.848324 0.687685
O O2 0.745494 0.930370 0.827701
O O3 0.003316 0.771780 0.958893
O O4 0.985758 0.048429 0.897367
O O5 0.552088 0.681489 0.463379
O O6 0.600043 0.584385 0.616601
O O7 0.895814 0.625327 0.734203
O O8 0.218624 0.596871 0.182452
O O9 0.180444 0.557986 0.022360
O O10 0.382256 0.774515 0.220502
O O11 0.476960 0.465868 0.155563
O O12 0.752304 0.731582 0.934480
O O13 0.656885 0.009915 0.891375
O O14 0.854554 0.410583 0.613848
#
# Coordination Sequence:
#
# PCOD8120221 Si02
#       8
#     4   4   4   4   4   2   4   2
#     4  10  22  41  60  90 124 166 202 246 307 370
#     4  10  21  38  59  90 124 158 197 254 306 355
#     4  11  20  37  65  91 114 157 213 249 297 360
#     4  10  22  35  61  97 119 151 209 258 298 352
#     4  10  24  37  60  92 128 159 204 254 305 369
#     4  10  22  38  60  90 124 150 210 258 298 356
#     4  11  21  38  62  93 118 160 199 264 301 356
#     4  10  22  38  56  90 124 156 202 252 302 372
#
# _framework density 22.530063999999999
#
# number of rings (size 3 to 8) (size 9 to 14) (size 15 to 20)
#    0.000    1.714    2.857    0.857    6.000    1.143 
#    0.000    2.143    0.000    7.714    0.000    0.000 
#    0.000    0.000    0.000    0.000    0.000    0.000 
#
# Total GULP energy -346866.879429 kJ/mol
# GULP energy per Si atom -12388.102837 kJ/mol
# Density = 2.247878 g / cm^3
# Si number density = 22.530064 Si / 1000 Ang^3
#
#
#
# Elastic Constant Matrix: (Units=GPa)
#
#
# Indices 1 2 3 4 5 6 
#
# 1 58.2317 23.3511 6.8445 0.0000 -5.7058 0.0000
# 2 23.3511 92.3375 13.5423 0.0000 -6.7118 0.0000
# 3 6.8445 13.5423 58.9769 0.0000 -9.6634 0.0000
# 4 0.0000 0.0000 0.0000 27.8266 0.0000 27.0730
# 5 -5.7058 -6.7118 -9.6634 0.0000 20.9812 0.0000
# 6 0.0000 0.0000 0.0000 27.0730 0.0000 -125.4151
#
#
#
# Elastic Compliance Matrix: (Units=1/GPa)
#
#
# Indices 1 2 3 4 5 6 
#
# 1 0.019422 -0.004563 -0.000627 0.000000 0.003533 0.000000
# 2 -0.004563 0.012411 -0.002026 0.000000 0.001796 0.000000
# 3 -0.000627 -0.002026 0.018777 0.000000 0.007829 0.000000
# 4 0.000000 0.000000 0.000000 0.029699 0.000000 0.006411
# 5 0.003533 0.001796 0.007829 0.000000 0.052803 0.000000
# 6 0.000000 0.000000 0.000000 0.006411 0.000000 -0.006590
#
#
# Mechanical properties :
#
#
# Convention : Reuss Voigt Hill
#
# Bulk Modulus (GPa) = 27.64117 33.00244 30.32180
# Shear Modulus (GPa) = 32.67640 -4.26760 14.20440
#
# Velocity S-wave (km/s) = 3.81247 -1.37779 2.51363
# Velocity P-wave (km/s) = 5.62807 3.48553 4.68103
#
# Compressibility (1/GPa) = 0.03617792
#
# Stress axis : x y z
#
# Youngs Moduli (GPa) = 51.48675 80.57071 53.25762
#
# Poissons Ratio (x) = 0.36763 0.03341
# Poissons Ratio (y) = 0.23493 0.10790
# Poissons Ratio (z) = 0.03230 0.16324
#
# Static dielectric constant tensor:
#      x y z
#    x 4.133690 0.000000 -0.052010 
#    y 0.000000 4.068330 0.000000 
#    z -0.052010 0.000000 4.347540 
# 
# 
# High freq. dielectric constant tensor:
#      x y z
#    x 1.886260 0.000000 0.011500 
#    y 0.000000 1.874050 0.000000 
#    z 0.011500 0.000000 1.881840 
# 
# From -- ./inp_files/80047.got.cif
#   From: 2010.06.25/outbox.cif.g09.slc.cpg/sg13_41_cif.got.tgz:80047.got - 2010.06.28 04:50:58.
