data_PCOD8120657
_publ_section_title
;
Structure prediction by ZEFSAII (Michael W. Deem and Ramdas Pophale) SiO2 
 PCOD8120657
Probable space group: P 2/C
;
_chemical_formula_sum "Si O2"
_cell_formula_units_Z 16
_cell_length_a 5.225135
_cell_length_b 10.396358
_cell_length_c 13.336708
_cell_angle_alpha 90.000000
_cell_angle_beta 95.529210
_cell_angle_gamma 90.000000
_cell_volume 721.110777
_symmetry_space_group_name_H-M "P 2/C"
_symmetry_group_IT_number 13
_symmetry_cell_setting 'monoclinic'
loop_
_space_group_symop_operation_xyz
x,y,z
-x,y,1/2-z
-x,-y,-z
x,-y,1/2+z
loop_
_atom_site_type_symbol
_atom_site_label
_atom_site_fract_x
_atom_site_fract_y
_atom_site_fract_z
Si Si1 0.000000 0.971505 0.750000
Si Si2 0.344186 0.601314 0.615610
Si Si3 0.446006 0.674841 0.075782
Si Si4 0.840475 0.739132 0.620264
Si Si5 0.500000 0.866343 0.250000
O O1 0.240927 0.053567 0.718677
O O2 0.883071 0.885486 0.655903
O O3 0.332676 0.627133 0.493837
O O4 0.346126 0.448329 0.635140
O O5 0.096879 0.661748 0.658920
O O6 0.602767 0.669293 0.669335
O O7 0.559215 0.780069 0.155039
O O8 0.213747 0.737398 0.001391
#
# Coordination Sequence:
#
# PCOD8120657 Si02
#       5
#     2   4   4   4   2
#     4  12  28  42  56  92 124 172 218 230 288 368
#     4   9  20  40  68  94 116 151 202 252 327 356
#     4   9  23  40  66  93 124 151 201 258 314 358
#     4  10  21  41  64  86 125 157 202 252 296 363
#     4  12  28  40  60  90 126 164 210 246 294 358
#
# _framework density 22.187992999999999
#
# number of rings (size 3 to 8) (size 9 to 14) (size 15 to 20)
#    1.500    0.500    0.000    2.250    3.500    4.000 
#    0.000    0.000    0.000    0.000    0.000    0.000 
#    0.000    0.000    0.000    0.000    0.000    0.000 
#
# Total GULP energy -198315.839592 kJ/mol
# GULP energy per Si atom -12394.739974 kJ/mol
# Density = 2.213749 g / cm^3
# Si number density = 22.187993 Si / 1000 Ang^3
#
#
#
# Elastic Constant Matrix: (Units=GPa)
#
#
# Indices 1 2 3 4 5 6 
#
# 1 138.3923 44.6972 27.3832 0.0000 8.3329 0.0000
# 2 44.6972 140.0921 42.9176 0.0000 7.0106 0.0000
# 3 27.3832 42.9176 64.6759 0.0000 25.3763 0.0000
# 4 0.0000 0.0000 0.0000 19.7843 0.0000 1.0810
# 5 8.3329 7.0106 25.3763 0.0000 28.7246 0.0000
# 6 0.0000 0.0000 0.0000 1.0810 0.0000 27.3766
#
#
#
# Elastic Compliance Matrix: (Units=1/GPa)
#
#
# Indices 1 2 3 4 5 6 
#
# 1 0.008299 -0.001969 -0.002221 0.000000 0.000035 0.000000
# 2 -0.001969 0.009860 -0.007636 0.000000 0.004911 0.000000
# 3 -0.002221 -0.007636 0.031353 0.000000 -0.025190 0.000000
# 4 0.000000 0.000000 0.000000 0.050654 0.000000 -0.002000
# 5 0.000035 0.004911 -0.025190 0.000000 0.055859 0.000000
# 6 0.000000 0.000000 0.000000 -0.002000 0.000000 0.036606
#
#
# Mechanical properties :
#
#
# Convention : Reuss Voigt Hill
#
# Bulk Modulus (GPa) = 38.66977 63.68404 51.17691
# Shear Modulus (GPa) = 22.23184 30.38794 26.30989
#
# Velocity S-wave (km/s) = 3.16883 3.70478 3.44724
# Velocity P-wave (km/s) = 5.55471 6.86038 6.24178
#
# Compressibility (1/GPa) = 0.02585999
#
# Stress axis : x y z
#
# Youngs Moduli (GPa) = 120.49385 101.41974 31.89537
#
# Poissons Ratio (x) = 0.19973 0.07083
# Poissons Ratio (y) = 0.23729 0.24355
# Poissons Ratio (z) = 0.26758 0.77442
#
# Static dielectric constant tensor:
#      x y z
#    x 3.720480 0.000000 0.076400 
#    y 0.000000 3.878920 0.000000 
#    z 0.076400 0.000000 3.755120 
# 
# 
# High freq. dielectric constant tensor:
#      x y z
#    x 1.865430 0.000000 0.007470 
#    y 0.000000 1.867480 0.000000 
#    z 0.007470 0.000000 1.872290 
# 
# From -- ./inp_files/43299.got.cif
#   From: 2010.06.25/outbox.cif.g09.slc.cpg/sg13_22_cif.got.tgz:43299.got - 2010.06.28 04:50:58.
