data_PCOD8120599
_publ_section_title
;
Structure prediction by ZEFSAII (Michael W. Deem and Ramdas Pophale) SiO2 
 PCOD8120599
Probable space group: P 2/C
;
_chemical_formula_sum "Si O2"
_cell_formula_units_Z 32
_cell_length_a 11.917658
_cell_length_b 13.863926
_cell_length_c 18.205861
_cell_angle_alpha 90.000000
_cell_angle_beta 29.879470
_cell_angle_gamma 90.000000
_cell_volume 1498.553041
_symmetry_space_group_name_H-M "P 2/C"
_symmetry_group_IT_number 13
_symmetry_cell_setting 'monoclinic'
loop_
_space_group_symop_operation_xyz
x,y,z
-x,y,1/2-z
-x,-y,-z
x,-y,1/2+z
loop_
_atom_site_type_symbol
_atom_site_label
_atom_site_fract_x
_atom_site_fract_y
_atom_site_fract_z
Si Si1 0.754982 0.874617 0.807022
Si Si2 0.577306 0.667829 0.072929
Si Si3 0.865494 0.754967 0.400745
Si Si4 0.732497 0.880848 0.982597
Si Si5 0.099624 0.371556 0.884517
Si Si6 0.570107 0.927248 0.628715
Si Si7 0.018214 0.414900 0.392161
Si Si8 0.552311 0.665944 0.923130
O O1 0.717605 0.924501 0.907901
O O2 0.645717 0.933719 0.802508
O O3 0.642521 0.772462 0.877479
O O4 0.012883 0.854565 0.642481
O O5 0.372011 0.628588 0.239358
O O6 0.586572 0.783983 0.075469
O O7 0.511191 0.630474 0.029165
O O8 0.817235 0.619668 0.953793
O O9 0.756518 0.853800 0.491957
O O10 0.681160 0.671008 0.489650
O O11 0.000000 0.780033 0.250000
O O12 0.031788 0.715185 0.368817
O O13 0.661083 0.963731 0.079973
O O14 0.993937 0.471166 0.916351
O O15 0.998573 0.354351 0.022767
O O16 0.500000 0.894011 0.750000
O O17 0.266415 0.401209 0.218796
#
# Coordination Sequence:
#
# PCOD8120599 Si02
#       8
#     4   4   4   4   4   4   4   4
#     4   9  20  40  63  95 124 175 214 257 327 386
#     4  11  22  44  69  98 126 171 223 273 321 385
#     4  11  25  45  65  94 136 177 219 268 330 390
#     4  10  21  40  69  91 131 169 220 270 319 385
#     4  11  27  43  64  98 133 177 215 266 336 392
#     4  11  26  40  64 102 131 173 219 267 328 386
#     4  11  25  43  66  97 133 170 216 272 334 391
#     4  10  21  42  69  93 126 169 221 268 320 389
#
# _framework density 21.353933000000001
#
# number of rings (size 3 to 8) (size 9 to 14) (size 15 to 20)
#    0.000    1.500    2.500    1.125    7.000    4.000 
#    0.000    0.000    0.000    0.000    0.000    0.000 
#    0.000    0.000    0.000    0.000    0.000    0.000 
#
# Total GULP energy -396811.178627 kJ/mol
# GULP energy per Si atom -12400.349332 kJ/mol
# Density = 2.130533 g / cm^3
# Si number density = 21.353933 Si / 1000 Ang^3
#
#
#
# Elastic Constant Matrix: (Units=GPa)
#
#
# Indices 1 2 3 4 5 6 
#
# 1 77.8291 21.2172 38.3954 0.0000 -3.9724 0.0000
# 2 21.2172 58.2692 26.9110 0.0000 8.5294 0.0000
# 3 38.3954 26.9110 94.2027 0.0000 1.9060 0.0000
# 4 0.0000 0.0000 0.0000 66.2219 0.0000 -13.3581
# 5 -3.9724 8.5294 1.9060 0.0000 36.1707 0.0000
# 6 0.0000 0.0000 0.0000 -13.3581 0.0000 31.8488
#
#
#
# Elastic Compliance Matrix: (Units=1/GPa)
#
#
# Indices 1 2 3 4 5 6 
#
# 1 0.016966 -0.003927 -0.005856 0.000000 0.003098 0.000000
# 2 -0.003927 0.021394 -0.004405 0.000000 -0.005244 0.000000
# 3 -0.005856 -0.004405 0.014268 0.000000 -0.000356 0.000000
# 4 0.000000 0.000000 0.000000 0.016496 0.000000 0.006919
# 5 0.003098 -0.005244 -0.000356 0.000000 0.029242 0.000000
# 6 0.000000 0.000000 0.000000 0.006919 0.000000 0.034300
#
#
# Mechanical properties :
#
#
# Convention : Reuss Voigt Hill
#
# Bulk Modulus (GPa) = 41.23355 44.81647 43.02501
# Shear Modulus (GPa) = 29.56376 36.43346 32.99861
#
# Velocity S-wave (km/s) = 3.72488 4.13506 3.93532
# Velocity P-wave (km/s) = 6.15233 6.62052 6.39071
#
# Compressibility (1/GPa) = 0.02425209
#
# Stress axis : x y z
#
# Youngs Moduli (GPa) = 58.94064 46.74313 70.08781
#
# Poissons Ratio (x) = 0.18355 0.41044
# Poissons Ratio (y) = 0.23144 0.30873
# Poissons Ratio (z) = 0.34516 0.20590
#
# Static dielectric constant tensor:
#      x y z
#    x 4.359600 0.000000 -0.234110 
#    y 0.000000 3.578240 0.000000 
#    z -0.234110 0.000000 4.091940 
# 
# 
# High freq. dielectric constant tensor:
#      x y z
#    x 1.842890 0.000000 -0.004050 
#    y 0.000000 1.825390 0.000000 
#    z -0.004050 0.000000 1.843230 
# 
# From -- ./inp_files/66902.got.cif
#   From: 2010.06.25/outbox.cif.g09.slc.cpg/sg13_34_cif.got.tgz:66902.got - 2010.06.28 04:50:58.
