data_PCOD8120267
_publ_section_title
;
Structure prediction by ZEFSAII (Michael W. Deem and Ramdas Pophale) SiO2 
 PCOD8120267
Probable space group: P 2/C
;
_chemical_formula_sum "Si O2"
_cell_formula_units_Z 16
_cell_length_a 8.140361
_cell_length_b 18.463291
_cell_length_c 9.435000
_cell_angle_alpha 90.000000
_cell_angle_beta 31.516423
_cell_angle_gamma 90.000000
_cell_volume 741.280986
_symmetry_space_group_name_H-M "P 2/C"
_symmetry_group_IT_number 13
_symmetry_cell_setting 'monoclinic'
loop_
_space_group_symop_operation_xyz
x,y,z
-x,y,1/2-z
-x,-y,-z
x,-y,1/2+z
loop_
_atom_site_type_symbol
_atom_site_label
_atom_site_fract_x
_atom_site_fract_y
_atom_site_fract_z
Si Si1 0.152297 0.941346 0.486378
Si Si2 0.214634 0.648911 0.850329
Si Si3 0.418576 0.571963 0.145768
Si Si4 0.852348 0.219883 0.511034
O O1 0.500000 0.969450 0.250000
O O2 0.145202 0.860663 0.421717
O O3 0.000000 0.000000 0.500000
O O4 0.000000 0.939605 0.750000
O O5 0.500000 0.648545 0.750000
O O6 0.357230 0.632953 0.589397
O O7 0.046955 0.727061 0.970387
O O8 0.952987 0.590437 0.093148
O O9 0.500000 0.562750 0.250000
O O10 0.500000 0.500000 0.000000
O O11 0.000000 0.215564 0.250000
O O12 0.500000 0.250142 0.750000
#
# Coordination Sequence:
#
# PCOD8120267 Si02
#       4
#     4   4   4   4
#     4  10  21  38  62  91 125 164 207 254 305 365
#     4  12  25  42  65  96 125 158 207 260 307 362
#     4  12  26  46  68  91 124 165 204 251 309 371
#     4  10  21  40  63  88 123 167 207 247 306 370
#
# _framework density 21.584258999999999
#
# number of rings (size 3 to 8) (size 9 to 14) (size 15 to 20)
#    0.000    1.000    0.000    7.500    0.000    3.000 
#    0.000    3.750    0.000    0.000    0.000    0.000 
#    0.000    0.000    0.000    0.000    0.000    0.000 
#
# Total GULP energy -198403.450224 kJ/mol
# GULP energy per Si atom -12400.215639 kJ/mol
# Density = 2.153513 g / cm^3
# Si number density = 21.584259 Si / 1000 Ang^3
#
#
#
# Elastic Constant Matrix: (Units=GPa)
#
#
# Indices 1 2 3 4 5 6 
#
# 1 139.4730 95.2149 72.4530 0.0000 -21.4994 0.0000
# 2 95.2149 141.4127 55.1583 0.0000 -24.8146 0.0000
# 3 72.4530 55.1583 172.5372 0.0000 -23.5050 0.0000
# 4 0.0000 0.0000 0.0000 38.4311 0.0000 -3.2784
# 5 -21.4994 -24.8146 -23.5050 0.0000 46.2235 0.0000
# 6 0.0000 0.0000 0.0000 -3.2784 0.0000 39.0971
#
#
#
# Elastic Compliance Matrix: (Units=1/GPa)
#
#
# Indices 1 2 3 4 5 6 
#
# 1 0.014915 -0.008602 -0.003435 0.000000 0.000572 0.000000
# 2 -0.008602 0.013521 -0.000286 0.000000 0.003112 0.000000
# 3 -0.003435 -0.000286 0.007619 0.000000 0.002123 0.000000
# 4 0.000000 0.000000 0.000000 0.026208 0.000000 0.002198
# 5 0.000572 0.003112 0.002123 0.000000 0.024650 0.000000
# 6 0.000000 0.000000 0.000000 0.002198 0.000000 0.025762
#
#
# Mechanical properties :
#
#
# Convention : Reuss Voigt Hill
#
# Bulk Modulus (GPa) = 87.65791 99.89724 93.77758
# Shear Modulus (GPa) = 35.42940 40.12346 37.77643
#
# Velocity S-wave (km/s) = 4.05587 4.31620 4.18806
# Velocity P-wave (km/s) = 7.91414 8.43933 8.18095
#
# Compressibility (1/GPa) = 0.01140798
#
# Stress axis : x y z
#
# Youngs Moduli (GPa) = 67.04619 73.95784 131.24820
#
# Poissons Ratio (x) = 0.63620 0.45087
# Poissons Ratio (y) = 0.57674 0.03758
# Poissons Ratio (z) = 0.23032 0.02118
#
# Static dielectric constant tensor:
#      x y z
#    x 3.639100 0.000000 0.034940 
#    y 0.000000 4.489580 0.000000 
#    z 0.034940 0.000000 4.543400 
# 
# 
# High freq. dielectric constant tensor:
#      x y z
#    x 1.826200 0.000000 -0.003320 
#    y 0.000000 1.858740 0.000000 
#    z -0.003320 0.000000 1.881780 
# 
# From -- ./inp_files/9841.got.cif
#   From: 2010.06.25/outbox.cif.g09.slc.cpg/sg13_5_cif.got.tgz:9841.got - 2010.06.28 04:50:58.
