data_PCOD8120735
_publ_section_title
;
Structure prediction by ZEFSAII (Michael W. Deem and Ramdas Pophale) SiO2 
 PCOD8120735
Probable space group: P 2/C
;
_chemical_formula_sum "Si O2"
_cell_formula_units_Z 32
_cell_length_a 26.188970
_cell_length_b 8.156063
_cell_length_c 15.005781
_cell_angle_alpha 90.000000
_cell_angle_beta 153.607828
_cell_angle_gamma 90.000000
_cell_volume 1424.760493
_symmetry_space_group_name_H-M "P 2/C"
_symmetry_group_IT_number 13
_symmetry_cell_setting 'monoclinic'
loop_
_space_group_symop_operation_xyz
x,y,z
-x,y,1/2-z
-x,-y,-z
x,-y,1/2+z
loop_
_atom_site_type_symbol
_atom_site_label
_atom_site_fract_x
_atom_site_fract_y
_atom_site_fract_z
Si Si1 0.738244 0.993291 0.981280
Si Si2 0.708017 0.588198 0.198895
Si Si3 0.753586 0.361610 0.973364
Si Si4 0.378981 0.142392 0.038460
Si Si5 0.857086 0.706119 0.935742
Si Si6 0.890659 0.681672 0.195106
Si Si7 0.650696 0.906540 0.655481
Si Si8 0.499233 0.380163 0.644470
O O1 0.657825 0.983363 0.942054
O O2 0.661295 0.965341 0.773643
O O3 0.792810 0.177911 0.066122
O O4 0.828669 0.845435 0.133033
O O5 0.753359 0.645207 0.365764
O O6 0.782323 0.439294 0.276396
O O7 0.720445 0.727089 0.141903
O O8 0.572258 0.544875 0.987985
O O9 0.628059 0.406167 0.812914
O O10 0.837401 0.505541 0.143686
O O11 0.500000 0.229736 0.250000
O O12 0.406161 0.048530 0.989708
O O13 0.777626 0.868764 0.810437
O O14 0.882797 0.668019 0.077708
O O15 0.976572 0.711283 0.068051
O O16 0.565039 0.753654 0.517177
O O17 0.500000 0.331385 0.750000
#
# Coordination Sequence:
#
# PCOD8120735 Si02
#       8
#     4   4   4   4   4   4   4   4
#     4  11  24  41  64  96 129 169 216 262 318 385
#     4  10  22  39  62  91 127 169 216 262 321 376
#     4  11  22  40  65  95 130 166 214 264 316 388
#     4  12  25  38  61  96 132 168 211 265 320 386
#     4   8  18  42  66  88 125 167 217 266 316 384
#     4   9  20  40  67  96 122 170 217 263 322 376
#     4  10  21  42  63  89 130 171 211 263 322 376
#     4  11  23  38  62  93 128 170 210 260 323 384
#
# _framework density 22.459914999999999
#
# number of rings (size 3 to 8) (size 9 to 14) (size 15 to 20)
#    0.000    1.750    1.250    3.375    5.250    1.000 
#    2.250    3.750    0.000    0.000    0.000    0.000 
#    0.000    0.000    0.000    0.000    0.000    0.000 
#
# Total GULP energy -396508.713344 kJ/mol
# GULP energy per Si atom -12390.897292 kJ/mol
# Density = 2.240879 g / cm^3
# Si number density = 22.459915 Si / 1000 Ang^3
#
#
#
# Elastic Constant Matrix: (Units=GPa)
#
#
# Indices 1 2 3 4 5 6 
#
# 1 49.3612 2.8624 13.0546 0.0000 -5.3870 0.0000
# 2 2.8624 107.4576 11.4008 0.0000 -0.0703 0.0000
# 3 13.0546 11.4008 63.0525 0.0000 13.5047 0.0000
# 4 0.0000 0.0000 0.0000 19.9343 0.0000 2.0597
# 5 -5.3870 -0.0703 13.5047 0.0000 28.6008 0.0000
# 6 0.0000 0.0000 0.0000 2.0597 0.0000 22.0479
#
#
#
# Elastic Compliance Matrix: (Units=1/GPa)
#
#
# Indices 1 2 3 4 5 6 
#
# 1 0.022700 0.000064 -0.006260 0.000000 0.007232 0.000000
# 2 0.000064 0.009510 -0.001936 0.000000 0.000950 0.000000
# 3 -0.006260 -0.001936 0.019758 0.000000 -0.010513 0.000000
# 4 0.000000 0.000000 0.000000 0.050654 0.000000 -0.004732
# 5 0.007232 0.000950 -0.010513 0.000000 0.041293 0.000000
# 6 0.000000 0.000000 0.000000 -0.004732 0.000000 0.045798
#
#
# Mechanical properties :
#
#
# Convention : Reuss Voigt Hill
#
# Bulk Modulus (GPa) = 28.00866 30.50074 29.25470
# Shear Modulus (GPa) = 22.94859 26.95350 24.95104
#
# Velocity S-wave (km/s) = 3.19996 3.46796 3.33665
# Velocity P-wave (km/s) = 5.11376 5.44474 5.28185
#
# Compressibility (1/GPa) = 0.03570324
#
# Stress axis : x y z
#
# Youngs Moduli (GPa) = 44.05280 105.14864 50.61290
#
# Poissons Ratio (x) = -0.00676 0.31686
# Poissons Ratio (y) = -0.00283 0.09800
# Poissons Ratio (z) = 0.27579 0.20360
#
# Static dielectric constant tensor:
#      x y z
#    x 3.817620 0.000000 0.063500 
#    y 0.000000 4.264610 0.000000 
#    z 0.063500 0.000000 4.402650 
# 
# 
# High freq. dielectric constant tensor:
#      x y z
#    x 1.869210 0.000000 -0.008620 
#    y 0.000000 1.891790 0.000000 
#    z -0.008620 0.000000 1.873230 
# 
# From -- ./inp_files/58826.got.cif
#   From: 2010.06.25/outbox.cif.g09.slc.cpg/sg13_30_cif.got.tgz:58826.got - 2010.06.28 04:50:58.
