data_PCOD8120373
_publ_section_title
;
Structure prediction by ZEFSAII (Michael W. Deem and Ramdas Pophale) SiO2 
 PCOD8120373
Probable space group: P 2/C
;
_chemical_formula_sum "Si O2"
_cell_formula_units_Z 24
_cell_length_a 7.728714
_cell_length_b 10.579590
_cell_length_c 24.734633
_cell_angle_alpha 90.000000
_cell_angle_beta 145.472455
_cell_angle_gamma 90.000000
_cell_volume 1146.339357
_symmetry_space_group_name_H-M "P 2/C"
_symmetry_group_IT_number 13
_symmetry_cell_setting 'monoclinic'
loop_
_space_group_symop_operation_xyz
x,y,z
-x,y,1/2-z
-x,-y,-z
x,-y,1/2+z
loop_
_atom_site_type_symbol
_atom_site_label
_atom_site_fract_x
_atom_site_fract_y
_atom_site_fract_z
Si Si1 0.438614 0.737966 0.103467
Si Si2 0.735524 0.089026 0.031460
Si Si3 0.227240 0.773156 0.854746
Si Si4 0.801927 0.307006 0.796059
Si Si5 0.088545 0.843593 0.463652
Si Si6 0.321414 0.487275 0.898595
O O1 0.689067 0.769610 0.213861
O O2 0.477263 0.593122 0.092911
O O3 0.103475 0.770885 0.040207
O O4 0.478592 0.826751 0.062218
O O5 0.896100 0.178789 0.117994
O O6 0.971230 0.996369 0.058993
O O7 0.500000 0.000000 0.000000
O O8 0.250187 0.622936 0.856034
O O9 0.000000 0.823699 0.750000
O O10 0.561650 0.827969 0.929557
O O11 0.500000 0.355258 0.750000
O O12 0.015977 0.218044 0.886902
O O13 0.992956 0.425909 0.825008
O O14 0.500000 0.500000 0.000000
#
# Coordination Sequence:
#
# PCOD8120373 Si02
#       6
#     4   4   4   4   4   4
#     4  11  22  39  66  90 121 164 206 260 313 376
#     4  10  21  39  62  88 123 163 209 260 311 374
#     4  11  23  40  60  89 127 168 208 256 318 380
#     4  10  22  41  65  93 120 160 210 256 312 384
#     4  10  22  40  61  92 124 158 211 259 310 374
#     4  12  21  41  64  90 128 165 208 260 321 376
#
# _framework density 20.936208000000001
#
# number of rings (size 3 to 8) (size 9 to 14) (size 15 to 20)
#    0.000    1.333    3.333    3.000    0.000    3.333 
#    3.000    2.500    0.000    0.000    0.000    0.000 
#    0.000    0.000    0.000    0.000    0.000    0.000 
#
# Total GULP energy -297441.591281 kJ/mol
# GULP energy per Si atom -12393.399637 kJ/mol
# Density = 2.088856 g / cm^3
# Si number density = 20.936208 Si / 1000 Ang^3
#
#
#
# Elastic Constant Matrix: (Units=GPa)
#
#
# Indices 1 2 3 4 5 6 
#
# 1 105.2683 50.0763 54.8612 0.0000 -6.1267 0.0000
# 2 50.0763 132.1642 35.1256 0.0000 -4.4804 0.0000
# 3 54.8612 35.1256 157.5836 0.0000 -15.4692 0.0000
# 4 0.0000 0.0000 0.0000 17.3037 0.0000 -1.3678
# 5 -6.1267 -4.4804 -15.4692 0.0000 38.3253 0.0000
# 6 0.0000 0.0000 0.0000 -1.3678 0.0000 31.4442
#
#
#
# Elastic Compliance Matrix: (Units=1/GPa)
#
#
# Indices 1 2 3 4 5 6 
#
# 1 0.013397 -0.004077 -0.003740 0.000000 0.000155 0.000000
# 2 -0.004077 0.009285 -0.000633 0.000000 0.000178 0.000000
# 3 -0.003740 -0.000633 0.008042 0.000000 0.002574 0.000000
# 4 0.000000 0.000000 0.000000 0.057990 0.000000 0.002523
# 5 0.000155 0.000178 0.002574 0.000000 0.027177 0.000000
# 6 0.000000 0.000000 0.000000 0.002523 0.000000 0.031912
#
#
# Mechanical properties :
#
#
# Convention : Reuss Voigt Hill
#
# Bulk Modulus (GPa) = 72.33554 75.01581 73.67567
# Shear Modulus (GPa) = 29.53140 34.41151 31.97145
#
# Velocity S-wave (km/s) = 3.75979 4.05858 3.91204
# Velocity P-wave (km/s) = 7.31256 7.60731 7.46139
#
# Compressibility (1/GPa) = 0.01382446
#
# Stress axis : x y z
#
# Youngs Moduli (GPa) = 74.64303 107.69738 124.35242
#
# Poissons Ratio (x) = 0.43906 0.46509
# Poissons Ratio (y) = 0.30430 0.07870
# Poissons Ratio (z) = 0.27917 0.06816
#
# Static dielectric constant tensor:
#      x y z
#    x 4.094780 0.000000 -0.241360 
#    y 0.000000 4.671100 0.000000 
#    z -0.241360 0.000000 4.003250 
# 
# 
# High freq. dielectric constant tensor:
#      x y z
#    x 1.818900 0.000000 -0.020070 
#    y 0.000000 1.819330 0.000000 
#    z -0.020070 0.000000 1.823560 
# 
# From -- ./inp_files/91616.got.cif
#   From: 2010.06.25/outbox.cif.g09.slc.cpg/sg13_46_cif.got.tgz:91616.got - 2010.06.28 04:50:58.
