data_PCOD8120820
_publ_section_title
;
Structure prediction by ZEFSAII (Michael W. Deem and Ramdas Pophale) SiO2 
 PCOD8120820
Probable space group: P 2/C
;
_chemical_formula_sum "Si O2"
_cell_formula_units_Z 24
_cell_length_a 19.363860
_cell_length_b 6.376923
_cell_length_c 13.245952
_cell_angle_alpha 90.000000
_cell_angle_beta 137.755264
_cell_angle_gamma 90.000000
_cell_volume 1099.635162
_symmetry_space_group_name_H-M "P 2/C"
_symmetry_group_IT_number 13
_symmetry_cell_setting 'monoclinic'
loop_
_space_group_symop_operation_xyz
x,y,z
-x,y,1/2-z
-x,-y,-z
x,-y,1/2+z
loop_
_atom_site_type_symbol
_atom_site_label
_atom_site_fract_x
_atom_site_fract_y
_atom_site_fract_z
Si Si1 0.109805 0.815583 0.417956
Si Si2 0.375936 0.132611 0.352598
Si Si3 0.561834 0.840676 0.918108
Si Si4 0.259350 0.532362 0.452535
Si Si5 0.195152 0.433928 0.175141
Si Si6 0.242292 0.806933 0.092527
O O1 0.197840 0.691781 0.454750
O O2 0.108574 0.717567 0.530848
O O3 0.000000 0.785926 0.250000
O O4 0.143583 0.056876 0.451304
O O5 0.379455 0.044636 0.472258
O O6 0.333064 0.952494 0.231809
O O7 0.484388 0.214982 0.426341
O O8 0.306399 0.335651 0.275090
O O9 0.500000 0.898790 0.750000
O O10 0.638735 0.646404 0.980673
O O11 0.181520 0.456571 0.280287
O O12 0.288784 0.329264 0.550885
O O13 0.194627 0.665075 0.128717
#
# Coordination Sequence:
#
# PCOD8120820 Si02
#       6
#     4   4   4   4   4   4
#     4  10  24  44  67  96 126 162 213 272 328 380
#     4  10  23  41  63  94 136 170 212 265 310 375
#     4  11  22  41  61  96 131 168 219 255 310 370
#     4  11  24  41  67  96 129 171 216 259 321 385
#     4  10  22  42  66  95 129 168 210 260 319 382
#     4  10  21  43  66  88 131 171 207 267 320 375
#
# _framework density 21.825422
#
# number of rings (size 3 to 8) (size 9 to 14) (size 15 to 20)
#    0.000    1.667    1.667    3.000    4.667    4.000 
#    6.000    3.333    0.000    0.000    0.000    0.000 
#    0.000    0.000    0.000    0.000    0.000    0.000 
#
# Total GULP energy -297499.315135 kJ/mol
# GULP energy per Si atom -12395.804797 kJ/mol
# Density = 2.177575 g / cm^3
# Si number density = 21.825422 Si / 1000 Ang^3
#
#
#
# Elastic Constant Matrix: (Units=GPa)
#
#
# Indices 1 2 3 4 5 6 
#
# 1 36.6284 25.5204 25.1838 0.0000 -24.2775 0.0000
# 2 25.5204 105.3372 39.3687 0.0000 -9.8216 0.0000
# 3 25.1838 39.3687 140.2581 0.0000 -19.2923 0.0000
# 4 0.0000 0.0000 0.0000 21.8263 0.0000 -12.5475
# 5 -24.2775 -9.8216 -19.2923 0.0000 42.1368 0.0000
# 6 0.0000 0.0000 0.0000 -12.5475 0.0000 22.0933
#
#
#
# Elastic Compliance Matrix: (Units=1/GPa)
#
#
# Indices 1 2 3 4 5 6 
#
# 1 0.054462 -0.009365 -0.003345 0.000000 0.027665 0.000000
# 2 -0.009365 0.012272 -0.002254 0.000000 -0.003567 0.000000
# 3 -0.003345 -0.002254 0.008565 0.000000 0.001469 0.000000
# 4 0.000000 0.000000 0.000000 0.068026 0.000000 0.038634
# 5 0.027665 -0.003567 0.001469 0.000000 0.039512 0.000000
# 6 0.000000 0.000000 0.000000 0.038634 0.000000 0.067204
#
#
# Mechanical properties :
#
#
# Convention : Reuss Voigt Hill
#
# Bulk Modulus (GPa) = 22.04028 51.37438 36.70733
# Shear Modulus (GPa) = 16.94375 30.02132 23.48254
#
# Velocity S-wave (km/s) = 2.78929 3.71282 3.28369
# Velocity P-wave (km/s) = 4.52702 6.47842 5.58855
#
# Compressibility (1/GPa) = 0.04537148
#
# Stress axis : x y z
#
# Youngs Moduli (GPa) = 18.36132 81.48659 116.75502
#
# Poissons Ratio (x) = 0.76314 0.39054
# Poissons Ratio (y) = 0.17196 0.26313
# Poissons Ratio (z) = 0.06142 0.18365
#
# Static dielectric constant tensor:
#      x y z
#    x 3.757870 0.000000 -0.461030 
#    y 0.000000 4.029580 0.000000 
#    z -0.461030 0.000000 4.302540 
# 
# 
# High freq. dielectric constant tensor:
#      x y z
#    x 1.835200 0.000000 -0.025380 
#    y 0.000000 1.862970 0.000000 
#    z -0.025380 0.000000 1.869570 
# 
# From -- ./inp_files/56626.got.cif
#   From: 2010.06.25/outbox.cif.g09.slc.cpg/sg13_29_cif.got.tgz:56626.got - 2010.06.28 04:50:58.
