data_PCOD8120418
_publ_section_title
;
Structure prediction by ZEFSAII (Michael W. Deem and Ramdas Pophale) SiO2 
 PCOD8120418
Probable space group: P 2/C
;
_chemical_formula_sum "Si O2"
_cell_formula_units_Z 30
_cell_length_a 12.063856
_cell_length_b 12.929110
_cell_length_c 10.472915
_cell_angle_alpha 90.000000
_cell_angle_beta 124.472341
_cell_angle_gamma 90.000000
_cell_volume 1346.666585
_symmetry_space_group_name_H-M "P 2/C"
_symmetry_group_IT_number 13
_symmetry_cell_setting 'monoclinic'
loop_
_space_group_symop_operation_xyz
x,y,z
-x,y,1/2-z
-x,-y,-z
x,-y,1/2+z
loop_
_atom_site_type_symbol
_atom_site_label
_atom_site_fract_x
_atom_site_fract_y
_atom_site_fract_z
Si Si1 0.710770 0.290075 0.654472
Si Si2 0.213450 0.616850 0.055675
Si Si3 0.000000 0.288538 0.250000
Si Si4 0.441953 0.238917 0.586615
Si Si5 0.109770 0.120265 0.149792
Si Si6 0.378919 0.195190 0.272830
Si Si7 0.901667 0.891849 0.295666
Si Si8 0.349416 0.597328 0.644131
O O1 0.811137 0.352636 0.812352
O O2 0.565790 0.309506 0.622586
O O3 0.762062 0.170861 0.690904
O O4 0.697105 0.333251 0.505061
O O5 0.321812 0.686383 0.050996
O O6 0.246113 0.495722 0.082293
O O7 0.072432 0.634344 0.894694
O O8 0.106894 0.213838 0.248880
O O9 0.500000 0.175848 0.750000
O O10 0.411705 0.165779 0.443152
O O11 0.243664 0.132119 0.148071
O O12 0.125386 0.013669 0.238118
O O13 0.972592 0.125021 0.979107
O O14 0.500000 0.171834 0.250000
O O15 0.344676 0.318387 0.255109
O O16 0.000000 0.850682 0.250000
O O17 0.500000 0.550723 0.750000
#
# Coordination Sequence:
#
# PCOD8120418 Si02
#       8
#     4   4   2   4   4   4   4   4
#     4  11  22  42  65 101 134 170 233 289 330 409
#     4  11  25  40  67  97 136 186 232 277 339 411
#     4  12  22  48  66 100 138 178 232 288 336 408
#     4  10  21  39  64  95 133 172 227 284 339 393
#     4  11  24  45  73  94 133 182 223 279 349 419
#     4  11  22  43  70  98 136 177 224 286 346 405
#     4  11  24  43  72 101 127 176 230 273 346 423
#     4  11  23  41  68  95 140 186 228 275 347 414
#
# _framework density 22.277228999999998
#
# number of rings (size 3 to 8) (size 9 to 14) (size 15 to 20)
#    0.000    1.067    6.000    2.000    1.867    1.067 
#    3.600    4.000    0.000    0.000    0.000    0.000 
#    0.000    0.000    0.000    0.000    0.000    0.000 
#
# Total GULP energy -371650.600754 kJ/mol
# GULP energy per Si atom -12388.353358 kJ/mol
# Density = 2.222652 g / cm^3
# Si number density = 22.277229 Si / 1000 Ang^3
#
#
#
# Elastic Constant Matrix: (Units=GPa)
#
#
# Indices 1 2 3 4 5 6 
#
# 1 77.7588 22.0203 19.0239 0.0000 2.3428 0.0000
# 2 22.0203 87.6146 41.2140 0.0000 11.8441 0.0000
# 3 19.0239 41.2140 129.5309 0.0000 1.6962 0.0000
# 4 0.0000 0.0000 0.0000 21.3033 0.0000 1.1057
# 5 2.3428 11.8441 1.6962 0.0000 35.1982 0.0000
# 6 0.0000 0.0000 0.0000 1.1057 0.0000 20.4517
#
#
#
# Elastic Compliance Matrix: (Units=1/GPa)
#
#
# Indices 1 2 3 4 5 6 
#
# 1 0.013978 -0.003017 -0.001095 0.000000 0.000137 0.000000
# 2 -0.003017 0.014762 -0.004194 0.000000 -0.004564 0.000000
# 3 -0.001095 -0.004194 0.009202 0.000000 0.001041 0.000000
# 4 0.000000 0.000000 0.000000 0.047073 0.000000 -0.002545
# 5 0.000137 -0.004564 0.001041 0.000000 0.029887 0.000000
# 6 0.000000 0.000000 0.000000 -0.002545 0.000000 0.049033
#
#
# Mechanical properties :
#
#
# Convention : Reuss Voigt Hill
#
# Bulk Modulus (GPa) = 46.88123 51.04673 48.96398
# Shear Modulus (GPa) = 26.64436 29.56705 28.10571
#
# Velocity S-wave (km/s) = 3.46213 3.64707 3.55580
# Velocity P-wave (km/s) = 6.08867 6.37957 6.23582
#
# Compressibility (1/GPa) = 0.02133050
#
# Stress axis : x y z
#
# Youngs Moduli (GPa) = 71.53945 67.74278 108.67440
#
# Poissons Ratio (x) = 0.20436 0.11899
# Poissons Ratio (y) = 0.21581 0.45578
# Poissons Ratio (z) = 0.07833 0.28412
#
# Static dielectric constant tensor:
#      x y z
#    x 3.985530 0.000000 -0.092090 
#    y 0.000000 3.721090 0.000000 
#    z -0.092090 0.000000 4.514480 
# 
# 
# High freq. dielectric constant tensor:
#      x y z
#    x 1.867390 0.000000 -0.001170 
#    y 0.000000 1.841650 0.000000 
#    z -0.001170 0.000000 1.903920 
# 
# From -- ./inp_files/37193.got.cif
#   From: 2010.06.25/outbox.cif.g09.slc.cpg/sg13_19_cif.got.tgz:37193.got - 2010.06.28 04:50:58.
