data_PCOD8120440
_publ_section_title
;
Structure prediction by ZEFSAII (Michael W. Deem and Ramdas Pophale) SiO2 
 PCOD8120440
Probable space group: P 2/C
;
_chemical_formula_sum "Si O2"
_cell_formula_units_Z 22
_cell_length_a 8.596983
_cell_length_b 7.357805
_cell_length_c 17.214050
_cell_angle_alpha 90.000000
_cell_angle_beta 72.938866
_cell_angle_gamma 90.000000
_cell_volume 1040.954568
_symmetry_space_group_name_H-M "P 2/C"
_symmetry_group_IT_number 13
_symmetry_cell_setting 'monoclinic'
loop_
_space_group_symop_operation_xyz
x,y,z
-x,y,1/2-z
-x,-y,-z
x,-y,1/2+z
loop_
_atom_site_type_symbol
_atom_site_label
_atom_site_fract_x
_atom_site_fract_y
_atom_site_fract_z
Si Si1 0.996731 0.891041 0.421027
Si Si2 0.686956 0.339503 0.975861
Si Si3 0.500000 0.577968 0.750000
Si Si4 0.800076 0.466441 0.611418
Si Si5 0.022521 0.760921 0.658602
Si Si6 0.379982 0.324997 0.108003
O O1 0.130623 0.735334 0.400047
O O2 0.817627 0.810134 0.432005
O O3 0.000000 0.000000 0.500000
O O4 0.045200 0.036701 0.347399
O O5 0.638288 0.458475 0.907664
O O6 0.755654 0.476961 0.030969
O O7 0.525837 0.241488 0.034371
O O8 0.643451 0.458886 0.690617
O O9 0.578877 0.701671 0.806517
O O10 0.935554 0.609514 0.619445
O O11 0.213428 0.773616 0.610277
O O12 0.000000 0.701154 0.750000
#
# Coordination Sequence:
#
# PCOD8120440 Si02
#       6
#     4   4   2   4   4   4
#     4  12  24  39  67 101 128 169 215 265 323 384
#     4  10  21  40  67  94 126 166 215 263 316 381
#     4  10  22  40  70  88 126 180 210 262 324 374
#     4  11  22  44  67  92 132 170 214 263 321 388
#     4  12  24  40  66  96 130 171 213 264 321 388
#     4  10  21  39  66  93 124 171 214 259 321 373
#
# _framework density 21.134447000000002
#
# number of rings (size 3 to 8) (size 9 to 14) (size 15 to 20)
#    0.000    1.091    5.455    1.636    0.000    2.909 
#    0.000    2.727    0.000    0.000    0.000    0.000 
#    0.000    0.000    0.000    0.000    0.000    0.000 
#
# Total GULP energy -272789.372813 kJ/mol
# GULP energy per Si atom -12399.516946 kJ/mol
# Density = 2.108634 g / cm^3
# Si number density = 21.134447 Si / 1000 Ang^3
#
#
#
# Elastic Constant Matrix: (Units=GPa)
#
#
# Indices 1 2 3 4 5 6 
#
# 1 111.3461 28.1204 15.9325 0.0000 -9.9321 0.0000
# 2 28.1204 95.6138 13.8254 0.0000 -5.1832 0.0000
# 3 15.9325 13.8254 59.6886 0.0000 2.2961 0.0000
# 4 0.0000 0.0000 0.0000 18.9071 0.0000 1.5544
# 5 -9.9321 -5.1832 2.2961 0.0000 38.0866 0.0000
# 6 0.0000 0.0000 0.0000 1.5544 0.0000 27.1635
#
#
#
# Elastic Compliance Matrix: (Units=1/GPa)
#
#
# Indices 1 2 3 4 5 6 
#
# 1 0.010156 -0.002534 -0.002218 0.000000 0.002437 0.000000
# 2 -0.002534 0.011555 -0.002040 0.000000 0.001035 0.000000
# 3 -0.002218 -0.002040 0.017892 0.000000 -0.001935 0.000000
# 4 0.000000 0.000000 0.000000 0.053140 0.000000 -0.003041
# 5 0.002437 0.001035 -0.001935 0.000000 0.027149 0.000000
# 6 0.000000 0.000000 0.000000 -0.003041 0.000000 0.036988
#
#
# Mechanical properties :
#
#
# Convention : Reuss Voigt Hill
#
# Bulk Modulus (GPa) = 38.43171 42.48945 40.46058
# Shear Modulus (GPa) = 27.91161 30.74946 29.33053
#
# Velocity S-wave (km/s) = 3.63804 3.81851 3.72937
# Velocity P-wave (km/s) = 5.98924 6.29201 6.14249
#
# Compressibility (1/GPa) = 0.02602018
#
# Stress axis : x y z
#
# Youngs Moduli (GPa) = 98.46690 86.54217 55.88943
#
# Poissons Ratio (x) = 0.21930 0.12394
# Poissons Ratio (y) = 0.24952 0.11401
# Poissons Ratio (z) = 0.21836 0.17653
#
# Static dielectric constant tensor:
#      x y z
#    x 4.271160 0.000000 -0.053780 
#    y 0.000000 3.572820 0.000000 
#    z -0.053780 0.000000 3.879060 
# 
# 
# High freq. dielectric constant tensor:
#      x y z
#    x 1.853520 0.000000 -0.002110 
#    y 0.000000 1.793520 0.000000 
#    z -0.002110 0.000000 1.832590 
# 
# From -- ./inp_files/62871.got.cif
#   From: 2010.06.25/outbox.cif.g09.slc.cpg/sg13_32_cif.got.tgz:62871.got - 2010.06.28 04:50:58.
