data_PCOD8120245
_publ_section_title
;
Structure prediction by ZEFSAII (Michael W. Deem and Ramdas Pophale) SiO2 
 PCOD8120245
Probable space group: P 2/C
;
_chemical_formula_sum "Si O2"
_cell_formula_units_Z 26
_cell_length_a 16.188652
_cell_length_b 9.328900
_cell_length_c 22.036978
_cell_angle_alpha 90.000000
_cell_angle_beta 23.180895
_cell_angle_gamma 90.000000
_cell_volume 1310.048331
_symmetry_space_group_name_H-M "P 2/C"
_symmetry_group_IT_number 13
_symmetry_cell_setting 'monoclinic'
loop_
_space_group_symop_operation_xyz
x,y,z
-x,y,1/2-z
-x,-y,-z
x,-y,1/2+z
loop_
_atom_site_type_symbol
_atom_site_label
_atom_site_fract_x
_atom_site_fract_y
_atom_site_fract_z
Si Si1 0.836499 0.385719 0.742731
Si Si2 0.500000 0.357893 0.750000
Si Si3 0.137795 0.750249 0.569494
Si Si4 0.000000 0.993268 0.750000
Si Si5 0.738190 0.681233 0.758583
Si Si6 0.000000 0.484945 0.250000
Si Si7 0.173210 0.422104 0.421357
Si Si8 0.621186 0.861922 0.441049
O O1 0.706674 0.514205 0.798839
O O2 0.866080 0.417206 0.794657
O O3 0.701789 0.238419 0.830683
O O4 0.064654 0.362044 0.556168
O O5 0.637614 0.251633 0.615297
O O6 0.647459 0.463050 0.688056
O O7 0.951583 0.734080 0.646371
O O8 0.147108 0.617657 0.610002
O O9 0.104959 0.898339 0.626500
O O10 0.179786 0.094581 0.653945
O O11 0.745066 0.700339 0.680322
O O12 0.539167 0.771536 0.911211
O O13 0.000000 0.500000 0.500000
O O14 0.500000 0.000000 0.500000
#
# Coordination Sequence:
#
# PCOD8120245 Si02
#       8
#     4   2   4   2   4   2   4   4
#     4  10  21  39  64  98 129 163 216 272 323 380
#     4  12  20  36  68 100 132 170 210 268 340 384
#     4  10  21  39  64  95 130 167 217 263 328 389
#     4  11  25  44  62  90 136 172 228 262 314 408
#     4  10  21  44  65  95 130 169 214 277 329 380
#     4   9  17  36  60  94 126 160 206 272 312 374
#     4  10  21  38  60  98 133 159 207 275 324 385
#     4  12  25  41  65  92 130 181 215 266 327 382
#
# _framework density 19.846596000000002
#
# number of rings (size 3 to 8) (size 9 to 14) (size 15 to 20)
#    0.000    1.538    6.154    0.923    2.154    3.692 
#    0.000    2.308    0.000    0.000    0.000    0.000 
#    0.000    0.000    0.000    0.000    0.000    0.000 
#
# Total GULP energy -322240.413417 kJ/mol
# GULP energy per Si atom -12393.862054 kJ/mol
# Density = 1.980142 g / cm^3
# Si number density = 19.846596 Si / 1000 Ang^3
#
#
#
# Elastic Constant Matrix: (Units=GPa)
#
#
# Indices 1 2 3 4 5 6 
#
# 1 91.4817 36.6088 56.0872 0.0000 3.8478 0.0000
# 2 36.6088 115.0526 73.8530 0.0000 5.0478 0.0000
# 3 56.0872 73.8530 175.0798 0.0000 9.8293 0.0000
# 4 0.0000 0.0000 0.0000 27.8993 0.0000 -12.5359
# 5 3.8478 5.0478 9.8293 0.0000 38.5881 0.0000
# 6 0.0000 0.0000 0.0000 -12.5359 0.0000 15.0541
#
#
#
# Elastic Compliance Matrix: (Units=1/GPa)
#
#
# Indices 1 2 3 4 5 6 
#
# 1 0.013985 -0.002156 -0.003559 0.000000 -0.000206 0.000000
# 2 -0.002156 0.012255 -0.004464 0.000000 -0.000251 0.000000
# 3 -0.003559 -0.004464 0.008808 0.000000 -0.001305 0.000000
# 4 0.000000 0.000000 0.000000 0.057273 0.000000 0.047693
# 5 -0.000206 -0.000251 -0.001305 0.000000 0.026300 0.000000
# 6 0.000000 0.000000 0.000000 0.047693 0.000000 0.106142
#
#
# Mechanical properties :
#
#
# Convention : Reuss Voigt Hill
#
# Bulk Modulus (GPa) = 68.08169 79.41245 73.74707
# Shear Modulus (GPa) = 19.99856 30.64596 25.32226
#
# Velocity S-wave (km/s) = 3.17780 3.93382 3.57585
# Velocity P-wave (km/s) = 6.91687 7.79315 7.36805
#
# Compressibility (1/GPa) = 0.01468824
#
# Stress axis : x y z
#
# Youngs Moduli (GPa) = 71.50698 81.60249 113.53037
#
# Poissons Ratio (x) = 0.17596 0.40404
# Poissons Ratio (y) = 0.15419 0.50684
# Poissons Ratio (z) = 0.25448 0.36431
#
# Static dielectric constant tensor:
#      x y z
#    x 4.513430 0.000000 0.823920 
#    y 0.000000 3.595670 0.000000 
#    z 0.823920 0.000000 4.354840 
# 
# 
# High freq. dielectric constant tensor:
#      x y z
#    x 1.773620 0.000000 0.004730 
#    y 0.000000 1.752900 0.000000 
#    z 0.004730 0.000000 1.784960 
# 
# From -- ./inp_files/88021.got.cif
#   From: 2010.06.25/outbox.cif.g09.slc.cpg/sg13_45_cif.got.tgz:88021.got - 2010.06.28 04:50:58.
