data_PCOD8120134
_publ_section_title
;
Structure prediction by ZEFSAII (Michael W. Deem and Ramdas Pophale) SiO2 
 PCOD8120134
Probable space group: P 2/C
;
_chemical_formula_sum "Si O2"
_cell_formula_units_Z 30
_cell_length_a 8.361033
_cell_length_b 11.179665
_cell_length_c 16.149445
_cell_angle_alpha 90.000000
_cell_angle_beta 85.968705
_cell_angle_gamma 90.000000
_cell_volume 1505.811004
_symmetry_space_group_name_H-M "P 2/C"
_symmetry_group_IT_number 13
_symmetry_cell_setting 'monoclinic'
loop_
_space_group_symop_operation_xyz
x,y,z
-x,y,1/2-z
-x,-y,-z
x,-y,1/2+z
loop_
_atom_site_type_symbol
_atom_site_label
_atom_site_fract_x
_atom_site_fract_y
_atom_site_fract_z
Si Si1 0.324313 0.126496 0.528399
Si Si2 0.500000 0.083327 0.750000
Si Si3 0.759587 0.689366 0.923437
Si Si4 0.792334 0.441228 0.863282
Si Si5 0.521908 0.663265 0.076675
Si Si6 0.754110 0.721739 0.205475
Si Si7 0.566461 0.095864 0.392217
Si Si8 0.002420 0.739392 0.058421
O O1 0.434444 0.206248 0.587190
O O2 0.400744 0.150527 0.434952
O O3 0.138600 0.160901 0.540717
O O4 0.339572 0.985224 0.543800
O O5 0.339110 0.163329 0.755923
O O6 0.483051 0.990030 0.677967
O O7 0.822360 0.584577 0.859221
O O8 0.690688 0.796146 0.867733
O O9 0.616231 0.644354 0.988175
O O10 0.902096 0.734592 0.977708
O O11 0.615034 0.434871 0.908329
O O12 0.810904 0.370254 0.775443
O O13 0.916421 0.388677 0.925883
O O14 0.638387 0.646155 0.150349
O O15 0.900179 0.772303 0.144502
#
# Coordination Sequence:
#
# PCOD8120134 Si02
#       8
#     4   2   4   4   4   4   4   4
#     4   9  18  38  64  88 113 153 201 249 285 346
#     4  12  20  40  62  88 120 148 198 254 304 342
#     4  10  22  36  55  84 119 156 194 231 295 362
#     4  11  19  35  57  85 121 148 189 249 295 344
#     4   9  17  35  59  86 105 151 205 243 279 338
#     4  11  20  36  63  90 110 151 200 258 295 337
#     4  10  21  37  62  86 121 155 194 245 298 355
#     4  10  22  37  62  87 115 153 206 242 293 345
#
# _framework density 19.922817999999999
#
# number of rings (size 3 to 8) (size 9 to 14) (size 15 to 20)
#    0.000    1.867    2.667    2.000    1.867    0.533 
#    2.400    0.000    2.933    0.000    0.000    0.000 
#    0.000    0.000    0.000    0.000    0.000    0.000 
#
# Total GULP energy -371702.274384 kJ/mol
# GULP energy per Si atom -12390.075813 kJ/mol
# Density = 1.987747 g / cm^3
# Si number density = 19.922818 Si / 1000 Ang^3
#
#
#
# Elastic Constant Matrix: (Units=GPa)
#
#
# Indices 1 2 3 4 5 6 
#
# 1 107.5268 28.8948 37.1342 0.0000 -19.7985 0.0000
# 2 28.8948 95.6415 39.9848 0.0000 -6.3085 0.0000
# 3 37.1342 39.9848 75.9785 0.0000 1.3862 0.0000
# 4 0.0000 0.0000 0.0000 30.5249 0.0000 -1.4014
# 5 -19.7985 -6.3085 1.3862 0.0000 23.0618 0.0000
# 6 0.0000 0.0000 0.0000 -1.4014 0.0000 13.1756
#
#
#
# Elastic Compliance Matrix: (Units=1/GPa)
#
#
# Indices 1 2 3 4 5 6 
#
# 1 0.014076 -0.000602 -0.006788 0.000000 0.012327 0.000000
# 2 -0.000602 0.013829 -0.007051 0.000000 0.003690 0.000000
# 3 -0.006788 -0.007051 0.020353 0.000000 -0.008979 0.000000
# 4 0.000000 0.000000 0.000000 0.032921 0.000000 0.003502
# 5 0.012327 0.003690 -0.008979 0.000000 0.055494 0.000000
# 6 0.000000 0.000000 0.000000 0.003502 0.000000 0.076271
#
#
# Mechanical properties :
#
#
# Convention : Reuss Voigt Hill
#
# Bulk Modulus (GPa) = 51.60634 54.57494 53.09064
# Shear Modulus (GPa) = 20.13836 24.89464 22.51650
#
# Velocity S-wave (km/s) = 3.18279 3.53874 3.36547
# Velocity P-wave (km/s) = 6.28221 6.64451 6.46590
#
# Compressibility (1/GPa) = 0.01937746
#
# Stress axis : x y z
#
# Youngs Moduli (GPa) = 71.04511 72.31401 49.13167
#
# Poissons Ratio (x) = 0.04351 0.33349
# Poissons Ratio (y) = 0.04274 0.34642
# Poissons Ratio (z) = 0.48223 0.50987
#
# Static dielectric constant tensor:
#      x y z
#    x 3.802300 0.000000 0.026280 
#    y 0.000000 3.555980 0.000000 
#    z 0.026280 0.000000 3.674920 
# 
# 
# High freq. dielectric constant tensor:
#      x y z
#    x 1.780730 0.000000 -0.003100 
#    y 0.000000 1.765550 0.000000 
#    z -0.003100 0.000000 1.760150 
# 
# From -- ./inp_files/64264.got.cif
#   From: 2010.06.25/outbox.cif.g09.slc.cpg/sg13_33_cif.got.tgz:64264.got - 2010.06.28 04:50:58.
