data_PCOD8120608
_publ_section_title
;
Structure prediction by ZEFSAII (Michael W. Deem and Ramdas Pophale) SiO2 
 PCOD8120608
Probable space group: P 2/C
;
_chemical_formula_sum "Si O2"
_cell_formula_units_Z 18
_cell_length_a 10.650409
_cell_length_b 17.062102
_cell_length_c 5.502545
_cell_angle_alpha 90.000000
_cell_angle_beta 55.649937
_cell_angle_gamma 90.000000
_cell_volume 825.534158
_symmetry_space_group_name_H-M "P 2/C"
_symmetry_group_IT_number 13
_symmetry_cell_setting 'monoclinic'
loop_
_space_group_symop_operation_xyz
x,y,z
-x,y,1/2-z
-x,-y,-z
x,-y,1/2+z
loop_
_atom_site_type_symbol
_atom_site_label
_atom_site_fract_x
_atom_site_fract_y
_atom_site_fract_z
Si Si1 0.000000 0.738764 0.750000
Si Si2 0.725724 0.208559 0.820981
Si Si3 0.329874 0.969950 0.148583
Si Si4 0.500000 0.690114 0.250000
Si Si5 0.767101 0.335715 0.160593
Si Si6 0.000000 0.548101 0.250000
O O1 0.102816 0.794590 0.470073
O O2 0.103740 0.678877 0.783439
O O3 0.666992 0.121260 0.921446
O O4 0.614073 0.253992 0.766361
O O5 0.728536 0.253640 0.072930
O O6 0.250137 0.987437 0.499741
O O7 0.500000 0.000000 0.000000
O O8 0.393335 0.636256 0.541752
O O9 0.842540 0.401074 0.904069
O O10 0.000000 0.500000 0.500000
#
# Coordination Sequence:
#
# PCOD8120608 Si02
#       6
#     2   4   4   2   4   2
#     4  10  21  40  70  97 138 174 256 284 343 408
#     4  11  22  40  70  99 137 189 238 298 341 426
#     4  10  23  38  59  92 140 180 231 283 357 406
#     4  10  24  36  72 102 142 170 252 286 346 394
#     4  11  23  44  70 108 134 188 239 288 348 432
#     4  12  27  48  78 105 144 188 228 288 365 434
#
# _framework density 21.804065999999999
#
# number of rings (size 3 to 8) (size 9 to 14) (size 15 to 20)
#    0.000    1.333    2.222    2.667   15.556    0.000 
#    0.000    2.222    0.000    0.000    0.000    0.000 
#    0.000    0.000    0.000    0.000    0.000    0.000 
#
# Total GULP energy -223059.482061 kJ/mol
# GULP energy per Si atom -12392.193448 kJ/mol
# Density = 2.175444 g / cm^3
# Si number density = 21.804066 Si / 1000 Ang^3
#
#
#
# Elastic Constant Matrix: (Units=GPa)
#
#
# Indices 1 2 3 4 5 6 
#
# 1 77.6076 21.9655 59.0671 0.0000 6.3895 0.0000
# 2 21.9655 108.6823 60.1407 0.0000 -2.1805 0.0000
# 3 59.0671 60.1407 177.6519 0.0000 -10.9862 0.0000
# 4 0.0000 0.0000 0.0000 42.8071 0.0000 6.7873
# 5 6.3895 -2.1805 -10.9862 0.0000 58.1347 0.0000
# 6 0.0000 0.0000 0.0000 6.7873 0.0000 28.3111
#
#
#
# Elastic Compliance Matrix: (Units=1/GPa)
#
#
# Indices 1 2 3 4 5 6 
#
# 1 0.017800 -0.000343 -0.005994 0.000000 -0.003102 0.000000
# 2 -0.000343 0.011334 -0.003738 0.000000 -0.000244 0.000000
# 3 -0.005994 -0.003738 0.009025 0.000000 0.002224 0.000000
# 4 0.000000 0.000000 0.000000 0.024284 0.000000 -0.005822
# 5 -0.003102 -0.000244 0.002224 0.000000 0.017954 0.000000
# 6 0.000000 0.000000 0.000000 -0.005822 0.000000 0.036718
#
#
# Mechanical properties :
#
#
# Convention : Reuss Voigt Hill
#
# Bulk Modulus (GPa) = 55.52772 71.80982 63.66877
# Shear Modulus (GPa) = 34.90011 40.70181 37.80096
#
# Velocity S-wave (km/s) = 4.00512 4.32523 4.16825
# Velocity P-wave (km/s) = 6.84908 7.61243 7.24082
#
# Compressibility (1/GPa) = 0.01800902
#
# Stress axis : x y z
#
# Youngs Moduli (GPa) = 56.18054 88.23011 110.80491
#
# Poissons Ratio (x) = 0.03025 0.66416
# Poissons Ratio (y) = 0.01926 0.41419
# Poissons Ratio (z) = 0.33674 0.32980
#
# Static dielectric constant tensor:
#      x y z
#    x 2.659660 0.000000 -1.057320 
#    y 0.000000 3.707210 0.000000 
#    z -1.057320 0.000000 3.840630 
# 
# 
# High freq. dielectric constant tensor:
#      x y z
#    x 1.853470 0.000000 0.012300 
#    y 0.000000 1.826520 0.000000 
#    z 0.012300 0.000000 1.881570 
# 
# From -- ./inp_files/1348.got.cif
#   From: 2010.06.25/outbox.cif.g09.slc.cpg/sg13_1_cif.got.tgz:1348.got - 2010.06.28 04:50:58.
