data_PCOD8120715
_publ_section_title
;
Structure prediction by ZEFSAII (Michael W. Deem and Ramdas Pophale) SiO2 
 PCOD8120715
Probable space group: P 2/C
;
_chemical_formula_sum "Si O2"
_cell_formula_units_Z 22
_cell_length_a 8.660836
_cell_length_b 9.178369
_cell_length_c 14.387563
_cell_angle_alpha 90.000000
_cell_angle_beta 74.639716
_cell_angle_gamma 90.000000
_cell_volume 1102.847310
_symmetry_space_group_name_H-M "P 2/C"
_symmetry_group_IT_number 13
_symmetry_cell_setting 'monoclinic'
loop_
_space_group_symop_operation_xyz
x,y,z
-x,y,1/2-z
-x,-y,-z
x,-y,1/2+z
loop_
_atom_site_type_symbol
_atom_site_label
_atom_site_fract_x
_atom_site_fract_y
_atom_site_fract_z
Si Si1 0.854757 0.390144 0.039819
Si Si2 0.321958 0.402406 0.800571
Si Si3 0.260420 0.258528 0.627247
Si Si4 0.000000 0.060110 0.750000
Si Si5 0.425035 0.886165 0.359519
Si Si6 0.126882 0.068050 0.410814
O O1 0.745599 0.462607 0.134242
O O2 0.905539 0.238756 0.076563
O O3 0.755349 0.355988 0.962281
O O4 0.000000 0.500000 0.000000
O O5 0.500000 0.447467 0.750000
O O6 0.239247 0.371838 0.715163
O O7 0.310238 0.254096 0.862872
O O8 0.112038 0.149580 0.661407
O O9 0.427537 0.165208 0.597704
O O10 0.107197 0.967387 0.804447
O O11 0.500000 0.936882 0.250000
O O12 0.307060 0.015049 0.414909
O O13 0.000000 0.000000 0.500000
#
# Coordination Sequence:
#
# PCOD8120715 Si02
#       6
#     4   4   4   2   4   4
#     4  12  25  40  63  98 133 171 220 269 327 403
#     4   9  20  40  63  92 127 169 208 263 326 387
#     4  10  21  41  72  88 131 181 214 271 339 382
#     4  12  20  42  66  98 124 172 214 270 340 370
#     4   9  19  41  67  92 126 173 218 267 325 389
#     4  12  24  40  65  99 128 166 228 274 318 397
#
# _framework density 19.948366
#
# number of rings (size 3 to 8) (size 9 to 14) (size 15 to 20)
#    0.000    1.818    5.455    2.182    0.000    5.818 
#    0.000    0.000    0.000    0.000    0.000    0.000 
#    0.000    0.000    0.000    0.000    0.000    0.000 
#
# Total GULP energy -272592.775265 kJ/mol
# GULP energy per Si atom -12390.580694 kJ/mol
# Density = 1.990296 g / cm^3
# Si number density = 19.948366 Si / 1000 Ang^3
#
#
#
# Elastic Constant Matrix: (Units=GPa)
#
#
# Indices 1 2 3 4 5 6 
#
# 1 103.4154 53.0140 42.2539 0.0000 5.2943 0.0000
# 2 53.0140 134.4800 49.1361 0.0000 -15.0693 0.0000
# 3 42.2539 49.1361 77.0088 0.0000 10.9935 0.0000
# 4 0.0000 0.0000 0.0000 36.6828 0.0000 -10.4935
# 5 5.2943 -15.0693 10.9935 0.0000 39.4428 0.0000
# 6 0.0000 0.0000 0.0000 -10.4935 0.0000 35.8210
#
#
#
# Elastic Compliance Matrix: (Units=1/GPa)
#
#
# Indices 1 2 3 4 5 6 
#
# 1 0.013710 -0.003892 -0.004753 0.000000 -0.002003 0.000000
# 2 -0.003892 0.012185 -0.006643 0.000000 0.007029 0.000000
# 3 -0.004753 -0.006643 0.020936 0.000000 -0.007735 0.000000
# 4 0.000000 0.000000 0.000000 0.029754 0.000000 0.008716
# 5 -0.002003 0.007029 -0.007735 0.000000 0.030463 0.000000
# 6 0.000000 0.000000 0.000000 0.008716 0.000000 0.030470
#
#
# Mechanical properties :
#
#
# Convention : Reuss Voigt Hill
#
# Bulk Modulus (GPa) = 61.51934 67.07915 64.29924
# Shear Modulus (GPa) = 28.81636 33.75600 31.28618
#
# Velocity S-wave (km/s) = 3.80484 4.11806 3.96455
# Velocity P-wave (km/s) = 7.08581 7.50404 7.29792
#
# Compressibility (1/GPa) = 0.01625505
#
# Stress axis : x y z
#
# Youngs Moduli (GPa) = 72.94201 82.06647 47.76445
#
# Poissons Ratio (x) = 0.31943 0.22702
# Poissons Ratio (y) = 0.28391 0.31729
# Poissons Ratio (z) = 0.34668 0.54514
#
# Static dielectric constant tensor:
#      x y z
#    x 4.067720 0.000000 -0.021370 
#    y 0.000000 3.882110 0.000000 
#    z -0.021370 0.000000 3.535850 
# 
# 
# High freq. dielectric constant tensor:
#      x y z
#    x 1.784960 0.000000 -0.001770 
#    y 0.000000 1.765230 0.000000 
#    z -0.001770 0.000000 1.777580 
# 
# From -- ./inp_files/45995.got.cif
#   From: 2010.06.25/outbox.cif.g09.slc.cpg/sg13_23_cif.got.tgz:45995.got - 2010.06.28 04:50:58.
