data_PCOD8120210
_publ_section_title
;
Structure prediction by ZEFSAII (Michael W. Deem and Ramdas Pophale) SiO2 
 PCOD8120210
Probable space group: P 2/C
;
_chemical_formula_sum "Si O2"
_cell_formula_units_Z 20
_cell_length_a 20.702375
_cell_length_b 8.123625
_cell_length_c 5.297074
_cell_angle_alpha 90.000000
_cell_angle_beta 75.175870
_cell_angle_gamma 90.000000
_cell_volume 861.201664
_symmetry_space_group_name_H-M "P 2/C"
_symmetry_group_IT_number 13
_symmetry_cell_setting 'monoclinic'
loop_
_space_group_symop_operation_xyz
x,y,z
-x,y,1/2-z
-x,-y,-z
x,-y,1/2+z
loop_
_atom_site_type_symbol
_atom_site_label
_atom_site_fract_x
_atom_site_fract_y
_atom_site_fract_z
Si Si1 0.236231 0.455604 0.013774
Si Si2 0.500000 0.389737 0.750000
Si Si3 0.757691 0.906294 0.992321
Si Si4 0.907035 0.589828 0.342963
Si Si5 0.000000 0.889497 0.250000
Si Si6 0.399915 0.098844 0.850080
O O1 0.279579 0.499999 0.220428
O O2 0.207407 0.271238 0.042595
O O3 0.173870 0.583166 0.076134
O O4 0.500000 0.500000 0.500000
O O5 0.434154 0.276312 0.815844
O O6 0.781149 0.000010 0.718873
O O7 0.678939 0.871399 0.071067
O O8 0.935140 0.500001 0.564860
O O9 0.933188 0.777072 0.316809
O O10 0.000000 0.000000 0.500000
O O11 0.422318 0.000001 0.577678
#
# Coordination Sequence:
#
# PCOD8120210 Si02
#       6
#     4   2   4   4   2   4
#     4  10  21  38  59  85 118 157 188 231 294 347
#     4  12  24  36  56  90 120 148 196 250 290 342
#     4  10  21  38  61  88 113 149 201 245 282 342
#     4  10  21  41  62  85 118 156 189 228 293 352
#     4  12  24  40  64  92 118 150 198 246 278 334
#     4  10  21  39  60  81 116 159 193 234 297 355
#
# _framework density 23.223365000000001
#
# number of rings (size 3 to 8) (size 9 to 14) (size 15 to 20)
#    0.000    1.600    0.000    4.800    0.000    1.600 
#    0.000   24.000    0.000    0.000    0.000    0.000 
#    0.000    0.000    0.000    0.000    0.000    0.000 
#
# Total GULP energy -247903.932413 kJ/mol
# GULP energy per Si atom -12395.196621 kJ/mol
# Density = 2.317051 g / cm^3
# Si number density = 23.223365 Si / 1000 Ang^3
#
#
#
# Elastic Constant Matrix: (Units=GPa)
#
#
# Indices 1 2 3 4 5 6 
#
# 1 31.9879 6.8225 12.9230 0.0000 -1.2473 0.0000
# 2 6.8225 160.8076 99.5781 0.0000 19.7243 0.0000
# 3 12.9230 99.5781 269.2254 0.0000 51.7106 0.0000
# 4 0.0000 0.0000 0.0000 59.5599 0.0000 6.0143
# 5 -1.2473 19.7243 51.7106 0.0000 17.8534 0.0000
# 6 0.0000 0.0000 0.0000 6.0143 0.0000 31.2865
#
#
#
# Elastic Compliance Matrix: (Units=1/GPa)
#
#
# Indices 1 2 3 4 5 6 
#
# 1 0.033820 -0.000634 -0.004456 0.000000 0.015971 0.000000
# 2 -0.000634 0.008081 -0.002784 0.000000 -0.000909 0.000000
# 3 -0.004456 -0.002784 0.009978 0.000000 -0.026136 0.000000
# 4 0.000000 0.000000 0.000000 0.017122 0.000000 -0.003291
# 5 0.015971 -0.000909 -0.026136 0.000000 0.133831 0.000000
# 6 0.000000 0.000000 0.000000 -0.003291 0.000000 0.032595
#
#
# Mechanical properties :
#
#
# Convention : Reuss Voigt Hill
#
# Bulk Modulus (GPa) = 27.67791 77.85202 52.76497
# Shear Modulus (GPa) = 18.99548 44.58642 31.79095
#
# Velocity S-wave (km/s) = 2.86308 4.38641 3.70391
# Velocity P-wave (km/s) = 4.78264 7.69741 6.40795
#
# Compressibility (1/GPa) = 0.03612989
#
# Stress axis : x y z
#
# Youngs Moduli (GPa) = 29.56806 123.74913 100.22187
#
# Poissons Ratio (x) = 0.07849 0.44663
# Poissons Ratio (y) = 0.01876 0.27900
# Poissons Ratio (z) = 0.13177 0.34450
#
# Static dielectric constant tensor:
#      x y z
#    x 3.854760 0.000000 0.400820 
#    y 0.000000 4.147630 0.000000 
#    z 0.400820 0.000000 5.738220 
# 
# 
# High freq. dielectric constant tensor:
#      x y z
#    x 1.888100 0.000000 0.014310 
#    y 0.000000 1.922110 0.000000 
#    z 0.014310 0.000000 1.955340 
# 
# From -- ./inp_files/7645.got.cif
#   From: 2010.06.25/outbox.cif.g09.slc.cpg/sg13_4_cif.got.tgz:7645.got - 2010.06.28 04:50:58.
