data_PCOD8120190
_publ_section_title
;
Structure prediction by ZEFSAII (Michael W. Deem and Ramdas Pophale) SiO2 
 PCOD8120190
Probable space group: P 2/C
;
_chemical_formula_sum "Si O2"
_cell_formula_units_Z 16
_cell_length_a 8.384515
_cell_length_b 9.172981
_cell_length_c 7.239807
_cell_angle_alpha 90.000000
_cell_angle_beta 92.173698
_cell_angle_gamma 90.000000
_cell_volume 556.420103
_symmetry_space_group_name_H-M "P 2/C"
_symmetry_group_IT_number 13
_symmetry_cell_setting 'monoclinic'
loop_
_space_group_symop_operation_xyz
x,y,z
-x,y,1/2-z
-x,-y,-z
x,-y,1/2+z
loop_
_atom_site_type_symbol
_atom_site_label
_atom_site_fract_x
_atom_site_fract_y
_atom_site_fract_z
Si Si1 0.319831 0.969777 0.803535
Si Si2 0.791585 0.746612 0.444843
Si Si3 0.811668 0.530489 0.757279
Si Si4 0.835814 0.221470 0.506404
O O1 0.500000 0.961578 0.750000
O O2 0.312063 0.894942 0.013687
O O3 0.201209 0.872952 0.677808
O O4 0.253268 0.137787 0.821483
O O5 0.734123 0.628691 0.595570
O O6 0.759186 0.643124 0.258971
O O7 0.976378 0.788948 0.456030
O O8 0.778301 0.612367 0.955787
O O9 0.000000 0.532748 0.750000
#
# Coordination Sequence:
#
# PCOD8120190 Si02
#       4
#     4   4   4   4
#     4  11  23  39  56  83 119 152 186 230 277 333
#     4  10  21  38  61  87 113 145 190 235 279 334
#     4   9  18  35  58  86 111 138 186 240 277 324
#     4  10  21  38  58  82 112 149 191 233 276 331
#
# _framework density 28.755254999999998
#
# number of rings (size 3 to 8) (size 9 to 14) (size 15 to 20)
#    0.000    2.000    0.000    6.750    0.000    4.000 
#    0.000    6.250    0.000    0.000    0.000    0.000 
#    0.000    0.000    0.000    0.000    0.000    0.000 
#
# Total GULP energy -198309.716830 kJ/mol
# GULP energy per Si atom -12394.357302 kJ/mol
# Density = 2.868981 g / cm^3
# Si number density = 28.755255 Si / 1000 Ang^3
#
#
#
# Elastic Constant Matrix: (Units=GPa)
#
#
# Indices 1 2 3 4 5 6 
#
# 1 88.8751 60.2045 46.3661 0.0000 -28.2852 0.0000
# 2 60.2045 268.0878 57.7082 0.0000 -22.6501 0.0000
# 3 46.3661 57.7082 127.0885 0.0000 -23.0575 0.0000
# 4 0.0000 0.0000 0.0000 50.5857 0.0000 -2.2078
# 5 -28.2852 -22.6501 -23.0575 0.0000 36.6799 0.0000
# 6 0.0000 0.0000 0.0000 -2.2078 0.0000 14.7370
#
#
#
# Elastic Compliance Matrix: (Units=1/GPa)
#
#
# Indices 1 2 3 4 5 6 
#
# 1 0.017995 -0.002404 -0.003641 0.000000 0.010104 0.000000
# 2 -0.002404 0.004535 -0.001141 0.000000 0.000230 0.000000
# 3 -0.003641 -0.001141 0.010246 0.000000 0.002929 0.000000
# 4 0.000000 0.000000 0.000000 0.019899 0.000000 0.002981
# 5 0.010104 0.000230 0.002929 0.000000 0.037037 0.000000
# 6 0.000000 0.000000 0.000000 0.002981 0.000000 0.068303
#
#
# Mechanical properties :
#
#
# Convention : Reuss Voigt Hill
#
# Bulk Modulus (GPa) = 54.32980 90.28991 72.30985
# Shear Modulus (GPa) = 28.00806 41.71869 34.86337
#
# Velocity S-wave (km/s) = 3.12431 3.81309 3.48576
# Velocity P-wave (km/s) = 5.65243 7.13119 6.43443
#
# Compressibility (1/GPa) = 0.01840611
#
# Stress axis : x y z
#
# Youngs Moduli (GPa) = 55.57117 220.51387 97.59875
#
# Poissons Ratio (x) = 0.53008 0.35531
# Poissons Ratio (y) = 0.13358 0.11131
# Poissons Ratio (z) = 0.20231 0.25150
#
# Static dielectric constant tensor:
#      x y z
#    x 4.048170 0.000000 -0.207190 
#    y 0.000000 6.838490 0.000000 
#    z -0.207190 0.000000 7.903970 
# 
# 
# High freq. dielectric constant tensor:
#      x y z
#    x 2.060210 0.000000 -0.019390 
#    y 0.000000 2.251360 0.000000 
#    z -0.019390 0.000000 2.272750 
# 
# From -- ./inp_files/10842.got.cif
#   From: 2010.06.25/outbox.cif.g09.slc.cpg/sg13_6_cif.got.tgz:10842.got - 2010.06.28 04:50:58.
