data_PCOD8120795
_publ_section_title
;
Structure prediction by ZEFSAII (Michael W. Deem and Ramdas Pophale) SiO2 
 PCOD8120795
Probable space group: P 2/C
;
_chemical_formula_sum "Si O2"
_cell_formula_units_Z 14
_cell_length_a 7.256807
_cell_length_b 17.612685
_cell_length_c 5.314143
_cell_angle_alpha 90.000000
_cell_angle_beta 122.626032
_cell_angle_gamma 90.000000
_cell_volume 572.036175
_symmetry_space_group_name_H-M "P 2/C"
_symmetry_group_IT_number 13
_symmetry_cell_setting 'monoclinic'
loop_
_space_group_symop_operation_xyz
x,y,z
-x,y,1/2-z
-x,-y,-z
x,-y,1/2+z
loop_
_atom_site_type_symbol
_atom_site_label
_atom_site_fract_x
_atom_site_fract_y
_atom_site_fract_z
Si Si1 0.752498 0.964165 0.418950
Si Si2 0.136587 0.207256 0.597887
Si Si3 0.500000 0.318190 0.750000
Si Si4 0.741395 0.543581 0.577886
O O1 0.500000 0.988567 0.250000
O O2 0.769569 0.876584 0.364724
O O3 0.857801 0.982596 0.773215
O O4 0.337004 0.264885 0.787692
O O5 0.000000 0.212836 0.750000
O O6 0.000000 0.230583 0.250000
O O7 0.358852 0.372297 0.460177
O O8 0.662442 0.509764 0.249351
O O9 0.000000 0.550774 0.750000
#
# Coordination Sequence:
#
# PCOD8120795 Si02
#       4
#     4   4   2   4
#     4  10  21  42  70  97 131 178 233 287 340 400
#     4  12  28  45  68 103 139 185 234 279 345 414
#     4  12  26  48  70 102 146 186 216 290 344 408
#     4  10  23  44  73 104 133 175 231 278 333 409
#
# _framework density 24.473977999999999
#
# number of rings (size 3 to 8) (size 9 to 14) (size 15 to 20)
#    0.000    1.143    1.429    3.429    0.000   12.571 
#    0.000    0.000    0.000    0.000    0.000    0.000 
#    0.000    0.000    0.000    0.000    0.000    0.000 
#
# Total GULP energy -173682.090773 kJ/mol
# GULP energy per Si atom -12405.863627 kJ/mol
# Density = 2.441827 g / cm^3
# Si number density = 24.473978 Si / 1000 Ang^3
#
#
#
# Elastic Constant Matrix: (Units=GPa)
#
#
# Indices 1 2 3 4 5 6 
#
# 1 180.1582 87.7289 78.6107 0.0000 -32.1266 0.0000
# 2 87.7289 198.1497 52.9277 0.0000 -17.4271 0.0000
# 3 78.6107 52.9277 161.3064 0.0000 -37.6544 0.0000
# 4 0.0000 0.0000 0.0000 31.5400 0.0000 19.6459
# 5 -32.1266 -17.4271 -37.6544 0.0000 26.7698 0.0000
# 6 0.0000 0.0000 0.0000 19.6459 0.0000 32.9023
#
#
#
# Elastic Compliance Matrix: (Units=1/GPa)
#
#
# Indices 1 2 3 4 5 6 
#
# 1 0.008889 -0.002877 -0.001987 0.000000 0.005999 0.000000
# 2 -0.002877 0.006507 -0.000819 0.000000 -0.000369 0.000000
# 3 -0.001987 -0.000819 0.010058 0.000000 0.011229 0.000000
# 4 0.000000 0.000000 0.000000 0.050481 0.000000 -0.030142
# 5 0.005999 -0.000369 0.011229 0.000000 0.060110 0.000000
# 6 0.000000 0.000000 0.000000 -0.030142 0.000000 0.048391
#
#
# Mechanical properties :
#
#
# Convention : Reuss Voigt Hill
#
# Bulk Modulus (GPa) = 70.98985 108.68322 89.83653
# Shear Modulus (GPa) = 24.93807 39.59891 32.26849
#
# Velocity S-wave (km/s) = 3.19558 4.02680 3.63503
# Velocity P-wave (km/s) = 6.53337 8.13168 7.37595
#
# Compressibility (1/GPa) = 0.01408652
#
# Stress axis : x y z
#
# Youngs Moduli (GPa) = 112.50484 153.68694 99.42372
#
# Poissons Ratio (x) = 0.44213 0.19760
# Poissons Ratio (y) = 0.32366 0.08143
# Poissons Ratio (z) = 0.22360 0.12588
#
# Static dielectric constant tensor:
#      x y z
#    x 4.856040 0.000000 0.168390 
#    y 0.000000 4.309020 0.000000 
#    z 0.168390 0.000000 4.796910 
# 
# 
# High freq. dielectric constant tensor:
#      x y z
#    x 2.026330 0.000000 0.027270 
#    y 0.000000 1.968900 0.000000 
#    z 0.027270 0.000000 1.988920 
# 
# From -- ./inp_files/1171.got.cif
#   From: 2010.06.25/outbox.cif.g09.slc.cpg/sg13_1_cif.got.tgz:1171.got - 2010.06.28 04:50:58.
