data_PCOD8120007
_publ_section_title
;
Structure prediction by ZEFSAII (Michael W. Deem and Ramdas Pophale) SiO2 
 PCOD8120007
Probable space group: P 2/C
;
_chemical_formula_sum "Si O2"
_cell_formula_units_Z 14
_cell_length_a 6.331456
_cell_length_b 16.295750
_cell_length_c 5.403796
_cell_angle_alpha 90.000000
_cell_angle_beta 77.313042
_cell_angle_gamma 90.000000
_cell_volume 543.928495
_symmetry_space_group_name_H-M "P 2/C"
_symmetry_group_IT_number 13
_symmetry_cell_setting 'monoclinic'
loop_
_space_group_symop_operation_xyz
x,y,z
-x,y,1/2-z
-x,-y,-z
x,-y,1/2+z
loop_
_atom_site_type_symbol
_atom_site_label
_atom_site_fract_x
_atom_site_fract_y
_atom_site_fract_z
Si Si1 0.000000 0.552580 0.250000
Si Si2 0.730833 0.770897 0.928359
Si Si3 0.743616 0.959370 0.833009
Si Si4 0.253629 0.705800 0.078107
O O1 0.790620 0.610597 0.346243
O O2 0.000000 0.500000 0.500000
O O3 0.683238 0.866313 0.906395
O O4 0.857477 0.736809 0.652415
O O5 0.507938 0.720512 0.996543
O O6 0.850175 0.755497 0.160687
O O7 0.000000 0.971865 0.750000
O O8 0.649127 0.984280 0.584402
#
# Coordination Sequence:
#
# PCOD8120007 Si02
#       4
#     2   4   4   4
#     4  12  26  46  70 100 126 158 204 270 332 390
#     4  10  21  42  63  96 128 175 214 259 308 382
#     4  10  21  36  59  95 133 170 218 270 311 348
#     4  10  23  41  65  95 126 161 219 250 322 390
#
# _framework density 25.738676000000002
#
# number of rings (size 3 to 8) (size 9 to 14) (size 15 to 20)
#    0.000    1.714    0.000    3.429    4.000    0.000 
#    0.000   34.286    0.000    0.000    0.000    0.000 
#    0.000    0.000    0.000    0.000    0.000    0.000 
#
# Total GULP energy -173531.661689 kJ/mol
# GULP energy per Si atom -12395.118692 kJ/mol
# Density = 2.568009 g / cm^3
# Si number density = 25.738676 Si / 1000 Ang^3
#
#
#
# Elastic Constant Matrix: (Units=GPa)
#
#
# Indices 1 2 3 4 5 6 
#
# 1 53.1247 34.2086 97.6136 0.0000 4.2070 0.0000
# 2 34.2086 227.2890 124.6880 0.0000 8.0974 0.0000
# 3 97.6136 124.6880 308.0026 0.0000 26.3219 0.0000
# 4 0.0000 0.0000 0.0000 68.3924 0.0000 -2.1594
# 5 4.2070 8.0974 26.3219 0.0000 64.9683 0.0000
# 6 0.0000 0.0000 0.0000 -2.1594 0.0000 40.7689
#
#
#
# Elastic Compliance Matrix: (Units=1/GPa)
#
#
# Indices 1 2 3 4 5 6 
#
# 1 0.045985 0.001425 -0.015415 0.000000 0.003090 0.000000
# 2 0.001425 0.005703 -0.002788 0.000000 0.000327 0.000000
# 3 -0.015415 -0.002788 0.009474 0.000000 -0.002493 0.000000
# 4 0.000000 0.000000 0.000000 0.014646 0.000000 0.000776
# 5 0.003090 0.000327 -0.002493 0.000000 0.016161 0.000000
# 6 0.000000 0.000000 0.000000 0.000776 0.000000 0.024570
#
#
# Mechanical properties :
#
#
# Convention : Reuss Voigt Hill
#
# Bulk Modulus (GPa) = 36.22381 122.38187 79.30284
# Shear Modulus (GPa) = 31.38787 56.95300 44.17043
#
# Velocity S-wave (km/s) = 3.49590 4.70908 4.14709
# Velocity P-wave (km/s) = 5.51356 8.78740 7.33545
#
# Compressibility (1/GPa) = 0.02760615
#
# Stress axis : x y z
#
# Youngs Moduli (GPa) = 21.74618 175.33888 105.55281
#
# Poissons Ratio (x) = -0.24990 1.62708
# Poissons Ratio (y) = -0.03099 0.29433
# Poissons Ratio (z) = 0.33521 0.48892
#
# Static dielectric constant tensor:
#      x y z
#    x 4.991690 0.000000 0.196080 
#    y 0.000000 4.324470 0.000000 
#    z 0.196080 0.000000 6.952070 
# 
# 
# High freq. dielectric constant tensor:
#      x y z
#    x 2.076950 0.000000 -0.008700 
#    y 0.000000 1.996820 0.000000 
#    z -0.008700 0.000000 2.094630 
# 
# From -- ./inp_files/861.got.cif
#   From: 2010.06.25/outbox.cif.g09.slc.cpg/sg13_1_cif.got.tgz:861.got - 2010.06.28 04:50:58.
