data_PCOD8120676
_publ_section_title
;
Structure prediction by ZEFSAII (Michael W. Deem and Ramdas Pophale) SiO2 
 PCOD8120676
Probable space group: P 2/C
;
_chemical_formula_sum "Si O2"
_cell_formula_units_Z 24
_cell_length_a 9.635242
_cell_length_b 9.149869
_cell_length_c 14.244915
_cell_angle_alpha 90.000000
_cell_angle_beta 71.222482
_cell_angle_gamma 90.000000
_cell_volume 1189.007079
_symmetry_space_group_name_H-M "P 2/C"
_symmetry_group_IT_number 13
_symmetry_cell_setting 'monoclinic'
loop_
_space_group_symop_operation_xyz
x,y,z
-x,y,1/2-z
-x,-y,-z
x,-y,1/2+z
loop_
_atom_site_type_symbol
_atom_site_label
_atom_site_fract_x
_atom_site_fract_y
_atom_site_fract_z
Si Si1 0.204621 0.630992 0.927162
Si Si2 0.146400 0.118170 0.771396
Si Si3 0.658315 0.810703 0.438867
Si Si4 0.663810 0.154655 0.246362
Si Si5 0.123578 0.311250 0.954231
Si Si6 0.338420 0.144202 0.033752
O O1 0.279016 0.701984 0.819536
O O2 0.221214 0.456293 0.917861
O O3 0.284119 0.688409 0.002990
O O4 0.032946 0.661875 0.965822
O O5 0.254524 0.202269 0.677047
O O6 0.100469 0.231873 0.860534
O O7 0.000000 0.063808 0.750000
O O8 0.228770 0.980616 0.800136
O O9 0.485836 0.789223 0.455886
O O10 0.675207 0.970990 0.480893
O O11 0.500000 0.112958 0.250000
O O12 0.665154 0.186671 0.356301
O O13 0.200151 0.209899 0.013002
#
# Coordination Sequence:
#
# PCOD8120676 Si02
#       6
#     4   4   4   4   4   4
#     4  11  24  44  63  90 132 172 207 258 312 378
#     4  11  24  41  66  98 122 166 214 262 314 368
#     4  10  21  41  66  91 126 161 211 263 311 369
#     4  11  24  43  67  97 126 160 210 266 315 372
#     4  11  26  42  63  93 129 171 211 255 313 376
#     4  10  23  41  66  95 121 167 209 264 316 363
#
# _framework density 20.184908
#
# number of rings (size 3 to 8) (size 9 to 14) (size 15 to 20)
#    0.000    1.333    3.333    1.000    9.333    3.333 
#    3.000    0.000    0.000    0.000    0.000    0.000 
#    0.000    0.000    0.000    0.000    0.000    0.000 
#
# Total GULP energy -297697.716322 kJ/mol
# GULP energy per Si atom -12404.071513 kJ/mol
# Density = 2.013897 g / cm^3
# Si number density = 20.184908 Si / 1000 Ang^3
#
#
#
# Elastic Constant Matrix: (Units=GPa)
#
#
# Indices 1 2 3 4 5 6 
#
# 1 94.8792 30.9339 15.9761 0.0000 10.1447 0.0000
# 2 30.9339 76.4214 7.5214 0.0000 9.5832 0.0000
# 3 15.9761 7.5214 66.6080 0.0000 0.1451 0.0000
# 4 0.0000 0.0000 0.0000 14.5394 0.0000 -1.4149
# 5 10.1447 9.5832 0.1451 0.0000 34.1631 0.0000
# 6 0.0000 0.0000 0.0000 -1.4149 0.0000 28.8396
#
#
#
# Elastic Compliance Matrix: (Units=1/GPa)
#
#
# Indices 1 2 3 4 5 6 
#
# 1 0.012728 -0.004592 -0.002529 0.000000 -0.002481 0.000000
# 2 -0.004592 0.015375 -0.000628 0.000000 -0.002947 0.000000
# 3 -0.002529 -0.000628 0.015689 0.000000 0.000861 0.000000
# 4 0.000000 0.000000 0.000000 0.069109 0.000000 0.003390
# 5 -0.002481 -0.002947 0.000861 0.000000 0.030831 0.000000
# 6 0.000000 0.000000 0.000000 0.003390 0.000000 0.034841
#
#
# Mechanical properties :
#
#
# Convention : Reuss Voigt Hill
#
# Bulk Modulus (GPa) = 35.34365 38.53018 36.93692
# Shear Modulus (GPa) = 24.56968 27.74021 26.15495
#
# Velocity S-wave (km/s) = 3.49267 3.71118 3.60358
# Velocity P-wave (km/s) = 5.81489 6.12323 5.97105
#
# Compressibility (1/GPa) = 0.02829362
#
# Stress axis : x y z
#
# Youngs Moduli (GPa) = 78.56727 65.03861 63.73953
#
# Poissons Ratio (x) = 0.29866 0.16119
# Poissons Ratio (y) = 0.36079 0.04005
# Poissons Ratio (z) = 0.19869 0.04087
#
# Static dielectric constant tensor:
#      x y z
#    x 3.799090 0.000000 -0.131960 
#    y 0.000000 3.631980 0.000000 
#    z -0.131960 0.000000 3.790720 
# 
# 
# High freq. dielectric constant tensor:
#      x y z
#    x 1.805030 0.000000 -0.005780 
#    y 0.000000 1.774250 0.000000 
#    z -0.005780 0.000000 1.794110 
# 
# From -- ./inp_files/46014.got.cif
#   From: 2010.06.25/outbox.cif.g09.slc.cpg/sg13_24_cif.got.tgz:46014.got - 2010.06.28 04:50:58.
