data_PCOD8120139
_publ_section_title
;
Structure prediction by ZEFSAII (Michael W. Deem and Ramdas Pophale) SiO2 
 PCOD8120139
Probable space group: P 2/C
;
_chemical_formula_sum "Si O2"
_cell_formula_units_Z 32
_cell_length_a 9.001676
_cell_length_b 12.128314
_cell_length_c 30.100222
_cell_angle_alpha 90.000000
_cell_angle_beta 152.384143
_cell_angle_gamma 90.000000
_cell_volume 1523.287661
_symmetry_space_group_name_H-M "P 2/C"
_symmetry_group_IT_number 13
_symmetry_cell_setting 'monoclinic'
loop_
_space_group_symop_operation_xyz
x,y,z
-x,y,1/2-z
-x,-y,-z
x,-y,1/2+z
loop_
_atom_site_type_symbol
_atom_site_label
_atom_site_fract_x
_atom_site_fract_y
_atom_site_fract_z
Si Si1 0.238884 0.975174 0.777899
Si Si2 0.637629 0.208614 0.658497
Si Si3 0.780589 0.699609 0.058100
Si Si4 0.962554 0.528094 0.438455
Si Si5 0.145150 0.955887 0.412034
Si Si6 0.380914 0.654224 0.264037
Si Si7 0.740448 0.117193 0.352330
Si Si8 0.784490 0.693319 0.530803
O O1 0.533508 0.893621 0.843133
O O2 0.000000 0.914562 0.750000
O O3 0.391371 0.077495 0.845243
O O4 0.048568 0.021718 0.684845
O O5 0.501238 0.265152 0.666238
O O6 0.445290 0.250127 0.565563
O O7 0.000000 0.249259 0.750000
O O8 0.872351 0.827899 0.080014
O O9 0.849269 0.638949 0.028859
O O10 0.997750 0.639591 0.154743
O O11 0.405739 0.691837 0.972654
O O12 0.581882 0.540593 0.325867
O O13 0.000000 0.500000 0.500000
O O14 0.120609 0.430891 0.452876
O O15 0.500000 0.000000 0.500000
O O16 0.007451 0.022014 0.418132
O O17 0.500000 0.710860 0.250000
O O18 0.500000 0.091468 0.250000
O O19 0.888503 0.237334 0.383374
#
# Coordination Sequence:
#
# PCOD8120139 Si02
#       8
#     4   4   4   4   4   4   4   4
#     4  10  22  40  60  98 139 173 220 274 337 405
#     4  11  20  36  66  93 129 161 216 288 327 397
#     4  11  22  41  69  95 126 172 221 277 339 396
#     4  11  25  40  60  94 130 168 222 279 325 395
#     4  11  21  40  67 101 130 166 225 276 333 412
#     4  10  21  37  62  93 117 163 213 274 336 377
#     4  10  25  40  64  90 136 184 214 270 335 415
#     4  12  23  43  63  96 131 173 224 271 345 399
#
# _framework density 21.007194999999999
#
# number of rings (size 3 to 8) (size 9 to 14) (size 15 to 20)
#    0.000    1.250    5.000    1.125    3.500    2.000 
#    2.250    0.000    0.000    0.750    0.000    0.000 
#    0.000    0.000    0.000    0.000    0.000    0.000 
#
# Total GULP energy -396487.817101 kJ/mol
# GULP energy per Si atom -12390.244284 kJ/mol
# Density = 2.095938 g / cm^3
# Si number density = 21.007195 Si / 1000 Ang^3
#
#
#
# Elastic Constant Matrix: (Units=GPa)
#
#
# Indices 1 2 3 4 5 6 
#
# 1 147.1185 47.2320 25.8742 0.0000 16.8827 0.0000
# 2 47.2320 93.6795 29.0023 0.0000 14.0494 0.0000
# 3 25.8742 29.0023 61.6084 0.0000 17.7072 0.0000
# 4 0.0000 0.0000 0.0000 28.6592 0.0000 13.7865
# 5 16.8827 14.0494 17.7072 0.0000 35.4264 0.0000
# 6 0.0000 0.0000 0.0000 13.7865 0.0000 29.8505
#
#
#
# Elastic Compliance Matrix: (Units=1/GPa)
#
#
# Indices 1 2 3 4 5 6 
#
# 1 0.008383 -0.003533 -0.001299 0.000000 -0.001945 0.000000
# 2 -0.003533 0.014155 -0.004730 0.000000 -0.001566 0.000000
# 3 -0.001299 -0.004730 0.021354 0.000000 -0.008179 0.000000
# 4 0.000000 0.000000 0.000000 0.044859 0.000000 -0.020718
# 5 -0.001945 -0.001566 -0.008179 0.000000 0.033863 0.000000
# 6 0.000000 0.000000 0.000000 -0.020718 0.000000 0.043069
#
#
# Mechanical properties :
#
#
# Convention : Reuss Voigt Hill
#
# Bulk Modulus (GPa) = 40.37159 56.29146 48.33152
# Shear Modulus (GPa) = 25.89824 32.14041 29.01932
#
# Velocity S-wave (km/s) = 3.51497 3.91573 3.72075
# Velocity P-wave (km/s) = 5.97772 6.87738 6.44327
#
# Compressibility (1/GPa) = 0.02476990
#
# Stress axis : x y z
#
# Youngs Moduli (GPa) = 119.28838 70.64606 46.82916
#
# Poissons Ratio (x) = 0.24959 0.06081
# Poissons Ratio (y) = 0.42144 0.22149
# Poissons Ratio (z) = 0.15491 0.33414
#
# Static dielectric constant tensor:
#      x y z
#    x 4.575210 0.000000 0.473200 
#    y 0.000000 3.713850 0.000000 
#    z 0.473200 0.000000 4.080620 
# 
# 
# High freq. dielectric constant tensor:
#      x y z
#    x 1.837870 0.000000 0.015620 
#    y 0.000000 1.801440 0.000000 
#    z 0.015620 0.000000 1.813930 
# 
# From -- ./inp_files/96123.got.cif
#   From: 2010.06.25/outbox.cif.g09.slc.cpg/sg13_49_cif.got.tgz:96123.got - 2010.06.28 04:50:58.
