data_PCOD8120102
_publ_section_title
;
Structure prediction by ZEFSAII (Michael W. Deem and Ramdas Pophale) SiO2 
 PCOD8120102
Probable space group: P 2/C
;
_chemical_formula_sum "Si O2"
_cell_formula_units_Z 20
_cell_length_a 28.155430
_cell_length_b 6.394949
_cell_length_c 12.986791
_cell_angle_alpha 90.000000
_cell_angle_beta 23.045956
_cell_angle_gamma 90.000000
_cell_volume 915.374558
_symmetry_space_group_name_H-M "P 2/C"
_symmetry_group_IT_number 13
_symmetry_cell_setting 'monoclinic'
loop_
_space_group_symop_operation_xyz
x,y,z
-x,y,1/2-z
-x,-y,-z
x,-y,1/2+z
loop_
_atom_site_type_symbol
_atom_site_label
_atom_site_fract_x
_atom_site_fract_y
_atom_site_fract_z
Si Si1 0.506943 0.235370 0.445683
Si Si2 0.291132 0.601053 0.102587
Si Si3 0.139284 0.557448 0.720478
Si Si4 0.331154 0.332513 0.205205
Si Si5 0.739745 0.146702 0.647751
O O1 0.452360 0.626423 0.534901
O O2 0.500000 0.000000 0.500000
O O3 0.375797 0.293465 0.659239
O O4 0.389454 0.739589 0.846686
O O5 0.194435 0.486881 0.222488
O O6 0.354263 0.416910 0.044064
O O7 0.222374 0.765185 0.315547
O O8 0.206341 0.421654 0.500094
O O9 0.158085 0.800662 0.643645
O O10 0.000000 0.500000 0.000000
O O11 0.302946 0.087230 0.258972
#
# Coordination Sequence:
#
# PCOD8120102 Si02
#       5
#     4   4   4   4   4
#     4   9  19  37  58  87 124 152 183 232 291 353
#     4  10  21  37  60  85 115 152 193 240 287 341
#     4  10  23  41  57  79 115 154 195 244 291 338
#     4   9  21  38  59  88 116 150 193 235 289 349
#     4  10  21  38  59  87 118 150 191 234 289 351
#
# _framework density 21.848980000000001
#
# number of rings (size 3 to 8) (size 9 to 14) (size 15 to 20)
#    0.000    2.400    0.000    0.600    0.000   17.600 
#    0.000   14.000    0.000    0.000    0.000    0.000 
#    0.000    0.000    0.000    0.000    0.000    0.000 
#
# Total GULP energy -247859.475255 kJ/mol
# GULP energy per Si atom -12392.973763 kJ/mol
# Density = 2.179925 g / cm^3
# Si number density = 21.848980 Si / 1000 Ang^3
#
#
#
# Elastic Constant Matrix: (Units=GPa)
#
#
# Indices 1 2 3 4 5 6 
#
# 1 153.6433 42.4963 66.0836 0.0000 17.4418 0.0000
# 2 42.4963 79.4502 21.9502 0.0000 9.9709 0.0000
# 3 66.0836 21.9502 109.1935 0.0000 -3.1339 0.0000
# 4 0.0000 0.0000 0.0000 37.2972 0.0000 12.4857
# 5 17.4418 9.9709 -3.1339 0.0000 28.0490 0.0000
# 6 0.0000 0.0000 0.0000 12.4857 0.0000 31.6691
#
#
#
# Elastic Compliance Matrix: (Units=1/GPa)
#
#
# Indices 1 2 3 4 5 6 
#
# 1 0.010691 -0.003294 -0.005985 0.000000 -0.006146 0.000000
# 2 -0.003294 0.015096 -0.001140 0.000000 -0.003445 0.000000
# 3 -0.005985 -0.001140 0.013170 0.000000 0.005598 0.000000
# 4 0.000000 0.000000 0.000000 0.030888 0.000000 -0.012178
# 5 -0.006146 -0.003445 0.005598 0.000000 0.041324 0.000000
# 6 0.000000 0.000000 0.000000 -0.012178 0.000000 0.036378
#
#
# Mechanical properties :
#
#
# Convention : Reuss Voigt Hill
#
# Bulk Modulus (GPa) = 55.18822 67.03857 61.11340
# Shear Modulus (GPa) = 28.66580 33.52019 31.09299
#
# Velocity S-wave (km/s) = 3.62608 3.92111 3.77647
# Velocity P-wave (km/s) = 6.54561 7.15887 6.85910
#
# Compressibility (1/GPa) = 0.01811981
#
# Stress axis : x y z
#
# Youngs Moduli (GPa) = 93.53300 66.24412 75.93137
#
# Poissons Ratio (x) = 0.21820 0.45442
# Poissons Ratio (y) = 0.30809 0.08656
# Poissons Ratio (z) = 0.55976 0.07552
#
# Static dielectric constant tensor:
#      x y z
#    x 4.328440 0.000000 0.141930 
#    y 0.000000 4.295890 0.000000 
#    z 0.141930 0.000000 3.718230 
# 
# 
# High freq. dielectric constant tensor:
#      x y z
#    x 1.869420 0.000000 0.016210 
#    y 0.000000 1.886050 0.000000 
#    z 0.016210 0.000000 1.829440 
# 
# From -- ./inp_files/42026.got.cif
#   From: 2010.06.25/outbox.cif.g09.slc.cpg/sg13_22_cif.got.tgz:42026.got - 2010.06.28 04:50:58.
