data_PCOD8120193
_publ_section_title
;
Structure prediction by ZEFSAII (Michael W. Deem and Ramdas Pophale) SiO2 
 PCOD8120193
Probable space group: P 2/C
;
_chemical_formula_sum "Si O2"
_cell_formula_units_Z 28
_cell_length_a 9.898531
_cell_length_b 28.718304
_cell_length_c 5.018597
_cell_angle_alpha 90.000000
_cell_angle_beta 116.036099
_cell_angle_gamma 90.000000
_cell_volume 1281.853763
_symmetry_space_group_name_H-M "P 2/C"
_symmetry_group_IT_number 13
_symmetry_cell_setting 'monoclinic'
loop_
_space_group_symop_operation_xyz
x,y,z
-x,y,1/2-z
-x,-y,-z
x,-y,1/2+z
loop_
_atom_site_type_symbol
_atom_site_label
_atom_site_fract_x
_atom_site_fract_y
_atom_site_fract_z
Si Si1 0.172366 0.030106 0.901937
Si Si2 0.932888 0.448085 0.944962
Si Si3 0.669590 0.399392 0.897372
Si Si4 0.325758 0.340333 0.096770
Si Si5 0.325082 0.795631 0.114616
Si Si6 0.599939 0.891912 0.091831
Si Si7 0.825883 0.246196 0.525635
O O1 0.281291 0.071732 0.918738
O O2 0.000000 0.047624 0.750000
O O3 0.204614 0.987526 0.728140
O O4 0.755527 0.445024 0.851170
O O5 0.000000 0.421146 0.750000
O O6 0.000000 0.419274 0.250000
O O7 0.000000 0.500000 0.000000
O O8 0.500000 0.416102 0.750000
O O9 0.708614 0.356939 0.732499
O O10 0.707248 0.382996 0.228995
O O11 0.500000 0.324076 0.250000
O O12 0.215107 0.298844 0.091269
O O13 0.500000 0.782760 0.250000
O O14 0.308778 0.848750 0.202528
O O15 0.260850 0.761236 0.276280
O O16 0.232854 0.788791 0.757902
O O17 0.500000 0.913081 0.250000
O O18 0.500000 0.875702 0.750000
O O19 0.000000 0.238672 0.750000
#
# Coordination Sequence:
#
# PCOD8120193 Si02
#       7
#     4   4   4   4   4   4   4
#     4  10  22  40  62  90 126 165 203 254 324 388
#     4  10  21  38  58  85 118 155 193 239 302 360
#     4  10  21  38  61  88 118 157 207 251 296 365
#     4  10  21  38  62  90 121 162 204 251 312 370
#     4  11  23  43  65  87 126 173 211 254 314 382
#     4  11  23  40  64  94 122 162 218 264 311 373
#     4  12  25  41  63  96 127 160 210 265 314 370
#
# _framework density 21.843364999999999
#
# number of rings (size 3 to 8) (size 9 to 14) (size 15 to 20)
#    0.000    1.429    0.000    6.000    0.000    5.143 
#    0.000    8.571    0.000    0.000    0.000    0.000 
#    0.000    0.000    0.000    0.000    0.000    0.000 
#
# Total GULP energy -346902.937352 kJ/mol
# GULP energy per Si atom -12389.390620 kJ/mol
# Density = 2.179365 g / cm^3
# Si number density = 21.843365 Si / 1000 Ang^3
#
#
#
# Elastic Constant Matrix: (Units=GPa)
#
#
# Indices 1 2 3 4 5 6 
#
# 1 157.1048 59.8656 56.5619 0.0000 -3.0270 0.0000
# 2 59.8656 80.2879 25.4182 0.0000 18.0520 0.0000
# 3 56.5619 25.4182 132.8253 0.0000 -5.8088 0.0000
# 4 0.0000 0.0000 0.0000 5.8522 0.0000 -0.5400
# 5 -3.0270 18.0520 -5.8088 0.0000 40.3718 0.0000
# 6 0.0000 0.0000 0.0000 -0.5400 0.0000 29.1602
#
#
#
# Elastic Compliance Matrix: (Units=1/GPa)
#
#
# Indices 1 2 3 4 5 6 
#
# 1 0.010381 -0.007724 -0.002775 0.000000 0.003833 0.000000
# 2 -0.007724 0.020837 -0.001138 0.000000 -0.010060 0.000000
# 3 -0.002775 -0.001138 0.008998 0.000000 0.001596 0.000000
# 4 0.000000 0.000000 0.000000 0.171168 0.000000 0.003170
# 5 0.003833 -0.010060 0.001596 0.000000 0.029785 0.000000
# 6 0.000000 0.000000 0.000000 0.003170 0.000000 0.034352
#
#
# Mechanical properties :
#
#
# Convention : Reuss Voigt Hill
#
# Bulk Modulus (GPa) = 59.02641 72.65660 65.84151
# Shear Modulus (GPa) = 16.42345 30.30166 23.36256
#
# Velocity S-wave (km/s) = 2.74501 3.72859 3.27394
# Velocity P-wave (km/s) = 6.09327 7.20217 6.67080
#
# Compressibility (1/GPa) = 0.01694157
#
# Stress axis : x y z
#
# Youngs Moduli (GPa) = 96.32642 47.99236 111.13578
#
# Poissons Ratio (x) = 0.37069 0.30841
# Poissons Ratio (y) = 0.74402 0.12650
# Poissons Ratio (z) = 0.26731 0.05463
#
# Static dielectric constant tensor:
#      x y z
#    x 4.360330 0.000000 0.034900 
#    y 0.000000 3.515490 0.000000 
#    z 0.034900 0.000000 4.304150 
# 
# 
# High freq. dielectric constant tensor:
#      x y z
#    x 1.877850 0.000000 -0.019550 
#    y 0.000000 1.830320 0.000000 
#    z -0.019550 0.000000 1.874470 
# 
# From -- ./inp_files/2749.got.cif
#   From: 2010.06.25/outbox.cif.g09.slc.cpg/sg13_2_cif.got.tgz:2749.got - 2010.06.28 04:50:58.
