data_PCOD8120746
_publ_section_title
;
Structure prediction by ZEFSAII (Michael W. Deem and Ramdas Pophale) SiO2 
 PCOD8120746
Probable space group: P 2/C
;
_chemical_formula_sum "Si O2"
_cell_formula_units_Z 18
_cell_length_a 5.273113
_cell_length_b 21.257655
_cell_length_c 8.909164
_cell_angle_alpha 90.000000
_cell_angle_beta 58.004407
_cell_angle_gamma 90.000000
_cell_volume 846.955790
_symmetry_space_group_name_H-M "P 2/C"
_symmetry_group_IT_number 13
_symmetry_cell_setting 'monoclinic'
loop_
_space_group_symop_operation_xyz
x,y,z
-x,y,1/2-z
-x,-y,-z
x,-y,1/2+z
loop_
_atom_site_type_symbol
_atom_site_label
_atom_site_fract_x
_atom_site_fract_y
_atom_site_fract_z
Si Si1 0.850435 0.165874 0.636163
Si Si2 0.858565 0.057030 0.133757
Si Si3 0.787977 0.414888 0.087480
Si Si4 0.843880 0.691581 0.138446
Si Si5 0.000000 0.516316 0.250000
O O1 0.500000 0.146582 0.750000
O O2 0.887658 0.237330 0.566183
O O3 0.000000 0.156686 0.750000
O O4 0.036982 0.123369 0.464826
O O5 0.500000 0.052844 0.250000
O O6 0.000000 0.050703 0.250000
O O7 0.000000 0.000000 0.000000
O O8 0.500000 0.381701 0.250000
O O9 0.828818 0.474304 0.184093
O O10 0.029521 0.359065 0.019856
O O11 0.771188 0.440000 0.919489
O O12 0.500000 0.674336 0.250000
O O13 0.000000 0.683466 0.250000
#
# Coordination Sequence:
#
# PCOD8120746 Si02
#       5
#     4   4   4   4   2
#     4  10  21  42  65  91 126 171 208 259 319 376
#     4  12  24  40  64  96 131 171 215 267 312 377
#     4  11  23  40  64  91 123 167 214 266 324 392
#     4  10  23  42  66  91 129 167 209 262 325 385
#     4  10  24  40  60  92 128 160 214 266 330 380
#
# _framework density 21.252587999999999
#
# number of rings (size 3 to 8) (size 9 to 14) (size 15 to 20)
#    0.000    1.333    1.111    4.000    3.111    4.444 
#    2.000    0.000    0.000    0.000    0.000    0.000 
#    0.000    0.000    0.000    0.000    0.000    0.000 
#
# Total GULP energy -223076.151502 kJ/mol
# GULP energy per Si atom -12393.119528 kJ/mol
# Density = 2.120422 g / cm^3
# Si number density = 21.252588 Si / 1000 Ang^3
#
#
#
# Elastic Constant Matrix: (Units=GPa)
#
#
# Indices 1 2 3 4 5 6 
#
# 1 158.7631 48.7948 78.7892 0.0000 -21.1762 0.0000
# 2 48.7948 148.1705 97.3100 0.0000 -22.4964 0.0000
# 3 78.7892 97.3100 177.4905 0.0000 -19.7218 0.0000
# 4 0.0000 0.0000 0.0000 25.1836 0.0000 -9.6676
# 5 -21.1762 -22.4964 -19.7218 0.0000 44.7993 0.0000
# 6 0.0000 0.0000 0.0000 -9.6676 0.0000 26.4805
#
#
#
# Elastic Compliance Matrix: (Units=1/GPa)
#
#
# Indices 1 2 3 4 5 6 
#
# 1 0.008325 -0.000199 -0.003323 0.000000 0.002373 0.000000
# 2 -0.000199 0.010920 -0.005572 0.000000 0.002936 0.000000
# 3 -0.003323 -0.005572 0.010176 0.000000 0.000111 0.000000
# 4 0.000000 0.000000 0.000000 0.046181 0.000000 0.016860
# 5 0.002373 0.002936 0.000111 0.000000 0.024967 0.000000
# 6 0.000000 0.000000 0.000000 0.016860 0.000000 0.043919
#
#
# Mechanical properties :
#
#
# Convention : Reuss Voigt Hill
#
# Bulk Modulus (GPa) = 89.02130 103.80134 96.41132
# Shear Modulus (GPa) = 30.04428 36.59468 33.31948
#
# Velocity S-wave (km/s) = 3.76397 4.15407 3.96382
# Velocity P-wave (km/s) = 7.80180 8.48270 8.14937
#
# Compressibility (1/GPa) = 0.01123327
#
# Stress axis : x y z
#
# Youngs Moduli (GPa) = 120.11427 91.57590 98.26578
#
# Poissons Ratio (x) = 0.01824 0.32653
# Poissons Ratio (y) = 0.02393 0.54756
# Poissons Ratio (z) = 0.39912 0.51028
#
# Static dielectric constant tensor:
#      x y z
#    x 3.906630 0.000000 0.043520 
#    y 0.000000 3.872370 0.000000 
#    z 0.043520 0.000000 4.376410 
# 
# 
# High freq. dielectric constant tensor:
#      x y z
#    x 1.834260 0.000000 -0.004380 
#    y 0.000000 1.851800 0.000000 
#    z -0.004380 0.000000 1.836090 
# 
# From -- ./inp_files/9868.got.cif
#   From: 2010.06.25/outbox.cif.g09.slc.cpg/sg13_5_cif.got.tgz:9868.got - 2010.06.28 04:50:58.
