data_PCOD8120630
_publ_section_title
;
Structure prediction by ZEFSAII (Michael W. Deem and Ramdas Pophale) SiO2 
 PCOD8120630
Probable space group: P 2/C
;
_chemical_formula_sum "Si O2"
_cell_formula_units_Z 24
_cell_length_a 26.538727
_cell_length_b 5.022082
_cell_length_c 23.603667
_cell_angle_alpha 90.000000
_cell_angle_beta 157.001807
_cell_angle_gamma 90.000000
_cell_volume 1229.105347
_symmetry_space_group_name_H-M "P 2/C"
_symmetry_group_IT_number 13
_symmetry_cell_setting 'monoclinic'
loop_
_space_group_symop_operation_xyz
x,y,z
-x,y,1/2-z
-x,-y,-z
x,-y,1/2+z
loop_
_atom_site_type_symbol
_atom_site_label
_atom_site_fract_x
_atom_site_fract_y
_atom_site_fract_z
Si Si1 0.562934 0.272590 0.496127
Si Si2 0.648927 0.322210 0.912352
Si Si3 0.816283 0.677595 0.474366
Si Si4 0.604237 0.767550 0.167538
Si Si5 0.266790 0.178464 0.933602
Si Si6 0.980457 0.179745 0.663677
O O1 0.499882 0.556845 0.416446
O O2 0.626915 0.273526 0.624254
O O3 0.675801 0.211060 0.569238
O O4 0.448359 0.059525 0.373164
O O5 0.500000 0.255040 0.750000
O O6 0.716879 0.289698 0.922590
O O7 0.666456 0.620311 0.953355
O O8 0.710871 0.119267 0.021082
O O9 0.742340 0.733146 0.339509
O O10 0.873586 0.382294 0.529929
O O11 0.933913 0.881077 0.603847
O O12 0.114647 0.230767 0.770621
O O13 0.000000 0.232218 0.750000
#
# Coordination Sequence:
#
# PCOD8120630 Si02
#       6
#     4   4   4   4   4   4
#     4  10  21  41  62  87 117 150 191 237 301 339
#     4  12  23  35  58  87 117 144 188 247 289 341
#     4  12  22  39  59  86 116 154 201 228 289 343
#     4  10  22  40  64  86 116 152 188 245 291 344
#     4  12  23  38  58  85 116 154 193 230 290 342
#     4  12  23  40  57  82 122 164 188 232 283 346
#
# _framework density 19.526396999999999
#
# number of rings (size 3 to 8) (size 9 to 14) (size 15 to 20)
#    0.000    0.667    3.333    6.000    0.000    0.000 
#    0.000    1.667    0.000    0.000    0.000    0.000 
#    0.000    0.000    0.000    0.000    0.000    0.000 
#
# Total GULP energy -297824.242320 kJ/mol
# GULP energy per Si atom -12409.343430 kJ/mol
# Density = 1.948195 g / cm^3
# Si number density = 19.526397 Si / 1000 Ang^3
#
#
#
# Elastic Constant Matrix: (Units=GPa)
#
#
# Indices 1 2 3 4 5 6 
#
# 1 82.8946 7.9623 45.4100 0.0000 7.3127 0.0000
# 2 7.9623 73.1519 9.5551 0.0000 -3.8872 0.0000
# 3 45.4100 9.5551 105.0878 0.0000 2.2572 0.0000
# 4 0.0000 0.0000 0.0000 27.2520 0.0000 3.9443
# 5 7.3127 -3.8872 2.2572 0.0000 29.1028 0.0000
# 6 0.0000 0.0000 0.0000 3.9443 0.0000 21.0730
#
#
#
# Elastic Compliance Matrix: (Units=1/GPa)
#
#
# Indices 1 2 3 4 5 6 
#
# 1 0.016239 -0.001070 -0.006841 0.000000 -0.003693 0.000000
# 2 -0.001070 0.014016 -0.000859 0.000000 0.002208 0.000000
# 3 -0.006841 -0.000859 0.012536 0.000000 0.000632 0.000000
# 4 0.000000 0.000000 0.000000 0.037716 0.000000 -0.007059
# 5 -0.003693 0.002208 0.000632 0.000000 0.035535 0.000000
# 6 0.000000 0.000000 0.000000 -0.007059 0.000000 0.048775
#
#
# Mechanical properties :
#
#
# Convention : Reuss Voigt Hill
#
# Bulk Modulus (GPa) = 39.60174 42.99878 41.30026
# Shear Modulus (GPa) = 26.20870 28.69935 27.45403
#
# Velocity S-wave (km/s) = 3.66761 3.83792 3.75373
# Velocity P-wave (km/s) = 6.18549 6.45819 6.32331
#
# Compressibility (1/GPa) = 0.02525141
#
# Stress axis : x y z
#
# Youngs Moduli (GPa) = 61.57846 71.34581 79.76789
#
# Poissons Ratio (x) = 0.07636 0.54567
# Poissons Ratio (y) = 0.06591 0.06855
# Poissons Ratio (z) = 0.42124 0.06131
#
# Static dielectric constant tensor:
#      x y z
#    x 3.542320 0.000000 0.027100 
#    y 0.000000 3.774380 0.000000 
#    z 0.027100 0.000000 3.501430 
# 
# 
# High freq. dielectric constant tensor:
#      x y z
#    x 1.753010 0.000000 0.002650 
#    y 0.000000 1.781520 0.000000 
#    z 0.002650 0.000000 1.759110 
# 
# From -- ./inp_files/84357.got.cif
#   From: 2010.06.25/outbox.cif.g09.slc.cpg/sg13_43_cif.got.tgz:84357.got - 2010.06.28 04:50:58.
