data_PCOD8120218
_publ_section_title
;
Structure prediction by ZEFSAII (Michael W. Deem and Ramdas Pophale) SiO2 
 PCOD8120218
Probable space group: P 2/C
;
_chemical_formula_sum "Si O2"
_cell_formula_units_Z 32
_cell_length_a 16.688893
_cell_length_b 16.473700
_cell_length_c 10.980721
_cell_angle_alpha 90.000000
_cell_angle_beta 32.918841
_cell_angle_gamma 90.000000
_cell_volume 1640.625842
_symmetry_space_group_name_H-M "P 2/C"
_symmetry_group_IT_number 13
_symmetry_cell_setting 'monoclinic'
loop_
_space_group_symop_operation_xyz
x,y,z
-x,y,1/2-z
-x,-y,-z
x,-y,1/2+z
loop_
_atom_site_type_symbol
_atom_site_label
_atom_site_fract_x
_atom_site_fract_y
_atom_site_fract_z
Si Si1 0.072636 0.401106 0.527738
Si Si2 0.096332 0.410834 0.006574
Si Si3 0.650164 0.713269 0.292048
Si Si4 0.663155 0.883667 0.681331
Si Si5 0.670156 0.169043 0.548207
Si Si6 0.314305 0.268301 0.206066
Si Si7 0.828790 0.041597 0.493751
Si Si8 0.666120 0.867302 0.399503
O O1 0.125791 0.493696 0.463062
O O2 0.215521 0.346838 0.334601
O O3 0.000000 0.378674 0.750000
O O4 0.974513 0.383446 0.532274
O O5 0.000000 0.388742 0.250000
O O6 0.255214 0.368421 0.817470
O O7 0.704614 0.766260 0.108988
O O8 0.478081 0.693500 0.492702
O O9 0.674441 0.769026 0.380985
O O10 0.714978 0.791661 0.642995
O O11 0.679539 0.897061 0.517997
O O12 0.764677 0.953092 0.608884
O O13 0.495622 0.893990 0.945440
O O14 0.500000 0.146474 0.750000
O O15 0.728274 0.210050 0.351808
O O16 0.753479 0.084850 0.472693
O O17 0.797659 0.094281 0.653779
O O18 0.000000 0.034041 0.250000
#
# Coordination Sequence:
#
# PCOD8120218 Si02
#       8
#     4   4   4   4   4   4   4   4
#     4  10  23  39  58  91 125 159 193 235 299 364
#     4  10  21  40  64  87 121 161 196 233 293 365
#     4   9  19  37  62  88 112 149 200 244 281 348
#     4  10  22  38  59  80 115 160 191 240 300 362
#     4   9  20  38  61  85 114 151 197 247 296 353
#     4  10  21  38  59  88 117 148 197 245 298 343
#     4  11  24  38  57  87 115 148 203 253 291 346
#     4   9  21  39  59  82 111 155 200 234 297 365
#
# _framework density 19.504753000000001
#
# number of rings (size 3 to 8) (size 9 to 14) (size 15 to 20)
#    0.000    2.250    0.000    1.875    5.250    5.500 
#    0.000    0.000    0.000    4.500    0.000    0.000 
#    0.000    0.000    0.000    0.000    0.000    0.000 
#
# Total GULP energy -396625.697268 kJ/mol
# GULP energy per Si atom -12394.553040 kJ/mol
# Density = 1.946036 g / cm^3
# Si number density = 19.504753 Si / 1000 Ang^3
#
#
#
# Elastic Constant Matrix: (Units=GPa)
#
#
# Indices 1 2 3 4 5 6 
#
# 1 83.3103 39.0126 36.7731 0.0000 0.7864 0.0000
# 2 39.0126 94.2470 58.4821 0.0000 -21.6289 0.0000
# 3 36.7731 58.4821 107.3105 0.0000 -5.6459 0.0000
# 4 0.0000 0.0000 0.0000 27.7795 0.0000 -2.2904
# 5 0.7864 -21.6289 -5.6459 0.0000 29.6370 0.0000
# 6 0.0000 0.0000 0.0000 -2.2904 0.0000 16.9469
#
#
#
# Elastic Compliance Matrix: (Units=1/GPa)
#
#
# Indices 1 2 3 4 5 6 
#
# 1 0.016129 -0.006590 -0.002233 0.000000 -0.005663 0.000000
# 2 -0.006590 0.022438 -0.009191 0.000000 0.014799 0.000000
# 3 -0.002233 -0.009191 0.014893 0.000000 -0.003811 0.000000
# 4 0.000000 0.000000 0.000000 0.036403 0.000000 0.004920
# 5 -0.005663 0.014799 -0.003811 0.000000 0.043966 0.000000
# 6 0.000000 0.000000 0.000000 0.004920 0.000000 0.059673
#
#
# Mechanical properties :
#
#
# Convention : Reuss Voigt Hill
#
# Bulk Modulus (GPa) = 57.37349 61.48925 59.43137
# Shear Modulus (GPa) = 21.24580 24.91268 23.07924
#
# Velocity S-wave (km/s) = 3.30398 3.57776 3.44359
# Velocity P-wave (km/s) = 6.63581 6.97573 6.80789
#
# Compressibility (1/GPa) = 0.01742965
#
# Stress axis : x y z
#
# Youngs Moduli (GPa) = 62.00189 44.56753 67.14694
#
# Poissons Ratio (x) = 0.29369 0.14997
# Poissons Ratio (y) = 0.40858 0.61717
# Poissons Ratio (z) = 0.13848 0.40964
#
# Static dielectric constant tensor:
#      x y z
#    x 3.790980 0.000000 0.270030 
#    y 0.000000 3.482840 0.000000 
#    z 0.270030 0.000000 3.529670 
# 
# 
# High freq. dielectric constant tensor:
#      x y z
#    x 1.761520 0.000000 0.012250 
#    y 0.000000 1.757970 0.000000 
#    z 0.012250 0.000000 1.752030 
# 
# From -- ./inp_files/39440.got.cif
#   From: 2010.06.25/outbox.cif.g09.slc.cpg/sg13_20_cif.got.tgz:39440.got - 2010.06.28 04:50:58.
