data_PCOD8120564
_publ_section_title
;
Structure prediction by ZEFSAII (Michael W. Deem and Ramdas Pophale) SiO2 
 PCOD8120564
Probable space group: P 2/C
;
_chemical_formula_sum "Si O2"
_cell_formula_units_Z 30
_cell_length_a 22.261716
_cell_length_b 11.887777
_cell_length_c 12.212562
_cell_angle_alpha 90.000000
_cell_angle_beta 153.154031
_cell_angle_gamma 90.000000
_cell_volume 1459.532523
_symmetry_space_group_name_H-M "P 2/C"
_symmetry_group_IT_number 13
_symmetry_cell_setting 'monoclinic'
loop_
_space_group_symop_operation_xyz
x,y,z
-x,y,1/2-z
-x,-y,-z
x,-y,1/2+z
loop_
_atom_site_type_symbol
_atom_site_label
_atom_site_fract_x
_atom_site_fract_y
_atom_site_fract_z
Si Si1 0.000000 0.253710 0.750000
Si Si2 0.551340 0.086602 0.994371
Si Si3 0.724674 0.814960 0.494582
Si Si4 0.840809 0.628021 0.274933
Si Si5 0.244840 0.021010 0.834338
Si Si6 0.869306 0.625641 0.843242
Si Si7 0.854189 0.801400 0.476324
Si Si8 0.244779 0.804367 0.524006
O O1 0.904049 0.334598 0.522244
O O2 0.903309 0.174752 0.665767
O O3 0.647442 0.181862 0.204348
O O4 0.624736 0.013404 0.021574
O O5 0.429454 0.153306 0.741023
O O6 0.500000 0.000000 0.000000
O O7 0.752763 0.697453 0.598114
O O8 0.755914 0.814640 0.417509
O O9 0.814786 0.908603 0.705658
O O10 0.806211 0.498755 0.240407
O O11 0.798331 0.700217 0.311414
O O12 0.999678 0.637440 0.518071
O O13 0.760957 0.678933 0.039842
O O14 0.140717 0.081898 0.584185
O O15 0.282859 0.104923 0.994239
O O16 0.000000 0.769186 0.750000
#
# Coordination Sequence:
#
# PCOD8120564 Si02
#       8
#     2   4   4   4   4   4   4   4
#     4  10  22  40  64  96 128 164 206 268 316 388
#     4  12  23  42  63  89 124 172 215 253 311 383
#     4  12  24  39  63  94 126 173 214 256 312 387
#     4   9  21  40  66  91 131 163 210 266 318 379
#     4  11  23  41  59  91 128 171 206 263 313 378
#     4  10  21  40  65  96 124 171 209 259 325 375
#     4  11  22  39  61  97 130 162 209 263 321 376
#     4  10  22  42  63  94 128 166 214 260 320 373
#
# _framework density 20.554528000000001
#
# number of rings (size 3 to 8) (size 9 to 14) (size 15 to 20)
#    0.000    1.333    4.000    1.200    0.933    1.600 
#   10.800    0.667    0.000    3.200    0.000    0.000 
#    0.000    0.000    0.000    0.000    0.000    0.000 
#
# Total GULP energy -371897.464141 kJ/mol
# GULP energy per Si atom -12396.582138 kJ/mol
# Density = 2.050774 g / cm^3
# Si number density = 20.554528 Si / 1000 Ang^3
#
#
#
# Elastic Constant Matrix: (Units=GPa)
#
#
# Indices 1 2 3 4 5 6 
#
# 1 122.5476 52.8751 23.3639 0.0000 -11.0913 0.0000
# 2 52.8751 145.9919 57.6448 0.0000 -9.6003 0.0000
# 3 23.3639 57.6448 87.7363 0.0000 -14.7376 0.0000
# 4 0.0000 0.0000 0.0000 29.4663 0.0000 -2.6528
# 5 -11.0913 -9.6003 -14.7376 0.0000 25.3493 0.0000
# 6 0.0000 0.0000 0.0000 -2.6528 0.0000 24.5601
#
#
#
# Elastic Compliance Matrix: (Units=1/GPa)
#
#
# Indices 1 2 3 4 5 6 
#
# 1 0.009897 -0.003437 0.000146 0.000000 0.003113 0.000000
# 2 -0.003437 0.010443 -0.006133 0.000000 -0.001115 0.000000
# 3 0.000146 -0.006133 0.016634 0.000000 0.007411 0.000000
# 4 0.000000 0.000000 0.000000 0.034270 0.000000 0.003702
# 5 0.003113 -0.001115 0.007411 0.000000 0.044698 0.000000
# 6 0.000000 0.000000 0.000000 0.003702 0.000000 0.041116
#
#
# Mechanical properties :
#
#
# Convention : Reuss Voigt Hill
#
# Bulk Modulus (GPa) = 55.17466 69.33816 62.25641
# Shear Modulus (GPa) = 27.48021 30.70127 29.09074
#
# Velocity S-wave (km/s) = 3.66039 3.86897 3.76612
# Velocity P-wave (km/s) = 6.69073 7.33250 7.01896
#
# Compressibility (1/GPa) = 0.01812426
#
# Stress axis : x y z
#
# Youngs Moduli (GPa) = 101.03878 95.75755 60.11940
#
# Poissons Ratio (x) = 0.32916 -0.00877
# Poissons Ratio (y) = 0.34731 0.36872
# Poissons Ratio (z) = -0.01474 0.58730
#
# Static dielectric constant tensor:
#      x y z
#    x 4.002130 0.000000 -0.256890 
#    y 0.000000 3.825790 0.000000 
#    z -0.256890 0.000000 3.690450 
# 
# 
# High freq. dielectric constant tensor:
#      x y z
#    x 1.820560 0.000000 -0.023890 
#    y 0.000000 1.792260 0.000000 
#    z -0.023890 0.000000 1.785580 
# 
# From -- ./inp_files/40909.got.cif
#   From: 2010.06.25/outbox.cif.g09.slc.cpg/sg13_21_cif.got.tgz:40909.got - 2010.06.28 04:50:58.
