data_PCOD8120979
_publ_section_title
;
Structure prediction by ZEFSAII (Michael W. Deem and Ramdas Pophale) SiO2 
 PCOD8120979
Probable space group: P 2/C
;
_chemical_formula_sum "Si O2"
_cell_formula_units_Z 26
_cell_length_a 16.918620
_cell_length_b 8.990354
_cell_length_c 8.113403
_cell_angle_alpha 90.000000
_cell_angle_beta 96.904056
_cell_angle_gamma 90.000000
_cell_volume 1225.135609
_symmetry_space_group_name_H-M "P 2/C"
_symmetry_group_IT_number 13
_symmetry_cell_setting 'monoclinic'
loop_
_space_group_symop_operation_xyz
x,y,z
-x,y,1/2-z
-x,-y,-z
x,-y,1/2+z
loop_
_atom_site_type_symbol
_atom_site_label
_atom_site_fract_x
_atom_site_fract_y
_atom_site_fract_z
Si Si1 0.215959 0.808379 0.828429
Si Si2 0.737816 0.467835 0.358361
Si Si3 0.660908 0.696303 0.136300
Si Si4 0.291326 0.035401 0.644581
Si Si5 0.000000 0.420260 0.750000
Si Si6 0.105336 0.635403 0.990218
Si Si7 0.549336 0.124593 0.416173
O O1 0.245043 0.643431 0.788500
O O2 0.218285 0.922573 0.674326
O O3 0.277041 0.873773 0.975956
O O4 0.129173 0.784595 0.892655
O O5 0.663776 0.576029 0.285968
O O6 0.716356 0.369405 0.508582
O O7 0.815599 0.566221 0.409773
O O8 0.699541 0.851935 0.200834
O O9 0.572530 0.737701 0.044578
O O10 0.371192 0.941728 0.643366
O O11 0.935005 0.520864 0.643668
O O12 0.954838 0.320345 0.875878
O O13 0.500000 0.190098 0.250000
O O14 0.500000 0.000000 0.500000
#
# Coordination Sequence:
#
# PCOD8120979 Si02
#       7
#     4   4   4   4   2   4   4
#     4  12  22  40  66 101 126 165 219 275 316 366
#     4  12  22  40  68 100 129 159 218 287 319 350
#     4  12  23  41  67  97 129 165 217 279 318 382
#     4  12  23  41  68  95 125 169 221 272 314 389
#     4  10  22  38  60 102 132 174 204 250 322 414
#     4  11  21  38  66  98 130 166 209 263 320 378
#     4  12  24  42  66  90 127 173 217 256 328 405
#
# _framework density 21.222141000000001
#
# number of rings (size 3 to 8) (size 9 to 14) (size 15 to 20)
#    0.000    0.308    9.231    0.000    0.000    0.000 
#    0.000    0.769    0.000    2.769    0.000    0.000 
#    0.000    0.000    0.000    0.000    0.000    0.000 
#
# Total GULP energy -322221.209145 kJ/mol
# GULP energy per Si atom -12393.123429 kJ/mol
# Density = 2.117384 g / cm^3
# Si number density = 21.222141 Si / 1000 Ang^3
#
#
#
# Elastic Constant Matrix: (Units=GPa)
#
#
# Indices 1 2 3 4 5 6 
#
# 1 66.1716 24.1943 25.4501 0.0000 -11.9034 0.0000
# 2 24.1943 74.4361 30.4442 0.0000 -2.5237 0.0000
# 3 25.4501 30.4442 83.5856 0.0000 2.6894 0.0000
# 4 0.0000 0.0000 0.0000 33.5512 0.0000 -2.0501
# 5 -11.9034 -2.5237 2.6894 0.0000 47.9303 0.0000
# 6 0.0000 0.0000 0.0000 -2.0501 0.0000 23.3702
#
#
#
# Elastic Compliance Matrix: (Units=1/GPa)
#
#
# Indices 1 2 3 4 5 6 
#
# 1 0.019254 -0.004271 -0.004462 0.000000 0.004807 0.000000
# 2 -0.004271 0.016797 -0.004821 0.000000 0.000094 0.000000
# 3 -0.004462 -0.004821 0.015149 0.000000 -0.002212 0.000000
# 4 0.000000 0.000000 0.000000 0.029966 0.000000 0.002629
# 5 0.004807 0.000094 -0.002212 0.000000 0.022187 0.000000
# 6 0.000000 0.000000 0.000000 0.002629 0.000000 0.043020
#
#
# Mechanical properties :
#
#
# Convention : Reuss Voigt Hill
#
# Bulk Modulus (GPa) = 41.50265 42.70786 42.10525
# Shear Modulus (GPa) = 27.54644 30.57731 29.06187
#
# Velocity S-wave (km/s) = 3.60669 3.79993 3.70457
# Velocity P-wave (km/s) = 6.07808 6.27858 6.17914
#
# Compressibility (1/GPa) = 0.02409485
#
# Stress axis : x y z
#
# Youngs Moduli (GPa) = 51.93603 59.53333 66.00937
#
# Poissons Ratio (x) = 0.25424 0.29452
# Poissons Ratio (y) = 0.22179 0.31822
# Poissons Ratio (z) = 0.23173 0.28700
#
# Static dielectric constant tensor:
#      x y z
#    x 3.828300 0.000000 -0.071610 
#    y 0.000000 4.032840 0.000000 
#    z -0.071610 0.000000 4.326010 
# 
# 
# High freq. dielectric constant tensor:
#      x y z
#    x 1.803560 0.000000 -0.010640 
#    y 0.000000 1.816230 0.000000 
#    z -0.010640 0.000000 1.863740 
# 
# From -- ./inp_files/21120.got.cif
#   From: 2010.06.25/outbox.cif.g09.slc.cpg/sg13_11_cif.got.tgz:21120.got - 2010.06.28 04:50:58.
