data_PCOD8120464
_publ_section_title
;
Structure prediction by ZEFSAII (Michael W. Deem and Ramdas Pophale) SiO2 
 PCOD8120464
Probable space group: P 2/C
;
_chemical_formula_sum "Si O2"
_cell_formula_units_Z 18
_cell_length_a 7.405490
_cell_length_b 6.497354
_cell_length_c 16.532777
_cell_angle_alpha 90.000000
_cell_angle_beta 87.632180
_cell_angle_gamma 90.000000
_cell_volume 794.813389
_symmetry_space_group_name_H-M "P 2/C"
_symmetry_group_IT_number 13
_symmetry_cell_setting 'monoclinic'
loop_
_space_group_symop_operation_xyz
x,y,z
-x,y,1/2-z
-x,-y,-z
x,-y,1/2+z
loop_
_atom_site_type_symbol
_atom_site_label
_atom_site_fract_x
_atom_site_fract_y
_atom_site_fract_z
Si Si1 0.912665 0.399889 0.130693
Si Si2 0.574922 0.191744 0.544455
Si Si3 0.302073 0.245465 0.789514
Si Si4 0.240001 0.451021 0.535306
Si Si5 0.000000 0.949946 0.750000
O O1 0.788098 0.528983 0.195509
O O2 0.983158 0.192215 0.171007
O O3 0.078381 0.550599 0.102919
O O4 0.808895 0.340787 0.049430
O O5 0.679000 0.131217 0.624169
O O6 0.408321 0.338727 0.573327
O O7 0.711396 0.311064 0.482828
O O8 0.500000 0.000000 0.500000
O O9 0.500000 0.277745 0.750000
O O10 0.176925 0.095811 0.737408
#
# Coordination Sequence:
#
# PCOD8120464 Si02
#       5
#     4   4   4   4   2
#     4  10  23  44  67  95 135 175 222 275 330 398
#     4  10  21  39  68  97 131 167 223 277 324 393
#     4  11  27  43  64 102 136 174 222 275 337 395
#     4   9  21  41  68  96 125 176 224 269 331 388
#     4  12  26  42  66  98 134 180 220 268 342 398
#
# _framework density 22.646825
#
# number of rings (size 3 to 8) (size 9 to 14) (size 15 to 20)
#    0.000    1.778    0.000    2.000    9.333    0.889 
#    0.000    6.667    0.000    0.000    0.000    0.000 
#    0.000    0.000    0.000    0.000    0.000    0.000 
#
# Total GULP energy -223205.833936 kJ/mol
# GULP energy per Si atom -12400.324108 kJ/mol
# Density = 2.259528 g / cm^3
# Si number density = 22.646825 Si / 1000 Ang^3
#
#
#
# Elastic Constant Matrix: (Units=GPa)
#
#
# Indices 1 2 3 4 5 6 
#
# 1 137.2910 47.7217 42.2064 0.0000 -13.1779 0.0000
# 2 47.7217 74.1058 50.7172 0.0000 1.7804 0.0000
# 3 42.2064 50.7172 66.1923 0.0000 -2.1743 0.0000
# 4 0.0000 0.0000 0.0000 30.1619 0.0000 14.8208
# 5 -13.1779 1.7804 -2.1743 0.0000 43.2635 0.0000
# 6 0.0000 0.0000 0.0000 14.8208 0.0000 40.3985
#
#
#
# Elastic Compliance Matrix: (Units=1/GPa)
#
#
# Indices 1 2 3 4 5 6 
#
# 1 0.010046 -0.004689 -0.002710 0.000000 0.003117 0.000000
# 2 -0.004689 0.030784 -0.020720 0.000000 -0.003737 0.000000
# 3 -0.002710 -0.020720 0.032766 0.000000 0.001674 0.000000
# 4 0.000000 0.000000 0.000000 0.040445 0.000000 -0.014838
# 5 0.003117 -0.003737 0.001674 0.000000 0.024301 0.000000
# 6 0.000000 0.000000 0.000000 -0.014838 0.000000 0.030197
#
#
# Mechanical properties :
#
#
# Convention : Reuss Voigt Hill
#
# Bulk Modulus (GPa) = 57.61116 62.09773 59.85445
# Shear Modulus (GPa) = 21.68581 31.89437 26.79009
#
# Velocity S-wave (km/s) = 3.09781 3.75685 3.44314
# Velocity P-wave (km/s) = 6.18785 6.80428 6.50337
#
# Compressibility (1/GPa) = 0.01735775
#
# Stress axis : x y z
#
# Youngs Moduli (GPa) = 99.54021 32.48422 30.51903
#
# Poissons Ratio (x) = 0.15233 0.08272
# Poissons Ratio (y) = 0.46678 0.63235
# Poissons Ratio (z) = 0.26979 0.67307
#
# Static dielectric constant tensor:
#      x y z
#    x 4.452620 0.000000 0.282910 
#    y 0.000000 3.798680 0.000000 
#    z 0.282910 0.000000 3.944480 
# 
# 
# High freq. dielectric constant tensor:
#      x y z
#    x 1.913700 0.000000 0.015710 
#    y 0.000000 1.874670 0.000000 
#    z 0.015710 0.000000 1.888250 
# 
# From -- ./inp_files/62120.got.cif
#   From: 2010.06.25/outbox.cif.g09.slc.cpg/sg13_32_cif.got.tgz:62120.got - 2010.06.28 04:50:58.
