data_PCOD8120906
_publ_section_title
;
Structure prediction by ZEFSAII (Michael W. Deem and Ramdas Pophale) SiO2 
 PCOD8120906
Probable space group: P 2/C
;
_chemical_formula_sum "Si O2"
_cell_formula_units_Z 28
_cell_length_a 7.718278
_cell_length_b 18.860684
_cell_length_c 19.534128
_cell_angle_alpha 90.000000
_cell_angle_beta 30.060594
_cell_angle_gamma 90.000000
_cell_volume 1424.414679
_symmetry_space_group_name_H-M "P 2/C"
_symmetry_group_IT_number 13
_symmetry_cell_setting 'monoclinic'
loop_
_space_group_symop_operation_xyz
x,y,z
-x,y,1/2-z
-x,-y,-z
x,-y,1/2+z
loop_
_atom_site_type_symbol
_atom_site_label
_atom_site_fract_x
_atom_site_fract_y
_atom_site_fract_z
Si Si1 0.571630 0.439166 0.647745
Si Si2 0.139664 0.066496 0.911300
Si Si3 0.615025 0.318869 0.881258
Si Si4 0.641413 0.403962 0.129868
Si Si5 0.596095 0.704091 0.901242
Si Si6 0.504469 0.827150 0.117099
Si Si7 0.785691 0.156106 0.928240
O O1 0.500000 0.418653 0.750000
O O2 0.343361 0.388938 0.678126
O O3 0.465088 0.520732 0.669313
O O4 0.960199 0.421170 0.494988
O O5 0.500000 0.047199 0.750000
O O6 0.196201 0.129066 0.947737
O O7 0.831087 0.089473 0.964400
O O8 0.000000 0.000000 0.000000
O O9 0.372710 0.254871 0.935369
O O10 0.000000 0.284696 0.750000
O O11 0.469859 0.338298 0.005638
O O12 0.500000 0.375398 0.250000
O O13 0.577333 0.343739 0.097074
O O14 0.000000 0.714674 0.750000
O O15 0.411788 0.780361 0.965526
O O16 0.416478 0.863169 0.073061
O O17 0.177633 0.822302 0.278798
#
# Coordination Sequence:
#
# PCOD8120906 Si02
#       7
#     4   4   4   4   4   4   4
#     4  10  22  35  58  83 112 153 201 244 293 356
#     4  10  22  40  63  92 119 154 191 228 289 352
#     4  11  20  36  60  89 109 144 205 247 290 348
#     4  10  22  40  51  79 121 158 192 241 307 354
#     4  11  22  37  57  82 116 155 196 241 303 350
#     4   9  18  37  63  86 118 148 189 247 286 334
#     4   9  19  39  59  87 119 150 192 240 287 343
#
# _framework density 19.657198000000001
#
# number of rings (size 3 to 8) (size 9 to 14) (size 15 to 20)
#    0.000    2.000    2.857    1.714    2.000    2.286 
#    5.143    0.000    0.000    0.000    0.000    0.000 
#    0.000    0.000    0.000    0.000    0.000    0.000 
#
# Total GULP energy -347069.039752 kJ/mol
# GULP energy per Si atom -12395.322848 kJ/mol
# Density = 1.961246 g / cm^3
# Si number density = 19.657198 Si / 1000 Ang^3
#
#
#
# Elastic Constant Matrix: (Units=GPa)
#
#
# Indices 1 2 3 4 5 6 
#
# 1 69.6408 41.2911 32.7244 0.0000 17.2462 0.0000
# 2 41.2911 91.0579 33.1798 0.0000 15.6992 0.0000
# 3 32.7244 33.1798 97.4840 0.0000 22.1195 0.0000
# 4 0.0000 0.0000 0.0000 30.4767 0.0000 14.1094
# 5 17.2462 15.6992 22.1195 0.0000 30.3057 0.0000
# 6 0.0000 0.0000 0.0000 14.1094 0.0000 23.9849
#
#
#
# Elastic Compliance Matrix: (Units=1/GPa)
#
#
# Indices 1 2 3 4 5 6 
#
# 1 0.022025 -0.007705 -0.003395 0.000000 -0.006064 0.000000
# 2 -0.007705 0.015661 -0.002275 0.000000 -0.002068 0.000000
# 3 -0.003395 -0.002275 0.013742 0.000000 -0.006920 0.000000
# 4 0.000000 0.000000 0.000000 0.045092 0.000000 -0.026526
# 5 -0.006064 -0.002068 -0.006920 0.000000 0.042570 0.000000
# 6 0.000000 0.000000 0.000000 -0.026526 0.000000 0.057297
#
#
# Mechanical properties :
#
#
# Convention : Reuss Voigt Hill
#
# Bulk Modulus (GPa) = 40.52026 52.50814 46.51420
# Shear Modulus (GPa) = 21.61100 27.01929 24.31514
#
# Velocity S-wave (km/s) = 3.31931 3.71148 3.52086
# Velocity P-wave (km/s) = 5.94547 6.71838 6.34371
#
# Compressibility (1/GPa) = 0.02467901
#
# Stress axis : x y z
#
# Youngs Moduli (GPa) = 45.40336 63.85182 72.76879
#
# Poissons Ratio (x) = 0.49196 0.24706
# Poissons Ratio (y) = 0.34982 0.16554
# Poissons Ratio (z) = 0.15415 0.14525
#
# Static dielectric constant tensor:
#      x y z
#    x 3.863610 0.000000 0.280510 
#    y 0.000000 3.619390 0.000000 
#    z 0.280510 0.000000 3.559350 
# 
# 
# High freq. dielectric constant tensor:
#      x y z
#    x 1.761600 0.000000 0.017530 
#    y 0.000000 1.757840 0.000000 
#    z 0.017530 0.000000 1.763890 
# 
# From -- ./inp_files/76678.got.cif
#   From: 2010.06.25/outbox.cif.g09.slc.cpg/sg13_39_cif.got.tgz:76678.got - 2010.06.28 04:50:58.
