data_PCOD8120580
_publ_section_title
;
Structure prediction by ZEFSAII (Michael W. Deem and Ramdas Pophale) SiO2 
 PCOD8120580
Probable space group: P 2/C
;
_chemical_formula_sum "Si O2"
_cell_formula_units_Z 28
_cell_length_a 16.400731
_cell_length_b 9.426333
_cell_length_c 13.087866
_cell_angle_alpha 90.000000
_cell_angle_beta 135.273959
_cell_angle_gamma 90.000000
_cell_volume 1423.879676
_symmetry_space_group_name_H-M "P 2/C"
_symmetry_group_IT_number 13
_symmetry_cell_setting 'monoclinic'
loop_
_space_group_symop_operation_xyz
x,y,z
-x,y,1/2-z
-x,-y,-z
x,-y,1/2+z
loop_
_atom_site_type_symbol
_atom_site_label
_atom_site_fract_x
_atom_site_fract_y
_atom_site_fract_z
Si Si1 0.246106 0.687569 0.111789
Si Si2 0.524795 0.086554 0.423014
Si Si3 0.207238 0.447301 0.912775
Si Si4 0.051360 0.361553 0.592363
Si Si5 0.894464 0.811022 0.079063
Si Si6 0.402309 0.609798 0.433069
Si Si7 0.313283 0.994087 0.100761
O O1 0.140628 0.717119 0.096352
O O2 0.344410 0.621268 0.270473
O O3 0.302562 0.827709 0.113834
O O4 0.202589 0.584617 0.982116
O O5 0.547917 0.246557 0.476217
O O6 0.500000 0.000000 0.500000
O O7 0.408541 0.076026 0.252820
O O8 0.640141 0.019548 0.472930
O O9 0.098446 0.425936 0.740767
O O10 0.202061 0.305127 0.975122
O O11 0.321046 0.458850 0.946279
O O12 0.000000 0.500000 0.500000
O O13 0.952855 0.243637 0.526124
O O14 0.000000 0.844532 0.250000
O O15 0.817099 0.950564 0.995245
O O16 0.500000 0.500000 0.500000
#
# Coordination Sequence:
#
# PCOD8120580 Si02
#       7
#     4   4   4   4   4   4   4
#     4  11  24  42  62 100 129 164 220 267 322 388
#     4  11  24  44  64  92 135 172 207 265 332 382
#     4  10  22  40  64  90 130 165 214 267 318 382
#     4  10  21  40  67  92 126 167 213 274 321 371
#     4  10  21  42  64  89 126 169 210 263 325 380
#     4  11  25  40  66  96 126 168 220 272 314 384
#     4  11  25  42  68  93 131 176 213 263 329 398
#
# _framework density 19.664581999999999
#
# number of rings (size 3 to 8) (size 9 to 14) (size 15 to 20)
#    0.000    1.429    4.286    0.000    4.000    1.143 
#    2.571    0.000    0.000    0.000    0.000    0.000 
#    0.000    0.000    0.000    0.000    0.000    0.000 
#
# Total GULP energy -346989.791600 kJ/mol
# GULP energy per Si atom -12392.492557 kJ/mol
# Density = 1.961983 g / cm^3
# Si number density = 19.664582 Si / 1000 Ang^3
#
#
#
# Elastic Constant Matrix: (Units=GPa)
#
#
# Indices 1 2 3 4 5 6 
#
# 1 138.6801 63.6443 54.4153 0.0000 0.8730 0.0000
# 2 63.6443 74.4122 33.9535 0.0000 -2.7131 0.0000
# 3 54.4153 33.9535 66.8024 0.0000 6.2154 0.0000
# 4 0.0000 0.0000 0.0000 27.6531 0.0000 1.7611
# 5 0.8730 -2.7131 6.2154 0.0000 33.8594 0.0000
# 6 0.0000 0.0000 0.0000 1.7611 0.0000 39.4956
#
#
#
# Elastic Compliance Matrix: (Units=1/GPa)
#
#
# Indices 1 2 3 4 5 6 
#
# 1 0.013949 -0.008761 -0.006929 0.000000 0.000210 0.000000
# 2 -0.008761 0.023322 -0.004997 0.000000 0.003012 0.000000
# 3 -0.006929 -0.004997 0.023577 0.000000 -0.004550 0.000000
# 4 0.000000 0.000000 0.000000 0.036265 0.000000 -0.001617
# 5 0.000210 0.003012 -0.004550 0.000000 0.030605 0.000000
# 6 0.000000 0.000000 0.000000 -0.001617 0.000000 0.025391
#
#
# Mechanical properties :
#
#
# Convention : Reuss Voigt Hill
#
# Bulk Modulus (GPa) = 51.35358 64.88008 58.11683
# Shear Modulus (GPa) = 24.87848 28.72705 26.80276
#
# Velocity S-wave (km/s) = 3.56074 3.82626 3.69588
# Velocity P-wave (km/s) = 6.56328 7.25157 6.91599
#
# Compressibility (1/GPa) = 0.01947284
#
# Stress axis : x y z
#
# Youngs Moduli (GPa) = 71.68890 42.87744 42.41408
#
# Poissons Ratio (x) = 0.37566 0.29389
# Poissons Ratio (y) = 0.62809 0.21196
# Poissons Ratio (z) = 0.49674 0.21428
#
# Static dielectric constant tensor:
#      x y z
#    x 13.893250 0.000000 12.283540 
#    y 0.000000 3.309550 0.000000 
#    z 12.283540 0.000000 19.111720 
# 
# 
# High freq. dielectric constant tensor:
#      x y z
#    x 1.788500 0.000000 0.001780 
#    y 0.000000 1.757580 0.000000 
#    z 0.001780 0.000000 1.764710 
# 
# From -- ./inp_files/55323.got.cif
#   From: 2010.06.25/outbox.cif.g09.slc.cpg/sg13_28_cif.got.tgz:55323.got - 2010.06.28 04:50:58.
