data_PCOD8120444
_publ_section_title
;
Structure prediction by ZEFSAII (Michael W. Deem and Ramdas Pophale) SiO2 
 PCOD8120444
Probable space group: P 2/C
;
_chemical_formula_sum "Si O2"
_cell_formula_units_Z 30
_cell_length_a 12.407742
_cell_length_b 8.975278
_cell_length_c 13.777399
_cell_angle_alpha 90.000000
_cell_angle_beta 74.776872
_cell_angle_gamma 90.000000
_cell_volume 1480.454172
_symmetry_space_group_name_H-M "P 2/C"
_symmetry_group_IT_number 13
_symmetry_cell_setting 'monoclinic'
loop_
_space_group_symop_operation_xyz
x,y,z
-x,y,1/2-z
-x,-y,-z
x,-y,1/2+z
loop_
_atom_site_type_symbol
_atom_site_label
_atom_site_fract_x
_atom_site_fract_y
_atom_site_fract_z
Si Si1 0.500000 0.214185 0.750000
Si Si2 0.158386 0.540460 0.388337
Si Si3 0.306945 0.634905 0.180816
Si Si4 0.405844 0.916857 0.461484
Si Si5 0.289498 0.625999 0.544531
Si Si6 0.208119 0.097362 0.584234
Si Si7 0.961938 0.733154 0.507455
Si Si8 0.907489 0.815443 0.847589
O O1 0.585054 0.325411 0.782397
O O2 0.559203 0.104843 0.658625
O O3 0.209989 0.567168 0.270562
O O4 0.252437 0.579498 0.445550
O O5 0.121833 0.369470 0.409645
O O6 0.046368 0.637778 0.421966
O O7 0.339974 0.514328 0.090784
O O8 0.267167 0.786051 0.139874
O O9 0.382754 0.755083 0.515068
O O10 0.500000 0.000000 0.500000
O O11 0.295174 0.018500 0.490139
O O12 0.180851 0.681490 0.628435
O O13 0.110373 0.168652 0.546244
O O14 0.153265 0.970116 0.665479
O O15 0.033878 0.837071 0.561573
O O16 0.000000 0.767580 0.750000
#
# Coordination Sequence:
#
# PCOD8120444 Si02
#       8
#     2   4   4   4   4   4   4   4
#     4  12  26  46  74  94 126 176 224 278 340 390
#     4  10  21  39  66  95 136 170 216 265 327 389
#     4  12  24  43  70 100 126 174 227 275 328 401
#     4  11  24  49  67  93 132 173 218 281 338 390
#     4  10  22  44  67  93 135 169 213 277 331 382
#     4  11  24  40  68  94 134 174 219 271 330 395
#     4  10  21  40  61  97 133 178 209 269 324 386
#     4  10  22  38  61  97 136 172 214 262 320 404
#
# _framework density 20.264050999999998
#
# number of rings (size 3 to 8) (size 9 to 14) (size 15 to 20)
#    0.000    1.333    4.000    1.200    1.867    1.600 
#    4.800    0.000    0.000    0.000    0.000    0.000 
#    0.000    0.000    0.000    0.000    0.000    0.000 
#
# Total GULP energy -372068.223677 kJ/mol
# GULP energy per Si atom -12402.274123 kJ/mol
# Density = 2.021793 g / cm^3
# Si number density = 20.264051 Si / 1000 Ang^3
#
#
#
# Elastic Constant Matrix: (Units=GPa)
#
#
# Indices 1 2 3 4 5 6 
#
# 1 92.1184 34.8393 11.4764 0.0000 13.4988 0.0000
# 2 34.8393 92.7526 30.2308 0.0000 15.4846 0.0000
# 3 11.4764 30.2308 91.2520 0.0000 -8.8805 0.0000
# 4 0.0000 0.0000 0.0000 23.4267 0.0000 6.9751
# 5 13.4988 15.4846 -8.8805 0.0000 29.1241 0.0000
# 6 0.0000 0.0000 0.0000 6.9751 0.0000 39.5742
#
#
#
# Elastic Compliance Matrix: (Units=1/GPa)
#
#
# Indices 1 2 3 4 5 6 
#
# 1 0.013059 -0.003971 -0.000732 0.000000 -0.004164 0.000000
# 2 -0.003971 0.015347 -0.005359 0.000000 -0.007953 0.000000
# 3 -0.000732 -0.005359 0.013538 0.000000 0.007317 0.000000
# 4 0.000000 0.000000 0.000000 0.045050 0.000000 -0.007940
# 5 -0.004164 -0.007953 0.007317 0.000000 0.042726 0.000000
# 6 0.000000 0.000000 0.000000 -0.007940 0.000000 0.026669
#
#
# Mechanical properties :
#
#
# Convention : Reuss Voigt Hill
#
# Bulk Modulus (GPa) = 45.82960 47.69067 46.76013
# Shear Modulus (GPa) = 27.20539 31.73010 29.46775
#
# Velocity S-wave (km/s) = 3.66805 3.96135 3.81752
# Velocity P-wave (km/s) = 6.37219 6.67149 6.52356
#
# Compressibility (1/GPa) = 0.02181996
#
# Stress axis : x y z
#
# Youngs Moduli (GPa) = 76.57550 65.15735 73.86548
#
# Poissons Ratio (x) = 0.25876 0.05407
# Poissons Ratio (y) = 0.30411 0.39584
# Poissons Ratio (z) = 0.05605 0.34918
#
# Static dielectric constant tensor:
#      x y z
#    x 3.761940 0.000000 -0.096840 
#    y 0.000000 3.739530 0.000000 
#    z -0.096840 0.000000 3.637430 
# 
# 
# High freq. dielectric constant tensor:
#      x y z
#    x 1.797790 0.000000 -0.006140 
#    y 0.000000 1.798390 0.000000 
#    z -0.006140 0.000000 1.785650 
# 
# From -- ./inp_files/50332.got.cif
#   From: 2010.06.25/outbox.cif.g09.slc.cpg/sg13_26_cif.got.tgz:50332.got - 2010.06.28 04:50:58.
