data_PCOD8120471
_publ_section_title
;
Structure prediction by ZEFSAII (Michael W. Deem and Ramdas Pophale) SiO2 
 PCOD8120471
Probable space group: P 2/C
;
_chemical_formula_sum "Si O2"
_cell_formula_units_Z 28
_cell_length_a 20.059827
_cell_length_b 11.897303
_cell_length_c 17.370972
_cell_angle_alpha 90.000000
_cell_angle_beta 18.922066
_cell_angle_gamma 90.000000
_cell_volume 1344.380920
_symmetry_space_group_name_H-M "P 2/C"
_symmetry_group_IT_number 13
_symmetry_cell_setting 'monoclinic'
loop_
_space_group_symop_operation_xyz
x,y,z
-x,y,1/2-z
-x,-y,-z
x,-y,1/2+z
loop_
_atom_site_type_symbol
_atom_site_label
_atom_site_fract_x
_atom_site_fract_y
_atom_site_fract_z
Si Si1 0.546645 0.092509 0.111716
Si Si2 0.036197 0.493143 0.801573
Si Si3 0.721275 0.682517 0.371369
Si Si4 0.106115 0.956303 0.808069
Si Si5 0.272012 0.342979 0.291408
Si Si6 0.071201 0.698760 0.864507
Si Si7 0.904607 0.857248 0.434414
O O1 0.500000 0.063336 0.250000
O O2 0.337586 0.118750 0.297890
O O3 0.712704 0.195824 0.923907
O O4 0.650215 0.984596 0.956940
O O5 0.223903 0.412864 0.625271
O O6 0.081794 0.620693 0.777635
O O7 0.000000 0.485756 0.750000
O O8 0.824602 0.460629 0.076023
O O9 0.493091 0.664903 0.587178
O O10 0.868353 0.677213 0.136852
O O11 0.073976 0.825249 0.829979
O O12 0.015189 0.027545 0.836650
O O13 0.000000 0.000000 0.000000
O O14 0.271765 0.330357 0.198730
O O15 0.092257 0.251047 0.512843
O O16 0.000000 0.816920 0.250000
#
# Coordination Sequence:
#
# PCOD8120471 Si02
#       7
#     4   4   4   4   4   4   4
#     4  11  23  38  66 102 124 158 220 277 326 375
#     4  11  25  41  61  93 133 171 211 263 330 395
#     4  10  22  40  69  97 124 164 219 278 326 380
#     4  12  22  42  64  92 136 175 210 264 324 386
#     4  10  21  39  69  96 122 160 220 279 324 379
#     4  11  24  42  64  92 132 178 218 257 322 404
#     4  11  22  37  65  98 126 160 213 276 330 371
#
# _framework density 20.82743
#
# number of rings (size 3 to 8) (size 9 to 14) (size 15 to 20)
#    0.000    1.143    4.286    3.000    4.000    4.571 
#    0.000    0.000    0.000    0.000    0.000    0.000 
#    0.000    0.000    0.000    0.000    0.000    0.000 
#
# Total GULP energy -347112.528638 kJ/mol
# GULP energy per Si atom -12396.876023 kJ/mol
# Density = 2.078003 g / cm^3
# Si number density = 20.827430 Si / 1000 Ang^3
#
#
#
# Elastic Constant Matrix: (Units=GPa)
#
#
# Indices 1 2 3 4 5 6 
#
# 1 93.2920 48.1550 19.6047 0.0000 -0.4753 0.0000
# 2 48.1550 150.7620 30.2447 0.0000 -3.5322 0.0000
# 3 19.6047 30.2447 79.6955 0.0000 -0.6314 0.0000
# 4 0.0000 0.0000 0.0000 18.7480 0.0000 10.5374
# 5 -0.4753 -3.5322 -0.6314 0.0000 21.3876 0.0000
# 6 0.0000 0.0000 0.0000 10.5374 0.0000 24.5590
#
#
#
# Elastic Compliance Matrix: (Units=1/GPa)
#
#
# Indices 1 2 3 4 5 6 
#
# 1 0.013064 -0.003828 -0.001764 0.000000 -0.000394 0.000000
# 2 -0.003828 0.008328 -0.002209 0.000000 0.001225 0.000000
# 3 -0.001764 -0.002209 0.013820 0.000000 0.000004 0.000000
# 4 0.000000 0.000000 0.000000 0.070290 0.000000 -0.030159
# 5 -0.000394 0.001225 0.000004 0.000000 0.046950 0.000000
# 6 0.000000 0.000000 0.000000 -0.030159 0.000000 0.053658
#
#
# Mechanical properties :
#
#
# Convention : Reuss Voigt Hill
#
# Bulk Modulus (GPa) = 50.99614 57.75092 54.37353
# Shear Modulus (GPa) = 21.90604 27.98859 24.94731
#
# Velocity S-wave (km/s) = 3.24665 3.66981 3.46469
# Velocity P-wave (km/s) = 6.21229 6.76352 6.49375
#
# Compressibility (1/GPa) = 0.01960933
#
# Stress axis : x y z
#
# Youngs Moduli (GPa) = 76.54834 120.08373 72.35880
#
# Poissons Ratio (x) = 0.45968 0.12764
# Poissons Ratio (y) = 0.29303 0.15984
# Poissons Ratio (z) = 0.13503 0.26526
#
# Static dielectric constant tensor:
#      x y z
#    x 3.807980 0.000000 -0.365250 
#    y 0.000000 3.902800 0.000000 
#    z -0.365250 0.000000 3.256170 
# 
# 
# High freq. dielectric constant tensor:
#      x y z
#    x 1.815640 0.000000 -0.016760 
#    y 0.000000 1.811690 0.000000 
#    z -0.016760 0.000000 1.818310 
# 
# From -- ./inp_files/70673.got.cif
#   From: 2010.06.25/outbox.cif.g09.slc.cpg/sg13_36_cif.got.tgz:70673.got - 2010.06.28 04:50:58.
