data_PCOD8120584
_publ_section_title
;
Structure prediction by ZEFSAII (Michael W. Deem and Ramdas Pophale) SiO2 
 PCOD8120584
Probable space group: P 2/C
;
_chemical_formula_sum "Si O2"
_cell_formula_units_Z 32
_cell_length_a 13.791618
_cell_length_b 11.888711
_cell_length_c 8.734916
_cell_angle_alpha 90.000000
_cell_angle_beta 78.301592
_cell_angle_gamma 90.000000
_cell_volume 1402.467297
_symmetry_space_group_name_H-M "P 2/C"
_symmetry_group_IT_number 13
_symmetry_cell_setting 'monoclinic'
loop_
_space_group_symop_operation_xyz
x,y,z
-x,y,1/2-z
-x,-y,-z
x,-y,1/2+z
loop_
_atom_site_type_symbol
_atom_site_label
_atom_site_fract_x
_atom_site_fract_y
_atom_site_fract_z
Si Si1 0.878495 0.587945 0.149372
Si Si2 0.320321 0.378274 0.935740
Si Si3 0.904671 0.639351 0.482329
Si Si4 0.277450 0.027084 0.747420
Si Si5 0.779945 0.857763 0.519588
Si Si6 0.565375 0.783695 0.583385
Si Si7 0.597842 0.441741 0.905455
Si Si8 0.612888 0.133997 0.520070
O O1 0.787633 0.648520 0.095475
O O2 0.862950 0.597789 0.334447
O O3 0.976632 0.653351 0.061965
O O4 0.880229 0.454461 0.116311
O O5 0.394908 0.424507 0.779314
O O6 0.361642 0.266339 0.000245
O O7 0.313490 0.475725 0.067344
O O8 0.852183 0.756454 0.543691
O O9 0.216463 0.118156 0.664195
O O10 0.364519 0.090462 0.815400
O O11 0.195192 0.967380 0.884004
O O12 0.323383 0.936747 0.618093
O O13 0.664346 0.845082 0.607637
O O14 0.500000 0.747327 0.750000
O O15 0.608205 0.678686 0.478590
O O16 0.503546 0.868523 0.491518
O O17 0.500000 0.500000 0.000000
#
# Coordination Sequence:
#
# PCOD8120584 Si02
#       8
#     4   4   4   4   4   4   4   4
#     4  10  21  40  67  98 124 162 211 256 331 401
#     4  12  24  41  64  92 131 177 210 263 319 392
#     4  10  22  41  66  96 130 159 204 274 328 391
#     4  10  24  42  64  91 124 175 234 272 317 380
#     4  11  23  42  64  91 131 171 217 275 326 373
#     4  12  23  38  61  94 130 175 217 265 326 390
#     4  12  25  39  60  95 141 175 216 250 320 408
#     4  11  24  41  62  88 125 171 221 273 313 370
#
# _framework density 22.816932999999999
#
# number of rings (size 3 to 8) (size 9 to 14) (size 15 to 20)
#    0.000    1.000    2.500    4.875    0.000    6.500 
#    0.000    0.000    0.000   13.500    0.000    0.000 
#    0.000    0.000    0.000    0.000    0.000    0.000 
#
# Total GULP energy -396752.284315 kJ/mol
# GULP energy per Si atom -12398.508885 kJ/mol
# Density = 2.276500 g / cm^3
# Si number density = 22.816933 Si / 1000 Ang^3
#
#
#
# Elastic Constant Matrix: (Units=GPa)
#
#
# Indices 1 2 3 4 5 6 
#
# 1 96.9403 18.5406 -1.4482 0.0000 4.9956 0.0000
# 2 18.5406 94.8676 28.6538 0.0000 -2.3862 0.0000
# 3 -1.4482 28.6538 66.7455 0.0000 4.2394 0.0000
# 4 0.0000 0.0000 0.0000 44.9315 0.0000 4.3657
# 5 4.9956 -2.3862 4.2394 0.0000 23.1738 0.0000
# 6 0.0000 0.0000 0.0000 4.3657 0.0000 35.2114
#
#
#
# Elastic Compliance Matrix: (Units=1/GPa)
#
#
# Indices 1 2 3 4 5 6 
#
# 1 0.011008 -0.002705 0.001587 0.000000 -0.002942 0.000000
# 2 -0.002705 0.012890 -0.005781 0.000000 0.002968 0.000000
# 3 0.001587 -0.005781 0.017764 0.000000 -0.004187 0.000000
# 4 0.000000 0.000000 0.000000 0.022527 0.000000 -0.002793
# 5 -0.002942 0.002968 -0.004187 0.000000 0.044858 0.000000
# 6 0.000000 0.000000 0.000000 -0.002793 0.000000 0.028746
#
#
# Mechanical properties :
#
#
# Convention : Reuss Voigt Hill
#
# Bulk Modulus (GPa) = 35.88696 38.89398 37.39047
# Shear Modulus (GPa) = 31.07890 34.85049 32.96469
#
# Velocity S-wave (km/s) = 3.69467 3.91243 3.80511
# Velocity P-wave (km/s) = 5.82779 6.12312 5.97728
#
# Compressibility (1/GPa) = 0.02786528
#
# Stress axis : x y z
#
# Youngs Moduli (GPa) = 90.84113 77.57743 56.29215
#
# Poissons Ratio (x) = 0.20982 -0.08933
# Poissons Ratio (y) = 0.24570 0.32543
# Poissons Ratio (z) = -0.14415 0.44848
#
# Static dielectric constant tensor:
#      x y z
#    x 4.198500 0.000000 0.384320 
#    y 0.000000 4.598090 0.000000 
#    z 0.384320 0.000000 4.375220 
# 
# 
# High freq. dielectric constant tensor:
#      x y z
#    x 1.876490 0.000000 0.013520 
#    y 0.000000 1.906160 0.000000 
#    z 0.013520 0.000000 1.912330 
# 
# From -- ./inp_files/19047.got.cif
#   From: 2010.06.25/outbox.cif.g09.slc.cpg/sg13_10_cif.got.tgz:19047.got - 2010.06.28 04:50:58.
