data_PCOD8120604
_publ_section_title
;
Structure prediction by ZEFSAII (Michael W. Deem and Ramdas Pophale) SiO2 
 PCOD8120604
Probable space group: P 2/C
;
_chemical_formula_sum "Si O2"
_cell_formula_units_Z 22
_cell_length_a 13.382711
_cell_length_b 6.629605
_cell_length_c 22.179628
_cell_angle_alpha 90.000000
_cell_angle_beta 151.676509
_cell_angle_gamma 90.000000
_cell_volume 933.631924
_symmetry_space_group_name_H-M "P 2/C"
_symmetry_group_IT_number 13
_symmetry_cell_setting 'monoclinic'
loop_
_space_group_symop_operation_xyz
x,y,z
-x,y,1/2-z
-x,-y,-z
x,-y,1/2+z
loop_
_atom_site_type_symbol
_atom_site_label
_atom_site_fract_x
_atom_site_fract_y
_atom_site_fract_z
Si Si1 0.607440 0.041641 0.365512
Si Si2 0.822110 0.970484 0.817263
Si Si3 0.758686 0.162118 0.666459
Si Si4 0.286122 0.856762 0.958858
Si Si5 0.023897 0.728854 0.497512
Si Si6 0.000000 0.526723 0.750000
O O1 0.500000 0.931296 0.250000
O O2 0.756192 0.221676 0.420376
O O3 0.409724 0.129676 0.299479
O O4 0.730220 0.895939 0.477688
O O5 0.875961 0.004693 0.775305
O O6 0.992973 0.842533 0.946284
O O7 0.830953 0.194301 0.853433
O O8 0.522275 0.195365 0.563405
O O9 0.860968 0.383584 0.719553
O O10 0.783777 0.059007 0.614405
O O11 0.143749 0.663268 0.869346
O O12 0.000000 0.500000 0.500000
#
# Coordination Sequence:
#
# PCOD8120604 Si02
#       6
#     4   4   4   4   4   2
#     4   9  20  44  69  95 137 180 221 275 349 406
#     4   9  21  43  64  93 143 174 218 285 341 406
#     4  10  23  44  66  98 139 179 227 282 353 408
#     4  10  23  44  69  98 138 183 221 292 343 409
#     4  10  21  40  70 101 129 178 232 279 332 410
#     4  12  24  38  70 108 130 178 238 286 340 410
#
# _framework density 23.563889
#
# number of rings (size 3 to 8) (size 9 to 14) (size 15 to 20)
#    0.000    2.182    0.000    1.091    5.091    1.455 
#    6.545   22.727    0.000    0.000    0.000    0.000 
#    0.000    0.000    0.000    0.000    0.000    0.000 
#
# Total GULP energy -272579.643706 kJ/mol
# GULP energy per Si atom -12389.983805 kJ/mol
# Density = 2.351026 g / cm^3
# Si number density = 23.563889 Si / 1000 Ang^3
#
#
#
# Elastic Constant Matrix: (Units=GPa)
#
#
# Indices 1 2 3 4 5 6 
#
# 1 150.3231 65.9024 56.2357 0.0000 -20.0048 0.0000
# 2 65.9024 142.3517 46.7192 0.0000 -11.3299 0.0000
# 3 56.2357 46.7192 119.4045 0.0000 -31.2539 0.0000
# 4 0.0000 0.0000 0.0000 30.9791 0.0000 1.2955
# 5 -20.0048 -11.3299 -31.2539 0.0000 37.3095 0.0000
# 6 0.0000 0.0000 0.0000 1.2955 0.0000 31.8647
#
#
#
# Elastic Compliance Matrix: (Units=1/GPa)
#
#
# Indices 1 2 3 4 5 6 
#
# 1 0.009326 -0.003313 -0.002626 0.000000 0.001794 0.000000
# 2 -0.003313 0.009238 -0.002286 0.000000 -0.000886 0.000000
# 3 -0.002626 -0.002286 0.012752 0.000000 0.008580 0.000000
# 4 0.000000 0.000000 0.000000 0.032335 0.000000 -0.001315
# 5 0.001794 -0.000886 0.008580 0.000000 0.034683 0.000000
# 6 0.000000 0.000000 0.000000 -0.001315 0.000000 0.031436
#
#
# Mechanical properties :
#
#
# Convention : Reuss Voigt Hill
#
# Bulk Modulus (GPa) = 67.27018 83.31044 75.29031
# Shear Modulus (GPa) = 33.07386 36.24547 34.65967
#
# Velocity S-wave (km/s) = 3.75051 3.92622 3.83937
# Velocity P-wave (km/s) = 6.88223 7.48234 7.18855
#
# Compressibility (1/GPa) = 0.01486543
#
# Stress axis : x y z
#
# Youngs Moduli (GPa) = 107.22737 108.24427 78.41780
#
# Poissons Ratio (x) = 0.35858 0.20596
# Poissons Ratio (y) = 0.35521 0.17930
# Poissons Ratio (z) = 0.28162 0.24749
#
# Static dielectric constant tensor:
#      x y z
#    x 4.707030 0.000000 0.218010 
#    y 0.000000 3.763740 0.000000 
#    z 0.218010 0.000000 4.991860 
# 
# 
# High freq. dielectric constant tensor:
#      x y z
#    x 1.961580 0.000000 0.008840 
#    y 0.000000 1.877980 0.000000 
#    z 0.008840 0.000000 1.960750 
# 
# From -- ./inp_files/87025.got.cif
#   From: 2010.06.25/outbox.cif.g09.slc.cpg/sg13_44_cif.got.tgz:87025.got - 2010.06.28 04:50:58.
