data_PCOD8120191
_publ_section_title
;
Structure prediction by ZEFSAII (Michael W. Deem and Ramdas Pophale) SiO2 
 PCOD8120191
Probable space group: P 2/C
;
_chemical_formula_sum "Si O2"
_cell_formula_units_Z 24
_cell_length_a 15.190597
_cell_length_b 11.191963
_cell_length_c 24.790794
_cell_angle_alpha 90.000000
_cell_angle_beta 17.125695
_cell_angle_gamma 90.000000
_cell_volume 1241.112149
_symmetry_space_group_name_H-M "P 2/C"
_symmetry_group_IT_number 13
_symmetry_cell_setting 'monoclinic'
loop_
_space_group_symop_operation_xyz
x,y,z
-x,y,1/2-z
-x,-y,-z
x,-y,1/2+z
loop_
_atom_site_type_symbol
_atom_site_label
_atom_site_fract_x
_atom_site_fract_y
_atom_site_fract_z
Si Si1 0.040654 0.657318 0.520086
Si Si2 0.247295 0.949866 0.186443
Si Si3 0.500000 0.138252 0.750000
Si Si4 0.394788 0.725496 0.930317
Si Si5 0.000000 0.238760 0.750000
Si Si6 0.397846 0.991648 0.418308
Si Si7 0.187450 0.403597 0.455738
O O1 0.211098 0.780407 0.430158
O O2 0.194076 0.546701 0.461819
O O3 0.708472 0.660822 0.738399
O O4 0.059199 0.630428 0.444810
O O5 0.405464 0.925157 0.151134
O O6 0.123775 0.832983 0.229308
O O7 0.957598 0.036579 0.365144
O O8 0.500000 0.000000 0.000000
O O9 0.471267 0.053679 0.714959
O O10 0.144788 0.671028 0.035738
O O11 0.444808 0.866401 0.893156
O O12 0.274788 0.690823 0.061154
O O13 0.500000 0.357017 0.250000
#
# Coordination Sequence:
#
# PCOD8120191 Si02
#       7
#     4   4   2   4   2   4   4
#     4  10  21  38  58  83 116 153 196 245 292 355
#     4  11  19  40  58  82 120 167 204 232 281 364
#     4  12  26  34  56  96 130 146 194 240 308 360
#     4  10  21  38  60  84 116 155 197 242 298 353
#     4  10  22  36  62  88 116 162 206 238 294 354
#     4  11  25  36  59  92 128 159 190 247 304 361
#     4   9  19  38  62  81 107 155 202 240 295 348
#
# _framework density 19.337496000000002
#
# number of rings (size 3 to 8) (size 9 to 14) (size 15 to 20)
#    0.000    1.667    4.167    1.000    8.167    1.333 
#    0.000    0.833    0.000    0.000    0.000    0.000 
#    0.000    0.000    0.000    0.000    0.000    0.000 
#
# Total GULP energy -297384.507673 kJ/mol
# GULP energy per Si atom -12391.021153 kJ/mol
# Density = 1.929348 g / cm^3
# Si number density = 19.337496 Si / 1000 Ang^3
#
#
#
# Elastic Constant Matrix: (Units=GPa)
#
#
# Indices 1 2 3 4 5 6 
#
# 1 136.2488 27.7478 45.5954 0.0000 14.1481 0.0000
# 2 27.7478 51.1927 9.4917 0.0000 12.7564 0.0000
# 3 45.5954 9.4917 95.5184 0.0000 9.7815 0.0000
# 4 0.0000 0.0000 0.0000 18.2688 0.0000 0.0585
# 5 14.1481 12.7564 9.7815 0.0000 36.0214 0.0000
# 6 0.0000 0.0000 0.0000 0.0585 0.0000 27.5036
#
#
#
# Elastic Compliance Matrix: (Units=1/GPa)
#
#
# Indices 1 2 3 4 5 6 
#
# 1 0.009685 -0.004191 -0.004083 0.000000 -0.001211 0.000000
# 2 -0.004191 0.023419 0.000364 0.000000 -0.006746 0.000000
# 3 -0.004083 0.000364 0.012581 0.000000 -0.001942 0.000000
# 4 0.000000 0.000000 0.000000 0.054739 0.000000 -0.000116
# 5 -0.001211 -0.006746 -0.001942 0.000000 0.031153 0.000000
# 6 0.000000 0.000000 0.000000 -0.000116 0.000000 0.036359
#
#
# Mechanical properties :
#
#
# Convention : Reuss Voigt Hill
#
# Bulk Modulus (GPa) = 33.48260 49.84777 41.66518
# Shear Modulus (GPa) = 25.81181 29.70042 27.75612
#
# Velocity S-wave (km/s) = 3.65746 3.92330 3.79271
# Velocity P-wave (km/s) = 5.93199 6.80859 6.38535
#
# Compressibility (1/GPa) = 0.02986626
#
# Stress axis : x y z
#
# Youngs Moduli (GPa) = 103.25247 42.70021 79.48703
#
# Poissons Ratio (x) = 0.17895 0.32452
# Poissons Ratio (y) = 0.43270 -0.02894
# Poissons Ratio (z) = 0.42154 -0.01555
#
# Static dielectric constant tensor:
#      x y z
#    x 3.993170 0.000000 -0.157080 
#    y 0.000000 3.396830 0.000000 
#    z -0.157080 0.000000 4.677580 
# 
# 
# High freq. dielectric constant tensor:
#      x y z
#    x 1.753700 0.000000 -0.000670 
#    y 0.000000 1.722960 0.000000 
#    z -0.000670 0.000000 1.763310 
# 
# From -- ./inp_files/87501.got.cif
#   From: 2010.06.25/outbox.cif.g09.slc.cpg/sg13_44_cif.got.tgz:87501.got - 2010.06.28 04:50:58.
