data_PCOD8120897
_publ_section_title
;
Structure prediction by ZEFSAII (Michael W. Deem and Ramdas Pophale) SiO2 
 PCOD8120897
Probable space group: P 2/C
;
_chemical_formula_sum "Si O2"
_cell_formula_units_Z 20
_cell_length_a 11.101220
_cell_length_b 9.025751
_cell_length_c 9.179616
_cell_angle_alpha 90.000000
_cell_angle_beta 89.999958
_cell_angle_gamma 90.000000
_cell_volume 919.768585
_symmetry_space_group_name_H-M "P 2/C"
_symmetry_group_IT_number 13
_symmetry_cell_setting 'monoclinic'
loop_
_space_group_symop_operation_xyz
x,y,z
-x,y,1/2-z
-x,-y,-z
x,-y,1/2+z
loop_
_atom_site_type_symbol
_atom_site_label
_atom_site_fract_x
_atom_site_fract_y
_atom_site_fract_z
Si Si1 0.382388 0.658469 0.674108
Si Si2 0.832149 0.249382 0.844998
Si Si3 0.000000 1.000000 0.750000
Si Si4 0.000000 0.500000 0.750000
Si Si5 0.832149 0.249383 0.155002
Si Si6 0.617612 0.341531 0.674108
O O1 0.500000 0.732272 0.750000
O O2 0.264225 0.755089 0.712771
O O3 0.363343 0.500000 0.750000
O O4 0.397405 0.645749 0.500000
O O5 0.735775 0.244911 0.712771
O O6 0.915258 0.395332 0.846513
O O7 0.915120 0.104314 0.846345
O O8 0.762481 0.251249 1.000000
O O9 0.915120 0.895686 0.653655
O O10 0.084742 0.604668 0.846513
O O11 0.500000 0.267728 0.750000
#
# Coordination Sequence:
#
# PCOD8120897 Si02
#       6
#     4   4   2   2   4   4
#     4  11  22  38  63  94 127 162 206 260 316 373
#     4  11  22  40  63  92 128 167 210 260 312 372
#     4  10  26  42  62  92 130 170 216 254 314 370
#     4  10  22  34  62  92 126 158 214 256 314 370
#     4  11  22  40  63  92 128 167 210 260 312 372
#     4  11  22  38  63  94 127 162 206 260 316 373
#
# _framework density 21.744600999999999
#
# number of rings (size 3 to 8) (size 9 to 14) (size 15 to 20)
#    0.000    1.200    2.000    6.000    0.000    8.000 
#    0.000    1.000    0.000    4.800    0.000    0.000 
#    0.000    0.000    0.000    0.000    0.000    0.000 
#
# Total GULP energy -247844.876574 kJ/mol
# GULP energy per Si atom -12392.243829 kJ/mol
# Density = 2.169511 g / cm^3
# Si number density = 21.744601 Si / 1000 Ang^3
#
#
#
# Elastic Constant Matrix: (Units=GPa)
#
#
# Indices 1 2 3 4 5 6 
#
# 1 147.3900 45.9119 64.7916 0.0000 0.0000 0.0000
# 2 45.9119 106.4960 33.0687 0.0000 0.0000 0.0000
# 3 64.7916 33.0687 201.7468 0.0000 0.0001 0.0000
# 4 0.0000 0.0000 0.0000 5.5038 0.0000 0.0004
# 5 0.0000 0.0000 0.0001 0.0000 33.0647 0.0000
# 6 0.0000 0.0000 0.0000 0.0004 0.0000 9.0014
#
#
#
# Elastic Compliance Matrix: (Units=1/GPa)
#
#
# Indices 1 2 3 4 5 6 
#
# 1 0.008752 -0.003056 -0.002310 0.000000 0.000000 0.000000
# 2 -0.003056 0.010961 -0.000815 0.000000 0.000000 0.000000
# 3 -0.002310 -0.000815 0.005832 0.000000 0.000000 0.000000
# 4 0.000000 0.000000 0.000000 0.181694 0.000000 -0.000008
# 5 0.000000 0.000000 0.000000 0.000000 0.030244 0.000000
# 6 0.000000 0.000000 0.000000 -0.000008 0.000000 0.111094
#
#
# Mechanical properties :
#
#
# Convention : Reuss Voigt Hill
#
# Bulk Modulus (GPa) = 75.85546 82.57524 79.21535
# Shear Modulus (GPa) = 13.68617 30.30467 21.99542
#
# Velocity S-wave (km/s) = 2.51152 3.73723 3.18391
# Velocity P-wave (km/s) = 6.58565 7.52861 7.07286
#
# Compressibility (1/GPa) = 0.01318297
#
# Stress axis : x y z
#
# Youngs Moduli (GPa) = 114.25940 91.23605 171.46382
#
# Poissons Ratio (x) = 0.27881 0.39605
# Poissons Ratio (y) = 0.34916 0.13977
# Poissons Ratio (z) = 0.26392 0.07437
#
# Static dielectric constant tensor:
#      x y z
#    x 4.348930 0.000000 0.000000 
#    y 0.000000 3.781750 0.000000 
#    z 0.000000 0.000000 3.727720 
# 
# 
# High freq. dielectric constant tensor:
#      x y z
#    x 1.864930 0.000000 0.000000 
#    y 0.000000 1.824870 0.000000 
#    z 0.000000 0.000000 1.858750 
# 
# From -- ./inp_files/11805.got.cif
#   From: 2010.06.25/outbox.cif.g09.slc.cpg/sg13_6_cif.got.tgz:11805.got - 2010.06.28 04:50:58.
