data_PCOD8120591
_publ_section_title
;
Structure prediction by ZEFSAII (Michael W. Deem and Ramdas Pophale) SiO2 
 PCOD8120591
Probable space group: P 2/C
;
_chemical_formula_sum "Si O2"
_cell_formula_units_Z 24
_cell_length_a 11.579197
_cell_length_b 16.000820
_cell_length_c 17.283209
_cell_angle_alpha 90.000000
_cell_angle_beta 21.173546
_cell_angle_gamma 90.000000
_cell_volume 1156.606622
_symmetry_space_group_name_H-M "P 2/C"
_symmetry_group_IT_number 13
_symmetry_cell_setting 'monoclinic'
loop_
_space_group_symop_operation_xyz
x,y,z
-x,y,1/2-z
-x,-y,-z
x,-y,1/2+z
loop_
_atom_site_type_symbol
_atom_site_label
_atom_site_fract_x
_atom_site_fract_y
_atom_site_fract_z
Si Si1 0.500000 0.665227 0.250000
Si Si2 0.021091 0.946493 0.647170
Si Si3 0.500000 0.722644 0.750000
Si Si4 0.737462 0.947292 0.209390
Si Si5 0.997749 0.803382 0.542379
Si Si6 0.700952 0.472169 0.738159
Si Si7 0.865122 0.601306 0.414596
O O1 0.185074 0.722191 0.455346
O O2 0.474848 0.607622 0.189731
O O3 0.385825 0.971198 0.400304
O O4 0.921698 0.863617 0.662151
O O5 0.000000 0.925246 0.750000
O O6 0.796276 0.025583 0.762616
O O7 0.775023 0.670114 0.534920
O O8 0.661187 0.778484 0.715448
O O9 0.793122 0.849675 0.155509
O O10 0.000000 0.000000 0.000000
O O11 0.000000 0.500000 0.500000
O O12 0.838890 0.451695 0.736458
O O13 0.448639 0.546289 0.904561
O O14 0.000000 0.639908 0.250000
#
# Coordination Sequence:
#
# PCOD8120591 Si02
#       7
#     2   4   2   4   4   4   4
#     4  12  19  40  69  88 126 176 210 262 337 386
#     4  11  23  42  65  99 131 163 218 274 316 379
#     4  12  25  44  67  90 138 174 212 276 329 394
#     4  10  21  40  68  90 121 171 219 251 311 394
#     4  11  23  41  65  90 129 175 212 257 335 391
#     4  12  21  42  72  92 129 174 219 275 326 384
#     4  12  25  44  67  99 127 171 229 271 324 394
#
# _framework density 20.750357000000001
#
# number of rings (size 3 to 8) (size 9 to 14) (size 15 to 20)
#    0.000    0.667    6.667    2.500    4.667    0.000 
#    6.000    0.000    0.000    0.000    0.000    0.000 
#    0.000    0.000    0.000    0.000    0.000    0.000 
#
# Total GULP energy -297557.318269 kJ/mol
# GULP energy per Si atom -12398.221595 kJ/mol
# Density = 2.070313 g / cm^3
# Si number density = 20.750357 Si / 1000 Ang^3
#
#
#
# Elastic Constant Matrix: (Units=GPa)
#
#
# Indices 1 2 3 4 5 6 
#
# 1 135.1365 36.5547 40.0884 0.0000 -0.9515 0.0000
# 2 36.5547 79.5405 25.9634 0.0000 -0.4391 0.0000
# 3 40.0884 25.9634 66.2814 0.0000 -5.1318 0.0000
# 4 0.0000 0.0000 0.0000 17.9199 0.0000 -13.4486
# 5 -0.9515 -0.4391 -5.1318 0.0000 48.6324 0.0000
# 6 0.0000 0.0000 0.0000 -13.4486 0.0000 47.7097
#
#
#
# Elastic Compliance Matrix: (Units=1/GPa)
#
#
# Indices 1 2 3 4 5 6 
#
# 1 0.009564 -0.002867 -0.004687 0.000000 -0.000333 0.000000
# 2 -0.002867 0.015286 -0.004282 0.000000 -0.000370 0.000000
# 3 -0.004687 -0.004282 0.019751 0.000000 0.001954 0.000000
# 4 0.000000 0.000000 0.000000 0.070777 0.000000 0.019951
# 5 -0.000333 -0.000370 0.001954 0.000000 0.020759 0.000000
# 6 0.000000 0.000000 0.000000 0.019951 0.000000 0.026584
#
#
# Mechanical properties :
#
#
# Convention : Reuss Voigt Hill
#
# Bulk Modulus (GPa) = 47.78442 54.01904 50.90173
# Shear Modulus (GPa) = 25.85752 34.74252 30.30002
#
# Velocity S-wave (km/s) = 3.53388 4.09627 3.82542
# Velocity P-wave (km/s) = 6.30312 6.96146 6.64045
#
# Compressibility (1/GPa) = 0.02092732
#
# Stress axis : x y z
#
# Youngs Moduli (GPa) = 104.56412 65.42120 50.63133
#
# Poissons Ratio (x) = 0.18757 0.23731
# Poissons Ratio (y) = 0.29979 0.21681
# Poissons Ratio (z) = 0.49009 0.28014
#
# Static dielectric constant tensor:
#      x y z
#    x 4.462880 0.000000 -0.249630 
#    y 0.000000 3.927560 0.000000 
#    z -0.249630 0.000000 3.705850 
# 
# 
# High freq. dielectric constant tensor:
#      x y z
#    x 1.829960 0.000000 -0.026390 
#    y 0.000000 1.802150 0.000000 
#    z -0.026390 0.000000 1.801670 
# 
# From -- ./inp_files/12449.got.cif
#   From: 2010.06.25/outbox.cif.g09.slc.cpg/sg13_7_cif.got.tgz:12449.got - 2010.06.28 04:50:58.
