data_PCOD8120816
_publ_section_title
;
Structure prediction by ZEFSAII (Michael W. Deem and Ramdas Pophale) SiO2 
 PCOD8120816
Probable space group: P 2/C
;
_chemical_formula_sum "Si O2"
_cell_formula_units_Z 26
_cell_length_a 10.922290
_cell_length_b 6.610640
_cell_length_c 21.800508
_cell_angle_alpha 90.000000
_cell_angle_beta 129.837506
_cell_angle_gamma 90.000000
_cell_volume 1208.671618
_symmetry_space_group_name_H-M "P 2/C"
_symmetry_group_IT_number 13
_symmetry_cell_setting 'monoclinic'
loop_
_space_group_symop_operation_xyz
x,y,z
-x,y,1/2-z
-x,-y,-z
x,-y,1/2+z
loop_
_atom_site_type_symbol
_atom_site_label
_atom_site_fract_x
_atom_site_fract_y
_atom_site_fract_z
Si Si1 0.896573 0.015865 0.827889
Si Si2 0.423925 0.213172 0.493204
Si Si3 0.352513 0.312583 0.242244
Si Si4 0.884066 0.275821 0.031228
Si Si5 0.672124 0.505462 0.138967
Si Si6 0.000000 0.746736 0.250000
Si Si7 0.877898 0.599867 0.390715
O O1 0.822515 0.221598 0.829323
O O2 0.003669 0.090190 0.805882
O O3 0.749737 0.871820 0.762010
O O4 0.005408 0.910090 0.913594
O O5 0.291424 0.216038 0.503746
O O6 0.337869 0.302200 0.405053
O O7 0.567677 0.336482 0.568245
O O8 0.500000 0.000000 0.500000
O O9 0.500000 0.227910 0.250000
O O10 0.395191 0.454441 0.314415
O O11 0.257439 0.430701 0.158442
O O12 0.955635 0.491748 0.078965
O O13 0.891869 0.300992 0.961307
O O14 0.849438 0.595683 0.201390
#
# Coordination Sequence:
#
# PCOD8120816 Si02
#       7
#     4   4   4   4   4   2   4
#     4  11  24  39  67 103 128 182 227 279 337 396
#     4  11  25  43  65 100 133 181 221 279 347 402
#     4  11  25  42  64  99 135 177 227 277 338 404
#     4  10  22  40  69  94 137 173 225 278 328 416
#     4  11  26  44  67  97 137 177 227 282 340 402
#     4  12  24  46  72  98 140 176 238 286 336 408
#     4  10  21  43  65  97 133 179 225 273 343 388
#
# _framework density 21.511219000000001
#
# number of rings (size 3 to 8) (size 9 to 14) (size 15 to 20)
#    0.000    1.231    1.538    3.231    6.462    3.077 
#    0.000    0.000    0.000    0.000    0.000    0.000 
#    0.000    0.000    0.000    0.000    0.000    0.000 
#
# Total GULP energy -322160.785806 kJ/mol
# GULP energy per Si atom -12390.799454 kJ/mol
# Density = 2.146226 g / cm^3
# Si number density = 21.511219 Si / 1000 Ang^3
#
#
#
# Elastic Constant Matrix: (Units=GPa)
#
#
# Indices 1 2 3 4 5 6 
#
# 1 120.6490 50.2952 29.3594 0.0000 0.6360 0.0000
# 2 50.2952 122.0582 35.5900 0.0000 -7.4955 0.0000
# 3 29.3594 35.5900 88.0116 0.0000 -5.4676 0.0000
# 4 0.0000 0.0000 0.0000 29.0732 0.0000 -0.6622
# 5 0.6360 -7.4955 -5.4676 0.0000 30.7985 0.0000
# 6 0.0000 0.0000 0.0000 -0.6622 0.0000 33.3068
#
#
#
# Elastic Compliance Matrix: (Units=1/GPa)
#
#
# Indices 1 2 3 4 5 6 
#
# 1 0.010361 -0.003771 -0.002024 0.000000 -0.001491 0.000000
# 2 -0.003771 0.010740 -0.002951 0.000000 0.002168 0.000000
# 3 -0.002024 -0.002951 0.013336 0.000000 0.001691 0.000000
# 4 0.000000 0.000000 0.000000 0.034412 0.000000 0.000684
# 5 -0.001491 0.002168 0.001691 0.000000 0.033328 0.000000
# 6 0.000000 0.000000 0.000000 0.000684 0.000000 0.030037
#
#
# Mechanical properties :
#
#
# Convention : Reuss Voigt Hill
#
# Bulk Modulus (GPa) = 59.01146 62.35644 60.68395
# Shear Modulus (GPa) = 32.18496 33.00065 32.59280
#
# Velocity S-wave (km/s) = 3.87226 3.92102 3.89672
# Velocity P-wave (km/s) = 6.89094 7.03918 6.96545
#
# Compressibility (1/GPa) = 0.01694586
#
# Stress axis : x y z
#
# Youngs Moduli (GPa) = 96.51774 93.11008 74.98765
#
# Poissons Ratio (x) = 0.35108 0.15178
# Poissons Ratio (y) = 0.36393 0.22125
# Poissons Ratio (z) = 0.19536 0.27472
#
# Static dielectric constant tensor:
#      x y z
#    x 3.766300 0.000000 -0.058990 
#    y 0.000000 4.082770 0.000000 
#    z -0.058990 0.000000 3.887660 
# 
# 
# High freq. dielectric constant tensor:
#      x y z
#    x 1.836420 0.000000 -0.006250 
#    y 0.000000 1.854180 0.000000 
#    z -0.006250 0.000000 1.856350 
# 
# From -- ./inp_files/85888.got.cif
#   From: 2010.06.25/outbox.cif.g09.slc.cpg/sg13_43_cif.got.tgz:85888.got - 2010.06.28 04:50:58.
