data_PCOD8120347
_publ_section_title
;
Structure prediction by ZEFSAII (Michael W. Deem and Ramdas Pophale) SiO2 
 PCOD8120347
Probable space group: P 2/C
;
_chemical_formula_sum "Si O2"
_cell_formula_units_Z 28
_cell_length_a 12.295549
_cell_length_b 7.310795
_cell_length_c 16.196292
_cell_angle_alpha 90.000000
_cell_angle_beta 65.406987
_cell_angle_gamma 90.000000
_cell_volume 1323.820333
_symmetry_space_group_name_H-M "P 2/C"
_symmetry_group_IT_number 13
_symmetry_cell_setting 'monoclinic'
loop_
_space_group_symop_operation_xyz
x,y,z
-x,y,1/2-z
-x,-y,-z
x,-y,1/2+z
loop_
_atom_site_type_symbol
_atom_site_label
_atom_site_fract_x
_atom_site_fract_y
_atom_site_fract_z
Si Si1 0.189175 0.157655 0.639207
Si Si2 0.212822 0.241396 0.325558
Si Si3 0.348916 0.828622 0.621785
Si Si4 0.434330 0.732251 0.852375
Si Si5 0.063789 0.906074 0.351065
Si Si6 0.125513 0.584058 0.441999
Si Si7 0.696015 0.506128 0.979499
O O1 0.136568 0.160197 0.747762
O O2 0.247279 0.350727 0.597269
O O3 0.079158 0.109496 0.613011
O O4 0.296330 0.010152 0.595603
O O5 0.254308 0.242877 0.218352
O O6 0.314411 0.164673 0.357767
O O7 0.188702 0.450479 0.356250
O O8 0.095266 0.113992 0.367026
O O9 0.476222 0.870461 0.626987
O O10 0.368989 0.664459 0.551270
O O11 0.500000 0.649247 0.750000
O O12 0.401525 0.569992 0.925468
O O13 0.111319 0.784587 0.410381
O O14 0.196956 0.600809 0.504399
O O15 0.000000 0.500000 0.500000
#
# Coordination Sequence:
#
# PCOD8120347 Si02
#       7
#     4   4   4   4   4   4   4
#     4  10  22  37  59  91 119 150 196 241 287 352
#     4   9  21  39  61  84 116 158 194 240 291 345
#     4  10  21  40  62  85 115 155 198 242 296 341
#     4   9  20  41  62  84 117 154 199 246 291 348
#     4  10  21  39  59  84 123 159 189 234 293 352
#     4  11  22  36  55  85 121 156 194 235 286 351
#     4  11  22  37  60  91 116 153 195 245 296 341
#
# _framework density 21.150905000000002
#
# number of rings (size 3 to 8) (size 9 to 14) (size 15 to 20)
#    0.000    2.000    1.429    1.286    2.000    3.429 
#    0.000    2.857    0.000   10.286    0.000    0.000 
#    0.000    0.000    0.000    0.000    0.000    0.000 
#
# Total GULP energy -347106.677926 kJ/mol
# GULP energy per Si atom -12396.667069 kJ/mol
# Density = 2.110276 g / cm^3
# Si number density = 21.150905 Si / 1000 Ang^3
#
#
#
# Elastic Constant Matrix: (Units=GPa)
#
#
# Indices 1 2 3 4 5 6 
#
# 1 109.1231 20.7634 18.9408 0.0000 10.2425 0.0000
# 2 20.7634 56.4846 20.7852 0.0000 17.3873 0.0000
# 3 18.9408 20.7852 56.3150 0.0000 9.0350 0.0000
# 4 0.0000 0.0000 0.0000 29.0778 0.0000 7.9253
# 5 10.2425 17.3873 9.0350 0.0000 30.6311 0.0000
# 6 0.0000 0.0000 0.0000 7.9253 0.0000 32.9142
#
#
#
# Elastic Compliance Matrix: (Units=1/GPa)
#
#
# Indices 1 2 3 4 5 6 
#
# 1 0.010158 -0.002489 -0.002288 0.000000 -0.001309 0.000000
# 2 -0.002489 0.024394 -0.006380 0.000000 -0.011132 0.000000
# 3 -0.002288 -0.006380 0.021180 0.000000 -0.001861 0.000000
# 4 0.000000 0.000000 0.000000 0.036806 0.000000 -0.008862
# 5 -0.001309 -0.011132 -0.001861 0.000000 0.039952 0.000000
# 6 0.000000 0.000000 0.000000 -0.008862 0.000000 0.032516
#
#
# Mechanical properties :
#
#
# Convention : Reuss Voigt Hill
#
# Bulk Modulus (GPa) = 29.92470 38.10016 34.01243
# Shear Modulus (GPa) = 25.19422 29.28684 27.24053
#
# Velocity S-wave (km/s) = 3.45507 3.72514 3.59264
# Velocity P-wave (km/s) = 5.48594 6.04606 5.77280
#
# Compressibility (1/GPa) = 0.03341721
#
# Stress axis : x y z
#
# Youngs Moduli (GPa) = 98.44938 40.99447 47.21423
#
# Poissons Ratio (x) = 0.10204 0.10801
# Poissons Ratio (y) = 0.24506 0.30123
# Poissons Ratio (z) = 0.22522 0.26155
#
# Static dielectric constant tensor:
#      x y z
#    x 4.065860 0.000000 -0.199290 
#    y 0.000000 4.071340 0.000000 
#    z -0.199290 0.000000 3.257490 
# 
# 
# High freq. dielectric constant tensor:
#      x y z
#    x 1.845650 0.000000 0.005810 
#    y 0.000000 1.800230 0.000000 
#    z 0.005810 0.000000 1.837200 
# 
# From -- ./inp_files/49993.got.cif
#   From: 2010.06.25/outbox.cif.g09.slc.cpg/sg13_25_cif.got.tgz:49993.got - 2010.06.28 04:50:58.
