data_PCOD8120620
_publ_section_title
;
Structure prediction by ZEFSAII (Michael W. Deem and Ramdas Pophale) SiO2 
 PCOD8120620
Probable space group: P 2/C
;
_chemical_formula_sum "Si O2"
_cell_formula_units_Z 28
_cell_length_a 18.835234
_cell_length_b 5.448154
_cell_length_c 17.108092
_cell_angle_alpha 90.000000
_cell_angle_beta 131.812337
_cell_angle_gamma 90.000000
_cell_volume 1308.494827
_symmetry_space_group_name_H-M "P 2/C"
_symmetry_group_IT_number 13
_symmetry_cell_setting 'monoclinic'
loop_
_space_group_symop_operation_xyz
x,y,z
-x,y,1/2-z
-x,-y,-z
x,-y,1/2+z
loop_
_atom_site_type_symbol
_atom_site_label
_atom_site_fract_x
_atom_site_fract_y
_atom_site_fract_z
Si Si1 0.879841 0.557193 0.566986
Si Si2 0.105120 0.741297 0.274334
Si Si3 0.031390 0.894790 0.605411
Si Si4 0.704057 0.430257 0.340864
Si Si5 0.612368 0.065790 0.832395
Si Si6 0.254811 0.103925 0.434994
Si Si7 0.212468 0.367550 0.257803
O O1 0.930005 0.387235 0.670066
O O2 0.805614 0.404960 0.459192
O O3 0.823045 0.777484 0.565034
O O4 0.964607 0.661884 0.575825
O O5 0.026110 0.924046 0.177936
O O6 0.208028 0.856398 0.369975
O O7 0.131075 0.554249 0.225270
O O8 0.144285 0.849109 0.676042
O O9 0.000000 0.000000 0.500000
O O10 0.648211 0.174702 0.312294
O O11 0.719389 0.466105 0.259693
O O12 0.646777 0.673386 0.323390
O O13 0.500000 0.062793 0.750000
O O14 0.647981 0.045978 0.948062
O O15 0.278033 0.281925 0.378829
#
# Coordination Sequence:
#
# PCOD8120620 Si02
#       7
#     4   4   4   4   4   4   4
#     4  10  22  39  61  93 126 186 232 276 330 392
#     4  10  21  41  60  84 133 175 232 273 326 400
#     4  11  25  38  60  94 136 176 234 286 327 388
#     4  11  24  43  71  99 135 175 220 275 352 404
#     4  11  24  46  74 104 130 167 225 282 341 423
#     4   9  21  40  66  92 127 178 217 272 335 402
#     4  10  24  40  62  94 132 182 219 275 335 399
#
# _framework density 21.398631999999999
#
# number of rings (size 3 to 8) (size 9 to 14) (size 15 to 20)
#    0.000    1.714    1.429    1.286    8.000    9.714 
#    0.000    4.286    0.000    0.000    0.000    0.000 
#    0.000    0.000    0.000    0.000    0.000    0.000 
#
# Total GULP energy -347062.029391 kJ/mol
# GULP energy per Si atom -12395.072478 kJ/mol
# Density = 2.134993 g / cm^3
# Si number density = 21.398632 Si / 1000 Ang^3
#
#
#
# Elastic Constant Matrix: (Units=GPa)
#
#
# Indices 1 2 3 4 5 6 
#
# 1 98.8155 36.2372 69.1856 0.0000 -3.7303 0.0000
# 2 36.2372 93.3946 30.5707 0.0000 -2.5207 0.0000
# 3 69.1856 30.5707 133.3007 0.0000 2.2380 0.0000
# 4 0.0000 0.0000 0.0000 26.6418 0.0000 -1.2270
# 5 -3.7303 -2.5207 2.2380 0.0000 36.9512 0.0000
# 6 0.0000 0.0000 0.0000 -1.2270 0.0000 30.1479
#
#
#
# Elastic Compliance Matrix: (Units=1/GPa)
#
#
# Indices 1 2 3 4 5 6 
#
# 1 0.017352 -0.004023 -0.008117 0.000000 0.001969 0.000000
# 2 -0.004023 0.012542 -0.000797 0.000000 0.000498 0.000000
# 3 -0.008117 -0.000797 0.011924 0.000000 -0.001596 0.000000
# 4 0.000000 0.000000 0.000000 0.037606 0.000000 0.001531
# 5 0.001969 0.000498 -0.001596 0.000000 0.027392 0.000000
# 6 0.000000 0.000000 0.000000 0.001531 0.000000 0.033232
#
#
# Mechanical properties :
#
#
# Convention : Reuss Voigt Hill
#
# Bulk Modulus (GPa) = 62.71112 66.38864 64.54988
# Shear Modulus (GPa) = 29.19940 31.38267 30.29103
#
# Velocity S-wave (km/s) = 3.69798 3.83374 3.76647
# Velocity P-wave (km/s) = 6.89951 7.11961 7.01042
#
# Compressibility (1/GPa) = 0.01594613
#
# Stress axis : x y z
#
# Youngs Moduli (GPa) = 57.62933 79.72975 83.86379
#
# Poissons Ratio (x) = 0.32073 0.68069
# Poissons Ratio (y) = 0.23183 0.06683
# Poissons Ratio (z) = 0.46776 0.06354
#
# Static dielectric constant tensor:
#      x y z
#    x 3.448980 0.000000 -0.125890 
#    y 0.000000 4.079020 0.000000 
#    z -0.125890 0.000000 4.171830 
# 
# 
# High freq. dielectric constant tensor:
#      x y z
#    x 1.807290 0.000000 -0.013030 
#    y 0.000000 1.854380 0.000000 
#    z -0.013030 0.000000 1.850690 
# 
# From -- ./inp_files/54713.got.cif
#   From: 2010.06.25/outbox.cif.g09.slc.cpg/sg13_28_cif.got.tgz:54713.got - 2010.06.28 04:50:58.
