data_PCOD8120678
_publ_section_title
;
Structure prediction by ZEFSAII (Michael W. Deem and Ramdas Pophale) SiO2 
 PCOD8120678
Probable space group: P 2/C
;
_chemical_formula_sum "Si O2"
_cell_formula_units_Z 24
_cell_length_a 14.532933
_cell_length_b 8.802217
_cell_length_c 28.353554
_cell_angle_alpha 90.000000
_cell_angle_beta 161.920919
_cell_angle_gamma 90.000000
_cell_volume 1125.578338
_symmetry_space_group_name_H-M "P 2/C"
_symmetry_group_IT_number 13
_symmetry_cell_setting 'monoclinic'
loop_
_space_group_symop_operation_xyz
x,y,z
-x,y,1/2-z
-x,-y,-z
x,-y,1/2+z
loop_
_atom_site_type_symbol
_atom_site_label
_atom_site_fract_x
_atom_site_fract_y
_atom_site_fract_z
Si Si1 0.367720 0.747463 0.615905
Si Si2 0.304498 0.183358 0.538997
Si Si3 0.953723 0.085462 0.839956
Si Si4 0.489600 0.500904 0.887835
Si Si5 0.946667 0.643851 0.169897
Si Si6 0.924473 0.840248 0.939510
O O1 0.490433 0.592893 0.651792
O O2 0.643464 0.852169 0.766845
O O3 0.159262 0.716659 0.560614
O O4 0.164324 0.838477 0.481083
O O5 0.613542 0.092861 0.689600
O O6 0.323177 0.346585 0.524210
O O7 0.206584 0.207371 0.545699
O O8 0.061233 0.089227 0.389420
O O9 0.997298 0.176434 0.811887
O O10 0.153050 0.456753 0.735725
O O11 0.614773 0.599025 0.992748
O O12 0.000000 0.605178 0.250000
O O13 0.000000 0.000000 0.000000
#
# Coordination Sequence:
#
# PCOD8120678 Si02
#       6
#     4   4   4   4   4   4
#     4  10  22  39  59  89 125 161 206 260 298 364
#     4  11  22  38  60  88 124 169 211 251 313 360
#     4  10  22  38  60  88 123 163 207 258 312 366
#     4  10  22  41  64  91 126 165 203 257 323 372
#     4  10  21  41  66  93 122 161 209 261 318 381
#     4  11  22  35  63  89 121 160 215 249 298 360
#
# _framework density 21.322372000000001
#
# number of rings (size 3 to 8) (size 9 to 14) (size 15 to 20)
#    0.000    1.667    1.667    2.500    2.333    2.667 
#    0.000    7.500    0.000    0.000    0.000    0.000 
#    0.000    0.000    0.000    0.000    0.000    0.000 
#
# Total GULP energy -297440.838310 kJ/mol
# GULP energy per Si atom -12393.368263 kJ/mol
# Density = 2.127384 g / cm^3
# Si number density = 21.322372 Si / 1000 Ang^3
#
#
#
# Elastic Constant Matrix: (Units=GPa)
#
#
# Indices 1 2 3 4 5 6 
#
# 1 84.9805 37.2028 25.3986 0.0000 -2.5655 0.0000
# 2 37.2028 81.5132 27.1592 0.0000 0.7203 0.0000
# 3 25.3986 27.1592 86.3155 0.0001 0.3355 0.0000
# 4 0.0000 0.0000 0.0001 35.2207 0.0000 -2.8665
# 5 -2.5655 0.7203 0.3355 0.0000 27.8626 0.0000
# 6 0.0000 0.0000 0.0000 -2.8665 0.0000 28.4954
#
#
#
# Elastic Compliance Matrix: (Units=1/GPa)
#
#
# Indices 1 2 3 4 5 6 
#
# 1 0.015265 -0.006125 -0.002571 0.000000 0.001595 0.000000
# 2 -0.006125 0.016165 -0.003280 0.000000 -0.000942 0.000000
# 3 -0.002571 -0.003280 0.013375 0.000000 -0.000313 0.000000
# 4 0.000000 0.000000 0.000000 0.028627 0.000000 0.002880
# 5 0.001595 -0.000942 -0.000313 0.000000 0.036065 0.000000
# 6 0.000000 0.000000 0.000000 0.002880 0.000000 0.035383
#
#
# Mechanical properties :
#
#
# Convention : Reuss Voigt Hill
#
# Bulk Modulus (GPa) = 47.95399 48.03671 47.99535
# Shear Modulus (GPa) = 28.44417 29.18564 28.81491
#
# Velocity S-wave (km/s) = 3.65637 3.70372 3.68012
# Velocity P-wave (km/s) = 6.35328 6.39279 6.37306
#
# Compressibility (1/GPa) = 0.02085332
#
# Stress axis : x y z
#
# Youngs Moduli (GPa) = 65.50868 61.86387 74.76477
#
# Poissons Ratio (x) = 0.37889 0.19221
# Poissons Ratio (y) = 0.40121 0.24525
# Poissons Ratio (z) = 0.16842 0.20293
#
# Static dielectric constant tensor:
#      x y z
#    x 4.025190 0.000000 0.200160 
#    y 0.000000 4.016190 0.000000 
#    z 0.200160 0.000000 3.932780 
# 
# 
# High freq. dielectric constant tensor:
#      x y z
#    x 1.822860 0.000000 0.012220 
#    y 0.000000 1.823840 0.000000 
#    z 0.012220 0.000000 1.845770 
# 
# From -- ./inp_files/18014.got.cif
#   From: 2010.06.25/outbox.cif.g09.slc.cpg/sg13_10_cif.got.tgz:18014.got - 2010.06.28 04:50:58.
