data_PCOD8120677
_publ_section_title
;
Structure prediction by ZEFSAII (Michael W. Deem and Ramdas Pophale) SiO2 
 PCOD8120677
Probable space group: P 2/C
;
_chemical_formula_sum "Si O2"
_cell_formula_units_Z 12
_cell_length_a 8.938965
_cell_length_b 7.050644
_cell_length_c 12.193371
_cell_angle_alpha 90.000000
_cell_angle_beta 28.618064
_cell_angle_gamma 90.000000
_cell_volume 368.083960
_symmetry_space_group_name_H-M "P 2/C"
_symmetry_group_IT_number 13
_symmetry_cell_setting 'monoclinic'
loop_
_space_group_symop_operation_xyz
x,y,z
-x,y,1/2-z
-x,-y,-z
x,-y,1/2+z
loop_
_atom_site_type_symbol
_atom_site_label
_atom_site_fract_x
_atom_site_fract_y
_atom_site_fract_z
Si Si1 0.727883 0.767032 0.787388
Si Si2 0.154460 0.097405 0.541590
Si Si3 0.670224 0.342583 0.756552
O O1 0.779325 0.545922 0.730615
O O2 0.530802 0.880971 0.817956
O O3 0.540421 0.777270 0.023141
O O4 0.055228 0.877600 0.596612
O O5 0.000000 0.192097 0.750000
O O6 0.003726 0.224940 0.537789
O O7 0.500000 0.362428 0.750000
#
# Coordination Sequence:
#
# PCOD8120677 Si02
#       3
#     4   4   4
#     4  10  23  43  66  94 130 170 212 265 325 382
#     4  10  21  41  66  91 126 171 211 263 323 378
#     4  10  22  40  64  96 128 167 217 266 317 379
#
# _framework density 32.601258999999999
#
# number of rings (size 3 to 8) (size 9 to 14) (size 15 to 20)
#    0.000    2.000    0.000    4.000    0.000   12.000 
#    0.000   16.667    0.000    0.000    0.000    0.000 
#    0.000    0.000    0.000    0.000    0.000    0.000 
#
# Total GULP energy -148885.504830 kJ/mol
# GULP energy per Si atom -12407.125402 kJ/mol
# Density = 3.252706 g / cm^3
# Si number density = 32.601259 Si / 1000 Ang^3
#
#
#
# Elastic Constant Matrix: (Units=GPa)
#
#
# Indices 1 2 3 4 5 6 
#
# 1 198.6054 66.9712 52.6420 0.0000 -17.3397 0.0000
# 2 66.9712 173.4244 82.3690 0.0000 -49.2482 0.0000
# 3 52.6420 82.3690 201.9674 0.0000 -45.4532 0.0000
# 4 0.0000 0.0000 0.0000 73.7629 0.0000 -4.7313
# 5 -17.3397 -49.2482 -45.4532 0.0000 60.2191 0.0000
# 6 0.0000 0.0000 0.0000 -4.7313 0.0000 66.7100
#
#
#
# Elastic Compliance Matrix: (Units=1/GPa)
#
#
# Indices 1 2 3 4 5 6 
#
# 1 0.005896 -0.002053 -0.000837 0.000000 -0.000614 0.000000
# 2 -0.002053 0.008982 -0.001937 0.000000 0.005292 0.000000
# 3 -0.000837 -0.001937 0.006684 0.000000 0.003220 0.000000
# 4 0.000000 0.000000 0.000000 0.013619 0.000000 0.000966
# 5 -0.000614 0.005292 0.003220 0.000000 0.023188 0.000000
# 6 0.000000 0.000000 0.000000 0.000966 0.000000 0.015059
#
#
# Mechanical properties :
#
#
# Convention : Reuss Voigt Hill
#
# Bulk Modulus (GPa) = 83.98598 108.66239 96.32418
# Shear Modulus (GPa) = 57.43696 64.93941 61.18818
#
# Velocity S-wave (km/s) = 4.20194 4.46795 4.33698
# Velocity P-wave (km/s) = 7.02561 7.74725 7.39523
#
# Compressibility (1/GPa) = 0.01190675
#
# Stress axis : x y z
#
# Youngs Moduli (GPa) = 169.60934 111.33391 149.60727
#
# Poissons Ratio (x) = 0.22861 0.12529
# Poissons Ratio (y) = 0.34827 0.28977
# Poissons Ratio (z) = 0.14204 0.21564
#
# Static dielectric constant tensor:
#      x y z
#    x 7.567090 0.000000 0.844320 
#    y 0.000000 5.763840 0.000000 
#    z 0.844320 0.000000 7.250470 
# 
# 
# High freq. dielectric constant tensor:
#      x y z
#    x 2.428810 0.000000 0.039970 
#    y 0.000000 2.341680 0.000000 
#    z 0.039970 0.000000 2.414570 
# 
# From -- ./inp_files/10531.got.cif
#   From: 2010.06.25/outbox.cif.g09.slc.cpg/sg13_6_cif.got.tgz:10531.got - 2010.06.28 04:50:58.
