data_PCOD8120275
_publ_section_title
;
Structure prediction by ZEFSAII (Michael W. Deem and Ramdas Pophale) SiO2 
 PCOD8120275
Probable space group: P 2/C
;
_chemical_formula_sum "Si O2"
_cell_formula_units_Z 22
_cell_length_a 5.727321
_cell_length_b 9.856565
_cell_length_c 16.164416
_cell_angle_alpha 90.000000
_cell_angle_beta 101.170729
_cell_angle_gamma 90.000000
_cell_volume 895.220792
_symmetry_space_group_name_H-M "P 2/C"
_symmetry_group_IT_number 13
_symmetry_cell_setting 'monoclinic'
loop_
_space_group_symop_operation_xyz
x,y,z
-x,y,1/2-z
-x,-y,-z
x,-y,1/2+z
loop_
_atom_site_type_symbol
_atom_site_label
_atom_site_fract_x
_atom_site_fract_y
_atom_site_fract_z
Si Si1 0.500000 0.514782 0.250000
Si Si2 0.926535 0.589981 0.872561
Si Si3 0.930317 0.209632 0.509481
Si Si4 0.000000 0.205013 0.250000
Si Si5 0.835460 0.321377 0.665321
Si Si6 0.653414 0.967712 0.430844
Si Si7 0.500000 0.052013 0.250000
O O1 0.325404 0.412307 0.191770
O O2 0.399877 0.615475 0.313124
O O3 0.083904 0.699197 0.832373
O O4 0.025142 0.439000 0.874476
O O5 0.908682 0.642535 0.965347
O O6 0.786240 0.212215 0.588476
O O7 0.204951 0.173460 0.548637
O O8 0.833835 0.096249 0.439738
O O9 0.243393 0.126188 0.242151
O O10 0.000000 0.259588 0.750000
O O11 0.500000 0.000000 0.500000
O O12 0.514243 0.959775 0.333946
#
# Coordination Sequence:
#
# PCOD8120275 Si02
#       7
#     2   4   4   2   4   4   2
#     4  10  21  38  63 104 138 193 238 281 352 444
#     4  11  21  39  69 100 140 179 238 293 357 431
#     4  11  25  44  65 100 141 178 240 300 361 419
#     4  12  22  42  78 110 136 188 236 304 352 430
#     4  10  23  41  65  95 142 186 233 288 358 435
#     4  11  27  46  69 101 136 187 246 300 358 430
#     4  12  27  46  81 102 144 193 246 303 366 424
#
# _framework density 24.574939000000001
#
# number of rings (size 3 to 8) (size 9 to 14) (size 15 to 20)
#    0.000    1.091    4.545    2.182    2.545    6.545 
#    0.000    0.909    0.000    0.000    0.000    0.000 
#    0.000    0.000    0.000    0.000    0.000    0.000 
#
# Total GULP energy -272619.640608 kJ/mol
# GULP energy per Si atom -12391.801846 kJ/mol
# Density = 2.451901 g / cm^3
# Si number density = 24.574939 Si / 1000 Ang^3
#
#
#
# Elastic Constant Matrix: (Units=GPa)
#
#
# Indices 1 2 3 4 5 6 
#
# 1 98.0900 7.6738 38.5712 0.0000 -8.7735 0.0000
# 2 7.6738 37.5720 34.3227 0.0000 7.8340 0.0000
# 3 38.5712 34.3227 194.6899 0.0000 -10.6786 0.0000
# 4 0.0000 0.0000 0.0000 53.1311 0.0000 -7.4453
# 5 -8.7735 7.8340 -10.6786 0.0000 33.7808 0.0000
# 6 0.0000 0.0000 0.0000 -7.4453 0.0000 14.8829
#
#
#
# Elastic Compliance Matrix: (Units=1/GPa)
#
#
# Indices 1 2 3 4 5 6 
#
# 1 0.011257 -0.001108 -0.001893 0.000000 0.002582 0.000000
# 2 -0.001108 0.034980 -0.006521 0.000000 -0.010461 0.000000
# 3 -0.001893 -0.006521 0.006836 0.000000 0.003181 0.000000
# 4 0.000000 0.000000 0.000000 0.020240 0.000000 0.010125
# 5 0.002582 -0.010461 0.003181 0.000000 0.033705 0.000000
# 6 0.000000 0.000000 0.000000 0.010125 0.000000 0.072256
#
#
# Mechanical properties :
#
#
# Convention : Reuss Voigt Hill
#
# Bulk Modulus (GPa) = 29.38759 54.60970 41.99865
# Shear Modulus (GPa) = 23.84797 37.01123 30.42960
#
# Velocity S-wave (km/s) = 3.11853 3.88500 3.52268
# Velocity P-wave (km/s) = 4.99513 6.51109 5.80283
#
# Compressibility (1/GPa) = 0.03402797
#
# Stress axis : x y z
#
# Youngs Moduli (GPa) = 88.83524 28.58762 146.29359
#
# Poissons Ratio (x) = 0.03168 0.27696
# Poissons Ratio (y) = 0.09843 0.95399
# Poissons Ratio (z) = 0.16818 0.18642
#
# Static dielectric constant tensor:
#      x y z
#    x 4.381290 0.000000 0.019110 
#    y 0.000000 4.268890 0.000000 
#    z 0.019110 0.000000 4.710040 
# 
# 
# High freq. dielectric constant tensor:
#      x y z
#    x 1.968130 0.000000 -0.011450 
#    y 0.000000 1.967590 0.000000 
#    z -0.011450 0.000000 1.996450 
# 
# From -- ./inp_files/43650.got.cif
#   From: 2010.06.25/outbox.cif.g09.slc.cpg/sg13_22_cif.got.tgz:43650.got - 2010.06.28 04:50:58.
