data_PCOD8120173
_publ_section_title
;
Structure prediction by ZEFSAII (Michael W. Deem and Ramdas Pophale) SiO2 
 PCOD8120173
Probable space group: P 2/C
;
_chemical_formula_sum "Si O2"
_cell_formula_units_Z 20
_cell_length_a 13.722269
_cell_length_b 14.148446
_cell_length_c 5.072165
_cell_angle_alpha 90.000000
_cell_angle_beta 98.816407
_cell_angle_gamma 90.000000
_cell_volume 973.119320
_symmetry_space_group_name_H-M "P 2/C"
_symmetry_group_IT_number 13
_symmetry_cell_setting 'monoclinic'
loop_
_space_group_symop_operation_xyz
x,y,z
-x,y,1/2-z
-x,-y,-z
x,-y,1/2+z
loop_
_atom_site_type_symbol
_atom_site_label
_atom_site_fract_x
_atom_site_fract_y
_atom_site_fract_z
Si Si1 0.116320 0.560536 0.797212
Si Si2 0.709126 0.060477 0.258180
Si Si3 0.371701 0.279808 0.886541
Si Si4 0.500000 0.146605 0.250000
Si Si5 0.749006 0.738524 0.660280
Si Si6 0.500000 0.563580 0.250000
O O1 0.151899 0.502675 0.557088
O O2 0.160649 0.666081 0.828500
O O3 0.000000 0.575618 0.750000
O O4 0.592132 0.084452 0.190043
O O5 0.775656 0.156193 0.276781
O O6 0.736887 0.012000 0.542746
O O7 0.295133 0.235932 0.646788
O O8 0.403267 0.373030 0.741456
O O9 0.464397 0.210985 0.986824
O O10 0.325459 0.305640 0.152988
O O11 0.500000 0.500000 0.500000
#
# Coordination Sequence:
#
# PCOD8120173 Si02
#       6
#     4   4   4   2   4   2
#     4  10  22  41  67  95 117 143 186 239 299 363
#     4  11  22  35  55  83 114 154 201 241 285 336
#     4  11  23  37  53  77 111 157 199 235 289 343
#     4  10  21  38  55  76 112 154 202 250 284 318
#     4  11  23  39  59  84 118 150 186 245 297 343
#     4  12  23  34  47  70 106 148 194 234 266 324
#
# _framework density 20.552462999999999
#
# number of rings (size 3 to 8) (size 9 to 14) (size 15 to 20)
#    0.000    1.200    0.000    8.400    0.000    8.000 
#    0.000    0.000    0.000    1.200    0.000    0.000 
#    0.000    0.000    0.000    0.000    0.000    0.000 
#
# Total GULP energy -247878.174815 kJ/mol
# GULP energy per Si atom -12393.908741 kJ/mol
# Density = 2.050569 g / cm^3
# Si number density = 20.552463 Si / 1000 Ang^3
#
#
#
# Elastic Constant Matrix: (Units=GPa)
#
#
# Indices 1 2 3 4 5 6 
#
# 1 36.6861 37.2091 21.4079 0.0000 -2.8888 0.0000
# 2 37.2091 150.7813 50.6450 0.0000 -3.0551 0.0000
# 3 21.4079 50.6450 149.8837 0.0000 -14.0554 0.0000
# 4 0.0000 0.0000 0.0000 40.5146 0.0000 -4.7095
# 5 -2.8888 -3.0551 -14.0554 0.0000 16.1232 0.0000
# 6 0.0000 0.0000 0.0000 -4.7095 0.0000 41.5276
#
#
#
# Elastic Compliance Matrix: (Units=1/GPa)
#
#
# Indices 1 2 3 4 5 6 
#
# 1 0.037315 -0.008408 -0.002190 0.000000 0.003183 0.000000
# 2 -0.008408 0.009387 -0.002118 0.000000 -0.001575 0.000000
# 3 -0.002190 -0.002118 0.008305 0.000000 0.006446 0.000000
# 4 0.000000 0.000000 0.000000 0.025012 0.000000 0.002837
# 5 0.003183 -0.001575 0.006446 0.000000 0.067914 0.000000
# 6 0.000000 0.000000 0.000000 0.002837 0.000000 0.024402
#
#
# Mechanical properties :
#
#
# Convention : Reuss Voigt Hill
#
# Bulk Modulus (GPa) = 33.81451 61.76391 47.78921
# Shear Modulus (GPa) = 24.08172 34.83901 29.46037
#
# Velocity S-wave (km/s) = 3.42675 4.12166 3.79016
# Velocity P-wave (km/s) = 5.66969 7.26415 6.51587
#
# Compressibility (1/GPa) = 0.02957310
#
# Stress axis : x y z
#
# Youngs Moduli (GPa) = 26.79881 106.53341 120.41022
#
# Poissons Ratio (x) = 0.89577 0.26371
# Poissons Ratio (y) = 0.22533 0.25508
# Poissons Ratio (z) = 0.05869 0.22568
#
# Static dielectric constant tensor:
#      x y z
#    x 3.310370 0.000000 -0.192660 
#    y 0.000000 3.643130 0.000000 
#    z -0.192660 0.000000 4.088250 
# 
# 
# High freq. dielectric constant tensor:
#      x y z
#    x 1.746010 0.000000 -0.022180 
#    y 0.000000 1.815990 0.000000 
#    z -0.022180 0.000000 1.829790 
# 
# From -- ./inp_files/4788.got.cif
#   From: 2010.06.25/outbox.cif.g09.slc.cpg/sg13_3_cif.got.tgz:4788.got - 2010.06.28 04:50:58.
