data_PCOD8120087
_publ_section_title
;
Structure prediction by ZEFSAII (Michael W. Deem and Ramdas Pophale) SiO2 
 PCOD8120087
Probable space group: P 2/C
;
_chemical_formula_sum "Si O2"
_cell_formula_units_Z 30
_cell_length_a 21.480379
_cell_length_b 11.689554
_cell_length_c 12.804457
_cell_angle_alpha 90.000000
_cell_angle_beta 152.197430
_cell_angle_gamma 90.000000
_cell_volume 1499.629912
_symmetry_space_group_name_H-M "P 2/C"
_symmetry_group_IT_number 13
_symmetry_cell_setting 'monoclinic'
loop_
_space_group_symop_operation_xyz
x,y,z
-x,y,1/2-z
-x,-y,-z
x,-y,1/2+z
loop_
_atom_site_type_symbol
_atom_site_label
_atom_site_fract_x
_atom_site_fract_y
_atom_site_fract_z
Si Si1 0.062474 0.576042 0.956092
Si Si2 0.347663 0.188643 0.541936
Si Si3 0.804091 0.970555 0.843847
Si Si4 0.500000 0.163867 0.250000
Si Si5 0.375738 0.002528 0.238727
Si Si6 0.777613 0.216751 0.709531
Si Si7 0.023667 0.194336 0.668662
Si Si8 0.851446 0.373502 0.300687
O O1 0.000000 0.585099 0.750000
O O2 0.927199 0.559349 0.821596
O O3 0.148057 0.686421 0.114586
O O4 0.159677 0.465493 0.120241
O O5 0.500000 0.214411 0.750000
O O6 0.291684 0.106158 0.369221
O O7 0.334164 0.122774 0.632779
O O8 0.283905 0.316454 0.444302
O O9 0.753239 0.952953 0.888049
O O10 0.800225 0.100898 0.805735
O O11 0.959090 0.932576 0.070164
O O12 0.617564 0.242941 0.472891
O O13 0.417782 0.084772 0.207345
O O14 0.500000 0.000000 0.500000
O O15 0.828808 0.200413 0.664348
O O16 0.000000 0.245646 0.750000
O O17 0.937199 0.266033 0.460707
#
# Coordination Sequence:
#
# PCOD8120087 Si02
#       8
#     4   4   4   2   4   4   4   4
#     4  10  22  42  64  86 112 156 204 256 308 349
#     4  11  20  37  59  89 124 160 197 243 290 369
#     4  11  22  35  57  89 123 158 200 242 299 359
#     4  12  22  38  56  84 136 164 196 236 294 396
#     4  12  19  34  58  84 124 173 196 229 303 365
#     4  11  22  38  57  90 123 160 197 247 310 360
#     4  10  21  37  59  86 116 157 200 251 294 355
#     4   9  22  40  63  83 114 156 205 248 301 359
#
# _framework density 20.004935
#
# number of rings (size 3 to 8) (size 9 to 14) (size 15 to 20)
#    0.000    1.333    4.667    1.600    1.867    0.533 
#    1.200    0.000    0.000    0.800    0.000    0.000 
#    0.000    0.000    0.000    0.000    0.000    0.000 
#
# Total GULP energy -371659.037454 kJ/mol
# GULP energy per Si atom -12388.634582 kJ/mol
# Density = 1.995940 g / cm^3
# Si number density = 20.004935 Si / 1000 Ang^3
#
#
#
# Elastic Constant Matrix: (Units=GPa)
#
#
# Indices 1 2 3 4 5 6 
#
# 1 98.9505 34.8674 31.7887 0.0000 -7.1844 0.0000
# 2 34.8674 106.2583 55.7088 0.0000 2.5748 0.0000
# 3 31.7887 55.7088 103.9816 0.0000 -0.6841 0.0000
# 4 0.0000 0.0000 0.0000 32.1536 0.0000 -0.6833
# 5 -7.1844 2.5748 -0.6841 0.0000 35.3799 0.0000
# 6 0.0000 0.0000 0.0000 -0.6833 0.0000 19.6133
#
#
#
# Elastic Compliance Matrix: (Units=1/GPa)
#
#
# Indices 1 2 3 4 5 6 
#
# 1 0.011990 -0.002899 -0.002095 0.000000 0.002605 0.000000
# 2 -0.002899 0.013830 -0.006535 0.000000 -0.001722 0.000000
# 3 -0.002095 -0.006535 0.013761 0.000000 0.000316 0.000000
# 4 0.000000 0.000000 0.000000 0.031124 0.000000 0.001084
# 5 0.002605 -0.001722 0.000316 0.000000 0.028925 0.000000
# 6 0.000000 0.000000 0.000000 0.001084 0.000000 0.051024
#
#
# Mechanical properties :
#
#
# Convention : Reuss Voigt Hill
#
# Bulk Modulus (GPa) = 60.52183 61.54669 61.03426
# Shear Modulus (GPa) = 27.89900 29.88438 28.89169
#
# Velocity S-wave (km/s) = 3.73849 3.86923 3.80442
# Velocity P-wave (km/s) = 6.99673 7.12698 7.06215
#
# Compressibility (1/GPa) = 0.01652296
#
# Stress axis : x y z
#
# Youngs Moduli (GPa) = 83.40399 72.30703 72.67120
#
# Poissons Ratio (x) = 0.20962 0.15226
# Poissons Ratio (y) = 0.24179 0.47487
# Poissons Ratio (z) = 0.17475 0.47249
#
# Static dielectric constant tensor:
#      x y z
#    x 3.541040 0.000000 0.548000 
#    y 0.000000 3.630560 0.000000 
#    z 0.548000 0.000000 3.667100 
# 
# 
# High freq. dielectric constant tensor:
#      x y z
#    x 1.780950 0.000000 -0.005710 
#    y 0.000000 1.761170 0.000000 
#    z -0.005710 0.000000 1.788930 
# 
# From -- ./inp_files/40864.got.cif
#   From: 2010.06.25/outbox.cif.g09.slc.cpg/sg13_21_cif.got.tgz:40864.got - 2010.06.28 04:50:58.
