data_PCOD8120998
_publ_section_title
;
Structure prediction by ZEFSAII (Michael W. Deem and Ramdas Pophale) SiO2 
 PCOD8120998
Probable space group: P 2/C
;
_chemical_formula_sum "Si O2"
_cell_formula_units_Z 22
_cell_length_a 9.133174
_cell_length_b 8.774940
_cell_length_c 20.922278
_cell_angle_alpha 90.000000
_cell_angle_beta 37.604316
_cell_angle_gamma 90.000000
_cell_volume 1023.176382
_symmetry_space_group_name_H-M "P 2/C"
_symmetry_group_IT_number 13
_symmetry_cell_setting 'monoclinic'
loop_
_space_group_symop_operation_xyz
x,y,z
-x,y,1/2-z
-x,-y,-z
x,-y,1/2+z
loop_
_atom_site_type_symbol
_atom_site_label
_atom_site_fract_x
_atom_site_fract_y
_atom_site_fract_z
Si Si1 0.174817 0.638257 0.513100
Si Si2 0.000000 0.976533 0.250000
Si Si3 0.453174 0.195661 0.545900
Si Si4 0.667888 0.624059 0.633345
Si Si5 0.196592 0.505189 0.138052
Si Si6 0.354823 0.794040 0.651791
O O1 0.338259 0.791536 0.471487
O O2 0.317950 0.522336 0.417752
O O3 0.092789 0.556172 0.607065
O O4 0.927844 0.685777 0.564569
O O5 0.857391 0.091933 0.250534
O O6 0.804446 0.871293 0.350271
O O7 0.415555 0.378917 0.546671
O O8 0.539178 0.120137 0.449017
O O9 0.500000 0.574401 0.750000
O O10 0.552876 0.771105 0.637695
O O11 0.260291 0.368969 0.164080
O O12 0.000000 0.594765 0.250000
#
# Coordination Sequence:
#
# PCOD8120998 Si02
#       6
#     4   2   4   4   4   4
#     4  10  22  38  62 101 125 155 206 271 308 366
#     4  12  26  38  68  88 126 168 208 256 318 368
#     4  11  22  41  65  96 122 158 209 269 309 362
#     4  11  22  37  64  93 129 165 201 255 323 366
#     4  11  18  37  69  93 121 153 210 266 311 352
#     4  11  22  42  61  93 123 162 210 261 305 370
#
# _framework density 21.501669
#
# number of rings (size 3 to 8) (size 9 to 14) (size 15 to 20)
#    0.000    1.091    5.455    2.727    2.545    0.000 
#    0.000    0.909    0.000    0.000    0.000    0.000 
#    0.000    0.000    0.000    0.000    0.000    0.000 
#
# Total GULP energy -272595.528728 kJ/mol
# GULP energy per Si atom -12390.705851 kJ/mol
# Density = 2.145273 g / cm^3
# Si number density = 21.501669 Si / 1000 Ang^3
#
#
#
# Elastic Constant Matrix: (Units=GPa)
#
#
# Indices 1 2 3 4 5 6 
#
# 1 150.3683 36.5900 57.9217 0.0000 -12.1326 0.0000
# 2 36.5900 48.8671 32.6995 0.0000 -12.3519 0.0000
# 3 57.9217 32.6995 121.4063 0.0000 -5.0393 0.0000
# 4 0.0000 0.0000 0.0000 38.2288 0.0000 -17.0262
# 5 -12.1326 -12.3519 -5.0393 0.0000 36.2158 0.0000
# 6 0.0000 0.0000 0.0000 -17.0262 0.0000 30.0413
#
#
#
# Elastic Compliance Matrix: (Units=1/GPa)
#
#
# Indices 1 2 3 4 5 6 
#
# 1 0.008988 -0.004413 -0.003055 0.000000 0.001081 0.000000
# 2 -0.004413 0.029412 -0.005493 0.000000 0.007789 0.000000
# 3 -0.003055 -0.005493 0.011118 0.000000 -0.001350 0.000000
# 4 0.000000 0.000000 0.000000 0.034991 0.000000 0.019831
# 5 0.001081 0.007789 -0.001350 0.000000 0.030443 0.000000
# 6 0.000000 0.000000 0.000000 0.019831 0.000000 0.044527
#
#
# Mechanical properties :
#
#
# Convention : Reuss Voigt Hill
#
# Bulk Modulus (GPa) = 42.37892 63.89602 53.13747
# Shear Modulus (GPa) = 25.87109 33.79254 29.83181
#
# Velocity S-wave (km/s) = 3.47250 3.96867 3.72885
# Velocity P-wave (km/s) = 5.98582 7.12613 6.58072
#
# Compressibility (1/GPa) = 0.02359664
#
# Stress axis : x y z
#
# Youngs Moduli (GPa) = 111.25979 33.99936 89.94637
#
# Poissons Ratio (x) = 0.15002 0.27476
# Poissons Ratio (y) = 0.49094 0.49411
# Poissons Ratio (z) = 0.33987 0.18677
#
# Static dielectric constant tensor:
#      x y z
#    x 4.011460 0.000000 -0.111280 
#    y 0.000000 3.893710 0.000000 
#    z -0.111280 0.000000 4.409760 
# 
# 
# High freq. dielectric constant tensor:
#      x y z
#    x 1.830700 0.000000 -0.020710 
#    y 0.000000 1.829000 0.000000 
#    z -0.020710 0.000000 1.867990 
# 
# From -- ./inp_files/46018.got.cif
#   From: 2010.06.25/outbox.cif.g09.slc.cpg/sg13_24_cif.got.tgz:46018.got - 2010.06.28 04:50:58.
