data_PCOD8120671
_publ_section_title
;
Structure prediction by ZEFSAII (Michael W. Deem and Ramdas Pophale) SiO2 
 PCOD8120671
Probable space group: P 2/C
;
_chemical_formula_sum "Si O2"
_cell_formula_units_Z 28
_cell_length_a 22.932047
_cell_length_b 10.563577
_cell_length_c 28.178155
_cell_angle_alpha 90.000000
_cell_angle_beta 11.133209
_cell_angle_gamma 90.000000
_cell_volume 1318.037391
_symmetry_space_group_name_H-M "P 2/C"
_symmetry_group_IT_number 13
_symmetry_cell_setting 'monoclinic'
loop_
_space_group_symop_operation_xyz
x,y,z
-x,y,1/2-z
-x,-y,-z
x,-y,1/2+z
loop_
_atom_site_type_symbol
_atom_site_label
_atom_site_fract_x
_atom_site_fract_y
_atom_site_fract_z
Si Si1 0.323699 0.886965 0.616576
Si Si2 0.391760 0.370387 0.783201
Si Si3 0.661699 0.291396 0.973056
Si Si4 0.318273 0.377427 0.161688
Si Si5 0.680060 0.617019 0.557226
Si Si6 0.298342 0.012399 0.541563
Si Si7 0.358880 0.907541 0.312184
O O1 0.441583 0.745192 0.534037
O O2 0.330533 0.900852 0.554352
O O3 0.500000 0.000000 0.500000
O O4 0.993421 0.897511 0.901528
O O5 0.500000 0.382406 0.750000
O O6 0.590893 0.483814 0.601945
O O7 0.479591 0.229415 0.696510
O O8 0.036927 0.401226 0.061260
O O9 0.962354 0.370931 0.718965
O O10 0.705831 0.143204 0.925600
O O11 0.386757 0.350261 0.162620
O O12 0.593241 0.286224 0.084330
O O13 0.500000 0.500000 0.000000
O O14 0.500000 0.645942 0.750000
O O15 0.568644 0.007251 0.287161
O O16 0.000000 0.988006 0.750000
O O17 0.500000 0.948319 0.250000
#
# Coordination Sequence:
#
# PCOD8120671 Si02
#       7
#     4   4   4   4   4   4   4
#     4  11  24  45  68  99 139 176 221 278 340 400
#     4   9  20  41  62  92 131 171 222 273 334 395
#     4  11  24  41  64 100 136 169 232 281 323 413
#     4  11  23  43  69  99 138 177 224 283 334 399
#     4  10  21  41  65  93 131 178 217 276 340 394
#     4  12  23  43  68 101 129 180 230 273 339 404
#     4  10  22  40  66  95 130 169 219 279 324 400
#
# _framework density 21.243708000000002
#
# number of rings (size 3 to 8) (size 9 to 14) (size 15 to 20)
#    0.000    1.429    4.286    1.714    0.000    4.000 
#    5.143    0.000    0.000    0.000    0.000    0.000 
#    0.000    0.000    0.000    0.000    0.000    0.000 
#
# Total GULP energy -346960.642870 kJ/mol
# GULP energy per Si atom -12391.451531 kJ/mol
# Density = 2.119536 g / cm^3
# Si number density = 21.243708 Si / 1000 Ang^3
#
#
#
# Elastic Constant Matrix: (Units=GPa)
#
#
# Indices 1 2 3 4 5 6 
#
# 1 118.9354 34.7856 51.8637 0.0000 -3.8568 0.0000
# 2 34.7856 114.0700 42.5014 0.0000 -6.9008 0.0000
# 3 51.8637 42.5014 92.3309 0.0000 -8.6081 0.0000
# 4 0.0000 0.0000 0.0000 47.7919 0.0000 -17.0623
# 5 -3.8568 -6.9008 -8.6081 0.0000 41.6103 0.0000
# 6 0.0000 0.0000 0.0000 -17.0623 0.0000 44.4762
#
#
#
# Elastic Compliance Matrix: (Units=1/GPa)
#
#
# Indices 1 2 3 4 5 6 
#
# 1 0.011299 -0.001316 -0.005775 0.000000 -0.000366 0.000000
# 2 -0.001316 0.010758 -0.004138 0.000000 0.000806 0.000000
# 3 -0.005775 -0.004138 0.016178 0.000000 0.002125 0.000000
# 4 0.000000 0.000000 0.000000 0.024245 0.000000 0.009301
# 5 -0.000366 0.000806 0.002125 0.000000 0.024572 0.000000
# 6 0.000000 0.000000 0.000000 0.009301 0.000000 0.026052
#
#
# Mechanical properties :
#
#
# Convention : Reuss Voigt Hill
#
# Bulk Modulus (GPa) = 63.38392 64.84862 64.11627
# Shear Modulus (GPa) = 35.50597 39.85472 37.68035
#
# Velocity S-wave (km/s) = 4.09267 4.33606 4.21612
# Velocity P-wave (km/s) = 7.22735 7.46062 7.34491
#
# Compressibility (1/GPa) = 0.01577687
#
# Stress axis : x y z
#
# Youngs Moduli (GPa) = 88.50023 92.95084 61.81401
#
# Poissons Ratio (x) = 0.12233 0.35700
# Poissons Ratio (y) = 0.11647 0.25578
# Poissons Ratio (z) = 0.51112 0.38462
#
# Static dielectric constant tensor:
#      x y z
#    x 3.934870 0.000000 -0.092260 
#    y 0.000000 7.858760 0.000000 
#    z -0.092260 0.000000 4.027930 
# 
# 
# High freq. dielectric constant tensor:
#      x y z
#    x 1.836260 0.000000 -0.018930 
#    y 0.000000 1.845930 0.000000 
#    z -0.018930 0.000000 1.818670 
# 
# From -- ./inp_files/97710.got.cif
#   From: 2010.06.25/outbox.cif.g09.slc.cpg/sg13_49_cif.got.tgz:97710.got - 2010.06.28 04:50:58.
