data_PCOD8120593
_publ_section_title
;
Structure prediction by ZEFSAII (Michael W. Deem and Ramdas Pophale) SiO2 
 PCOD8120593
Probable space group: P 2/C
;
_chemical_formula_sum "Si O2"
_cell_formula_units_Z 18
_cell_length_a 10.944294
_cell_length_b 6.330022
_cell_length_c 18.532720
_cell_angle_alpha 90.000000
_cell_angle_beta 36.967488
_cell_angle_gamma 90.000000
_cell_volume 772.090011
_symmetry_space_group_name_H-M "P 2/C"
_symmetry_group_IT_number 13
_symmetry_cell_setting 'monoclinic'
loop_
_space_group_symop_operation_xyz
x,y,z
-x,y,1/2-z
-x,-y,-z
x,-y,1/2+z
loop_
_atom_site_type_symbol
_atom_site_label
_atom_site_fract_x
_atom_site_fract_y
_atom_site_fract_z
Si Si1 0.961184 0.836974 0.845265
Si Si2 0.329296 0.176420 0.573290
Si Si3 0.226498 0.552942 0.998254
Si Si4 0.815439 0.805208 0.205939
Si Si5 0.500000 0.388611 0.750000
O O1 0.000000 0.716788 0.750000
O O2 0.860068 0.058145 0.872127
O O3 0.828885 0.689992 0.958340
O O4 0.153072 0.937782 0.799011
O O5 0.370778 0.361340 0.495396
O O6 0.271176 0.284014 0.676911
O O7 0.500000 0.000000 0.500000
O O8 0.362036 0.546691 0.862682
O O9 0.017519 0.680598 0.084689
O O10 0.641516 0.767435 0.229390
#
# Coordination Sequence:
#
# PCOD8120593 Si02
#       5
#     4   4   4   4   2
#     4   9  19  38  66  92 121 165 215 277 333 377
#     4  10  21  40  68  99 124 159 221 280 327 389
#     4  11  23  43  67  95 134 175 219 276 338 398
#     4  10  23  43  63  94 133 172 226 278 335 396
#     4  12  26  40  62  96 136 186 228 266 328 410
#
# _framework density 23.313341999999999
#
# number of rings (size 3 to 8) (size 9 to 14) (size 15 to 20)
#    0.000    1.778    0.000    5.333    0.000    8.000 
#    0.000   13.333    0.000    0.000    0.000    0.000 
#    0.000    0.000    0.000    0.000    0.000    0.000 
#
# Total GULP energy -223013.987359 kJ/mol
# GULP energy per Si atom -12389.665964 kJ/mol
# Density = 2.326028 g / cm^3
# Si number density = 23.313342 Si / 1000 Ang^3
#
#
#
# Elastic Constant Matrix: (Units=GPa)
#
#
# Indices 1 2 3 4 5 6 
#
# 1 151.0422 56.8847 61.0959 0.0000 0.1542 0.0000
# 2 56.8847 84.9863 50.4708 0.0000 8.1505 0.0000
# 3 61.0959 50.4708 168.8215 0.0000 18.8771 0.0000
# 4 0.0000 0.0000 0.0000 36.1678 0.0000 -11.7105
# 5 0.1542 8.1505 18.8771 0.0000 32.9765 0.0000
# 6 0.0000 0.0000 0.0000 -11.7105 0.0000 35.5131
#
#
#
# Elastic Compliance Matrix: (Units=1/GPa)
#
#
# Indices 1 2 3 4 5 6 
#
# 1 0.009480 -0.005327 -0.002116 0.000000 0.002484 0.000000
# 2 -0.005327 0.017342 -0.002970 0.000000 -0.002561 0.000000
# 3 -0.002116 -0.002970 0.008006 0.000000 -0.003839 0.000000
# 4 0.000000 0.000000 0.000000 0.030954 0.000000 0.010207
# 5 0.002484 -0.002561 -0.003839 0.000000 0.033144 0.000000
# 6 0.000000 0.000000 0.000000 0.010207 0.000000 0.031524
#
#
# Mechanical properties :
#
#
# Convention : Reuss Voigt Hill
#
# Bulk Modulus (GPa) = 71.41933 82.41698 76.91816
# Shear Modulus (GPa) = 32.06265 36.69136 34.37701
#
# Velocity S-wave (km/s) = 3.71252 3.97146 3.84417
# Velocity P-wave (km/s) = 7.00557 7.51390 7.26418
#
# Compressibility (1/GPa) = 0.01400181
#
# Stress axis : x y z
#
# Youngs Moduli (GPa) = 105.48169 57.66409 124.89894
#
# Poissons Ratio (x) = 0.30718 0.26429
# Poissons Ratio (y) = 0.56191 0.37098
# Poissons Ratio (z) = 0.22320 0.17128
#
# Static dielectric constant tensor:
#      x y z
#    x 4.579730 0.000000 -0.074390 
#    y 0.000000 3.938660 0.000000 
#    z -0.074390 0.000000 4.536280 
# 
# 
# High freq. dielectric constant tensor:
#      x y z
#    x 1.924550 0.000000 -0.001640 
#    y 0.000000 1.906800 0.000000 
#    z -0.001640 0.000000 1.924020 
# 
# From -- ./inp_files/77090.got.cif
#   From: 2010.06.25/outbox.cif.g09.slc.cpg/sg13_39_cif.got.tgz:77090.got - 2010.06.28 04:50:58.
