data_PCOD8120174
_publ_section_title
;
Structure prediction by ZEFSAII (Michael W. Deem and Ramdas Pophale) SiO2 
 PCOD8120174
Probable space group: P 2/C
;
_chemical_formula_sum "Si O2"
_cell_formula_units_Z 30
_cell_length_a 16.718306
_cell_length_b 8.994882
_cell_length_c 20.980335
_cell_angle_alpha 90.000000
_cell_angle_beta 31.610078
_cell_angle_gamma 90.000000
_cell_volume 1653.651199
_symmetry_space_group_name_H-M "P 2/C"
_symmetry_group_IT_number 13
_symmetry_cell_setting 'monoclinic'
loop_
_space_group_symop_operation_xyz
x,y,z
-x,y,1/2-z
-x,-y,-z
x,-y,1/2+z
loop_
_atom_site_type_symbol
_atom_site_label
_atom_site_fract_x
_atom_site_fract_y
_atom_site_fract_z
Si Si1 0.500000 0.857123 0.750000
Si Si2 0.714037 0.113505 0.564836
Si Si3 0.042555 0.963708 0.872019
Si Si4 0.977610 0.768427 0.491991
Si Si5 0.701571 0.680619 0.191195
Si Si6 0.488991 0.131132 0.917277
Si Si7 0.356560 0.845871 0.639080
Si Si8 0.335547 0.651236 0.770196
O O1 0.465891 0.751793 0.713399
O O2 0.647499 0.959457 0.637550
O O3 0.669921 0.245601 0.643772
O O4 0.646559 0.148691 0.541717
O O5 0.896243 0.100343 0.433957
O O6 0.197511 0.928871 0.728193
O O7 0.020333 0.140390 0.898798
O O8 0.064996 0.886903 0.924982
O O9 0.117817 0.664349 0.418230
O O10 0.827039 0.669699 0.583431
O O11 0.637202 0.785586 0.290521
O O12 0.620058 0.521097 0.252003
O O13 0.533054 0.959018 0.897702
O O14 0.434913 0.204824 0.020140
O O15 0.327900 0.698590 0.700952
#
# Coordination Sequence:
#
# PCOD8120174 Si02
#       8
#     2   4   4   4   4   4   4   4
#     4  12  20  32  54  82 110 136 174 228 274 320
#     4  11  20  35  56  82 108 138 179 236 273 314
#     4   9  17  32  56  77 103 141 182 225 268 315
#     4   9  17  32  53  81 105 137 178 227 270 321
#     4  11  21  34  57  82 113 139 180 228 288 322
#     4  11  21  35  56  78 109 145 185 228 259 328
#     4  10  21  38  55  77 106 148 190 217 265 324
#     4  11  22  34  54  84 113 141 176 227 283 332
#
# _framework density 18.141673999999998
#
# number of rings (size 3 to 8) (size 9 to 14) (size 15 to 20)
#    0.000    1.600    5.333    0.400    1.867    1.067 
#    0.000    0.000    0.000    0.000    0.000    0.000 
#    0.000    0.000    0.000    0.000    0.000    0.000 
#
# Total GULP energy -371983.452788 kJ/mol
# GULP energy per Si atom -12399.448426 kJ/mol
# Density = 1.810038 g / cm^3
# Si number density = 18.141674 Si / 1000 Ang^3
#
#
#
# Elastic Constant Matrix: (Units=GPa)
#
#
# Indices 1 2 3 4 5 6 
#
# 1 87.8206 37.5986 42.0310 0.0000 0.5720 0.0000
# 2 37.5986 82.7392 11.1828 0.0000 13.9373 0.0000
# 3 42.0310 11.1828 66.3165 0.0000 3.7602 0.0000
# 4 0.0000 0.0000 0.0000 15.0259 0.0000 -0.7236
# 5 0.5720 13.9373 3.7602 0.0000 26.6241 0.0000
# 6 0.0000 0.0000 0.0000 -0.7236 0.0000 19.9161
#
#
#
# Elastic Compliance Matrix: (Units=1/GPa)
#
#
# Indices 1 2 3 4 5 6 
#
# 1 0.020946 -0.008876 -0.012114 0.000000 0.005907 0.000000
# 2 -0.008876 0.017247 0.003244 0.000000 -0.009296 0.000000
# 3 -0.012114 0.003244 0.022471 0.000000 -0.004612 0.000000
# 4 0.000000 0.000000 0.000000 0.066668 0.000000 0.002422
# 5 0.005907 -0.009296 -0.004612 0.000000 0.042951 0.000000
# 6 0.000000 0.000000 0.000000 0.002422 0.000000 0.050299
#
#
# Mechanical properties :
#
#
# Convention : Reuss Voigt Hill
#
# Bulk Modulus (GPa) = 39.72434 46.50012 43.11223
# Shear Modulus (GPa) = 18.90612 22.05082 20.47847
#
# Velocity S-wave (km/s) = 3.23172 3.49015 3.36342
# Velocity P-wave (km/s) = 5.98912 6.47525 6.23693
#
# Compressibility (1/GPa) = 0.02517348
#
# Stress axis : x y z
#
# Youngs Moduli (GPa) = 47.74134 57.98056 44.50140
#
# Poissons Ratio (x) = 0.51465 0.53908
# Poissons Ratio (y) = 0.42377 -0.14438
# Poissons Ratio (z) = 0.57833 -0.18812
#
# Static dielectric constant tensor:
#      x y z
#    x 3.198870 0.000000 -0.141990 
#    y 0.000000 3.144300 0.000000 
#    z -0.141990 0.000000 3.334210 
# 
# 
# High freq. dielectric constant tensor:
#      x y z
#    x 1.694090 0.000000 -0.021010 
#    y 0.000000 1.684680 0.000000 
#    z -0.021010 0.000000 1.692550 
# 
# From -- ./inp_files/66294.got.cif
#   From: 2010.06.25/outbox.cif.g09.slc.cpg/sg13_34_cif.got.tgz:66294.got - 2010.06.28 04:50:58.
