data_PCOD8120172
_publ_section_title
;
Structure prediction by ZEFSAII (Michael W. Deem and Ramdas Pophale) SiO2 
 PCOD8120172
Probable space group: P 2/C
;
_chemical_formula_sum "Si O2"
_cell_formula_units_Z 20
_cell_length_a 8.392990
_cell_length_b 22.554180
_cell_length_c 5.206033
_cell_angle_alpha 90.000000
_cell_angle_beta 113.259498
_cell_angle_gamma 90.000000
_cell_volume 905.391803
_symmetry_space_group_name_H-M "P 2/C"
_symmetry_group_IT_number 13
_symmetry_cell_setting 'monoclinic'
loop_
_space_group_symop_operation_xyz
x,y,z
-x,y,1/2-z
-x,-y,-z
x,-y,1/2+z
loop_
_atom_site_type_symbol
_atom_site_label
_atom_site_fract_x
_atom_site_fract_y
_atom_site_fract_z
Si Si1 0.693788 0.474388 0.604679
Si Si2 0.609725 0.848194 0.573284
Si Si3 0.795851 0.272392 0.118912
Si Si4 0.206509 0.657659 0.381908
Si Si5 0.300014 0.972321 0.684765
O O1 0.500000 0.500000 0.500000
O O2 0.791581 0.506288 0.428390
O O3 0.693655 0.404265 0.567086
O O4 0.500000 0.827530 0.750000
O O5 0.733113 0.794764 0.574637
O O6 0.722684 0.904656 0.736381
O O7 0.500000 0.866296 0.250000
O O8 0.728780 0.308643 0.322495
O O9 0.000000 0.270398 0.250000
O O10 0.728892 0.304016 0.818707
O O11 0.000000 0.647069 0.250000
O O12 0.500000 0.988238 0.750000
O O13 0.213113 0.985754 0.350744
#
# Coordination Sequence:
#
# PCOD8120172 Si02
#       5
#     4   4   4   4   4
#     4  10  21  38  54  82 112 138 174 223 278 333
#     4  11  21  35  54  88 116 141 195 240 279 329
#     4  10  22  41  59  81 114 154 188 227 283 333
#     4  10  21  39  61  80 106 148 192 221 266 341
#     4   9  16  28  49  76 110 149 182 229 281 327
#
# _framework density 22.089884000000001
#
# number of rings (size 3 to 8) (size 9 to 14) (size 15 to 20)
#    0.000    2.000    0.000    5.400    0.000    0.800 
#   21.600    0.000    0.000    1.200    0.000    0.000 
#    0.000    3.200    0.000    0.000    0.000    0.000 
#
# Total GULP energy -247892.146277 kJ/mol
# GULP energy per Si atom -12394.607314 kJ/mol
# Density = 2.203961 g / cm^3
# Si number density = 22.089884 Si / 1000 Ang^3
#
#
#
# Elastic Constant Matrix: (Units=GPa)
#
#
# Indices 1 2 3 4 5 6 
#
# 1 27.9260 43.4955 39.6534 0.0000 -22.7720 0.0000
# 2 43.4955 204.3699 71.5465 0.0000 -33.4861 0.0000
# 3 39.6534 71.5465 154.6029 0.0000 -66.2937 0.0000
# 4 0.0000 0.0000 0.0000 39.6649 0.0000 -16.0102
# 5 -22.7720 -33.4861 -66.2937 0.0000 32.9086 0.0000
# 6 0.0000 0.0000 0.0000 -16.0102 0.0000 14.9789
#
#
#
# Elastic Compliance Matrix: (Units=1/GPa)
#
#
# Indices 1 2 3 4 5 6 
#
# 1 0.131660 -0.016725 0.042144 0.000000 0.158986 0.000000
# 2 -0.016725 0.008024 -0.006499 0.000000 -0.016501 0.000000
# 3 0.042144 -0.006499 0.061206 0.000000 0.145848 0.000000
# 4 0.000000 0.000000 0.000000 0.044341 0.000000 0.047394
# 5 0.158986 -0.016501 0.145848 0.000000 0.417418 0.000000
# 6 0.000000 0.000000 0.000000 0.047394 0.000000 0.117417
#
#
# Mechanical properties :
#
#
# Convention : Reuss Voigt Hill
#
# Bulk Modulus (GPa) = 4.18884 77.36552 40.77718
# Shear Modulus (GPa) = 6.08418 32.99071 19.53744
#
# Velocity S-wave (km/s) = 1.66140 3.86874 2.97720
# Velocity P-wave (km/s) = 2.36236 7.41993 5.50618
#
# Compressibility (1/GPa) = 0.23872952
#
# Stress axis : x y z
#
# Youngs Moduli (GPa) = 7.59533 124.62259 16.33824
#
# Poissons Ratio (x) = 2.08430 -0.68856
# Poissons Ratio (y) = 0.12703 0.10619
# Poissons Ratio (z) = -0.32010 0.80998
#
# Static dielectric constant tensor:
#      x y z
#    x 3.559530 0.000000 -0.449410 
#    y 0.000000 3.894140 0.000000 
#    z -0.449410 0.000000 4.113520 
# 
# 
# High freq. dielectric constant tensor:
#      x y z
#    x 1.831840 0.000000 -0.041100 
#    y 0.000000 1.878180 0.000000 
#    z -0.041100 0.000000 1.888580 
# 
# From -- ./inp_files/2162.got.cif
#   From: 2010.06.25/outbox.cif.g09.slc.cpg/sg13_2_cif.got.tgz:2162.got - 2010.06.28 04:50:58.
