data_PCOD8120442
_publ_section_title
;
Structure prediction by ZEFSAII (Michael W. Deem and Ramdas Pophale) SiO2 
 PCOD8120442
Probable space group: P 2/C
;
_chemical_formula_sum "Si O2"
_cell_formula_units_Z 28
_cell_length_a 9.235388
_cell_length_b 15.557185
_cell_length_c 19.337245
_cell_angle_alpha 90.000000
_cell_angle_beta 150.581558
_cell_angle_gamma 90.000000
_cell_volume 1364.662020
_symmetry_space_group_name_H-M "P 2/C"
_symmetry_group_IT_number 13
_symmetry_cell_setting 'monoclinic'
loop_
_space_group_symop_operation_xyz
x,y,z
-x,y,1/2-z
-x,-y,-z
x,-y,1/2+z
loop_
_atom_site_type_symbol
_atom_site_label
_atom_site_fract_x
_atom_site_fract_y
_atom_site_fract_z
Si Si1 0.688061 0.289978 0.467793
Si Si2 0.812193 0.212915 0.891297
Si Si3 0.100249 0.175548 0.216277
Si Si4 0.771438 0.319254 0.002965
Si Si5 0.841011 0.073401 0.389300
Si Si6 0.802110 0.423488 0.393835
Si Si7 0.329747 0.413867 0.909728
O O1 0.422499 0.220836 0.350287
O O2 0.715995 0.349285 0.412137
O O3 0.652252 0.347010 0.520318
O O4 0.011235 0.241916 0.604606
O O5 0.500000 0.161729 0.750000
O O6 0.704529 0.290471 0.896275
O O7 0.065335 0.161863 0.036890
O O8 0.087561 0.089254 0.162652
O O9 0.000000 0.144039 0.250000
O O10 0.851020 0.242311 0.087746
O O11 0.485514 0.369526 0.909585
O O12 0.052717 0.382645 0.114747
O O13 0.500000 0.053662 0.250000
O O14 0.000000 0.000000 0.500000
O O15 0.500000 0.470673 0.250000
O O16 0.000000 0.500000 0.500000
O O17 0.000000 0.437573 0.750000
O O18 0.500000 0.500000 0.000000
#
# Coordination Sequence:
#
# PCOD8120442 Si02
#       7
#     4   4   4   4   4   4   4
#     4  11  22  39  66  87 126 173 231 278 323 406
#     4  10  21  39  66  94 124 169 220 269 324 391
#     4  11  21  41  72  98 125 180 226 269 334 411
#     4  10  22  37  61  85 120 166 229 275 325 397
#     4  11  23  42  71 107 139 169 214 267 331 408
#     4  11  23  36  56  85 123 167 223 288 345 385
#     4  12  27  40  57  89 131 175 225 287 345 386
#
# _framework density 20.517901999999999
#
# number of rings (size 3 to 8) (size 9 to 14) (size 15 to 20)
#    0.000    1.143    4.286    2.143    2.000    5.714 
#    0.000    0.714    0.000    0.000    0.000    0.000 
#    0.000    0.000    0.000    0.000    0.000    0.000 
#
# Total GULP energy -346880.465135 kJ/mol
# GULP energy per Si atom -12388.588041 kJ/mol
# Density = 2.047120 g / cm^3
# Si number density = 20.517902 Si / 1000 Ang^3
#
#
#
# Elastic Constant Matrix: (Units=GPa)
#
#
# Indices 1 2 3 4 5 6 
#
# 1 149.9936 56.0344 47.3572 0.0000 9.1459 0.0000
# 2 56.0344 85.6906 42.2595 0.0000 3.9835 0.0000
# 3 47.3572 42.2595 140.9768 0.0000 21.8658 0.0000
# 4 0.0000 0.0000 0.0000 25.0490 0.0000 2.2162
# 5 9.1459 3.9835 21.8658 0.0000 32.3538 0.0000
# 6 0.0000 0.0000 0.0000 2.2162 0.0000 5.0589
#
#
#
# Elastic Compliance Matrix: (Units=1/GPa)
#
#
# Indices 1 2 3 4 5 6 
#
# 1 0.009112 -0.005257 -0.001325 0.000000 -0.001033 0.000000
# 2 -0.005257 0.016770 -0.003543 0.000000 0.001816 0.000000
# 3 -0.001325 -0.003543 0.009467 0.000000 -0.005587 0.000000
# 4 0.000000 0.000000 0.000000 0.041532 0.000000 -0.018194
# 5 -0.001033 0.001816 -0.005587 0.000000 0.034753 0.000000
# 6 0.000000 0.000000 0.000000 -0.018194 0.000000 0.205643
#
#
# Mechanical properties :
#
#
# Convention : Reuss Voigt Hill
#
# Bulk Modulus (GPa) = 66.22477 74.21811 70.22144
# Shear Modulus (GPa) = 14.59598 27.89300 21.24449
#
# Velocity S-wave (km/s) = 2.67006 3.69107 3.22127
# Velocity P-wave (km/s) = 6.46933 7.37673 6.93788
#
# Compressibility (1/GPa) = 0.01510009
#
# Stress axis : x y z
#
# Youngs Moduli (GPa) = 109.74268 59.62884 105.63012
#
# Poissons Ratio (x) = 0.31348 0.13994
# Poissons Ratio (y) = 0.57694 0.37422
# Poissons Ratio (z) = 0.14539 0.21125
#
# Static dielectric constant tensor:
#      x y z
#    x 3.968300 0.000000 0.273670 
#    y 0.000000 3.659320 0.000000 
#    z 0.273670 0.000000 3.876080 
# 
# 
# High freq. dielectric constant tensor:
#      x y z
#    x 1.808360 0.000000 0.015200 
#    y 0.000000 1.780560 0.000000 
#    z 0.015200 0.000000 1.813830 
# 
# From -- ./inp_files/76738.got.cif
#   From: 2010.06.25/outbox.cif.g09.slc.cpg/sg13_39_cif.got.tgz:76738.got - 2010.06.28 04:50:58.
