data_PCOD8120997
_publ_section_title
;
Structure prediction by ZEFSAII (Michael W. Deem and Ramdas Pophale) SiO2 
 PCOD8120997
Probable space group: P 2/C
;
_chemical_formula_sum "Si O2"
_cell_formula_units_Z 28
_cell_length_a 21.859215
_cell_length_b 8.572907
_cell_length_c 16.125468
_cell_angle_alpha 90.000000
_cell_angle_beta 26.853395
_cell_angle_gamma 90.000000
_cell_volume 1365.003929
_symmetry_space_group_name_H-M "P 2/C"
_symmetry_group_IT_number 13
_symmetry_cell_setting 'monoclinic'
loop_
_space_group_symop_operation_xyz
x,y,z
-x,y,1/2-z
-x,-y,-z
x,-y,1/2+z
loop_
_atom_site_type_symbol
_atom_site_label
_atom_site_fract_x
_atom_site_fract_y
_atom_site_fract_z
Si Si1 0.000000 0.975775 0.250000
Si Si2 0.822618 0.773861 0.877253
Si Si3 0.184973 0.275479 0.456150
Si Si4 0.422084 0.297617 0.715701
Si Si5 0.392255 0.123126 0.594450
Si Si6 0.715044 0.172547 0.335514
Si Si7 0.549008 0.655005 0.784805
Si Si8 0.000000 0.471968 0.250000
O O1 0.892075 0.072972 0.328860
O O2 0.913339 0.872147 0.418150
O O3 0.820287 0.788481 0.780778
O O4 0.911352 0.625610 0.793281
O O5 0.669846 0.750811 0.095228
O O6 0.252841 0.278038 0.283455
O O7 0.301251 0.270734 0.386556
O O8 0.097576 0.430382 0.572683
O O9 0.343448 0.236342 0.728064
O O10 0.565311 0.211881 0.549584
O O11 0.446735 0.482684 0.680808
O O12 0.445933 0.233810 0.457244
O O13 0.500000 0.000000 0.500000
O O14 0.273599 0.012788 0.701019
O O15 0.500000 0.646180 0.750000
#
# Coordination Sequence:
#
# PCOD8120997 Si02
#       8
#     2   4   4   4   4   4   4   2
#     4  10  26  42  66  84 128 188 208 268 308 380
#     4  11  23  42  67  96 125 169 227 259 320 386
#     4  11  23  46  62  90 134 168 220 262 321 385
#     4  11  22  42  65  99 131 164 208 269 334 376
#     4  10  22  38  61  97 130 164 196 254 342 377
#     4  11  24  40  69  99 129 164 211 277 326 380
#     4  12  24  38  67  97 130 166 210 268 328 382
#     4  10  24  44  66  86 126 186 214 266 312 374
#
# _framework density 20.512763
#
# number of rings (size 3 to 8) (size 9 to 14) (size 15 to 20)
#    0.000    1.143    4.286    2.571    4.000    1.143 
#    0.000    0.000    0.000    0.000    0.000    0.000 
#    0.000    0.000    0.000    0.000    0.000    0.000 
#
# Total GULP energy -347178.690200 kJ/mol
# GULP energy per Si atom -12399.238936 kJ/mol
# Density = 2.046608 g / cm^3
# Si number density = 20.512763 Si / 1000 Ang^3
#
#
#
# Elastic Constant Matrix: (Units=GPa)
#
#
# Indices 1 2 3 4 5 6 
#
# 1 146.3811 70.3756 57.4627 0.0000 12.6213 0.0000
# 2 70.3756 132.6774 30.5847 0.0000 13.0883 0.0000
# 3 57.4627 30.5847 78.1526 0.0000 6.7890 0.0000
# 4 0.0000 0.0000 0.0000 38.2006 0.0000 12.1156
# 5 12.6213 13.0883 6.7890 0.0000 23.2148 0.0000
# 6 0.0000 0.0000 0.0000 12.1156 0.0000 16.3106
#
#
#
# Elastic Compliance Matrix: (Units=1/GPa)
#
#
# Indices 1 2 3 4 5 6 
#
# 1 0.011824 -0.004527 -0.006757 0.000000 -0.001900 0.000000
# 2 -0.004527 0.010361 -0.000444 0.000000 -0.003251 0.000000
# 3 -0.006757 -0.000444 0.018056 0.000000 -0.001356 0.000000
# 4 0.000000 0.000000 0.000000 0.034245 0.000000 -0.025438
# 5 -0.001900 -0.003251 -0.001356 0.000000 0.046338 0.000000
# 6 0.000000 0.000000 0.000000 -0.025438 0.000000 0.080205
#
#
# Mechanical properties :
#
#
# Convention : Reuss Voigt Hill
#
# Bulk Modulus (GPa) = 59.57838 74.89524 67.23681
# Shear Modulus (GPa) = 21.73144 28.79774 25.26459
#
# Velocity S-wave (km/s) = 3.25839 3.75092 3.51330
# Velocity P-wave (km/s) = 6.57752 7.43976 7.02189
#
# Compressibility (1/GPa) = 0.01678461
#
# Stress axis : x y z
#
# Youngs Moduli (GPa) = 84.57171 96.51370 55.38475
#
# Poissons Ratio (x) = 0.43689 0.37425
# Poissons Ratio (y) = 0.38284 0.02460
# Poissons Ratio (z) = 0.57148 0.04286
#
# Static dielectric constant tensor:
#      x y z
#    x 3.792680 0.000000 -0.001610 
#    y 0.000000 4.151650 0.000000 
#    z -0.001610 0.000000 3.675650 
# 
# 
# High freq. dielectric constant tensor:
#      x y z
#    x 1.795340 0.000000 0.003330 
#    y 0.000000 1.818290 0.000000 
#    z 0.003330 0.000000 1.795210 
# 
# From -- ./inp_files/57486.got.cif
#   From: 2010.06.25/outbox.cif.g09.slc.cpg/sg13_29_cif.got.tgz:57486.got - 2010.06.28 04:50:58.
