data_PCOD8120292
_publ_section_title
;
Structure prediction by ZEFSAII (Michael W. Deem and Ramdas Pophale) SiO2 
 PCOD8120292
Probable space group: P 2/C
;
_chemical_formula_sum "Si O2"
_cell_formula_units_Z 30
_cell_length_a 31.719236
_cell_length_b 7.765231
_cell_length_c 13.277756
_cell_angle_alpha 90.000000
_cell_angle_beta 152.641115
_cell_angle_gamma 90.000000
_cell_volume 1502.956592
_symmetry_space_group_name_H-M "P 2/C"
_symmetry_group_IT_number 13
_symmetry_cell_setting 'monoclinic'
loop_
_space_group_symop_operation_xyz
x,y,z
-x,y,1/2-z
-x,-y,-z
x,-y,1/2+z
loop_
_atom_site_type_symbol
_atom_site_label
_atom_site_fract_x
_atom_site_fract_y
_atom_site_fract_z
Si Si1 0.061144 0.646814 0.678358
Si Si2 0.500000 0.978504 0.250000
Si Si3 0.062238 0.117206 0.476850
Si Si4 0.365750 0.405983 0.003622
Si Si5 0.382596 0.240474 0.650637
Si Si6 0.840111 0.427154 0.910219
Si Si7 0.534133 0.735456 0.957505
Si Si8 0.822795 0.770927 0.748894
O O1 0.150247 0.688649 0.800748
O O2 0.000000 0.500000 0.500000
O O3 0.003437 0.825346 0.569586
O O4 0.093195 0.571972 0.852956
O O5 0.437286 0.087277 0.037790
O O6 0.572421 0.878061 0.336961
O O7 0.125125 0.287041 0.596092
O O8 0.000000 0.074317 0.250000
O O9 0.119997 0.945096 0.616160
O O10 0.370053 0.585184 0.066939
O O11 0.409627 0.414176 0.983409
O O12 0.424859 0.280356 0.202311
O O13 0.259833 0.355788 0.770479
O O14 0.283809 0.173118 0.478398
O O15 0.448340 0.264059 0.886923
O O16 0.841508 0.623430 0.872235
#
# Coordination Sequence:
#
# PCOD8120292 Si02
#       8
#     4   2   4   4   4   4   4   4
#     4  11  22  41  65  89 126 164 207 259 316 371
#     4  10  22  38  58  88 126 164 198 246 314 366
#     4  10  23  39  64  86 123 164 202 253 313 366
#     4   9  20  37  62  86 118 160 207 248 311 362
#     4  11  22  40  61  92 124 159 208 256 303 375
#     4  10  22  41  60  91 125 161 201 265 305 368
#     4  10  21  38  64  86 122 167 199 255 310 375
#     4  11  24  40  65  93 123 163 211 255 312 377
#
# _framework density 19.960657000000001
#
# number of rings (size 3 to 8) (size 9 to 14) (size 15 to 20)
#    0.000    1.867    1.333    2.800    5.600    0.000 
#    0.000    2.667    0.000    0.000    0.000    0.000 
#    0.000    0.000    0.000    0.000    0.000    0.000 
#
# Total GULP energy -371743.831229 kJ/mol
# GULP energy per Si atom -12391.461041 kJ/mol
# Density = 1.991523 g / cm^3
# Si number density = 19.960657 Si / 1000 Ang^3
#
#
#
# Elastic Constant Matrix: (Units=GPa)
#
#
# Indices 1 2 3 4 5 6 
#
# 1 120.3815 36.2226 38.5221 0.0000 10.8939 0.0000
# 2 36.2226 75.8190 44.0036 0.0000 -2.9249 0.0000
# 3 38.5221 44.0036 75.7369 0.0000 16.6025 0.0000
# 4 0.0000 0.0000 0.0000 22.7430 0.0000 6.4251
# 5 10.8939 -2.9249 16.6025 0.0000 23.0293 0.0000
# 6 0.0000 0.0000 0.0000 6.4251 0.0000 36.1050
#
#
#
# Elastic Compliance Matrix: (Units=1/GPa)
#
#
# Indices 1 2 3 4 5 6 
#
# 1 0.010546 -0.003865 -0.002277 0.000000 -0.003838 0.000000
# 2 -0.003865 0.025168 -0.016341 0.000000 0.016805 0.000000
# 3 -0.002277 -0.016341 0.028594 0.000000 -0.021612 0.000000
# 4 0.000000 0.000000 0.000000 0.046297 0.000000 -0.008239
# 5 -0.003838 0.016805 -0.021612 0.000000 0.062954 0.000000
# 6 0.000000 0.000000 0.000000 -0.008239 0.000000 0.029163
#
#
# Mechanical properties :
#
#
# Convention : Reuss Voigt Hill
#
# Bulk Modulus (GPa) = 51.70169 56.60379 54.15274
# Shear Modulus (GPa) = 19.67460 26.58806 23.13133
#
# Velocity S-wave (km/s) = 3.14294 3.65365 3.40788
# Velocity P-wave (km/s) = 6.25530 6.79839 6.53249
#
# Compressibility (1/GPa) = 0.01934173
#
# Stress axis : x y z
#
# Youngs Moduli (GPa) = 94.82430 39.73308 34.97258
#
# Poissons Ratio (x) = 0.15356 0.07964
# Poissons Ratio (y) = 0.36647 0.57149
# Poissons Ratio (z) = 0.21594 0.64928
#
# Static dielectric constant tensor:
#      x y z
#    x 3.940230 0.000000 0.270330 
#    y 0.000000 3.782250 0.000000 
#    z 0.270330 0.000000 3.665510 
# 
# 
# High freq. dielectric constant tensor:
#      x y z
#    x 1.791600 0.000000 0.009320 
#    y 0.000000 1.778910 0.000000 
#    z 0.009320 0.000000 1.772960 
# 
# From -- ./inp_files/42711.got.cif
#   From: 2010.06.25/outbox.cif.g09.slc.cpg/sg13_22_cif.got.tgz:42711.got - 2010.06.28 04:50:58.
