data_PCOD8120013
_publ_section_title
;
Structure prediction by ZEFSAII (Michael W. Deem and Ramdas Pophale) SiO2 
 PCOD8120013
Probable space group: P 2/C
;
_chemical_formula_sum "Si O2"
_cell_formula_units_Z 26
_cell_length_a 15.901797
_cell_length_b 12.830603
_cell_length_c 13.300852
_cell_angle_alpha 90.000000
_cell_angle_beta 153.332778
_cell_angle_gamma 90.000000
_cell_volume 1217.960405
_symmetry_space_group_name_H-M "P 2/C"
_symmetry_group_IT_number 13
_symmetry_cell_setting 'monoclinic'
loop_
_space_group_symop_operation_xyz
x,y,z
-x,y,1/2-z
-x,-y,-z
x,-y,1/2+z
loop_
_atom_site_type_symbol
_atom_site_label
_atom_site_fract_x
_atom_site_fract_y
_atom_site_fract_z
Si Si1 0.500000 0.976891 0.750000
Si Si2 0.118244 0.159224 0.631366
Si Si3 0.354189 0.360890 0.323305
Si Si4 0.536367 0.131435 0.076244
Si Si5 0.196497 0.950246 0.799692
Si Si6 0.379648 0.490809 0.024131
Si Si7 0.028950 0.355106 0.670380
O O1 0.464706 0.902817 0.808319
O O2 0.316672 0.050117 0.532042
O O3 0.093639 0.266470 0.662783
O O4 0.956755 0.142993 0.372132
O O5 0.089355 0.061286 0.676628
O O6 0.328274 0.156666 0.811158
O O7 0.342117 0.236374 0.304584
O O8 0.529050 0.400919 0.446138
O O9 0.368920 0.400156 0.453459
O O10 0.163199 0.406895 0.072876
O O11 0.644227 0.049364 0.119559
O O12 0.500000 0.514730 0.250000
O O13 0.175270 0.449480 0.834814
O O14 0.000000 0.305647 0.750000
#
# Coordination Sequence:
#
# PCOD8120013 Si02
#       7
#     2   4   4   4   4   4   4
#     4  10  22  36  66  88 124 168 212 266 300 378
#     4  10  21  36  60  91 128 158 200 263 311 373
#     4  11  24  41  68  95 129 170 207 275 319 377
#     4  11  22  41  63  92 125 164 214 258 318 373
#     4  10  22  40  58  90 129 164 203 259 320 368
#     4  11  24  44  65  96 130 166 215 262 329 385
#     4  12  23  38  68 101 124 164 217 266 319 381
#
# _framework density 21.347165
#
# number of rings (size 3 to 8) (size 9 to 14) (size 15 to 20)
#    0.000    1.231    4.615    2.308    5.385    0.000 
#    1.385    9.231    0.000    0.000    0.000    0.000 
#    0.000    0.000    0.000    0.000    0.000    0.000 
#
# Total GULP energy -322345.877756 kJ/mol
# GULP energy per Si atom -12397.918375 kJ/mol
# Density = 2.129858 g / cm^3
# Si number density = 21.347165 Si / 1000 Ang^3
#
#
#
# Elastic Constant Matrix: (Units=GPa)
#
#
# Indices 1 2 3 4 5 6 
#
# 1 62.7674 38.2081 40.8334 0.0000 1.8138 0.0000
# 2 38.2081 65.3771 34.4930 0.0000 -20.2886 0.0000
# 3 40.8334 34.4930 178.0134 0.0000 -4.2282 0.0000
# 4 0.0000 0.0000 0.0000 23.4347 0.0000 -4.7978
# 5 1.8138 -20.2886 -4.2282 0.0000 36.8062 0.0000
# 6 0.0000 0.0000 0.0000 -4.7978 0.0000 5.2902
#
#
#
# Elastic Compliance Matrix: (Units=1/GPa)
#
#
# Indices 1 2 3 4 5 6 
#
# 1 0.030942 -0.020326 -0.003471 0.000000 -0.013128 0.000000
# 2 -0.020326 0.034028 -0.001466 0.000000 0.019590 0.000000
# 3 -0.003471 -0.001466 0.006701 0.000000 0.000133 0.000000
# 4 0.000000 0.000000 0.000000 0.052402 0.000000 0.047524
# 5 -0.013128 0.019590 0.000133 0.000000 0.038630 0.000000
# 6 0.000000 0.000000 0.000000 0.047524 0.000000 0.232132
#
#
# Mechanical properties :
#
#
# Convention : Reuss Voigt Hill
#
# Bulk Modulus (GPa) = 47.29157 59.24744 53.26950
# Shear Modulus (GPa) = 11.05195 25.94777 18.49986
#
# Velocity S-wave (km/s) = 2.27782 3.49020 2.94703
# Velocity P-wave (km/s) = 5.39626 6.63751 6.04881
#
# Compressibility (1/GPa) = 0.02114542
#
# Stress axis : x y z
#
# Youngs Moduli (GPa) = 32.31815 29.38762 149.23412
#
# Poissons Ratio (x) = 0.59734 0.51798
# Poissons Ratio (y) = 0.65691 0.21872
# Poissons Ratio (z) = 0.11217 0.04307
#
# Static dielectric constant tensor:
#      x y z
#    x 3.645060 0.000000 0.196190 
#    y 0.000000 3.585800 0.000000 
#    z 0.196190 0.000000 4.302080 
# 
# 
# High freq. dielectric constant tensor:
#      x y z
#    x 1.814070 0.000000 0.019020 
#    y 0.000000 1.820450 0.000000 
#    z 0.019020 0.000000 1.861690 
# 
# From -- ./inp_files/37608.got.cif
#   From: 2010.06.25/outbox.cif.g09.slc.cpg/sg13_19_cif.got.tgz:37608.got - 2010.06.28 04:50:58.
