data_PCOD8120925
_publ_section_title
;
Structure prediction by ZEFSAII (Michael W. Deem and Ramdas Pophale) SiO2 
 PCOD8120925
Probable space group: P 2/C
;
_chemical_formula_sum "Si O2"
_cell_formula_units_Z 26
_cell_length_a 25.669460
_cell_length_b 9.397067
_cell_length_c 13.101264
_cell_angle_alpha 90.000000
_cell_angle_beta 155.260740
_cell_angle_gamma 90.000000
_cell_volume 1322.533922
_symmetry_space_group_name_H-M "P 2/C"
_symmetry_group_IT_number 13
_symmetry_cell_setting 'monoclinic'
loop_
_space_group_symop_operation_xyz
x,y,z
-x,y,1/2-z
-x,-y,-z
x,-y,1/2+z
loop_
_atom_site_type_symbol
_atom_site_label
_atom_site_fract_x
_atom_site_fract_y
_atom_site_fract_z
Si Si1 0.375046 0.650257 0.334196
Si Si2 0.653394 0.377578 0.335655
Si Si3 0.000000 0.743128 0.750000
Si Si4 0.817253 0.124900 0.078164
Si Si5 0.886268 0.753328 0.916820
Si Si6 0.785906 0.560352 0.271417
Si Si7 0.164591 0.187439 0.951609
O O1 0.364058 0.545238 0.217849
O O2 0.517828 0.693582 0.608190
O O3 0.322196 0.563050 0.336579
O O4 0.301151 0.794791 0.179912
O O5 0.733149 0.358057 0.579533
O O6 0.727173 0.301415 0.375702
O O7 0.061195 0.841067 0.772563
O O8 0.904287 0.642801 0.522791
O O9 0.835626 0.165451 0.228276
O O10 0.796623 0.956693 0.036533
O O11 0.829201 0.596603 0.818601
O O12 0.843355 0.839657 0.940977
O O13 0.036031 0.746883 0.179728
#
# Coordination Sequence:
#
# PCOD8120925 Si02
#       7
#     4   4   2   4   4   4   4
#     4  10  23  40  61  89 118 158 209 257 295 363
#     4  11  22  40  63  87 119 161 208 252 302 354
#     4  10  22  36  62  94 126 158 202 254 308 368
#     4  11  23  41  60  90 129 163 199 255 314 363
#     4  11  22  38  62  91 125 163 202 252 318 368
#     4  11  21  38  64  92 123 157 209 257 309 360
#     4  11  24  38  62  91 126 161 206 251 305 384
#
# _framework density 19.659231999999999
#
# number of rings (size 3 to 8) (size 9 to 14) (size 15 to 20)
#    0.000    1.231    3.077    3.692    2.154    4.308 
#    0.000    0.769    0.000    0.000    0.000    0.000 
#    0.000    0.000    0.000    0.000    0.000    0.000 
#
# Total GULP energy -322511.868479 kJ/mol
# GULP energy per Si atom -12404.302634 kJ/mol
# Density = 1.961449 g / cm^3
# Si number density = 19.659232 Si / 1000 Ang^3
#
#
#
# Elastic Constant Matrix: (Units=GPa)
#
#
# Indices 1 2 3 4 5 6 
#
# 1 89.1049 30.0256 68.0486 0.0000 0.6915 0.0000
# 2 30.0256 78.9803 45.4454 0.0000 6.7558 0.0000
# 3 68.0486 45.4454 118.6141 0.0000 5.9726 0.0000
# 4 0.0000 0.0000 0.0000 14.8661 0.0000 -4.4361
# 5 0.6915 6.7558 5.9726 0.0000 41.9929 0.0000
# 6 0.0000 0.0000 0.0000 -4.4361 0.0000 30.0768
#
#
#
# Elastic Compliance Matrix: (Units=1/GPa)
#
#
# Indices 1 2 3 4 5 6 
#
# 1 0.020165 -0.001402 -0.011106 0.000000 0.001473 0.000000
# 2 -0.001402 0.016467 -0.005411 0.000000 -0.001856 0.000000
# 3 -0.011106 -0.005411 0.016944 0.000000 -0.001356 0.000000
# 4 0.000000 0.000000 0.000000 0.070364 0.000000 0.010378
# 5 0.001473 -0.001856 -0.001356 0.000000 0.024281 0.000000
# 6 0.000000 0.000000 0.000000 0.010378 0.000000 0.034779
#
#
# Mechanical properties :
#
#
# Convention : Reuss Voigt Hill
#
# Bulk Modulus (GPa) = 56.37710 63.74873 60.06291
# Shear Modulus (GPa) = 22.24698 26.93246 24.58972
#
# Velocity S-wave (km/s) = 3.36762 3.70532 3.54050
# Velocity P-wave (km/s) = 6.62273 7.12763 6.87981
#
# Compressibility (1/GPa) = 0.01773770
#
# Stress axis : x y z
#
# Youngs Moduli (GPa) = 49.59086 60.72824 59.01929
#
# Poissons Ratio (x) = 0.08513 0.65545
# Poissons Ratio (y) = 0.06952 0.31937
# Poissons Ratio (z) = 0.55074 0.32862
#
# Static dielectric constant tensor:
#      x y z
#    x 3.738400 0.000000 0.017320 
#    y 0.000000 3.437370 0.000000 
#    z 0.017320 0.000000 3.607800 
# 
# 
# High freq. dielectric constant tensor:
#      x y z
#    x 1.777650 0.000000 -0.002790 
#    y 0.000000 1.755790 0.000000 
#    z -0.002790 0.000000 1.768550 
# 
# From -- ./inp_files/41688.got.cif
#   From: 2010.06.25/outbox.cif.g09.slc.cpg/sg13_21_cif.got.tgz:41688.got - 2010.06.28 04:50:58.
