data_PCOD8120536
_publ_section_title
;
Structure prediction by ZEFSAII (Michael W. Deem and Ramdas Pophale) SiO2 
 PCOD8120536
Probable space group: P 2/C
;
_chemical_formula_sum "Si O2"
_cell_formula_units_Z 32
_cell_length_a 13.146491
_cell_length_b 11.220203
_cell_length_c 11.740172
_cell_angle_alpha 90.000000
_cell_angle_beta 109.831911
_cell_angle_gamma 90.000000
_cell_volume 1629.042654
_symmetry_space_group_name_H-M "P 2/C"
_symmetry_group_IT_number 13
_symmetry_cell_setting 'monoclinic'
loop_
_space_group_symop_operation_xyz
x,y,z
-x,y,1/2-z
-x,-y,-z
x,-y,1/2+z
loop_
_atom_site_type_symbol
_atom_site_label
_atom_site_fract_x
_atom_site_fract_y
_atom_site_fract_z
Si Si1 0.115173 0.691673 0.246104
Si Si2 0.767372 0.520892 0.596044
Si Si3 0.624798 0.302316 0.173463
Si Si4 0.769592 0.859169 0.056485
Si Si5 0.886607 0.278934 0.021551
Si Si6 0.612899 0.659620 0.933714
Si Si7 0.230039 0.892006 0.853273
Si Si8 0.925990 0.894745 0.912743
O O1 0.191470 0.584110 0.309692
O O2 0.144431 0.815208 0.317862
O O3 0.129962 0.715364 0.119141
O O4 0.000000 0.652440 0.250000
O O5 0.719237 0.615504 0.663517
O O6 0.863662 0.587346 0.561536
O O7 0.672863 0.466144 0.480116
O O8 0.511230 0.335810 0.069249
O O9 0.613003 0.320991 0.300980
O O10 0.666047 0.167417 0.167608
O O11 0.725130 0.986790 0.076265
O O12 0.670085 0.769206 0.017567
O O13 0.827753 0.862574 0.957154
O O14 0.806087 0.187222 0.052332
O O15 0.007243 0.227222 0.085675
O O16 0.129430 0.923910 0.730156
O O17 0.000000 0.000000 0.000000
#
# Coordination Sequence:
#
# PCOD8120536 Si02
#       8
#     4   4   4   4   4   4   4   4
#     4  11  23  38  56  86 125 166 198 244 299 358
#     4  10  23  39  59  90 117 160 204 254 295 360
#     4  10  21  40  64  85 116 153 206 255 307 354
#     4  11  23  38  60  88 123 157 201 243 302 364
#     4  11  23  38  60  88 126 161 203 244 297 358
#     4  10  21  41  63  85 116 160 198 256 308 355
#     4  11  24  38  62  94 120 159 200 254 297 365
#     4  12  22  38  61  89 125 164 196 239 300 365
#
# _framework density 19.643439000000001
#
# number of rings (size 3 to 8) (size 9 to 14) (size 15 to 20)
#    0.000    1.250    3.750    2.250    0.000    3.000 
#    0.000    0.000    0.000    6.750    0.000    0.000 
#    0.000    0.000    0.000    0.000    0.000    0.000 
#
# Total GULP energy -396610.904387 kJ/mol
# GULP energy per Si atom -12394.090762 kJ/mol
# Density = 1.959873 g / cm^3
# Si number density = 19.643439 Si / 1000 Ang^3
#
#
#
# Elastic Constant Matrix: (Units=GPa)
#
#
# Indices 1 2 3 4 5 6 
#
# 1 79.3547 27.8739 27.8958 0.0000 1.0902 0.0000
# 2 27.8739 103.7341 22.9301 0.0000 1.4532 0.0000
# 3 27.8958 22.9301 82.3722 0.0000 -9.6858 0.0000
# 4 0.0000 0.0000 0.0000 26.8407 0.0000 -2.7933
# 5 1.0902 1.4532 -9.6858 0.0000 30.8407 0.0000
# 6 0.0000 0.0000 0.0000 -2.7933 0.0000 39.3315
#
#
#
# Elastic Compliance Matrix: (Units=1/GPa)
#
#
# Indices 1 2 3 4 5 6 
#
# 1 0.015305 -0.003084 -0.004539 0.000000 -0.001821 0.000000
# 2 -0.003084 0.010955 -0.002132 0.000000 -0.001077 0.000000
# 3 -0.004539 -0.002132 0.014850 0.000000 0.004925 0.000000
# 4 0.000000 0.000000 0.000000 0.037534 0.000000 0.002666
# 5 -0.001821 -0.001077 0.004925 0.000000 0.034086 0.000000
# 6 0.000000 0.000000 0.000000 0.002666 0.000000 0.025614
#
#
# Mechanical properties :
#
#
# Convention : Reuss Voigt Hill
#
# Bulk Modulus (GPa) = 46.29438 46.98451 46.63945
# Shear Modulus (GPa) = 30.29301 31.85332 31.07317
#
# Velocity S-wave (km/s) = 3.93127 4.03125 3.98157
# Velocity P-wave (km/s) = 6.65019 6.75563 6.70312
#
# Compressibility (1/GPa) = 0.02160089
#
# Stress axis : x y z
#
# Youngs Moduli (GPa) = 65.33603 91.28266 67.34150
#
# Poissons Ratio (x) = 0.28150 0.30566
# Poissons Ratio (y) = 0.20148 0.14356
# Poissons Ratio (z) = 0.29656 0.19460
#
# Static dielectric constant tensor:
#      x y z
#    x 3.862950 0.000000 0.090050 
#    y 0.000000 3.792380 0.000000 
#    z 0.090050 0.000000 3.720430 
# 
# 
# High freq. dielectric constant tensor:
#      x y z
#    x 1.760550 0.000000 -0.008460 
#    y 0.000000 1.773840 0.000000 
#    z -0.008460 0.000000 1.767690 
# 
# From -- ./inp_files/34190.got.cif
#   From: 2010.06.25/outbox.cif.g09.slc.cpg/sg13_18_cif.got.tgz:34190.got - 2010.06.28 04:50:58.
