data_PCOD8120732
_publ_section_title
;
Structure prediction by ZEFSAII (Michael W. Deem and Ramdas Pophale) SiO2 
 PCOD8120732
Probable space group: P 2/C
;
_chemical_formula_sum "Si O2"
_cell_formula_units_Z 22
_cell_length_a 14.630075
_cell_length_b 13.198381
_cell_length_c 5.068488
_cell_angle_alpha 90.000000
_cell_angle_beta 99.975125
_cell_angle_gamma 90.000000
_cell_volume 963.896269
_symmetry_space_group_name_H-M "P 2/C"
_symmetry_group_IT_number 13
_symmetry_cell_setting 'monoclinic'
loop_
_space_group_symop_operation_xyz
x,y,z
-x,y,1/2-z
-x,-y,-z
x,-y,1/2+z
loop_
_atom_site_type_symbol
_atom_site_label
_atom_site_fract_x
_atom_site_fract_y
_atom_site_fract_z
Si Si1 0.826663 0.939243 0.643416
Si Si2 0.381447 0.929824 0.018147
Si Si3 0.000000 0.309877 0.750000
Si Si4 0.381448 0.429824 0.863302
Si Si5 0.500000 0.250000 0.750000
Si Si6 0.000000 0.190124 0.250000
Si Si7 0.173338 0.560758 0.316755
O O1 0.725418 0.892083 0.537997
O O2 0.911495 0.869953 0.596282
O O3 0.835796 0.036989 0.458077
O O4 0.405480 0.005346 0.791217
O O5 0.438499 0.824655 0.035534
O O6 0.911495 0.369954 0.815212
O O7 0.961428 0.250000 0.480714
O O8 0.405481 0.494652 0.614264
O O9 0.438501 0.324655 0.902970
O O10 0.274584 0.392082 0.812583
O O11 0.164205 0.536988 0.622281
#
# Coordination Sequence:
#
# PCOD8120732 Si02
#       7
#     4   4   2   4   2   2   4
#     4  10  21  42  63  86 125 172 206 255 319 381
#     4  10  24  43  65  96 131 167 219 265 319 392
#     4  12  24  36  62  98 128 156 214 266 308 386
#     4  10  24  43  65  96 131 167 219 265 319 392
#     4  12  24  42  72  96 132 174 212 274 336 370
#     4  12  24  36  62  98 128 156 214 266 308 386
#     4  10  21  42  63  86 125 172 206 255 319 381
#
# _framework density 22.824031999999999
#
# number of rings (size 3 to 8) (size 9 to 14) (size 15 to 20)
#    0.000    1.455    0.000    4.364    2.545    2.909 
#    0.000    0.000    0.000    0.000    0.000    0.000 
#    0.000    0.000    0.000    0.000    0.000    0.000 
#
# Total GULP energy -272722.893184 kJ/mol
# GULP energy per Si atom -12396.495145 kJ/mol
# Density = 2.277208 g / cm^3
# Si number density = 22.824032 Si / 1000 Ang^3
#
#
#
# Elastic Constant Matrix: (Units=GPa)
#
#
# Indices 1 2 3 4 5 6 
#
# 1 152.5124 89.4966 41.0214 0.0000 9.9800 0.0000
# 2 89.4966 120.5503 40.0053 0.0000 9.7094 0.0000
# 3 41.0214 40.0053 129.1797 0.0000 -5.4030 0.0000
# 4 0.0000 0.0000 0.0000 16.6125 0.0000 4.2248
# 5 9.9800 9.7094 -5.4030 0.0000 33.3260 0.0000
# 6 0.0000 0.0000 0.0000 4.2248 0.0000 38.1566
#
#
#
# Elastic Compliance Matrix: (Units=1/GPa)
#
#
# Indices 1 2 3 4 5 6 
#
# 1 0.011827 -0.008256 -0.001255 0.000000 -0.001340 0.000000
# 2 -0.008256 0.015356 -0.002233 0.000000 -0.002363 0.000000
# 3 -0.001255 -0.002233 0.008935 0.000000 0.002475 0.000000
# 4 0.000000 0.000000 0.000000 0.061940 0.000000 -0.006858
# 5 -0.001340 -0.002363 0.002475 0.000000 0.031498 0.000000
# 6 0.000000 0.000000 0.000000 -0.006858 0.000000 0.026967
#
#
# Mechanical properties :
#
#
# Convention : Reuss Voigt Hill
#
# Bulk Modulus (GPa) = 79.17517 82.58767 80.88142
# Shear Modulus (GPa) = 27.14173 33.06695 30.10434
#
# Velocity S-wave (km/s) = 3.45218 3.81041 3.63571
# Velocity P-wave (km/s) = 7.11722 7.45802 7.28961
#
# Compressibility (1/GPa) = 0.01263022
#
# Stress axis : x y z
#
# Youngs Moduli (GPa) = 84.55469 65.12260 111.92439
#
# Poissons Ratio (x) = 0.53764 0.14046
# Poissons Ratio (y) = 0.69806 0.24989
# Poissons Ratio (z) = 0.10611 0.14540
#
# Static dielectric constant tensor:
#      x y z
#    x 4.407390 0.000000 0.274660 
#    y 0.000000 3.780810 0.000000 
#    z 0.274660 0.000000 3.007250 
# 
# 
# High freq. dielectric constant tensor:
#      x y z
#    x 1.932520 0.000000 0.004500 
#    y 0.000000 1.871100 0.000000 
#    z 0.004500 0.000000 1.909590 
# 
# From -- ./inp_files/4761.got.cif
#   From: 2010.06.25/outbox.cif.g09.slc.cpg/sg13_3_cif.got.tgz:4761.got - 2010.06.28 04:50:58.
