data_PCOD8120404
_publ_section_title
;
Structure prediction by ZEFSAII (Michael W. Deem and Ramdas Pophale) SiO2 
 PCOD8120404
Probable space group: P 2/C
;
_chemical_formula_sum "Si O2"
_cell_formula_units_Z 18
_cell_length_a 9.021811
_cell_length_b 23.774229
_cell_length_c 5.062500
_cell_angle_alpha 90.000000
_cell_angle_beta 55.489115
_cell_angle_gamma 90.000000
_cell_volume 894.751017
_symmetry_space_group_name_H-M "P 2/C"
_symmetry_group_IT_number 13
_symmetry_cell_setting 'monoclinic'
loop_
_space_group_symop_operation_xyz
x,y,z
-x,y,1/2-z
-x,-y,-z
x,-y,1/2+z
loop_
_atom_site_type_symbol
_atom_site_label
_atom_site_fract_x
_atom_site_fract_y
_atom_site_fract_z
Si Si1 0.000000 0.294654 0.250000
Si Si2 0.793173 0.867797 0.483755
Si Si3 0.500000 0.039273 0.250000
Si Si4 0.706966 0.536186 0.526876
Si Si5 0.705852 0.202758 0.569587
Si Si6 0.000000 0.628217 0.250000
O O1 0.824853 0.256718 0.382097
O O2 0.966695 0.333111 0.533994
O O3 0.677290 0.922963 0.549751
O O4 0.744023 0.818768 0.326569
O O5 0.000000 0.885135 0.250000
O O6 0.752766 0.846804 0.819337
O O7 0.500000 0.000000 0.500000
O O8 0.500000 0.554989 0.750000
O O9 0.752807 0.512318 0.191930
O O10 0.824266 0.590517 0.471175
O O11 0.500000 0.221325 0.750000
#
# Coordination Sequence:
#
# PCOD8120404 Si02
#       6
#     2   4   2   4   4   2
#     4  12  26  39  62  96 128 163 214 274 310 388
#     4  12  23  43  71  93 127 168 214 264 313 380
#     4  12  26  42  66 102 136 162 210 266 332 382
#     4  10  21  39  64  89 120 167 216 254 310 394
#     4  12  23  43  68  93 122 173 222 258 314 382
#     4  12  24  39  60  92 134 161 200 272 338 356
#
# _framework density 20.117328000000001
#
# number of rings (size 3 to 8) (size 9 to 14) (size 15 to 20)
#    0.000    0.444    4.444    4.667    0.000    2.667 
#    0.000    0.000    0.000    0.000    0.000    0.000 
#    0.000    0.000    0.000    0.000    0.000    0.000 
#
# Total GULP energy -223356.280893 kJ/mol
# GULP energy per Si atom -12408.682272 kJ/mol
# Density = 2.007154 g / cm^3
# Si number density = 20.117328 Si / 1000 Ang^3
#
#
#
# Elastic Constant Matrix: (Units=GPa)
#
#
# Indices 1 2 3 4 5 6 
#
# 1 125.4871 48.5936 45.3339 0.0000 -28.1004 0.0000
# 2 48.5936 103.5462 33.3297 0.0000 -17.8705 0.0000
# 3 45.3339 33.3297 92.0240 0.0000 -8.1733 0.0000
# 4 0.0000 0.0000 0.0000 15.6072 0.0000 -2.3992
# 5 -28.1004 -17.8705 -8.1733 0.0000 54.3021 0.0000
# 6 0.0000 0.0000 0.0000 -2.3992 0.0000 -68.4064
#
#
#
# Elastic Compliance Matrix: (Units=1/GPa)
#
#
# Indices 1 2 3 4 5 6 
#
# 1 0.011778 -0.003436 -0.004173 0.000000 0.004336 0.000000
# 2 -0.003436 0.012454 -0.002647 0.000000 0.001922 0.000000
# 3 -0.004173 -0.002647 0.013796 0.000000 -0.000954 0.000000
# 4 0.000000 0.000000 0.000000 0.063729 0.000000 -0.002235
# 5 0.004336 0.001922 -0.000954 0.000000 0.021148 0.000000
# 6 0.000000 0.000000 0.000000 -0.002235 0.000000 -0.014540
#
#
# Mechanical properties :
#
#
# Convention : Reuss Voigt Hill
#
# Bulk Modulus (GPa) = 57.08882 63.95239 60.52061
# Shear Modulus (GPa) = 37.11523 13.22059 25.16791
#
# Velocity S-wave (km/s) = 4.29993 2.56632 3.54086
# Velocity P-wave (km/s) = 7.28643 6.37496 6.84588
#
# Compressibility (1/GPa) = 0.01751656
#
# Stress axis : x y z
#
# Youngs Moduli (GPa) = 84.90533 80.29703 72.48290
#
# Poissons Ratio (x) = 0.27589 0.30244
# Poissons Ratio (y) = 0.29172 0.19188
# Poissons Ratio (z) = 0.35428 0.21257
#
# Static dielectric constant tensor:
#      x y z
#    x 3.719820 0.000000 0.062150 
#    y 0.000000 3.532450 0.000000 
#    z 0.062150 0.000000 3.905750 
# 
# 
# High freq. dielectric constant tensor:
#      x y z
#    x 1.806650 0.000000 0.002470 
#    y 0.000000 1.779430 0.000000 
#    z 0.002470 0.000000 1.805160 
# 
# From -- ./inp_files/1513.got.cif
#   From: 2010.06.25/outbox.cif.g09.slc.cpg/sg13_1_cif.got.tgz:1513.got - 2010.06.28 04:50:58.
