data_PCOD8120590
_publ_section_title
;
Structure prediction by ZEFSAII (Michael W. Deem and Ramdas Pophale) SiO2 
 PCOD8120590
Probable space group: P 2/C
;
_chemical_formula_sum "Si O2"
_cell_formula_units_Z 32
_cell_length_a 12.361913
_cell_length_b 5.228189
_cell_length_c 24.327146
_cell_angle_alpha 90.000000
_cell_angle_beta 112.388700
_cell_angle_gamma 90.000000
_cell_volume 1453.757461
_symmetry_space_group_name_H-M "P 2/C"
_symmetry_group_IT_number 13
_symmetry_cell_setting 'monoclinic'
loop_
_space_group_symop_operation_xyz
x,y,z
-x,y,1/2-z
-x,-y,-z
x,-y,1/2+z
loop_
_atom_site_type_symbol
_atom_site_label
_atom_site_fract_x
_atom_site_fract_y
_atom_site_fract_z
Si Si1 0.167928 0.378790 0.670037
Si Si2 0.533621 0.029344 0.694835
Si Si3 0.084544 0.738356 0.565270
Si Si4 0.291533 0.880089 0.105449
Si Si5 0.679067 0.468942 0.203022
Si Si6 0.022955 0.921067 0.316429
Si Si7 0.834534 0.633902 0.510351
Si Si8 0.164746 0.416111 0.367372
O O1 0.078348 0.548048 0.616805
O O2 0.281079 0.327209 0.652895
O O3 0.212842 0.521163 0.733451
O O4 0.099249 0.120399 0.675008
O O5 0.500000 0.102153 0.750000
O O6 0.595259 0.756585 0.706577
O O7 0.418251 0.992269 0.634350
O O8 0.613794 0.257711 0.686986
O O9 0.125854 0.611543 0.516495
O O10 0.948317 0.827182 0.532901
O O11 0.178075 0.952391 0.597394
O O12 0.275884 0.765203 0.041386
O O13 0.724114 0.393283 0.151254
O O14 0.089920 0.651809 0.330765
O O15 0.000000 0.003402 0.250000
O O16 0.094358 0.150648 0.356985
O O17 0.791073 0.540876 0.561612
#
# Coordination Sequence:
#
# PCOD8120590 Si02
#       8
#     4   4   4   4   4   4   4   4
#     4  11  23  39  67 104 136 176 226 291 355 424
#     4  12  26  47  72 100 133 181 240 301 352 400
#     4  10  21  40  68 102 139 178 232 285 351 424
#     4  11  24  41  69  99 136 182 235 299 348 407
#     4  12  27  45  69 103 138 184 236 286 355 413
#     4  12  25  41  68 102 143 184 226 272 358 430
#     4  10  23  40  66 102 139 188 224 284 352 425
#     4  12  26  45  67 100 147 187 222 286 342 430
#
# _framework density 22.011924
#
# number of rings (size 3 to 8) (size 9 to 14) (size 15 to 20)
#    0.000    0.750    3.750    3.375    5.250    0.000 
#    0.000    1.250    0.000    0.000    0.000    0.000 
#    0.000    0.000    0.000    0.000    0.000    0.000 
#
# Total GULP energy -396762.756265 kJ/mol
# GULP energy per Si atom -12398.836133 kJ/mol
# Density = 2.196182 g / cm^3
# Si number density = 22.011924 Si / 1000 Ang^3
#
#
#
# Elastic Constant Matrix: (Units=GPa)
#
#
# Indices 1 2 3 4 5 6 
#
# 1 78.7069 19.0771 55.4921 0.0000 0.6566 0.0000
# 2 19.0771 80.5835 13.8109 0.0000 5.6477 0.0000
# 3 55.4921 13.8109 140.8983 0.0000 -12.9923 0.0000
# 4 0.0000 0.0000 0.0000 17.9368 0.0000 5.8228
# 5 0.6566 5.6477 -12.9923 0.0000 42.9049 0.0000
# 6 0.0000 0.0000 0.0000 5.8228 0.0000 33.5970
#
#
#
# Elastic Compliance Matrix: (Units=1/GPa)
#
#
# Indices 1 2 3 4 5 6 
#
# 1 0.018521 -0.003008 -0.007190 0.000000 -0.002065 0.000000
# 2 -0.003008 0.013296 -0.000284 0.000000 -0.001790 0.000000
# 3 -0.007190 -0.000284 0.010257 0.000000 0.003253 0.000000
# 4 0.000000 0.000000 0.000000 0.059075 0.000000 -0.010239
# 5 -0.002065 -0.001790 0.003253 0.000000 0.024560 0.000000
# 6 0.000000 0.000000 0.000000 -0.010239 0.000000 0.031539
#
#
# Mechanical properties :
#
#
# Convention : Reuss Voigt Hill
#
# Bulk Modulus (GPa) = 47.36943 52.99432 50.18188
# Shear Modulus (GPa) = 26.99105 33.00831 29.99968
#
# Velocity S-wave (km/s) = 3.50551 3.87662 3.69573
# Velocity P-wave (km/s) = 6.16048 6.64569 6.40768
#
# Compressibility (1/GPa) = 0.02111066
#
# Stress axis : x y z
#
# Youngs Moduli (GPa) = 53.99336 75.21293 97.49595
#
# Poissons Ratio (x) = 0.22621 0.70099
# Poissons Ratio (y) = 0.16239 0.02767
# Poissons Ratio (z) = 0.38821 0.02134
#
# Static dielectric constant tensor:
#      x y z
#    x 3.874480 0.000000 -0.015780 
#    y 0.000000 3.897670 0.000000 
#    z -0.015780 0.000000 4.197140 
# 
# 
# High freq. dielectric constant tensor:
#      x y z
#    x 1.846640 0.000000 -0.009100 
#    y 0.000000 1.864210 0.000000 
#    z -0.009100 0.000000 1.879330 
# 
# From -- ./inp_files/85995.got.cif
#   From: 2010.06.25/outbox.cif.g09.slc.cpg/sg13_43_cif.got.tgz:85995.got - 2010.06.28 04:50:58.
