data_PCOD8120438
_publ_section_title
;
Structure prediction by ZEFSAII (Michael W. Deem and Ramdas Pophale) SiO2 
 PCOD8120438
Probable space group: P 2/C
;
_chemical_formula_sum "Si O2"
_cell_formula_units_Z 28
_cell_length_a 27.599518
_cell_length_b 9.046177
_cell_length_c 9.532499
_cell_angle_alpha 90.000000
_cell_angle_beta 145.594267
_cell_angle_gamma 90.000000
_cell_volume 1344.806777
_symmetry_space_group_name_H-M "P 2/C"
_symmetry_group_IT_number 13
_symmetry_cell_setting 'monoclinic'
loop_
_space_group_symop_operation_xyz
x,y,z
-x,y,1/2-z
-x,-y,-z
x,-y,1/2+z
loop_
_atom_site_type_symbol
_atom_site_label
_atom_site_fract_x
_atom_site_fract_y
_atom_site_fract_z
Si Si1 0.744609 0.567339 0.994131
Si Si2 0.168778 0.065154 0.085403
Si Si3 0.927943 0.924828 0.414413
Si Si4 0.947822 0.416427 0.993679
Si Si5 0.320672 0.123045 0.065276
Si Si6 0.597683 0.932607 0.448463
Si Si7 0.712380 0.679352 0.617220
O O1 0.846607 0.548508 0.260397
O O2 0.698141 0.423531 0.948001
O O3 0.701493 0.705169 0.972400
O O4 0.722747 0.575098 0.778103
O O5 0.199354 0.229983 0.196517
O O6 0.084326 0.015653 0.969871
O O7 0.237730 0.946573 0.296800
O O8 0.156725 0.065982 0.887518
O O9 0.957552 0.759046 0.509412
O O10 0.000000 0.000000 0.500000
O O11 0.000000 0.476326 0.250000
O O12 0.000000 0.500000 0.000000
O O13 0.345938 0.052983 0.275724
O O14 0.395401 0.082057 0.130118
O O15 0.500000 0.899331 0.250000
O O16 0.633236 0.792874 0.443904
#
# Coordination Sequence:
#
# PCOD8120438 Si02
#       7
#     4   4   4   4   4   4   4
#     4  11  22  43  59  90 123 162 217 247 303 375
#     4  11  21  43  59  87 119 162 208 256 304 366
#     4  12  25  39  60  88 121 161 210 263 314 358
#     4  12  26  42  60  88 124 166 212 264 312 353
#     4  10  21  39  66  89 124 160 207 249 305 374
#     4  10  21  41  65  98 126 155 199 253 312 373
#     4  10  23  39  64  87 121 166 198 251 303 370
#
# _framework density 20.820836
#
# number of rings (size 3 to 8) (size 9 to 14) (size 15 to 20)
#    0.000    1.143    2.857    4.286    2.000    3.429 
#    0.000    3.571    0.000    0.000    0.000    0.000 
#    0.000    0.000    0.000    0.000    0.000    0.000 
#
# Total GULP energy -347015.212068 kJ/mol
# GULP energy per Si atom -12393.400431 kJ/mol
# Density = 2.077345 g / cm^3
# Si number density = 20.820836 Si / 1000 Ang^3
#
#
#
# Elastic Constant Matrix: (Units=GPa)
#
#
# Indices 1 2 3 4 5 6 
#
# 1 125.5319 60.7267 23.8227 0.0000 4.9087 0.0000
# 2 60.7267 92.0520 12.3054 0.0000 -6.8655 0.0000
# 3 23.8227 12.3054 50.9997 0.0000 0.2651 0.0000
# 4 0.0000 0.0000 0.0000 23.0579 0.0000 -8.3567
# 5 4.9087 -6.8655 0.2651 0.0000 38.9829 0.0000
# 6 0.0000 0.0000 0.0000 -8.3567 0.0000 46.7092
#
#
#
# Elastic Compliance Matrix: (Units=1/GPa)
#
#
# Indices 1 2 3 4 5 6 
#
# 1 0.012765 -0.008112 -0.003990 0.000000 -0.003009 0.000000
# 2 -0.008112 0.016538 -0.000221 0.000000 0.003936 0.000000
# 3 -0.003990 -0.000221 0.021523 0.000000 0.000317 0.000000
# 4 0.000000 0.000000 0.000000 0.046376 0.000000 0.008297
# 5 -0.003009 0.003936 0.000317 0.000000 0.026722 0.000000
# 6 0.000000 0.000000 0.000000 0.008297 0.000000 0.022893
#
#
# Mechanical properties :
#
#
# Convention : Reuss Voigt Hill
#
# Bulk Modulus (GPa) = 38.19753 51.36592 44.78173
# Shear Modulus (GPa) = 27.74808 33.19860 30.47334
#
# Velocity S-wave (km/s) = 3.65459 3.99744 3.82985
# Velocity P-wave (km/s) = 6.01612 6.78454 6.41185
#
# Compressibility (1/GPa) = 0.02617970
#
# Stress axis : x y z
#
# Youngs Moduli (GPa) = 78.33727 60.46579 46.46091
#
# Poissons Ratio (x) = 0.49052 0.18537
# Poissons Ratio (y) = 0.63550 0.01029
# Poissons Ratio (z) = 0.31255 0.01339
#
# Static dielectric constant tensor:
#      x y z
#    x 3.145140 0.000000 1.317590 
#    y 0.000000 3.787700 0.000000 
#    z 1.317590 0.000000 1.648930 
# 
# 
# High freq. dielectric constant tensor:
#      x y z
#    x 1.825490 0.000000 -0.011610 
#    y 0.000000 1.806110 0.000000 
#    z -0.011610 0.000000 1.813750 
# 
# From -- ./inp_files/24592.got.cif
#   From: 2010.06.25/outbox.cif.g09.slc.cpg/sg13_13_cif.got.tgz:24592.got - 2010.06.28 04:50:58.
