data_PCOD8120546
_publ_section_title
;
Structure prediction by ZEFSAII (Michael W. Deem and Ramdas Pophale) SiO2 
 PCOD8120546
Probable space group: P 2/C
;
_chemical_formula_sum "Si O2"
_cell_formula_units_Z 24
_cell_length_a 14.252353
_cell_length_b 15.003854
_cell_length_c 9.615745
_cell_angle_alpha 90.000000
_cell_angle_beta 35.854897
_cell_angle_gamma 90.000000
_cell_volume 1204.406672
_symmetry_space_group_name_H-M "P 2/C"
_symmetry_group_IT_number 13
_symmetry_cell_setting 'monoclinic'
loop_
_space_group_symop_operation_xyz
x,y,z
-x,y,1/2-z
-x,-y,-z
x,-y,1/2+z
loop_
_atom_site_type_symbol
_atom_site_label
_atom_site_fract_x
_atom_site_fract_y
_atom_site_fract_z
Si Si1 0.387471 0.522254 0.260396
Si Si2 0.113170 0.255944 0.318549
Si Si3 0.670148 0.200661 0.982227
Si Si4 0.226646 0.704024 0.394132
Si Si5 0.816625 0.649824 0.499377
Si Si6 0.967858 0.086711 0.627860
O O1 0.500000 0.552648 0.250000
O O2 0.268693 0.601511 0.364995
O O3 0.285746 0.435362 0.421432
O O4 0.500000 0.500000 0.000000
O O5 0.203007 0.324433 0.314326
O O6 0.942626 0.296492 0.480807
O O7 0.088722 0.162402 0.426407
O O8 0.219444 0.244761 0.051241
O O9 0.500000 0.172290 0.250000
O O10 0.645047 0.246165 0.860091
O O11 0.761752 0.267999 0.972612
O O12 0.781948 0.113950 0.831125
O O13 0.000000 0.628162 0.250000
O O14 0.000000 0.066361 0.750000
O O15 0.000000 0.000000 0.500000
#
# Coordination Sequence:
#
# PCOD8120546 Si02
#       6
#     4   4   4   4   4   4
#     4  12  26  40  56  91 133 175 221 277 327 362
#     4  10  21  40  64  94 122 163 220 264 324 377
#     4  11  22  43  67  95 132 175 209 259 331 389
#     4  10  22  38  60  92 127 168 220 271 311 374
#     4  12  21  39  67  88 125 179 225 266 319 385
#     4  11  23  43  73  99 126 163 209 266 321 395
#
# _framework density 19.926824
#
# number of rings (size 3 to 8) (size 9 to 14) (size 15 to 20)
#    0.000    1.000    5.000    3.500    7.000    0.667 
#    0.000    0.833    0.000    0.000    0.000    0.000 
#    0.000    0.000    0.000    0.000    0.000    0.000 
#
# Total GULP energy -297652.995112 kJ/mol
# GULP energy per Si atom -12402.208130 kJ/mol
# Density = 1.988147 g / cm^3
# Si number density = 19.926824 Si / 1000 Ang^3
#
#
#
# Elastic Constant Matrix: (Units=GPa)
#
#
# Indices 1 2 3 4 5 6 
#
# 1 86.3365 45.2755 40.9115 0.0000 25.6826 0.0000
# 2 45.2755 119.9497 43.9927 0.0000 2.5850 0.0000
# 3 40.9115 43.9927 131.9322 0.0000 16.5261 0.0000
# 4 0.0000 0.0000 0.0000 32.2751 0.0000 9.2714
# 5 25.6826 2.5850 16.5261 0.0000 42.9453 0.0000
# 6 0.0000 0.0000 0.0000 9.2714 0.0000 21.3672
#
#
#
# Elastic Compliance Matrix: (Units=1/GPa)
#
#
# Indices 1 2 3 4 5 6 
#
# 1 0.018911 -0.005958 -0.002633 0.000000 -0.009937 0.000000
# 2 -0.005958 0.011395 -0.002429 0.000000 0.003812 0.000000
# 3 -0.002633 -0.002429 0.009446 0.000000 -0.001914 0.000000
# 4 0.000000 0.000000 0.000000 0.035395 0.000000 -0.015358
# 5 -0.009937 0.003812 -0.001914 0.000000 0.029736 0.000000
# 6 0.000000 0.000000 0.000000 -0.015358 0.000000 0.053465
#
#
# Mechanical properties :
#
#
# Convention : Reuss Voigt Hill
#
# Bulk Modulus (GPa) = 56.46285 66.50864 61.48574
# Shear Modulus (GPa) = 26.83971 33.18677 30.01324
#
# Velocity S-wave (km/s) = 3.67401 4.08540 3.88515
# Velocity P-wave (km/s) = 6.81135 7.46344 7.14483
#
# Compressibility (1/GPa) = 0.01771076
#
# Stress axis : x y z
#
# Youngs Moduli (GPa) = 52.88010 87.76037 105.86625
#
# Poissons Ratio (x) = 0.52290 0.27870
# Poissons Ratio (y) = 0.31507 0.25720
# Poissons Ratio (z) = 0.13921 0.21321
#
# Static dielectric constant tensor:
#      x y z
#    x 3.750260 0.000000 0.234800 
#    y 0.000000 4.609540 0.000000 
#    z 0.234800 0.000000 4.078190 
# 
# 
# High freq. dielectric constant tensor:
#      x y z
#    x 1.782240 0.000000 0.019420 
#    y 0.000000 1.758880 0.000000 
#    z 0.019420 0.000000 1.792030 
# 
# From -- ./inp_files/19510.got.cif
#   From: 2010.06.25/outbox.cif.g09.slc.cpg/sg13_10_cif.got.tgz:19510.got - 2010.06.28 04:50:58.
