data_PCOD8120009
_publ_section_title
;
Structure prediction by ZEFSAII (Michael W. Deem and Ramdas Pophale) SiO2 
 PCOD8120009
Probable space group: P 2/C
;
_chemical_formula_sum "Si O2"
_cell_formula_units_Z 24
_cell_length_a 14.072649
_cell_length_b 11.878818
_cell_length_c 13.637759
_cell_angle_alpha 90.000000
_cell_angle_beta 30.590334
_cell_angle_gamma 90.000000
_cell_volume 1160.169121
_symmetry_space_group_name_H-M "P 2/C"
_symmetry_group_IT_number 13
_symmetry_cell_setting 'monoclinic'
loop_
_space_group_symop_operation_xyz
x,y,z
-x,y,1/2-z
-x,-y,-z
x,-y,1/2+z
loop_
_atom_site_type_symbol
_atom_site_label
_atom_site_fract_x
_atom_site_fract_y
_atom_site_fract_z
Si Si1 0.071185 0.602494 0.501140
Si Si2 0.418194 0.468286 0.222231
Si Si3 0.876715 0.153543 0.604225
Si Si4 0.517716 0.140802 0.621615
Si Si5 0.675848 0.638419 0.888458
Si Si6 0.883401 0.980193 0.755325
O O1 0.253810 0.558211 0.396911
O O2 0.132687 0.710956 0.381776
O O3 0.000000 0.500000 0.500000
O O4 0.895733 0.639643 0.724447
O O5 0.500000 0.414546 0.250000
O O6 0.342855 0.372826 0.214304
O O7 0.586911 0.530968 0.018809
O O8 0.683858 0.099741 0.735804
O O9 0.044171 0.115424 0.383959
O O10 0.907671 0.103462 0.685329
O O11 0.500000 0.176619 0.750000
O O12 0.578118 0.248252 0.506205
O O13 0.666571 0.041303 0.473568
O O14 0.000000 0.975899 0.750000
#
# Coordination Sequence:
#
# PCOD8120009 Si02
#       6
#     4   4   4   4   4   4
#     4  10  21  39  63  90 123 164 208 254 317 377
#     4  10  21  38  58  87 124 169 212 258 315 383
#     4  11  23  41  67  92 129 164 209 269 317 379
#     4  12  22  39  67  95 122 164 218 263 317 381
#     4  10  21  36  60  89 127 158 209 263 315 370
#     4  11  24  43  65  93 127 165 213 264 322 381
#
# _framework density 20.686639
#
# number of rings (size 3 to 8) (size 9 to 14) (size 15 to 20)
#    0.000    1.333    5.000    1.000    0.000    0.667 
#    0.000    3.333    0.000    0.000    0.000    0.000 
#    0.000    0.000    0.000    0.000    0.000    0.000 
#
# Total GULP energy -297526.950643 kJ/mol
# GULP energy per Si atom -12396.956277 kJ/mol
# Density = 2.063956 g / cm^3
# Si number density = 20.686639 Si / 1000 Ang^3
#
#
#
# Elastic Constant Matrix: (Units=GPa)
#
#
# Indices 1 2 3 4 5 6 
#
# 1 83.6079 30.6199 29.0965 0.0000 15.7861 0.0000
# 2 30.6199 78.4509 15.6674 0.0000 3.6345 0.0000
# 3 29.0965 15.6674 115.1155 0.0000 -13.7328 0.0000
# 4 0.0000 0.0000 0.0000 15.7086 0.0000 0.0671
# 5 15.7861 3.6345 -13.7328 0.0000 29.4229 0.0000
# 6 0.0000 0.0000 0.0000 0.0671 0.0000 18.4160
#
#
#
# Elastic Compliance Matrix: (Units=1/GPa)
#
#
# Indices 1 2 3 4 5 6 
#
# 1 0.017867 -0.005426 -0.005127 0.000000 -0.011309 0.000000
# 2 -0.005426 0.014941 -0.000566 0.000000 0.000801 0.000000
# 3 -0.005127 -0.000566 0.011009 0.000000 0.007959 0.000000
# 4 0.000000 0.000000 0.000000 0.063661 0.000000 -0.000232
# 5 -0.011309 0.000801 0.007959 0.000000 0.043670 0.000000
# 6 0.000000 0.000000 0.000000 -0.000232 0.000000 0.054301
#
#
# Mechanical properties :
#
#
# Convention : Reuss Voigt Hill
#
# Bulk Modulus (GPa) = 46.34129 47.54910 46.94519
# Shear Modulus (GPa) = 21.28744 26.16220 23.72482
#
# Velocity S-wave (km/s) = 3.21135 3.56011 3.39022
# Velocity P-wave (km/s) = 6.01669 6.31937 6.16989
#
# Compressibility (1/GPa) = 0.02157903
#
# Stress axis : x y z
#
# Youngs Moduli (GPa) = 55.96881 66.93186 90.83217
#
# Poissons Ratio (x) = 0.36316 0.46567
# Poissons Ratio (y) = 0.30368 0.05145
# Poissons Ratio (z) = 0.28694 0.03791
#
# Static dielectric constant tensor:
#      x y z
#    x 3.746550 0.000000 -0.333710 
#    y 0.000000 3.513010 0.000000 
#    z -0.333710 0.000000 4.509330 
# 
# 
# High freq. dielectric constant tensor:
#      x y z
#    x 1.794800 0.000000 -0.017950 
#    y 0.000000 1.787100 0.000000 
#    z -0.017950 0.000000 1.833170 
# 
# From -- ./inp_files/53607.got.cif
#   From: 2010.06.25/outbox.cif.g09.slc.cpg/sg13_27_cif.got.tgz:53607.got - 2010.06.28 04:50:58.
