data_PCOD8120939
_publ_section_title
;
Structure prediction by ZEFSAII (Michael W. Deem and Ramdas Pophale) SiO2 
 PCOD8120939
Probable space group: P 2/C
;
_chemical_formula_sum "Si O2"
_cell_formula_units_Z 18
_cell_length_a 6.242175
_cell_length_b 16.388079
_cell_length_c 8.849310
_cell_angle_alpha 90.000000
_cell_angle_beta 94.447613
_cell_angle_gamma 90.000000
_cell_volume 902.534088
_symmetry_space_group_name_H-M "P 2/C"
_symmetry_group_IT_number 13
_symmetry_cell_setting 'monoclinic'
loop_
_space_group_symop_operation_xyz
x,y,z
-x,y,1/2-z
-x,-y,-z
x,-y,1/2+z
loop_
_atom_site_type_symbol
_atom_site_label
_atom_site_fract_x
_atom_site_fract_y
_atom_site_fract_z
Si Si1 0.198902 0.440671 0.468914
Si Si2 0.290226 0.169740 0.140792
Si Si3 0.000000 0.969302 0.750000
Si Si4 0.500000 0.468082 0.750000
Si Si5 0.000000 0.307344 0.250000
Si Si6 0.373301 0.935275 0.394570
O O1 0.339286 0.418343 0.627843
O O2 0.350691 0.478406 0.349621
O O3 0.111734 0.358635 0.388475
O O4 0.000000 0.500000 0.500000
O O5 0.500000 0.171979 0.250000
O O6 0.164239 0.252782 0.163350
O O7 0.156731 0.088101 0.164303
O O8 0.358153 0.155040 0.970712
O O9 0.135816 0.028911 0.862857
O O10 0.500000 0.918546 0.250000
O O11 0.500000 0.000000 0.500000
#
# Coordination Sequence:
#
# PCOD8120939 Si02
#       6
#     4   4   2   2   2   4
#     4  11  21  43  70 106 127 180 226 278 328 420
#     4  11  24  41  63  95 130 173 218 269 352 387
#     4  11  20  38  70  87 124 166 226 277 324 392
#     4  10  22  36  78 102 134 160 242 272 332 390
#     4  11  26  40  72  89 144 172 220 283 344 400
#     4  12  22  38  67  94 124 167 230 277 316 400
#
# _framework density 19.943845
#
# number of rings (size 3 to 8) (size 9 to 14) (size 15 to 20)
#    0.000    0.889    6.667    0.667    1.556    0.000 
#    0.000    0.000   24.444    0.000    0.000    0.000 
#    0.000    0.000    0.000    0.000    0.000    0.000 
#
# Total GULP energy -223042.977703 kJ/mol
# GULP energy per Si atom -12391.276539 kJ/mol
# Density = 1.989845 g / cm^3
# Si number density = 19.943845 Si / 1000 Ang^3
#
#
#
# Elastic Constant Matrix: (Units=GPa)
#
#
# Indices 1 2 3 4 5 6 
#
# 1 133.8132 65.4982 70.1234 0.0000 16.4957 0.0000
# 2 65.4982 121.5955 81.2432 0.0000 6.9256 0.0000
# 3 70.1234 81.2432 163.7672 0.0000 20.3516 0.0000
# 4 0.0000 0.0000 0.0000 43.7945 0.0000 26.5503
# 5 16.4957 6.9256 20.3516 0.0000 52.5854 0.0000
# 6 0.0000 0.0000 0.0000 26.5503 0.0000 63.6732
#
#
#
# Elastic Compliance Matrix: (Units=1/GPa)
#
#
# Indices 1 2 3 4 5 6 
#
# 1 0.011041 -0.004249 -0.002373 0.000000 -0.001985 0.000000
# 2 -0.004249 0.013967 -0.005302 0.000000 0.001545 0.000000
# 3 -0.002373 -0.005302 0.010057 0.000000 -0.002450 0.000000
# 4 0.000000 0.000000 0.000000 0.030559 0.000000 -0.012742
# 5 -0.001985 0.001545 -0.002450 0.000000 0.020384 0.000000
# 6 0.000000 0.000000 0.000000 -0.012742 0.000000 0.021018
#
#
# Mechanical properties :
#
#
# Convention : Reuss Voigt Hill
#
# Bulk Modulus (GPa) = 89.14335 94.76727 91.95531
# Shear Modulus (GPa) = 37.14372 45.49804 41.32088
#
# Velocity S-wave (km/s) = 4.32025 4.78148 4.55671
# Velocity P-wave (km/s) = 8.34747 8.83763 8.59605
#
# Compressibility (1/GPa) = 0.01121789
#
# Stress axis : x y z
#
# Youngs Moduli (GPa) = 90.57039 71.59875 99.43443
#
# Poissons Ratio (x) = 0.30420 0.23598
# Poissons Ratio (y) = 0.38480 0.52716
# Poissons Ratio (z) = 0.21495 0.37958
#
# Static dielectric constant tensor:
#      x y z
#    x 4.840010 0.000000 0.473970 
#    y 0.000000 3.588660 0.000000 
#    z 0.473970 0.000000 3.669760 
# 
# 
# High freq. dielectric constant tensor:
#      x y z
#    x 1.809150 0.000000 0.001510 
#    y 0.000000 1.743940 0.000000 
#    z 0.001510 0.000000 1.794640 
# 
# From -- ./inp_files/9165.got.cif
#   From: 2010.06.25/outbox.cif.g09.slc.cpg/sg13_5_cif.got.tgz:9165.got - 2010.06.28 04:50:58.
