data_PCOD8120757
_publ_section_title
;
Structure prediction by ZEFSAII (Michael W. Deem and Ramdas Pophale) SiO2 
 PCOD8120757
Probable space group: P 2/C
;
_chemical_formula_sum "Si O2"
_cell_formula_units_Z 24
_cell_length_a 15.296274
_cell_length_b 7.282674
_cell_length_c 18.818178
_cell_angle_alpha 90.000000
_cell_angle_beta 147.802135
_cell_angle_gamma 90.000000
_cell_volume 1117.004140
_symmetry_space_group_name_H-M "P 2/C"
_symmetry_group_IT_number 13
_symmetry_cell_setting 'monoclinic'
loop_
_space_group_symop_operation_xyz
x,y,z
-x,y,1/2-z
-x,-y,-z
x,-y,1/2+z
loop_
_atom_site_type_symbol
_atom_site_label
_atom_site_fract_x
_atom_site_fract_y
_atom_site_fract_z
Si Si1 0.037468 0.275816 0.939640
Si Si2 0.174321 0.594338 0.680436
Si Si3 0.919683 0.090825 0.296323
Si Si4 0.255436 0.850807 0.963446
Si Si5 0.477073 0.507269 0.068822
Si Si6 0.374165 0.209301 0.100250
O O1 0.077033 0.310729 0.049204
O O2 0.196068 0.274896 0.000558
O O3 0.927927 0.449410 0.842768
O O4 0.936767 0.088201 0.857774
O O5 0.340172 0.488029 0.771079
O O6 0.205433 0.765845 0.753508
O O7 0.098929 0.188290 0.407397
O O8 0.825834 0.042613 0.159088
O O9 0.361528 0.671929 0.016658
O O10 0.378984 0.992316 0.086843
O O11 0.406169 0.316668 0.049261
O O12 0.500000 0.500000 0.000000
O O13 0.500000 0.254883 0.250000
#
# Coordination Sequence:
#
# PCOD8120757 Si02
#       6
#     4   4   4   4   4   4
#     4  10  23  42  65  93 125 175 219 265 323 395
#     4  11  22  41  66  96 129 168 215 270 332 390
#     4  10  21  42  66  92 130 169 219 270 324 395
#     4  10  24  41  65  96 126 174 219 269 332 394
#     4  12  25  42  66  98 136 167 214 278 335 395
#     4  11  24  46  65  93 132 174 221 270 329 400
#
# _framework density 21.486044
#
# number of rings (size 3 to 8) (size 9 to 14) (size 15 to 20)
#    0.000    1.333    3.333    1.500    2.333    2.667 
#   12.000    0.000    0.000    0.000    0.000    0.000 
#    0.000    0.000    0.000    0.000    0.000    0.000 
#
# Total GULP energy -297393.754751 kJ/mol
# GULP energy per Si atom -12391.406448 kJ/mol
# Density = 2.143714 g / cm^3
# Si number density = 21.486044 Si / 1000 Ang^3
#
#
#
# Elastic Constant Matrix: (Units=GPa)
#
#
# Indices 1 2 3 4 5 6 
#
# 1 77.9447 50.7741 15.8892 0.0000 3.5137 0.0000
# 2 50.7741 109.3688 53.1607 0.0000 5.4034 0.0000
# 3 15.8892 53.1607 80.9272 0.0000 7.2517 0.0000
# 4 0.0000 0.0000 0.0000 19.2113 0.0000 -5.5880
# 5 3.5137 5.4034 7.2517 0.0000 26.1561 0.0000
# 6 0.0000 0.0000 0.0000 -5.5880 0.0000 40.2083
#
#
#
# Elastic Compliance Matrix: (Units=1/GPa)
#
#
# Indices 1 2 3 4 5 6 
#
# 1 0.018921 -0.010241 0.003128 0.000000 -0.001294 0.000000
# 2 -0.010241 0.018978 -0.010488 0.000000 0.000363 0.000000
# 3 0.003128 -0.010488 0.018946 0.000000 -0.003506 0.000000
# 4 0.000000 0.000000 0.000000 0.054246 0.000000 0.007539
# 5 -0.001294 0.000363 -0.003506 0.000000 0.039303 0.000000
# 6 0.000000 0.000000 0.000000 0.007539 0.000000 0.025918
#
#
# Mechanical properties :
#
#
# Convention : Reuss Voigt Hill
#
# Bulk Modulus (GPa) = 46.20319 56.43208 51.31764
# Shear Modulus (GPa) = 22.85945 27.00959 24.93452
#
# Velocity S-wave (km/s) = 3.26532 3.54937 3.41030
# Velocity P-wave (km/s) = 5.98054 6.56650 6.28036
#
# Compressibility (1/GPa) = 0.02164353
#
# Stress axis : x y z
#
# Youngs Moduli (GPa) = 52.85108 52.69382 52.78020
#
# Poissons Ratio (x) = 0.53961 -0.16509
# Poissons Ratio (y) = 0.54122 0.55357
# Poissons Ratio (z) = -0.16531 0.55266
#
# Static dielectric constant tensor:
#      x y z
#    x 3.935100 0.000000 0.046420 
#    y 0.000000 3.906320 0.000000 
#    z 0.046420 0.000000 4.079030 
# 
# 
# High freq. dielectric constant tensor:
#      x y z
#    x 1.848500 0.000000 0.004940 
#    y 0.000000 1.841820 0.000000 
#    z 0.004940 0.000000 1.845370 
# 
# From -- ./inp_files/87757.got.cif
#   From: 2010.06.25/outbox.cif.g09.slc.cpg/sg13_44_cif.got.tgz:87757.got - 2010.06.28 04:50:58.
