data_PCOD8120694
_publ_section_title
;
Structure prediction by ZEFSAII (Michael W. Deem and Ramdas Pophale) SiO2 
 PCOD8120694
Probable space group: P 2/C
;
_chemical_formula_sum "Si O2"
_cell_formula_units_Z 20
_cell_length_a 10.342778
_cell_length_b 9.086938
_cell_length_c 9.773478
_cell_angle_alpha 90.000000
_cell_angle_beta 68.038480
_cell_angle_gamma 90.000000
_cell_volume 851.897802
_symmetry_space_group_name_H-M "P 2/C"
_symmetry_group_IT_number 13
_symmetry_cell_setting 'monoclinic'
loop_
_space_group_symop_operation_xyz
x,y,z
-x,y,1/2-z
-x,-y,-z
x,-y,1/2+z
loop_
_atom_site_type_symbol
_atom_site_label
_atom_site_fract_x
_atom_site_fract_y
_atom_site_fract_z
Si Si1 0.733094 0.494308 0.788077
Si Si2 0.902445 0.967971 0.913339
Si Si3 0.656347 0.813332 0.441033
Si Si4 0.500000 0.780389 0.250000
Si Si5 0.500000 0.700750 0.750000
Si Si6 0.772676 0.665477 0.025376
O O1 0.675296 0.357826 0.897327
O O2 0.616193 0.600372 0.773170
O O3 0.835832 0.431957 0.626877
O O4 0.816208 0.592074 0.865211
O O5 0.000000 0.921516 0.750000
O O6 0.801229 0.101525 0.909339
O O7 0.813466 0.833754 0.004436
O O8 0.000000 0.000000 0.000000
O O9 0.574699 0.880157 0.339320
O O10 0.565259 0.814449 0.614095
O O11 0.607743 0.669873 0.129636
#
# Coordination Sequence:
#
# PCOD8120694 Si02
#       6
#     4   4   4   2   2   4
#     4  11  21  41  68 114 143 179 223 295 379 439
#     4  12  30  54  70  94 147 208 256 296 340 417
#     4  11  24  42  74 105 149 190 233 292 375 437
#     4  10  21  41  68 114 143 171 224 296 375 437
#     4  12  21  39  74 112 157 179 218 306 389 439
#     4  11  24  42  74 105 144 185 234 296 371 433
#
# _framework density 23.476997000000001
#
# number of rings (size 3 to 8) (size 9 to 14) (size 15 to 20)
#    0.000    0.800    4.000    5.400    2.800    1.600 
#    0.000    5.000    0.000    0.000    0.000    0.000 
#    0.000    0.000    0.000    0.000    0.000    0.000 
#
# Total GULP energy -247788.380113 kJ/mol
# GULP energy per Si atom -12389.419006 kJ/mol
# Density = 2.342356 g / cm^3
# Si number density = 23.476997 Si / 1000 Ang^3
#
#
#
# Elastic Constant Matrix: (Units=GPa)
#
#
# Indices 1 2 3 4 5 6 
#
# 1 84.9536 45.6813 58.3518 0.0000 22.7318 0.0000
# 2 45.6813 85.2973 55.0394 0.0000 6.6971 0.0000
# 3 58.3518 55.0394 172.0780 0.0000 28.8752 0.0000
# 4 0.0000 0.0000 0.0000 33.5944 0.0000 -1.4330
# 5 22.7318 6.6971 28.8752 0.0000 42.9052 0.0000
# 6 0.0000 0.0000 0.0000 -1.4330 0.0000 2.0530
#
#
#
# Elastic Compliance Matrix: (Units=1/GPa)
#
#
# Indices 1 2 3 4 5 6 
#
# 1 0.020303 -0.008383 -0.002951 0.000000 -0.007462 0.000000
# 2 -0.008383 0.018271 -0.003684 0.000000 0.004069 0.000000
# 3 -0.002951 -0.003684 0.008603 0.000000 -0.003651 0.000000
# 4 0.000000 0.000000 0.000000 0.030680 0.000000 0.021415
# 5 -0.007462 0.004069 -0.003651 0.000000 0.029083 0.000000
# 6 0.000000 0.000000 0.000000 0.021415 0.000000 0.502040
#
#
# Mechanical properties :
#
#
# Convention : Reuss Voigt Hill
#
# Bulk Modulus (GPa) = 58.34241 73.38600 65.86421
# Shear Modulus (GPa) = 7.75519 27.92762 17.84140
#
# Velocity S-wave (km/s) = 1.81947 3.45276 2.75971
# Velocity P-wave (km/s) = 5.41468 6.87182 6.18631
#
# Compressibility (1/GPa) = 0.01714019
#
# Stress axis : x y z
#
# Youngs Moduli (GPa) = 49.25498 54.73168 116.23688
#
# Poissons Ratio (x) = 0.45881 0.34304
# Poissons Ratio (y) = 0.41290 0.42823
# Poissons Ratio (z) = 0.14536 0.20164
#
# Static dielectric constant tensor:
#      x y z
#    x 3.869800 0.000000 0.669820 
#    y 0.000000 21.190500 0.000000 
#    z 0.669820 0.000000 4.775340 
# 
# 
# High freq. dielectric constant tensor:
#      x y z
#    x 1.897040 0.000000 0.017020 
#    y 0.000000 1.925320 0.000000 
#    z 0.017020 0.000000 1.963120 
# 
# From -- ./inp_files/14887.got.cif
#   From: 2010.06.25/outbox.cif.g09.slc.cpg/sg13_8_cif.got.tgz:14887.got - 2010.06.28 04:50:58.
