data_PCOD8120128
_publ_section_title
;
Structure prediction by ZEFSAII (Michael W. Deem and Ramdas Pophale) SiO2 
 PCOD8120128
Probable space group: P 2/C
;
_chemical_formula_sum "Si O2"
_cell_formula_units_Z 30
_cell_length_a 12.331714
_cell_length_b 5.290815
_cell_length_c 22.529772
_cell_angle_alpha 90.000000
_cell_angle_beta 93.752572
_cell_angle_gamma 90.000000
_cell_volume 1466.799266
_symmetry_space_group_name_H-M "P 2/C"
_symmetry_group_IT_number 13
_symmetry_cell_setting 'monoclinic'
loop_
_space_group_symop_operation_xyz
x,y,z
-x,y,1/2-z
-x,-y,-z
x,-y,1/2+z
loop_
_atom_site_type_symbol
_atom_site_label
_atom_site_fract_x
_atom_site_fract_y
_atom_site_fract_z
Si Si1 0.000000 0.209961 0.250000
Si Si2 0.858431 0.748206 0.485832
Si Si3 0.652963 0.250996 0.211141
Si Si4 0.908245 0.754763 0.055744
Si Si5 0.414912 0.335826 0.162891
Si Si6 0.803814 0.873410 0.270840
Si Si7 0.147755 0.516264 0.325715
Si Si8 0.686181 0.176702 0.882811
O O1 0.956288 0.338888 0.187354
O O2 0.898992 0.075447 0.277103
O O3 0.855768 0.474600 0.516634
O O4 0.746008 0.788247 0.447449
O O5 0.961501 0.758211 0.445518
O O6 0.863639 0.971948 0.534660
O O7 0.538454 0.244183 0.174081
O O8 0.640349 0.390590 0.274749
O O9 0.735564 0.376922 0.166678
O O10 0.697218 0.972917 0.230495
O O11 0.871870 0.713712 0.122258
O O12 0.404403 0.600089 0.126599
O O13 0.360581 0.106581 0.124309
O O14 0.853612 0.640684 0.238760
O O15 0.775873 0.784270 0.335532
#
# Coordination Sequence:
#
# PCOD8120128 Si02
#       8
#     2   4   4   4   4   4   4   4
#     4  10  24  34  54  94 130 154 192 236 316 368
#     4  10  23  42  59  88 113 164 205 247 286 353
#     4   9  21  36  57  89 126 151 203 231 316 364
#     4  10  24  40  63  83 120 159 206 240 293 353
#     4  10  21  37  61  91 121 159 190 256 297 368
#     4  10  22  36  56  94 121 163 189 248 306 373
#     4  11  22  38  60  89 122 162 193 247 301 368
#     4  11  22  38  64  86 123 153 207 249 301 347
#
# _framework density 20.452697000000001
#
# number of rings (size 3 to 8) (size 9 to 14) (size 15 to 20)
#    0.000    1.867    1.333    1.200    9.333    3.200 
#    0.000    0.000    0.000    4.800    0.000    0.000 
#    0.000    0.000    0.000    0.000    0.000    0.000 
#
# Total GULP energy -371759.634007 kJ/mol
# GULP energy per Si atom -12391.987800 kJ/mol
# Density = 2.040615 g / cm^3
# Si number density = 20.452697 Si / 1000 Ang^3
#
#
#
# Elastic Constant Matrix: (Units=GPa)
#
#
# Indices 1 2 3 4 5 6 
#
# 1 92.7087 9.9576 20.8172 0.0000 18.5931 0.0000
# 2 9.9576 75.5439 0.4847 0.0000 8.3152 0.0000
# 3 20.8172 0.4847 38.2809 0.0000 8.3720 0.0000
# 4 0.0000 0.0000 0.0000 25.2571 0.0000 -8.2449
# 5 18.5931 8.3152 8.3720 0.0000 29.8527 0.0000
# 6 0.0000 0.0000 0.0000 -8.2449 0.0000 19.3020
#
#
#
# Elastic Compliance Matrix: (Units=1/GPa)
#
#
# Indices 1 2 3 4 5 6 
#
# 1 0.013527 -0.001032 -0.005927 0.000000 -0.006475 0.000000
# 2 -0.001032 0.013753 0.001155 0.000000 -0.003512 0.000000
# 3 -0.005927 0.001155 0.030462 0.000000 -0.005173 0.000000
# 4 0.000000 0.000000 0.000000 0.046008 0.000000 0.019653
# 5 -0.006475 -0.003512 -0.005173 0.000000 0.039960 0.000000
# 6 0.000000 0.000000 0.000000 0.019653 0.000000 0.060203
#
#
# Mechanical properties :
#
#
# Convention : Reuss Voigt Hill
#
# Bulk Modulus (GPa) = 21.67584 29.89471 25.78527
# Shear Modulus (GPa) = 21.65458 26.56730 24.11094
#
# Velocity S-wave (km/s) = 3.25740 3.60802 3.43718
# Velocity P-wave (km/s) = 4.97680 5.65733 5.32794
#
# Compressibility (1/GPa) = 0.04613432
#
# Stress axis : x y z
#
# Youngs Moduli (GPa) = 73.92737 72.71395 32.82733
#
# Poissons Ratio (x) = 0.07506 0.19456
# Poissons Ratio (y) = 0.07631 -0.03792
# Poissons Ratio (z) = 0.43814 -0.08400
#
# Static dielectric constant tensor:
#      x y z
#    x 3.523490 0.000000 0.208670 
#    y 0.000000 3.876000 0.000000 
#    z 0.208670 0.000000 3.219980 
# 
# 
# High freq. dielectric constant tensor:
#      x y z
#    x 1.797100 0.000000 0.010490 
#    y 0.000000 1.811630 0.000000 
#    z 0.010490 0.000000 1.769140 
# 
# From -- ./inp_files/77263.got.cif
#   From: 2010.06.25/outbox.cif.g09.slc.cpg/sg13_39_cif.got.tgz:77263.got - 2010.06.28 04:50:58.
