data_PCOD8120326
_publ_section_title
;
Structure prediction by ZEFSAII (Michael W. Deem and Ramdas Pophale) SiO2 
 PCOD8120326
Probable space group: P 2/C
;
_chemical_formula_sum "Si O2"
_cell_formula_units_Z 20
_cell_length_a 8.547600
_cell_length_b 5.167592
_cell_length_c 22.545121
_cell_angle_alpha 90.000000
_cell_angle_beta 70.326709
_cell_angle_gamma 90.000000
_cell_volume 937.700505
_symmetry_space_group_name_H-M "P 2/C"
_symmetry_group_IT_number 13
_symmetry_cell_setting 'monoclinic'
loop_
_space_group_symop_operation_xyz
x,y,z
-x,y,1/2-z
-x,-y,-z
x,-y,1/2+z
loop_
_atom_site_type_symbol
_atom_site_label
_atom_site_fract_x
_atom_site_fract_y
_atom_site_fract_z
Si Si1 0.300581 0.117719 0.858058
Si Si2 0.993724 0.820861 0.319410
Si Si3 0.809930 0.322320 0.384120
Si Si4 0.450573 0.391770 0.377707
Si Si5 0.177939 0.627402 0.482917
O O1 0.424699 0.363269 0.837035
O O2 0.192517 0.139199 0.933025
O O3 0.177607 0.106804 0.818074
O O4 0.413126 0.863184 0.844507
O O5 0.932383 0.566485 0.362005
O O6 0.000000 0.748845 0.250000
O O7 0.875737 0.066669 0.343689
O O8 0.635580 0.395627 0.378028
O O9 0.791075 0.258346 0.455895
O O10 0.321407 0.415793 0.449405
O O11 0.000000 0.500000 0.500000
#
# Coordination Sequence:
#
# PCOD8120326 Si02
#       5
#     4   4   4   4   4
#     4  10  22  41  64  90 132 160 213 245 321 374
#     4  12  26  45  65  89 123 174 222 258 300 376
#     4  12  24  41  67  96 129 160 212 263 321 363
#     4  10  23  39  63 102 129 160 198 263 326 378
#     4  10  21  38  68  97 129 165 202 255 320 391
#
# _framework density 21.328771
#
# number of rings (size 3 to 8) (size 9 to 14) (size 15 to 20)
#    1.200    0.000    2.000    4.800    2.800    2.400 
#    0.000    6.000    0.000    0.000    0.000    0.000 
#    0.000    0.000    0.000    0.000    0.000    0.000 
#
# Total GULP energy -247987.526179 kJ/mol
# GULP energy per Si atom -12399.376309 kJ/mol
# Density = 2.128023 g / cm^3
# Si number density = 21.328771 Si / 1000 Ang^3
#
#
#
# Elastic Constant Matrix: (Units=GPa)
#
#
# Indices 1 2 3 4 5 6 
#
# 1 92.9552 2.9279 20.6243 0.0000 26.6197 0.0000
# 2 2.9279 115.8103 14.6041 0.0000 1.3732 0.0000
# 3 20.6243 14.6041 55.5713 0.0000 28.5145 0.0000
# 4 0.0000 0.0000 0.0000 14.0809 0.0000 4.2328
# 5 26.6197 1.3732 28.5145 0.0000 27.1733 0.0000
# 6 0.0000 0.0000 0.0000 4.2328 0.0000 36.8362
#
#
#
# Elastic Compliance Matrix: (Units=1/GPa)
#
#
# Indices 1 2 3 4 5 6 
#
# 1 0.015496 -0.000758 0.004805 0.000000 -0.020184 0.000000
# 2 -0.000758 0.009213 -0.004944 0.000000 0.005465 0.000000
# 3 0.004805 -0.004944 0.042894 0.000000 -0.049468 0.000000
# 4 0.000000 0.000000 0.000000 0.073559 0.000000 -0.008453
# 5 -0.020184 0.005465 -0.049468 0.000000 0.108207 0.000000
# 6 0.000000 0.000000 0.000000 -0.008453 0.000000 0.028119
#
#
# Mechanical properties :
#
#
# Convention : Reuss Voigt Hill
#
# Bulk Modulus (GPa) = 15.19582 37.84992 26.52287
# Shear Modulus (GPa) = 16.59929 30.69678 23.64803
#
# Velocity S-wave (km/s) = 2.79275 3.79782 3.33339
# Velocity P-wave (km/s) = 4.18800 6.08405 5.22279
#
# Compressibility (1/GPa) = 0.06580758
#
# Stress axis : x y z
#
# Youngs Moduli (GPa) = 64.53374 108.54651 23.31339
#
# Poissons Ratio (x) = 0.08232 -0.11202
# Poissons Ratio (y) = 0.04894 0.11526
# Poissons Ratio (z) = -0.31009 0.53665
#
# Static dielectric constant tensor:
#      x y z
#    x 3.835840 0.000000 0.128290 
#    y 0.000000 3.798180 0.000000 
#    z 0.128290 0.000000 3.736940 
# 
# 
# High freq. dielectric constant tensor:
#      x y z
#    x 1.847940 0.000000 0.008890 
#    y 0.000000 1.840690 0.000000 
#    z 0.008890 0.000000 1.816380 
# 
# From -- ./inp_files/74449.got.cif
#   From: 2010.06.25/outbox.cif.g09.slc.cpg/sg13_38_cif.got.tgz:74449.got - 2010.06.28 04:50:58.
