data_PCOD8120068
_publ_section_title
;
Structure prediction by ZEFSAII (Michael W. Deem and Ramdas Pophale) SiO2 
 PCOD8120068
Probable space group: P 2/C
;
_chemical_formula_sum "Si O2"
_cell_formula_units_Z 24
_cell_length_a 12.516541
_cell_length_b 10.421362
_cell_length_c 8.935471
_cell_angle_alpha 90.000000
_cell_angle_beta 94.507574
_cell_angle_gamma 90.000000
_cell_volume 1161.932457
_symmetry_space_group_name_H-M "P 2/C"
_symmetry_group_IT_number 13
_symmetry_cell_setting 'monoclinic'
loop_
_space_group_symop_operation_xyz
x,y,z
-x,y,1/2-z
-x,-y,-z
x,-y,1/2+z
loop_
_atom_site_type_symbol
_atom_site_label
_atom_site_fract_x
_atom_site_fract_y
_atom_site_fract_z
Si Si1 0.459556 0.375670 0.915603
Si Si2 0.209755 0.626835 0.392036
Si Si3 0.123288 0.116106 0.235290
Si Si4 0.543253 0.122652 0.423338
Si Si5 0.782852 0.096214 0.557591
Si Si6 0.882091 0.403879 0.297516
O O1 0.500000 0.372411 0.750000
O O2 0.334543 0.383950 0.935118
O O3 0.500000 0.500000 0.000000
O O4 0.504430 0.248190 0.000551
O O5 0.190643 0.775693 0.340969
O O6 0.188275 0.523915 0.261559
O O7 0.133052 0.597008 0.525458
O O8 0.154213 0.265179 0.272072
O O9 0.000000 0.085022 0.250000
O O10 0.206898 0.028778 0.337636
O O11 0.130001 0.083154 0.061950
O O12 0.500000 0.123558 0.250000
O O13 0.671293 0.113374 0.455779
O O14 0.500000 0.000000 0.500000
O O15 0.000000 0.432601 0.250000
#
# Coordination Sequence:
#
# PCOD8120068 Si02
#       6
#     4   4   4   4   4   4
#     4  11  23  39  60  87 119 158 202 249 302 358
#     4  10  22  38  56  85 116 147 193 239 285 348
#     4  10  21  37  58  85 117 152 190 234 288 349
#     4  11  23  40  61  86 118 157 202 254 304 358
#     4  10  22  38  57  85 116 149 194 239 289 349
#     4  10  21  38  60  86 116 151 190 235 290 350
#
# _framework density 20.655245000000001
#
# number of rings (size 3 to 8) (size 9 to 14) (size 15 to 20)
#    0.000    1.667    0.000    4.000    0.000    7.333 
#    0.000    0.000    0.000    0.000    0.000    0.000 
#    0.000    0.000    0.000    0.000    0.000    0.000 
#
# Total GULP energy -297392.249441 kJ/mol
# GULP energy per Si atom -12391.343727 kJ/mol
# Density = 2.060823 g / cm^3
# Si number density = 20.655245 Si / 1000 Ang^3
#
#
#
# Elastic Constant Matrix: (Units=GPa)
#
#
# Indices 1 2 3 4 5 6 
#
# 1 51.7579 23.5610 15.5385 0.0000 -9.7442 0.0000
# 2 23.5610 172.0099 61.8647 0.0000 17.6316 0.0000
# 3 15.5385 61.8647 94.0120 0.0000 1.1011 0.0000
# 4 0.0000 0.0000 0.0000 39.4463 0.0000 -4.6970
# 5 -9.7442 17.6316 1.1011 0.0000 37.0960 0.0000
# 6 0.0000 0.0000 0.0000 -4.6970 0.0000 -82.0460
#
#
#
# Elastic Compliance Matrix: (Units=1/GPa)
#
#
# Indices 1 2 3 4 5 6 
#
# 1 0.022752 -0.003288 -0.001686 0.000000 0.007589 0.000000
# 2 -0.003288 0.008566 -0.005038 0.000000 -0.004786 0.000000
# 3 -0.001686 -0.005038 0.014213 0.000000 0.001530 0.000000
# 4 0.000000 0.000000 0.000000 0.025179 0.000000 -0.001441
# 5 0.007589 -0.004786 0.001530 0.000000 0.031180 0.000000
# 6 0.000000 0.000000 0.000000 -0.001441 0.000000 -0.012106
#
#
# Mechanical properties :
#
#
# Convention : Reuss Voigt Hill
#
# Bulk Modulus (GPa) = 39.20251 57.74533 48.47392
# Shear Modulus (GPa) = 42.26166 13.35363 27.80765
#
# Velocity S-wave (km/s) = 4.52824 2.54540 3.67314
# Velocity P-wave (km/s) = 6.80886 6.05443 6.44270
#
# Compressibility (1/GPa) = 0.02550857
#
# Stress axis : x y z
#
# Youngs Moduli (GPa) = 43.95139 116.73541 70.35997
#
# Poissons Ratio (x) = 0.38385 0.11860
# Poissons Ratio (y) = 0.14452 0.35444
# Poissons Ratio (z) = 0.07409 0.58807
#
# Static dielectric constant tensor:
#      x y z
#    x 2.711030 0.000000 -0.392440 
#    y 0.000000 3.906460 0.000000 
#    z -0.392440 0.000000 3.402440 
# 
# 
# High freq. dielectric constant tensor:
#      x y z
#    x 1.811300 0.000000 -0.022760 
#    y 0.000000 1.834920 0.000000 
#    z -0.022760 0.000000 1.796280 
# 
# From -- ./inp_files/18128.got.cif
#   From: 2010.06.25/outbox.cif.g09.slc.cpg/sg13_10_cif.got.tgz:18128.got - 2010.06.28 04:50:58.
