data_PCOD8120103
_publ_section_title
;
Structure prediction by ZEFSAII (Michael W. Deem and Ramdas Pophale) SiO2 
 PCOD8120103
Probable space group: P 2/C
;
_chemical_formula_sum "Si O2"
_cell_formula_units_Z 24
_cell_length_a 15.230593
_cell_length_b 9.315155
_cell_length_c 8.410123
_cell_angle_alpha 90.000000
_cell_angle_beta 88.155210
_cell_angle_gamma 90.000000
_cell_volume 1192.570584
_symmetry_space_group_name_H-M "P 2/C"
_symmetry_group_IT_number 13
_symmetry_cell_setting 'monoclinic'
loop_
_space_group_symop_operation_xyz
x,y,z
-x,y,1/2-z
-x,-y,-z
x,-y,1/2+z
loop_
_atom_site_type_symbol
_atom_site_label
_atom_site_fract_x
_atom_site_fract_y
_atom_site_fract_z
Si Si1 0.754520 0.813347 0.199663
Si Si2 0.754520 0.875658 0.829942
Si Si3 0.406971 0.684813 0.699579
Si Si4 0.592640 0.621932 0.168995
Si Si5 0.904698 0.619008 0.328619
Si Si6 0.095247 0.315705 0.301154
O O1 0.667357 0.721866 0.240400
O O2 0.839417 0.726903 0.247547
O O3 0.747731 0.955741 0.304147
O O4 0.765000 0.848279 0.014851
O O5 0.666913 0.803131 0.764824
O O6 0.837736 0.813415 0.731256
O O7 0.500000 0.750512 0.750000
O O8 0.413461 0.640321 0.517456
O O9 0.383440 0.543561 0.801765
O O10 0.500000 0.666331 0.250000
O O11 0.874169 0.455265 0.300317
O O12 0.907574 0.643970 0.514982
O O13 0.000000 0.645539 0.250000
O O14 0.000000 0.262266 0.250000
#
# Coordination Sequence:
#
# PCOD8120103 Si02
#       6
#     4   4   4   4   4   4
#     4  11  24  40  58  85 118 155 194 237 289 345
#     4  11  24  40  58  85 118 155 194 237 289 345
#     4  10  21  37  60  86 114 148 191 238 286 339
#     4  10  21  37  60  86 114 148 191 238 286 339
#     4  11  22  39  63  89 117 151 192 239 286 340
#     4  11  22  39  63  89 117 151 192 239 286 340
#
# _framework density 20.124596
#
# number of rings (size 3 to 8) (size 9 to 14) (size 15 to 20)
#    0.000    1.333    0.000    8.000    0.000    9.333 
#    0.000    6.667    0.000    0.000    0.000    0.000 
#    0.000    0.000    0.000    0.000    0.000    0.000 
#
# Total GULP energy -297748.800976 kJ/mol
# GULP energy per Si atom -12406.200041 kJ/mol
# Density = 2.007879 g / cm^3
# Si number density = 20.124596 Si / 1000 Ang^3
#
#
#
# Elastic Constant Matrix: (Units=GPa)
#
#
# Indices 1 2 3 4 5 6 
#
# 1 124.4109 64.9887 18.7621 0.0000 15.1685 0.0000
# 2 64.9887 83.8482 -13.9877 0.0000 5.7660 0.0000
# 3 18.7621 -13.9877 47.7805 0.0000 9.7089 0.0000
# 4 0.0000 0.0000 0.0000 29.3561 0.0000 3.1426
# 5 15.1685 5.7660 9.7089 0.0000 32.9012 0.0000
# 6 0.0000 0.0000 0.0000 3.1426 0.0000 14.1338
#
#
#
# Elastic Compliance Matrix: (Units=1/GPa)
#
#
# Indices 1 2 3 4 5 6 
#
# 1 0.018420 -0.016030 -0.011458 0.000000 -0.002302 0.000000
# 2 -0.016030 0.026878 0.014487 0.000000 -0.001595 0.000000
# 3 -0.011458 0.014487 0.030969 0.000000 -0.006395 0.000000
# 4 0.000000 0.000000 0.000000 0.034895 0.000000 -0.007759
# 5 -0.002302 -0.001595 -0.006395 0.000000 0.033622 0.000000
# 6 0.000000 0.000000 0.000000 -0.007759 0.000000 0.072478
#
#
# Mechanical properties :
#
#
# Convention : Reuss Voigt Hill
#
# Bulk Modulus (GPa) = 19.89508 43.95175 31.92341
# Shear Modulus (GPa) = 19.22936 27.69665 23.46300
#
# Velocity S-wave (km/s) = 3.09449 3.71382 3.41821
# Velocity P-wave (km/s) = 4.76186 6.34643 5.61037
#
# Compressibility (1/GPa) = 0.05026368
#
# Stress axis : x y z
#
# Youngs Moduli (GPa) = 54.28789 37.20582 32.29041
#
# Poissons Ratio (x) = 0.59642 0.36999
# Poissons Ratio (y) = 0.87025 -0.46780
# Poissons Ratio (z) = 0.62205 -0.53901
#
# Static dielectric constant tensor:
#      x y z
#    x 3.950920 0.000000 0.127060 
#    y 0.000000 3.839800 0.000000 
#    z 0.127060 0.000000 3.731160 
# 
# 
# High freq. dielectric constant tensor:
#      x y z
#    x 1.802440 0.000000 0.007810 
#    y 0.000000 1.779840 0.000000 
#    z 0.007810 0.000000 1.801890 
# 
# From -- ./inp_files/18047.got.cif
#   From: 2010.06.25/outbox.cif.g09.slc.cpg/sg13_10_cif.got.tgz:18047.got - 2010.06.28 04:50:58.
