data_PCOD8120931
_publ_section_title
;
Structure prediction by ZEFSAII (Michael W. Deem and Ramdas Pophale) SiO2 
 PCOD8120931
Probable space group: P 2/C
;
_chemical_formula_sum "Si O2"
_cell_formula_units_Z 26
_cell_length_a 11.296869
_cell_length_b 9.387201
_cell_length_c 18.453536
_cell_angle_alpha 90.000000
_cell_angle_beta 141.977511
_cell_angle_gamma 90.000000
_cell_volume 1205.407475
_symmetry_space_group_name_H-M "P 2/C"
_symmetry_group_IT_number 13
_symmetry_cell_setting 'monoclinic'
loop_
_space_group_symop_operation_xyz
x,y,z
-x,y,1/2-z
-x,-y,-z
x,-y,1/2+z
loop_
_atom_site_type_symbol
_atom_site_label
_atom_site_fract_x
_atom_site_fract_y
_atom_site_fract_z
Si Si1 0.977112 0.028041 0.154169
Si Si2 0.702813 0.754906 0.689503
Si Si3 0.779782 0.222806 0.758236
Si Si4 0.540309 0.014387 0.936036
Si Si5 0.332211 0.579115 0.961003
Si Si6 0.000000 0.397716 0.750000
Si Si7 0.580885 0.473627 0.711976
O O1 0.000000 0.986425 0.250000
O O2 0.090696 0.174155 0.192874
O O3 0.760768 0.041404 0.022975
O O4 0.064252 0.898181 0.147423
O O5 0.698436 0.726768 0.599343
O O6 0.682534 0.608833 0.723570
O O7 0.534868 0.863876 0.633347
O O8 0.574704 0.148509 0.648801
O O9 0.741437 0.347652 0.798989
O O10 0.846660 0.301823 0.717758
O O11 0.500000 0.000000 0.000000
O O12 0.129323 0.495248 0.865370
O O13 0.500000 0.500000 0.000000
O O14 0.407094 0.592033 0.079465
O O15 0.500000 0.521489 0.750000
#
# Coordination Sequence:
#
# PCOD8120931 Si02
#       7
#     4   4   4   4   4   2   4
#     4  11  22  32  63  98 134 158 203 284 333 390
#     4  10  22  39  63  99 125 166 221 272 331 387
#     4  11  22  38  62  98 129 165 211 271 331 389
#     4  11  20  36  60  97 132 159 207 267 348 387
#     4  10  22  36  65  95 125 163 215 271 327 375
#     4  12  20  36  64 102 126 154 210 280 334 380
#     4  11  25  45  65  91 137 186 220 265 325 394
#
# _framework density 21.569469999999999
#
# number of rings (size 3 to 8) (size 9 to 14) (size 15 to 20)
#    0.000    1.231    6.923    0.923    7.538    0.000 
#    0.000    3.846    0.000    1.846    0.000    0.000 
#    0.000    0.000    0.000    0.000    0.000    0.000 
#
# Total GULP energy -322167.028260 kJ/mol
# GULP energy per Si atom -12391.039548 kJ/mol
# Density = 2.152038 g / cm^3
# Si number density = 21.569470 Si / 1000 Ang^3
#
#
#
# Elastic Constant Matrix: (Units=GPa)
#
#
# Indices 1 2 3 4 5 6 
#
# 1 82.1120 50.5476 49.7821 0.0000 16.0880 0.0000
# 2 50.5476 154.0560 46.6359 0.0000 23.5300 0.0000
# 3 49.7821 46.6359 97.5465 0.0000 40.9708 0.0000
# 4 0.0000 0.0000 0.0000 10.7242 0.0000 6.1253
# 5 16.0880 23.5300 40.9708 0.0000 44.0029 0.0000
# 6 0.0000 0.0000 0.0000 6.1253 0.0000 20.5352
#
#
#
# Elastic Compliance Matrix: (Units=1/GPa)
#
#
# Indices 1 2 3 4 5 6 
#
# 1 0.019963 -0.004178 -0.009957 0.000000 0.004207 0.000000
# 2 -0.004178 0.008498 -0.001089 0.000000 -0.002002 0.000000
# 3 -0.009957 -0.001089 0.023123 0.000000 -0.017307 0.000000
# 4 0.000000 0.000000 0.000000 0.112395 0.000000 -0.033526
# 5 0.004207 -0.002002 -0.017307 0.000000 0.038372 0.000000
# 6 0.000000 0.000000 0.000000 -0.033526 0.000000 0.058697
#
#
# Mechanical properties :
#
#
# Convention : Reuss Voigt Hill
#
# Bulk Modulus (GPa) = 47.31757 69.73840 58.52798
# Shear Modulus (GPa) = 16.74796 27.50240 22.12518
#
# Velocity S-wave (km/s) = 2.78954 3.57467 3.20623
# Velocity P-wave (km/s) = 5.68861 7.03135 6.39532
#
# Compressibility (1/GPa) = 0.02113380
#
# Stress axis : x y z
#
# Youngs Moduli (GPa) = 50.09187 117.67906 43.24704
#
# Poissons Ratio (x) = 0.49171 0.43063
# Poissons Ratio (y) = 0.20931 0.04711
# Poissons Ratio (z) = 0.49878 0.12819
#
# Static dielectric constant tensor:
#      x y z
#    x 3.824880 0.000000 0.532380 
#    y 0.000000 4.457810 0.000000 
#    z 0.532380 0.000000 4.073680 
# 
# 
# High freq. dielectric constant tensor:
#      x y z
#    x 1.804130 0.000000 0.049940 
#    y 0.000000 1.880680 0.000000 
#    z 0.049940 0.000000 1.816110 
# 
# From -- ./inp_files/78353.got.cif
#   From: 2010.06.25/outbox.cif.g09.slc.cpg/sg13_40_cif.got.tgz:78353.got - 2010.06.28 04:50:58.
