data_PCOD8120417
_publ_section_title
;
Structure prediction by ZEFSAII (Michael W. Deem and Ramdas Pophale) SiO2 
 PCOD8120417
Probable space group: P 2/C
;
_chemical_formula_sum "Si O2"
_cell_formula_units_Z 20
_cell_length_a 7.501742
_cell_length_b 24.641203
_cell_length_c 5.093288
_cell_angle_alpha 90.000000
_cell_angle_beta 88.568758
_cell_angle_gamma 90.000000
_cell_volume 941.210474
_symmetry_space_group_name_H-M "P 2/C"
_symmetry_group_IT_number 13
_symmetry_cell_setting 'monoclinic'
loop_
_space_group_symop_operation_xyz
x,y,z
-x,y,1/2-z
-x,-y,-z
x,-y,1/2+z
loop_
_atom_site_type_symbol
_atom_site_label
_atom_site_fract_x
_atom_site_fract_y
_atom_site_fract_z
Si Si1 0.500000 0.304957 0.250000
Si Si2 0.204303 0.535005 0.258655
Si Si3 0.804507 0.781266 0.686493
Si Si4 0.287706 0.031732 0.758858
Si Si5 0.290813 0.154077 0.805797
Si Si6 0.500000 0.377676 0.750000
O O1 0.327433 0.269268 0.317188
O O2 0.543913 0.341143 0.498965
O O3 0.246525 0.511414 0.544021
O O4 0.327093 0.586313 0.196092
O O5 0.000000 0.554522 0.250000
O O6 0.812205 0.809074 0.400875
O O7 0.000000 0.758982 0.750000
O O8 0.742292 0.825787 0.898828
O O9 0.500000 0.032185 0.750000
O O10 0.216726 0.093022 0.784885
O O11 0.212567 0.004496 0.498732
O O12 0.500000 0.157626 0.750000
#
# Coordination Sequence:
#
# PCOD8120417 Si02
#       6
#     2   4   4   4   4   2
#     4  12  26  43  62  92 124 165 212 268 318 364
#     4  10  21  39  64  95 131 169 208 248 298 364
#     4  12  25  43  65  89 122 164 214 265 319 377
#     4   9  17  29  52  89 120 150 193 243 309 381
#     4  11  20  39  66  88 122 161 207 261 309 382
#     4  12  24  39  66  92 128 165 210 260 312 362
#
# _framework density 21.249231000000002
#
# number of rings (size 3 to 8) (size 9 to 14) (size 15 to 20)
#    0.000    1.200    2.000    4.800    0.000    4.800 
#    0.000    0.000    0.000   12.000    0.000    0.000 
#    0.000    0.000    0.000    0.000    0.000    0.000 
#
# Total GULP energy -248128.930455 kJ/mol
# GULP energy per Si atom -12406.446523 kJ/mol
# Density = 2.120087 g / cm^3
# Si number density = 21.249231 Si / 1000 Ang^3
#
#
#
# Elastic Constant Matrix: (Units=GPa)
#
#
# Indices 1 2 3 4 5 6 
#
# 1 79.1139 33.6922 0.7623 0.0000 11.4749 0.0000
# 2 33.6922 117.4019 30.3730 0.0000 3.8566 0.0000
# 3 0.7623 30.3730 110.3968 0.0000 -3.8858 0.0000
# 4 0.0000 0.0000 0.0000 26.1048 0.0000 6.9963
# 5 11.4749 3.8566 -3.8858 0.0000 26.2639 0.0000
# 6 0.0000 0.0000 0.0000 6.9963 0.0000 -8.2961
#
#
#
# Elastic Compliance Matrix: (Units=1/GPa)
#
#
# Indices 1 2 3 4 5 6 
#
# 1 0.015390 -0.004458 0.000911 0.000000 -0.005935 0.000000
# 2 -0.004458 0.010540 -0.002870 0.000000 -0.000025 0.000000
# 3 0.000911 -0.002870 0.009894 0.000000 0.001487 0.000000
# 4 0.000000 0.000000 0.000000 0.031245 0.000000 0.026350
# 5 -0.005935 -0.000025 0.001487 0.000000 0.040892 0.000000
# 6 0.000000 0.000000 0.000000 0.026350 0.000000 -0.098317
#
#
# Mechanical properties :
#
#
# Convention : Reuss Voigt Hill
#
# Bulk Modulus (GPa) = 43.49356 48.50749 46.00053
# Shear Modulus (GPa) = 165.88676 24.95354 95.42015
#
# Velocity S-wave (km/s) = 8.84515 3.43056 6.70841
# Velocity P-wave (km/s) = 11.17266 6.21040 9.03873
#
# Compressibility (1/GPa) = 0.02299191
#
# Stress axis : x y z
#
# Youngs Moduli (GPa) = 64.97579 94.87405 101.07244
#
# Poissons Ratio (x) = 0.42290 -0.09210
# Poissons Ratio (y) = 0.28963 0.29008
# Poissons Ratio (z) = -0.05921 0.27229
#
# Static dielectric constant tensor:
#      x y z
#    x 3.845880 0.000000 -0.115390 
#    y 0.000000 3.819080 0.000000 
#    z -0.115390 0.000000 4.145390 
# 
# 
# High freq. dielectric constant tensor:
#      x y z
#    x 1.832160 0.000000 -0.001880 
#    y 0.000000 1.829530 0.000000 
#    z -0.001880 0.000000 1.852010 
# 
# From -- ./inp_files/1862.got.cif
#   From: 2010.06.25/outbox.cif.g09.slc.cpg/sg13_1_cif.got.tgz:1862.got - 2010.06.28 04:50:58.
