data_PCOD8120749
_publ_section_title
;
Structure prediction by ZEFSAII (Michael W. Deem and Ramdas Pophale) SiO2 
 PCOD8120749
Probable space group: P 2/C
;
_chemical_formula_sum "Si O2"
_cell_formula_units_Z 28
_cell_length_a 14.249216
_cell_length_b 12.456642
_cell_length_c 8.986682
_cell_angle_alpha 90.000000
_cell_angle_beta 61.896909
_cell_angle_gamma 90.000000
_cell_volume 1407.051085
_symmetry_space_group_name_H-M "P 2/C"
_symmetry_group_IT_number 13
_symmetry_cell_setting 'monoclinic'
loop_
_space_group_symop_operation_xyz
x,y,z
-x,y,1/2-z
-x,-y,-z
x,-y,1/2+z
loop_
_atom_site_type_symbol
_atom_site_label
_atom_site_fract_x
_atom_site_fract_y
_atom_site_fract_z
Si Si1 0.292404 0.388044 0.574774
Si Si2 0.920831 0.004240 0.690750
Si Si3 0.231798 0.186262 0.787008
Si Si4 0.467707 0.102227 0.616260
Si Si5 0.487248 0.665135 0.436917
Si Si6 0.876739 0.231888 0.322716
Si Si7 0.267937 0.399162 0.237392
O O1 0.231078 0.280095 0.665796
O O2 0.414187 0.382601 0.543022
O O3 0.284579 0.398973 0.402365
O O4 0.230003 0.484733 0.705029
O O5 0.827947 0.086298 0.735713
O O6 0.000000 0.053521 0.750000
O O7 0.870717 0.888921 0.765933
O O8 0.000000 0.000000 0.500000
O O9 0.346965 0.137894 0.723150
O O10 0.183552 0.234107 0.974717
O O11 0.500000 0.059979 0.750000
O O12 0.530006 0.208351 0.515734
O O13 0.500000 0.000000 0.500000
O O14 0.500000 0.644888 0.250000
O O15 0.380709 0.610861 0.571821
O O16 0.817550 0.310028 0.250293
O O17 0.000000 0.267880 0.250000
#
# Coordination Sequence:
#
# PCOD8120749 Si02
#       7
#     4   4   4   4   4   4   4
#     4  11  25  42  65 101 125 171 215 265 325 398
#     4  11  23  42  68  96 126 169 219 270 326 386
#     4  11  24  42  65  90 134 168 216 266 328 382
#     4  10  23  37  55  89 129 168 206 252 314 379
#     4  10  21  42  65  92 130 172 215 264 316 390
#     4  11  24  44  66  96 128 169 222 272 324 386
#     4  12  24  42  69  92 132 169 219 269 329 378
#
# _framework density 19.899775999999999
#
# number of rings (size 3 to 8) (size 9 to 14) (size 15 to 20)
#    0.000    1.143    2.857    5.143    6.000    2.286 
#    0.000    3.571    0.000    0.000    0.000    0.000 
#    0.000    0.000    0.000    0.000    0.000    0.000 
#
# Total GULP energy -346984.031766 kJ/mol
# GULP energy per Si atom -12392.286849 kJ/mol
# Density = 1.985448 g / cm^3
# Si number density = 19.899776 Si / 1000 Ang^3
#
#
#
# Elastic Constant Matrix: (Units=GPa)
#
#
# Indices 1 2 3 4 5 6 
#
# 1 80.8292 53.8849 52.3623 0.0000 27.3409 0.0000
# 2 53.8849 120.9177 53.5399 0.0000 11.5216 0.0000
# 3 52.3623 53.5399 143.7506 0.0000 17.0785 0.0000
# 4 0.0000 0.0000 0.0000 44.7953 0.0000 1.3690
# 5 27.3409 11.5216 17.0785 0.0000 38.3736 0.0000
# 6 0.0000 0.0000 0.0000 1.3690 0.0000 39.8322
#
#
#
# Elastic Compliance Matrix: (Units=1/GPa)
#
#
# Indices 1 2 3 4 5 6 
#
# 1 0.025216 -0.007894 -0.004637 0.000000 -0.013532 0.000000
# 2 -0.007894 0.012447 -0.002095 0.000000 0.002820 0.000000
# 3 -0.004637 -0.002095 0.009459 0.000000 -0.000277 0.000000
# 4 0.000000 0.000000 0.000000 0.022347 0.000000 -0.000768
# 5 -0.013532 0.002820 -0.000277 0.000000 0.034978 0.000000
# 6 0.000000 0.000000 0.000000 -0.000768 0.000000 0.025132
#
#
# Mechanical properties :
#
#
# Convention : Reuss Voigt Hill
#
# Bulk Modulus (GPa) = 55.96552 73.89684 64.93118
# Shear Modulus (GPa) = 30.34194 36.98091 33.66143
#
# Velocity S-wave (km/s) = 3.90903 4.31554 4.11731
# Velocity P-wave (km/s) = 6.96841 7.87699 7.43659
#
# Compressibility (1/GPa) = 0.01786814
#
# Stress axis : x y z
#
# Youngs Moduli (GPa) = 39.65750 80.33937 105.72059
#
# Poissons Ratio (x) = 0.63423 0.49024
# Poissons Ratio (y) = 0.31307 0.22153
# Poissons Ratio (z) = 0.18390 0.16834
#
# Static dielectric constant tensor:
#      x y z
#    x 4.064850 0.000000 0.295560 
#    y 0.000000 3.869030 0.000000 
#    z 0.295560 0.000000 3.809430 
# 
# 
# High freq. dielectric constant tensor:
#      x y z
#    x 1.780010 0.000000 0.007730 
#    y 0.000000 1.793720 0.000000 
#    z 0.007730 0.000000 1.783200 
# 
# From -- ./inp_files/18918.got.cif
#   From: 2010.06.25/outbox.cif.g09.slc.cpg/sg13_10_cif.got.tgz:18918.got - 2010.06.28 04:50:58.
