data_PCOD8120395
_publ_section_title
;
Structure prediction by ZEFSAII (Michael W. Deem and Ramdas Pophale) SiO2 
 PCOD8120395
Probable space group: P 2/C
;
_chemical_formula_sum "Si O2"
_cell_formula_units_Z 32
_cell_length_a 21.841355
_cell_length_b 11.689826
_cell_length_c 16.114895
_cell_angle_alpha 90.000000
_cell_angle_beta 156.880031
_cell_angle_gamma 90.000000
_cell_volume 1615.582699
_symmetry_space_group_name_H-M "P 2/C"
_symmetry_group_IT_number 13
_symmetry_cell_setting 'monoclinic'
loop_
_space_group_symop_operation_xyz
x,y,z
-x,y,1/2-z
-x,-y,-z
x,-y,1/2+z
loop_
_atom_site_type_symbol
_atom_site_label
_atom_site_fract_x
_atom_site_fract_y
_atom_site_fract_z
Si Si1 0.454898 0.823818 0.884038
Si Si2 0.502265 0.926509 0.122451
Si Si3 0.752922 0.114457 0.061767
Si Si4 0.932032 0.919634 0.346637
Si Si5 0.889310 0.746965 0.033200
Si Si6 0.940665 0.550415 0.341494
Si Si7 0.976775 0.682809 0.817739
Si Si8 0.235388 0.719504 0.277038
O O1 0.290901 0.759152 0.666098
O O2 0.466966 0.937434 0.843242
O O3 0.483908 0.862988 0.013485
O O4 0.582869 0.728073 0.019403
O O5 0.650709 0.869434 0.352199
O O6 0.347952 0.901638 0.981526
O O7 0.858256 0.225528 0.207818
O O8 0.854870 0.998821 0.179225
O O9 0.807205 0.841125 0.237146
O O10 0.072787 0.849136 0.482359
O O11 0.000000 0.000000 0.500000
O O12 0.000000 0.756348 0.250000
O O13 0.923107 0.626201 0.030665
O O14 0.900524 0.444278 0.230821
O O15 0.790780 0.627109 0.180943
O O16 0.000000 0.500000 0.500000
O O17 0.000000 0.710833 0.750000
O O18 0.136085 0.690584 0.069991
#
# Coordination Sequence:
#
# PCOD8120395 Si02
#       8
#     4   4   4   4   4   4   4   4
#     4  11  22  39  61  90 130 162 202 256 312 373
#     4  10  23  35  57  95 134 163 194 254 316 375
#     4  11  21  37  60  91 130 165 204 248 312 380
#     4  11  20  36  59  89 127 165 208 241 311 384
#     4  11  24  40  65  91 120 162 214 267 313 372
#     4   9  22  43  66  87 119 163 214 261 320 371
#     4  11  22  38  67  89 123 161 212 267 304 369
#     4  10  21  39  63  91 119 169 208 248 315 377
#
# _framework density 19.807096000000001
#
# number of rings (size 3 to 8) (size 9 to 14) (size 15 to 20)
#    0.000    1.500    2.500    2.625    5.250    1.500 
#    0.000    2.500   11.000    0.000    0.000    0.000 
#    0.000    0.000    0.000    0.000    0.000    0.000 
#
# Total GULP energy -396744.793967 kJ/mol
# GULP energy per Si atom -12398.274811 kJ/mol
# Density = 1.976201 g / cm^3
# Si number density = 19.807096 Si / 1000 Ang^3
#
#
#
# Elastic Constant Matrix: (Units=GPa)
#
#
# Indices 1 2 3 4 5 6 
#
# 1 95.8497 50.0865 48.9535 0.0000 14.1212 0.0000
# 2 50.0865 132.5155 48.7493 0.0000 13.2085 0.0000
# 3 48.9535 48.7493 112.9779 0.0000 23.2061 0.0000
# 4 0.0000 0.0000 0.0000 15.0819 0.0000 2.1297
# 5 14.1212 13.2085 23.2061 0.0000 26.3296 0.0000
# 6 0.0000 0.0000 0.0000 2.1297 0.0000 34.6607
#
#
#
# Elastic Compliance Matrix: (Units=1/GPa)
#
#
# Indices 1 2 3 4 5 6 
#
# 1 0.015009 -0.003835 -0.004384 0.000000 -0.002262 0.000000
# 2 -0.003835 0.009988 -0.002493 0.000000 -0.000757 0.000000
# 3 -0.004384 -0.002493 0.013538 0.000000 -0.008330 0.000000
# 4 0.000000 0.000000 0.000000 0.066885 0.000000 -0.004110
# 5 -0.002262 -0.000757 -0.008330 0.000000 0.046914 0.000000
# 6 0.000000 0.000000 0.000000 -0.004110 0.000000 0.029104
#
#
# Mechanical properties :
#
#
# Convention : Reuss Voigt Hill
#
# Bulk Modulus (GPa) = 58.44017 70.76908 64.60463
# Shear Modulus (GPa) = 23.97331 28.11804 26.04567
#
# Velocity S-wave (km/s) = 3.48277 3.77184 3.63018
# Velocity P-wave (km/s) = 6.76325 7.40106 7.08934
#
# Compressibility (1/GPa) = 0.01711152
#
# Stress axis : x y z
#
# Youngs Moduli (GPa) = 66.62552 100.11864 73.86854
#
# Poissons Ratio (x) = 0.38392 0.32386
# Poissons Ratio (y) = 0.25549 0.18414
# Poissons Ratio (z) = 0.29211 0.24957
#
# Static dielectric constant tensor:
#      x y z
#    x 4.053570 0.000000 0.634710 
#    y 0.000000 3.205310 0.000000 
#    z 0.634710 0.000000 4.960590 
# 
# 
# High freq. dielectric constant tensor:
#      x y z
#    x 1.784060 0.000000 -0.003320 
#    y 0.000000 1.773830 0.000000 
#    z -0.003320 0.000000 1.759020 
# 
# From -- ./inp_files/68695.got.cif
#   From: 2010.06.25/outbox.cif.g09.slc.cpg/sg13_35_cif.got.tgz:68695.got - 2010.06.28 04:50:58.
