data_PCOD8120351
_publ_section_title
;
Structure prediction by ZEFSAII (Michael W. Deem and Ramdas Pophale) SiO2 
 PCOD8120351
Probable space group: P 2/C
;
_chemical_formula_sum "Si O2"
_cell_formula_units_Z 28
_cell_length_a 9.634592
_cell_length_b 17.612947
_cell_length_c 17.500411
_cell_angle_alpha 90.000000
_cell_angle_beta 30.975328
_cell_angle_gamma 90.000000
_cell_volume 1528.415914
_symmetry_space_group_name_H-M "P 2/C"
_symmetry_group_IT_number 13
_symmetry_cell_setting 'monoclinic'
loop_
_space_group_symop_operation_xyz
x,y,z
-x,y,1/2-z
-x,-y,-z
x,-y,1/2+z
loop_
_atom_site_type_symbol
_atom_site_label
_atom_site_fract_x
_atom_site_fract_y
_atom_site_fract_z
Si Si1 0.290276 0.059323 0.020218
Si Si2 0.085517 0.364893 0.297785
Si Si3 0.681991 0.933129 0.814990
Si Si4 0.544042 0.365145 0.642107
Si Si5 0.729042 0.518158 0.332599
Si Si6 0.335506 0.198137 0.897517
Si Si7 0.274627 0.221501 0.293501
O O1 0.362332 0.072363 0.073924
O O2 0.979356 0.036285 0.154749
O O3 0.356290 0.141945 0.957830
O O4 0.463167 0.996040 0.892837
O O5 0.256337 0.441855 0.225212
O O6 0.258726 0.292241 0.242552
O O7 0.000000 0.350927 0.250000
O O8 0.839423 0.382054 0.470668
O O9 0.631670 0.852975 0.797545
O O10 0.500000 0.392405 0.750000
O O11 0.326873 0.408785 0.693154
O O12 0.504182 0.274538 0.655104
O O13 0.500000 0.500000 0.500000
O O14 0.000000 0.536010 0.250000
O O15 0.500000 0.161215 0.750000
O O16 0.018196 0.211728 0.028039
O O17 0.500000 0.239416 0.250000
#
# Coordination Sequence:
#
# PCOD8120351 Si02
#       7
#     4   4   4   4   4   4   4
#     4   9  18  34  57  80 108 148 191 226 278 332
#     4  10  21  39  63  83 114 155 194 232 284 350
#     4   9  19  33  56  82 109 146 187 234 274 333
#     4  10  21  39  60  85 118 152 191 235 289 346
#     4  11  21  40  62  88 115 150 195 238 283 344
#     4   9  20  38  58  77 112 153 184 224 288 337
#     4  10  22  37  57  87 113 144 193 237 278 334
#
# _framework density 18.319621000000001
#
# number of rings (size 3 to 8) (size 9 to 14) (size 15 to 20)
#    0.000    2.286    2.857    0.000    6.000    2.857 
#    7.714    2.857    6.286    0.000    0.000    0.000 
#    0.000    0.000    0.000    0.000    0.000    0.000 
#
# Total GULP energy -347033.137395 kJ/mol
# GULP energy per Si atom -12394.040621 kJ/mol
# Density = 1.827792 g / cm^3
# Si number density = 18.319621 Si / 1000 Ang^3
#
#
#
# Elastic Constant Matrix: (Units=GPa)
#
#
# Indices 1 2 3 4 5 6 
#
# 1 102.1474 69.0157 46.7988 0.0000 -8.0096 0.0000
# 2 69.0157 97.1807 45.3707 0.0000 -3.8240 0.0000
# 3 46.7988 45.3707 117.3153 0.0000 7.6049 0.0000
# 4 0.0000 0.0000 0.0000 34.2642 0.0000 -5.7695
# 5 -8.0096 -3.8240 7.6049 0.0000 20.0358 0.0000
# 6 0.0000 0.0000 0.0000 -5.7695 0.0000 19.3561
#
#
#
# Elastic Compliance Matrix: (Units=1/GPa)
#
#
# Indices 1 2 3 4 5 6 
#
# 1 0.020600 -0.012551 -0.003836 0.000000 0.007296 0.000000
# 2 -0.012551 0.020585 -0.002956 0.000000 0.000034 0.000000
# 3 -0.003836 -0.002956 0.011620 0.000000 -0.006508 0.000000
# 4 0.000000 0.000000 0.000000 0.030727 0.000000 0.009159
# 5 0.007296 0.000034 -0.006508 0.000000 0.055304 0.000000
# 6 0.000000 0.000000 0.000000 0.009159 0.000000 0.054393
#
#
# Mechanical properties :
#
#
# Convention : Reuss Voigt Hill
#
# Bulk Modulus (GPa) = 70.83910 71.00154 70.92032
# Shear Modulus (GPa) = 21.13066 25.09512 23.11289
#
# Velocity S-wave (km/s) = 3.39992 3.70516 3.55582
# Velocity P-wave (km/s) = 7.35969 7.55947 7.46025
#
# Compressibility (1/GPa) = 0.01411650
#
# Stress axis : x y z
#
# Youngs Moduli (GPa) = 48.54424 48.57802 86.06066
#
# Poissons Ratio (x) = 0.60972 0.33016
# Poissons Ratio (y) = 0.60930 0.25444
# Poissons Ratio (z) = 0.18623 0.14362
#
# Static dielectric constant tensor:
#      x y z
#    x 3.096850 0.000000 0.098380 
#    y 0.000000 3.641180 0.000000 
#    z 0.098380 0.000000 3.614100 
# 
# 
# High freq. dielectric constant tensor:
#      x y z
#    x 1.686450 0.000000 0.003340 
#    y 0.000000 1.719720 0.000000 
#    z 0.003340 0.000000 1.724080 
# 
# From -- ./inp_files/48076.got.cif
#   From: 2010.06.25/outbox.cif.g09.slc.cpg/sg13_25_cif.got.tgz:48076.got - 2010.06.28 04:50:58.
