data_PCOD8120152
_publ_section_title
;
Structure prediction by ZEFSAII (Michael W. Deem and Ramdas Pophale) SiO2 
 PCOD8120152
Probable space group: P 2/C
;
_chemical_formula_sum "Si O2"
_cell_formula_units_Z 26
_cell_length_a 8.484292
_cell_length_b 20.061637
_cell_length_c 11.790363
_cell_angle_alpha 90.000000
_cell_angle_beta 138.823254
_cell_angle_gamma 90.000000
_cell_volume 1321.260465
_symmetry_space_group_name_H-M "P 2/C"
_symmetry_group_IT_number 13
_symmetry_cell_setting 'monoclinic'
loop_
_space_group_symop_operation_xyz
x,y,z
-x,y,1/2-z
-x,-y,-z
x,-y,1/2+z
loop_
_atom_site_type_symbol
_atom_site_label
_atom_site_fract_x
_atom_site_fract_y
_atom_site_fract_z
Si Si1 0.617049 0.071678 0.551565
Si Si2 0.886688 0.690765 0.809400
Si Si3 0.835014 0.152491 0.262255
Si Si4 0.500000 0.377685 0.250000
Si Si5 0.769918 0.407660 0.916529
Si Si6 0.902119 0.534281 0.080620
Si Si7 0.997860 0.070164 0.560606
O O1 0.430624 0.129193 0.415880
O O2 0.801694 0.067426 0.550552
O O3 0.747627 0.088191 0.742201
O O4 0.500000 0.000000 0.500000
O O5 0.852330 0.769108 0.786871
O O6 0.632400 0.663768 0.720142
O O7 0.000000 0.666383 0.750000
O O8 0.086743 0.662348 0.004261
O O9 0.929785 0.125191 0.432294
O O10 0.000000 0.126015 0.250000
O O11 0.684769 0.422181 0.417886
O O12 0.500000 0.386697 0.750000
O O13 0.862436 0.457994 0.869765
O O14 0.814988 0.456735 0.049235
O O15 0.000000 0.563438 0.250000
O O16 0.000000 0.000000 0.500000
#
# Coordination Sequence:
#
# PCOD8120152 Si02
#       7
#     4   4   4   2   4   4   4
#     4  11  23  39  65  96 124 164 202 259 322 371
#     4  10  24  43  63  91 128 177 214 263 328 384
#     4  11  24  43  63  90 128 171 216 261 320 384
#     4  10  22  42  64  94 130 164 220 266 318 394
#     4  10  21  39  61  93 130 160 219 268 320 392
#     4  10  21  37  63  97 121 167 209 268 331 375
#     4  11  23  39  65  97 126 157 209 260 312 380
#
# _framework density 19.678177999999999
#
# number of rings (size 3 to 8) (size 9 to 14) (size 15 to 20)
#    0.000    1.538    2.308    1.846    4.308    2.462 
#    5.538    0.000    0.000    0.000    0.000    0.000 
#    0.000    0.000    0.000    0.000    0.000    0.000 
#
# Total GULP energy -322099.099114 kJ/mol
# GULP energy per Si atom -12388.426889 kJ/mol
# Density = 1.963339 g / cm^3
# Si number density = 19.678178 Si / 1000 Ang^3
#
#
#
# Elastic Constant Matrix: (Units=GPa)
#
#
# Indices 1 2 3 4 5 6 
#
# 1 107.6375 34.8805 54.4899 0.0000 5.9159 0.0000
# 2 34.8805 111.6919 62.2318 0.0000 6.9022 0.0000
# 3 54.4899 62.2318 169.2154 0.0000 4.8841 0.0000
# 4 0.0000 0.0000 0.0000 25.4809 0.0000 0.6998
# 5 5.9159 6.9022 4.8841 0.0000 36.2579 0.0000
# 6 0.0000 0.0000 0.0000 0.6998 0.0000 29.6945
#
#
#
# Elastic Compliance Matrix: (Units=1/GPa)
#
#
# Indices 1 2 3 4 5 6 
#
# 1 0.011459 -0.001851 -0.002977 0.000000 -0.001116 0.000000
# 2 -0.001851 0.011652 -0.003648 0.000000 -0.001425 0.000000
# 3 -0.002977 -0.003648 0.008208 0.000000 0.000075 0.000000
# 4 0.000000 0.000000 0.000000 0.039271 0.000000 -0.000925
# 5 -0.001116 -0.001425 0.000075 0.000000 0.028024 0.000000
# 6 0.000000 0.000000 0.000000 -0.000925 0.000000 0.033698
#
#
# Mechanical properties :
#
#
# Convention : Reuss Voigt Hill
#
# Bulk Modulus (GPa) = 69.60597 76.86102 73.23350
# Shear Modulus (GPa) = 32.45685 34.08284 33.26985
#
# Velocity S-wave (km/s) = 4.06567 4.16626 4.11627
# Velocity P-wave (km/s) = 7.58212 7.89224 7.73873
#
# Compressibility (1/GPa) = 0.01436658
#
# Stress axis : x y z
#
# Youngs Moduli (GPa) = 87.27073 85.82351 121.83624
#
# Poissons Ratio (x) = 0.15884 0.36270
# Poissons Ratio (y) = 0.16152 0.44447
# Poissons Ratio (z) = 0.25980 0.31309
#
# Static dielectric constant tensor:
#      x y z
#    x 4.053570 0.000000 -0.054470 
#    y 0.000000 3.556200 0.000000 
#    z -0.054470 0.000000 3.976620 
# 
# 
# High freq. dielectric constant tensor:
#      x y z
#    x 1.783640 0.000000 0.002940 
#    y 0.000000 1.760400 0.000000 
#    z 0.002940 0.000000 1.771620 
# 
# From -- ./inp_files/30826.got.cif
#   From: 2010.06.25/outbox.cif.g09.slc.cpg/sg13_16_cif.got.tgz:30826.got - 2010.06.28 04:50:58.
