data_PCOD8120084
_publ_section_title
;
Structure prediction by ZEFSAII (Michael W. Deem and Ramdas Pophale) SiO2 
 PCOD8120084
Probable space group: P 2/C
;
_chemical_formula_sum "Si O2"
_cell_formula_units_Z 18
_cell_length_a 7.811366
_cell_length_b 19.621146
_cell_length_c 11.726303
_cell_angle_alpha 90.000000
_cell_angle_beta 148.371424
_cell_angle_gamma 90.000000
_cell_volume 942.505643
_symmetry_space_group_name_H-M "P 2/C"
_symmetry_group_IT_number 13
_symmetry_cell_setting 'monoclinic'
loop_
_space_group_symop_operation_xyz
x,y,z
-x,y,1/2-z
-x,-y,-z
x,-y,1/2+z
loop_
_atom_site_type_symbol
_atom_site_label
_atom_site_fract_x
_atom_site_fract_y
_atom_site_fract_z
Si Si1 0.649472 0.199860 0.211698
Si Si2 0.000000 0.144970 0.750000
Si Si3 0.000000 0.301312 0.250000
Si Si4 0.000000 0.471473 0.750000
Si Si5 0.123881 0.074389 0.047192
Si Si6 0.466508 0.414449 0.598971
O O1 0.500000 0.221767 0.250000
O O2 0.883171 0.256931 0.291462
O O3 0.892159 0.133607 0.364128
O O4 0.334974 0.188274 0.951563
O O5 0.049856 0.098769 0.666772
O O6 0.304977 0.347792 0.454867
O O7 0.182733 0.423756 0.762168
O O8 0.744634 0.517446 0.536545
O O9 0.500000 0.062835 0.250000
O O10 0.000000 0.000000 0.000000
O O11 0.500000 0.400663 0.750000
#
# Coordination Sequence:
#
# PCOD8120084 Si02
#       6
#     4   2   2   2   4   4
#     4   9  21  39  54  76 111 145 183 230 276 332
#     4   8  18  36  52  68 104 146 174 222 282 326
#     4  11  24  35  54  87 112 147 192 224 280 343
#     4   9  20  39  60  85 116 147 186 234 270 315
#     4   9  19  33  53  79 103 137 183 229 281 335
#     4  10  21  37  59  86 114 149 189 227 275 329
#
# _framework density 19.098029
#
# number of rings (size 3 to 8) (size 9 to 14) (size 15 to 20)
#    0.000    3.111    0.000    0.667    0.000   12.444 
#    0.000    2.222    0.000    0.000    0.000    0.000 
#    0.000    0.000    0.000    0.000    0.000    0.000 
#
# Total GULP energy -223006.641470 kJ/mol
# GULP energy per Si atom -12389.257859 kJ/mol
# Density = 1.905456 g / cm^3
# Si number density = 19.098029 Si / 1000 Ang^3
#
#
#
# Elastic Constant Matrix: (Units=GPa)
#
#
# Indices 1 2 3 4 5 6 
#
# 1 120.3212 70.4806 39.3983 0.0000 0.2474 0.0000
# 2 70.4806 129.1467 36.2608 0.0000 1.7389 0.0000
# 3 39.3983 36.2608 101.2590 0.0000 -9.8606 0.0000
# 4 0.0000 0.0000 0.0000 15.7362 0.0000 2.3108
# 5 0.2474 1.7389 -9.8606 0.0000 22.2334 0.0000
# 6 0.0000 0.0000 0.0000 2.3108 0.0000 94.2518
#
#
#
# Elastic Compliance Matrix: (Units=1/GPa)
#
#
# Indices 1 2 3 4 5 6 
#
# 1 0.012899 -0.006217 -0.002884 0.000000 -0.000936 0.000000
# 2 -0.006217 0.011703 -0.001938 0.000000 -0.001706 0.000000
# 3 -0.002884 -0.001938 0.012238 0.000000 0.005611 0.000000
# 4 0.000000 0.000000 0.000000 0.063777 0.000000 -0.001564
# 5 -0.000936 -0.001706 0.005611 0.000000 0.047610 0.000000
# 6 0.000000 0.000000 0.000000 -0.001564 0.000000 0.010648
#
#
# Mechanical properties :
#
#
# Convention : Reuss Voigt Hill
#
# Bulk Modulus (GPa) = 67.73847 71.44517 69.59182
# Shear Modulus (GPa) = 26.89989 40.08343 33.49166
#
# Velocity S-wave (km/s) = 3.75709 4.58626 4.19223
# Velocity P-wave (km/s) = 7.37339 8.09543 7.74283
#
# Compressibility (1/GPa) = 0.01476266
#
# Stress axis : x y z
#
# Youngs Moduli (GPa) = 77.52437 85.44604 81.71240
#
# Poissons Ratio (x) = 0.53125 0.23563
# Poissons Ratio (y) = 0.48200 0.15836
# Poissons Ratio (z) = 0.22355 0.16559
#
# Static dielectric constant tensor:
#      x y z
#    x 3.383610 0.000000 0.015070 
#    y 0.000000 3.296790 0.000000 
#    z 0.015070 0.000000 3.557720 
# 
# 
# High freq. dielectric constant tensor:
#      x y z
#    x 1.733270 0.000000 -0.000950 
#    y 0.000000 1.743260 0.000000 
#    z -0.000950 0.000000 1.752590 
# 
# From -- ./inp_files/9812.got.cif
#   From: 2010.06.25/outbox.cif.g09.slc.cpg/sg13_5_cif.got.tgz:9812.got - 2010.06.28 04:50:58.
