data_PCOD8120345
_publ_section_title
;
Structure prediction by ZEFSAII (Michael W. Deem and Ramdas Pophale) SiO2 
 PCOD8120345
Probable space group: P 2/C
;
_chemical_formula_sum "Si O2"
_cell_formula_units_Z 30
_cell_length_a 18.324902
_cell_length_b 12.145683
_cell_length_c 9.421605
_cell_angle_alpha 90.000000
_cell_angle_beta 129.260044
_cell_angle_gamma 90.000000
_cell_volume 1623.631620
_symmetry_space_group_name_H-M "P 2/C"
_symmetry_group_IT_number 13
_symmetry_cell_setting 'monoclinic'
loop_
_space_group_symop_operation_xyz
x,y,z
-x,y,1/2-z
-x,-y,-z
x,-y,1/2+z
loop_
_atom_site_type_symbol
_atom_site_label
_atom_site_fract_x
_atom_site_fract_y
_atom_site_fract_z
Si Si1 0.111250 0.904239 0.034154
Si Si2 0.306880 0.832374 0.246141
Si Si3 0.904770 0.881043 0.809958
Si Si4 0.500000 0.006786 0.250000
Si Si5 0.615192 0.929045 0.642386
Si Si6 0.419558 0.587857 0.034258
Si Si7 0.451724 0.658715 0.544923
Si Si8 0.277368 0.765400 0.897102
O O1 0.198552 0.820182 0.168382
O O2 0.128407 0.022060 0.127287
O O3 0.105470 0.929205 0.860139
O O4 0.014235 0.848206 0.972137
O O5 0.373557 0.747261 0.408031
O O6 0.334437 0.955326 0.318572
O O7 0.315350 0.821757 0.087266
O O8 0.837092 0.773695 0.748242
O O9 0.426516 0.084700 0.248224
O O10 0.536973 0.925752 0.420314
O O11 0.685920 0.829459 0.697329
O O12 0.500000 0.599336 0.250000
O O13 0.399924 0.459911 0.979336
O O14 0.459508 0.655703 0.950928
O O15 0.317989 0.640836 0.948999
O O16 0.500000 0.691797 0.750000
#
# Coordination Sequence:
#
# PCOD8120345 Si02
#       8
#     4   4   4   2   4   4   4   4
#     4   9  18  34  54  78 109 142 175 218 264 318
#     4  11  21  35  55  78 110 142 179 223 264 320
#     4   9  18  34  54  79 108 141 178 214 264 325
#     4  10  24  32  42  64 114 138 172 210 256 310
#     4  11  22  33  46  77 104 145 176 209 259 327
#     4  10  21  39  59  74 103 144 185 223 270 319
#     4  10  23  39  55  79 102 141 188 227 266 315
#     4  11  21  35  57  77 107 146 180 217 269 322
#
# _framework density 18.477098999999999
#
# number of rings (size 3 to 8) (size 9 to 14) (size 15 to 20)
#    0.000    1.867    4.000    0.000    5.600    0.000 
#    2.400    0.000    0.000    0.800    0.000    0.000 
#    0.000    0.000    0.000    0.000    0.000    0.000 
#
# Total GULP energy -371738.917636 kJ/mol
# GULP energy per Si atom -12391.297255 kJ/mol
# Density = 1.843504 g / cm^3
# Si number density = 18.477099 Si / 1000 Ang^3
#
#
#
# Elastic Constant Matrix: (Units=GPa)
#
#
# Indices 1 2 3 4 5 6 
#
# 1 113.9194 41.9582 40.2579 0.0000 7.8240 0.0000
# 2 41.9582 51.0781 13.3093 0.0000 13.6543 0.0000
# 3 40.2579 13.3093 65.0949 0.0000 2.1533 0.0000
# 4 0.0000 0.0000 0.0000 22.3539 0.0000 -3.7228
# 5 7.8240 13.6543 2.1533 0.0000 33.1884 0.0000
# 6 0.0000 0.0000 0.0000 -3.7228 0.0000 27.4634
#
#
#
# Elastic Compliance Matrix: (Units=1/GPa)
#
#
# Indices 1 2 3 4 5 6 
#
# 1 0.015326 -0.011076 -0.007261 0.000000 0.001415 0.000000
# 2 -0.011076 0.031215 0.000808 0.000000 -0.010284 0.000000
# 3 -0.007261 0.000808 0.019684 0.000000 0.000102 0.000000
# 4 0.000000 0.000000 0.000000 0.045768 0.000000 0.006204
# 5 0.001415 -0.010284 0.000102 0.000000 0.034022 0.000000
# 6 0.000000 0.000000 0.000000 0.006204 0.000000 0.037253
#
#
# Mechanical properties :
#
#
# Convention : Reuss Voigt Hill
#
# Bulk Modulus (GPa) = 32.08479 46.79370 39.43924
# Shear Modulus (GPa) = 21.86128 25.57229 23.71678
#
# Velocity S-wave (km/s) = 3.44343 3.72425 3.58659
# Velocity P-wave (km/s) = 5.76298 6.62371 6.20828
#
# Compressibility (1/GPa) = 0.03116742
#
# Stress axis : x y z
#
# Youngs Moduli (GPa) = 65.24719 32.03603 50.80274
#
# Poissons Ratio (x) = 0.35484 0.36886
# Poissons Ratio (y) = 0.72269 -0.04105
# Poissons Ratio (z) = 0.47374 -0.02589
#
# Static dielectric constant tensor:
#      x y z
#    x 3.681200 0.000000 0.058710 
#    y 0.000000 3.175690 0.000000 
#    z 0.058710 0.000000 3.523670 
# 
# 
# High freq. dielectric constant tensor:
#      x y z
#    x 1.725170 0.000000 -0.011310 
#    y 0.000000 1.678850 0.000000 
#    z -0.011310 0.000000 1.716200 
# 
# From -- ./inp_files/21752.got.cif
#   From: 2010.06.25/outbox.cif.g09.slc.cpg/sg13_11_cif.got.tgz:21752.got - 2010.06.28 04:50:58.
