data_PCOD8120952
_publ_section_title
;
Structure prediction by ZEFSAII (Michael W. Deem and Ramdas Pophale) SiO2 
 PCOD8120952
Probable space group: P 2/C
;
_chemical_formula_sum "Si O2"
_cell_formula_units_Z 30
_cell_length_a 12.483224
_cell_length_b 7.755907
_cell_length_c 14.755983
_cell_angle_alpha 90.000000
_cell_angle_beta 103.412571
_cell_angle_gamma 90.000000
_cell_volume 1389.688885
_symmetry_space_group_name_H-M "P 2/C"
_symmetry_group_IT_number 13
_symmetry_cell_setting 'monoclinic'
loop_
_space_group_symop_operation_xyz
x,y,z
-x,y,1/2-z
-x,-y,-z
x,-y,1/2+z
loop_
_atom_site_type_symbol
_atom_site_label
_atom_site_fract_x
_atom_site_fract_y
_atom_site_fract_z
Si Si1 0.034789 0.224388 0.477227
Si Si2 0.000000 0.729905 0.250000
Si Si3 0.672472 0.195496 0.250668
Si Si4 0.890884 0.993873 0.346693
Si Si5 0.475313 0.737689 0.048358
Si Si6 0.535610 0.088837 0.385409
Si Si7 0.121352 0.423665 0.931734
Si Si8 0.340412 0.514990 0.892367
O O1 0.111400 0.104478 0.556288
O O2 0.111487 0.383691 0.467348
O O3 0.917902 0.285024 0.500648
O O4 0.996227 0.122836 0.378904
O O5 0.905567 0.854996 0.270273
O O6 0.961370 0.599245 0.166730
O O7 0.607174 0.210238 0.333120
O O8 0.593483 0.087895 0.168202
O O9 0.696020 0.379930 0.205865
O O10 0.783755 0.098047 0.296928
O O11 0.555448 0.603262 0.115722
O O12 0.428959 0.885952 0.107241
O O13 0.550991 0.830759 0.987403
O O14 0.373923 0.641999 0.980912
O O15 0.243393 0.397355 0.915370
#
# Coordination Sequence:
#
# PCOD8120952 Si02
#       8
#     4   2   4   4   4   4   4   4
#     4   9  22  42  59  87 123 160 209 243 310 365
#     4  10  24  38  58  88 126 154 210 256 308 358
#     4  10  22  37  61  90 121 154 199 249 312 353
#     4  10  22  40  61  90 116 163 203 252 302 378
#     4   9  20  41  62  88 119 156 202 244 304 377
#     4   9  20  41  61  88 120 155 200 254 295 374
#     4  10  22  40  61  88 122 160 198 261 304 368
#     4  10  22  37  62  92 119 159 199 250 316 364
#
# _framework density 21.587567
#
# number of rings (size 3 to 8) (size 9 to 14) (size 15 to 20)
#    0.000    2.400    0.000    0.000    9.333    0.000 
#    0.000    8.000    0.000    0.000    0.000    0.000 
#    0.000    0.000    0.000    0.000    0.000    0.000 
#
# Total GULP energy -371691.218214 kJ/mol
# GULP energy per Si atom -12389.707274 kJ/mol
# Density = 2.153843 g / cm^3
# Si number density = 21.587567 Si / 1000 Ang^3
#
#
#
# Elastic Constant Matrix: (Units=GPa)
#
#
# Indices 1 2 3 4 5 6 
#
# 1 69.2369 13.2508 24.8739 0.0000 6.0214 0.0000
# 2 13.2508 77.3903 28.1154 0.0000 7.7673 0.0000
# 3 24.8739 28.1154 72.0840 0.0000 5.4280 0.0000
# 4 0.0000 0.0000 0.0000 36.3164 0.0000 5.4054
# 5 6.0214 7.7673 5.4280 0.0000 27.3249 0.0000
# 6 0.0000 0.0000 0.0000 5.4054 0.0000 28.4474
#
#
#
# Elastic Compliance Matrix: (Units=1/GPa)
#
#
# Indices 1 2 3 4 5 6 
#
# 1 0.016693 -0.000685 -0.005310 0.000000 -0.002429 0.000000
# 2 -0.000685 0.015357 -0.005518 0.000000 -0.003118 0.000000
# 3 -0.005310 -0.005518 0.017919 0.000000 -0.000821 0.000000
# 4 0.000000 0.000000 0.000000 0.028337 0.000000 -0.005384
# 5 -0.002429 -0.003118 -0.000821 0.000000 0.038181 0.000000
# 6 0.000000 0.000000 0.000000 -0.005384 0.000000 0.036176
#
#
# Mechanical properties :
#
#
# Convention : Reuss Voigt Hill
#
# Bulk Modulus (GPa) = 37.11748 39.02126 38.06937
# Shear Modulus (GPa) = 27.07514 28.58249 27.82882
#
# Velocity S-wave (km/s) = 3.54531 3.64266 3.59432
# Velocity P-wave (km/s) = 5.83011 5.98390 5.90751
#
# Compressibility (1/GPa) = 0.02694148
#
# Stress axis : x y z
#
# Youngs Moduli (GPa) = 59.90442 65.11870 55.80599
#
# Poissons Ratio (x) = 0.04463 0.29634
# Poissons Ratio (y) = 0.04105 0.30796
# Poissons Ratio (z) = 0.31810 0.35935
#
# Static dielectric constant tensor:
#      x y z
#    x 3.671120 0.000000 -0.105510 
#    y 0.000000 4.118970 0.000000 
#    z -0.105510 0.000000 3.973320 
# 
# 
# High freq. dielectric constant tensor:
#      x y z
#    x 1.819950 0.000000 0.005190 
#    y 0.000000 1.853370 0.000000 
#    z 0.005190 0.000000 1.847020 
# 
# From -- ./inp_files/50395.got.cif
#   From: 2010.06.25/outbox.cif.g09.slc.cpg/sg13_26_cif.got.tgz:50395.got - 2010.06.28 04:50:58.
