data_PCOD8120130
_publ_section_title
;
Structure prediction by ZEFSAII (Michael W. Deem and Ramdas Pophale) SiO2 
 PCOD8120130
Probable space group: P 2/C
;
_chemical_formula_sum "Si O2"
_cell_formula_units_Z 20
_cell_length_a 11.923996
_cell_length_b 11.032371
_cell_length_c 8.998902
_cell_angle_alpha 90.000000
_cell_angle_beta 128.353050
_cell_angle_gamma 90.000000
_cell_volume 928.342533
_symmetry_space_group_name_H-M "P 2/C"
_symmetry_group_IT_number 13
_symmetry_cell_setting 'monoclinic'
loop_
_space_group_symop_operation_xyz
x,y,z
-x,y,1/2-z
-x,-y,-z
x,-y,1/2+z
loop_
_atom_site_type_symbol
_atom_site_label
_atom_site_fract_x
_atom_site_fract_y
_atom_site_fract_z
Si Si1 0.711939 0.765212 0.592158
Si Si2 0.113232 0.988192 0.218195
Si Si3 0.232698 0.244531 0.701472
Si Si4 0.473141 0.369822 0.051676
Si Si5 0.033259 0.622085 0.608638
O O1 0.693053 0.745323 0.399935
O O2 0.559529 0.743006 0.545984
O O3 0.803138 0.664910 0.758999
O O4 0.789316 0.894028 0.673507
O O5 0.232770 0.887559 0.277148
O O6 0.000000 0.952652 0.250000
O O7 0.000000 0.000000 0.000000
O O8 0.065817 0.275580 0.545514
O O9 0.308898 0.336414 0.879297
O O10 0.500000 0.375794 0.250000
O O11 0.500000 0.500000 0.000000
O O12 0.000000 0.599798 0.750000
O O13 0.000000 0.500000 0.500000
#
# Coordination Sequence:
#
# PCOD8120130 Si02
#       5
#     4   4   4   4   4
#     4  11  23  44  67  95 136 178 223 278 336 399
#     4  12  23  43  71 104 140 177 221 282 339 398
#     4  11  24  43  68  96 135 181 222 277 337 398
#     4  12  28  47  69  98 136 180 228 280 339 405
#     4  10  21  37  61  93 124 166 220 273 330 392
#
# _framework density 21.543773000000002
#
# number of rings (size 3 to 8) (size 9 to 14) (size 15 to 20)
#    0.000    0.800    4.000    3.600    2.800    6.400 
#    0.000    0.000    0.000    0.000    0.000    0.000 
#    0.000    0.000    0.000    0.000    0.000    0.000 
#
# Total GULP energy -247766.634856 kJ/mol
# GULP energy per Si atom -12388.331743 kJ/mol
# Density = 2.149474 g / cm^3
# Si number density = 21.543773 Si / 1000 Ang^3
#
#
#
# Elastic Constant Matrix: (Units=GPa)
#
#
# Indices 1 2 3 4 5 6 
#
# 1 78.4576 22.1974 32.2910 0.0000 -7.5471 0.0000
# 2 22.1974 116.7434 46.2168 0.0000 -7.5179 0.0000
# 3 32.2910 46.2168 149.7865 0.0000 -22.3318 0.0000
# 4 0.0000 0.0000 0.0000 32.6686 0.0000 -2.2676
# 5 -7.5471 -7.5179 -22.3318 0.0000 23.8966 0.0000
# 6 0.0000 0.0000 0.0000 -2.2676 0.0000 12.1125
#
#
#
# Elastic Compliance Matrix: (Units=1/GPa)
#
#
# Indices 1 2 3 4 5 6 
#
# 1 0.014349 -0.001702 -0.002292 0.000000 0.001855 0.000000
# 2 -0.001702 0.009961 -0.002695 0.000000 0.000078 0.000000
# 3 -0.002292 -0.002695 0.009025 0.000000 0.006862 0.000000
# 4 0.000000 0.000000 0.000000 0.031013 0.000000 0.005806
# 5 0.001855 0.000078 0.006862 0.000000 0.048870 0.000000
# 6 0.000000 0.000000 0.000000 0.005806 0.000000 0.083646
#
#
# Mechanical properties :
#
#
# Convention : Reuss Voigt Hill
#
# Bulk Modulus (GPa) = 50.10511 60.71089 55.40800
# Shear Modulus (GPa) = 23.05268 30.02104 26.53686
#
# Velocity S-wave (km/s) = 3.27469 3.73700 3.51346
# Velocity P-wave (km/s) = 6.13237 6.84556 6.49875
#
# Compressibility (1/GPa) = 0.01995804
#
# Stress axis : x y z
#
# Youngs Moduli (GPa) = 69.69232 100.38853 110.80424
#
# Poissons Ratio (x) = 0.17082 0.25394
# Poissons Ratio (y) = 0.11858 0.29863
# Poissons Ratio (z) = 0.15972 0.27056
#
# Static dielectric constant tensor:
#      x y z
#    x 3.788530 0.000000 0.163950 
#    y 0.000000 3.660810 0.000000 
#    z 0.163950 0.000000 4.002020 
# 
# 
# High freq. dielectric constant tensor:
#      x y z
#    x 1.836100 0.000000 -0.001700 
#    y 0.000000 1.849540 0.000000 
#    z -0.001700 0.000000 1.870950 
# 
# From -- ./inp_files/11765.got.cif
#   From: 2010.06.25/outbox.cif.g09.slc.cpg/sg13_6_cif.got.tgz:11765.got - 2010.06.28 04:50:58.
