data_PCOD8120230
_publ_section_title
;
Structure prediction by ZEFSAII (Michael W. Deem and Ramdas Pophale) SiO2 
 PCOD8120230
Probable space group: P 2/C
;
_chemical_formula_sum "Si O2"
_cell_formula_units_Z 28
_cell_length_a 9.001004
_cell_length_b 19.595990
_cell_length_c 15.393442
_cell_angle_alpha 90.000000
_cell_angle_beta 148.770544
_cell_angle_gamma 90.000000
_cell_volume 1407.715073
_symmetry_space_group_name_H-M "P 2/C"
_symmetry_group_IT_number 13
_symmetry_cell_setting 'monoclinic'
loop_
_space_group_symop_operation_xyz
x,y,z
-x,y,1/2-z
-x,-y,-z
x,-y,1/2+z
loop_
_atom_site_type_symbol
_atom_site_label
_atom_site_fract_x
_atom_site_fract_y
_atom_site_fract_z
Si Si1 0.835813 0.841858 0.083498
Si Si2 0.175866 0.435506 0.484318
Si Si3 0.164180 0.158142 0.247680
Si Si4 0.171640 0.305681 0.984000
Si Si5 0.162170 0.070703 0.081085
Si Si6 0.824134 0.564494 0.308452
Si Si7 0.828365 0.694319 0.812365
O O1 0.921365 0.763362 0.110210
O O2 0.000000 0.869357 0.250000
O O3 0.499996 0.849219 0.931495
O O4 0.934083 0.886962 0.051271
O O5 0.170710 0.436827 0.585355
O O6 0.500000 0.438614 0.611086
O O7 0.000000 0.500000 0.359394
O O8 0.027556 0.366378 0.376030
O O9 0.065912 0.113038 0.117185
O O10 0.078630 0.236638 0.188842
O O11 0.000000 0.130643 0.250000
O O12 0.972444 0.366378 0.848474
O O13 0.126825 0.293725 0.063411
O O14 0.500003 0.325184 0.128667
O O15 0.500000 0.057579 0.250000
O O16 0.000000 0.000000 0.000000
#
# Coordination Sequence:
#
# PCOD8120230 Si02
#       7
#     4   4   4   4   4   4   4
#     4  10  21  38  60  86 117 152 191 233 282 338
#     4   9  16  25  40  68 104 141 184 233 281 333
#     4  10  21  38  60  86 117 152 191 233 282 338
#     4   9  16  30  52  74 102 144 187 230 280 334
#     4  10  22  42  64  88 119 154 189 228 279 338
#     4   9  16  25  40  68 104 141 184 233 281 333
#     4   9  16  30  52  74 102 144 187 230 280 334
#
# _framework density 19.890388000000002
#
# number of rings (size 3 to 8) (size 9 to 14) (size 15 to 20)
#    0.000    2.571    1.429    0.857    0.000    6.286 
#    0.000    2.857    0.000    0.857    0.000    6.000 
#    0.000    0.000    0.000    0.000    0.000    0.000 
#
# Total GULP energy -347254.664709 kJ/mol
# GULP energy per Si atom -12401.952311 kJ/mol
# Density = 1.984512 g / cm^3
# Si number density = 19.890388 Si / 1000 Ang^3
#
#
#
# Elastic Constant Matrix: (Units=GPa)
#
#
# Indices 1 2 3 4 5 6 
#
# 1 98.3273 69.2808 49.9097 0.0000 2.1378 0.0000
# 2 69.2808 147.6278 75.0952 0.0000 5.8884 0.0000
# 3 49.9097 75.0952 102.7321 0.0000 2.3218 0.0000
# 4 0.0000 0.0000 0.0000 30.7046 0.0000 16.9568
# 5 2.1378 5.8884 2.3218 0.0000 25.4505 0.0000
# 6 0.0000 0.0000 0.0000 16.9568 0.0000 13.9624
#
#
#
# Elastic Compliance Matrix: (Units=1/GPa)
#
#
# Indices 1 2 3 4 5 6 
#
# 1 0.016007 -0.005675 -0.003635 0.000000 0.000300 0.000000
# 2 -0.005675 0.012876 -0.006612 0.000000 -0.001899 0.000000
# 3 -0.003635 -0.006612 0.016326 0.000000 0.000346 0.000000
# 4 0.000000 0.000000 0.000000 0.098900 0.000000 -0.120110
# 5 0.000300 -0.001899 0.000346 0.000000 0.039675 0.000000
# 6 0.000000 0.000000 0.000000 -0.120110 0.000000 0.217490
#
#
# Mechanical properties :
#
#
# Convention : Reuss Voigt Hill
#
# Bulk Modulus (GPa) = 74.82596 81.91762 78.37179
# Shear Modulus (GPa) = 11.42664 24.31694 17.87179
#
# Velocity S-wave (km/s) = 2.39943 3.50029 3.00077
# Velocity P-wave (km/s) = 6.73626 7.59012 7.17590
#
# Compressibility (1/GPa) = 0.01336435
#
# Stress axis : x y z
#
# Youngs Moduli (GPa) = 62.47145 77.66175 61.25247
#
# Poissons Ratio (x) = 0.44072 0.22267
# Poissons Ratio (y) = 0.35452 0.40503
# Poissons Ratio (z) = 0.22710 0.51353
#
# Static dielectric constant tensor:
#      x y z
#    x 3.420650 0.000000 0.085490 
#    y 0.000000 3.651950 0.000000 
#    z 0.085490 0.000000 3.505020 
# 
# 
# High freq. dielectric constant tensor:
#      x y z
#    x 1.760210 0.000000 0.006140 
#    y 0.000000 1.778950 0.000000 
#    z 0.006140 0.000000 1.766260 
# 
# From -- ./inp_files/48263.got.cif
#   From: 2010.06.25/outbox.cif.g09.slc.cpg/sg13_25_cif.got.tgz:48263.got - 2010.06.28 04:50:58.
