data_PCOD8120551
_publ_section_title
;
Structure prediction by ZEFSAII (Michael W. Deem and Ramdas Pophale) SiO2 
 PCOD8120551
Probable space group: P 2/C
;
_chemical_formula_sum "Si O2"
_cell_formula_units_Z 28
_cell_length_a 9.158735
_cell_length_b 10.826615
_cell_length_c 14.793123
_cell_angle_alpha 90.000000
_cell_angle_beta 113.442585
_cell_angle_gamma 90.000000
_cell_volume 1345.782298
_symmetry_space_group_name_H-M "P 2/C"
_symmetry_group_IT_number 13
_symmetry_cell_setting 'monoclinic'
loop_
_space_group_symop_operation_xyz
x,y,z
-x,y,1/2-z
-x,-y,-z
x,-y,1/2+z
loop_
_atom_site_type_symbol
_atom_site_label
_atom_site_fract_x
_atom_site_fract_y
_atom_site_fract_z
Si Si1 0.142031 0.932923 0.482880
Si Si2 0.235446 0.311376 0.547456
Si Si3 0.436029 0.812946 0.635887
Si Si4 0.649917 0.549925 0.849896
Si Si5 0.362695 0.102006 0.462929
Si Si6 0.993050 0.425517 0.351866
Si Si7 0.999266 0.296419 0.855519
O O1 0.296803 0.913969 0.585029
O O2 0.111389 0.800442 0.432894
O O3 0.194921 0.028777 0.417098
O O4 0.000000 0.000000 0.500000
O O5 0.337553 0.436923 0.576573
O O6 0.348084 0.198654 0.543616
O O7 0.169980 0.284387 0.633263
O O8 0.088326 0.331436 0.440559
O O9 0.500000 0.835189 0.750000
O O10 0.372058 0.676015 0.600640
O O11 0.596760 0.821529 0.615933
O O12 0.500000 0.522433 0.750000
O O13 0.808283 0.567458 0.830099
O O14 0.500000 0.000000 0.500000
O O15 0.066087 0.563934 0.382235
O O16 0.000000 0.379976 0.250000
O O17 0.000000 0.260642 0.750000
#
# Coordination Sequence:
#
# PCOD8120551 Si02
#       7
#     4   4   4   4   4   4   4
#     4  11  21  41  68  91 122 171 223 268 314 389
#     4  11  21  42  68  94 133 176 210 267 330 389
#     4  10  23  42  61  90 135 165 208 271 325 383
#     4  10  22  40  62  99 129 163 215 266 332 393
#     4  10  24  43  59  92 128 165 221 259 316 380
#     4  10  22  39  67  99 133 166 218 268 329 398
#     4  10  21  40  64  97 127 161 221 274 322 379
#
# _framework density 20.805741000000001
#
# number of rings (size 3 to 8) (size 9 to 14) (size 15 to 20)
#    0.000    1.714    1.429    3.429    4.000    1.714 
#   15.429    1.429    0.000    0.000    0.000    0.000 
#    0.000    0.000    0.000    0.000    0.000    0.000 
#
# Total GULP energy -346894.907473 kJ/mol
# GULP energy per Si atom -12389.103838 kJ/mol
# Density = 2.075839 g / cm^3
# Si number density = 20.805741 Si / 1000 Ang^3
#
#
#
# Elastic Constant Matrix: (Units=GPa)
#
#
# Indices 1 2 3 4 5 6 
#
# 1 145.0489 68.4348 55.1524 0.0000 -15.2367 0.0000
# 2 68.4348 111.8987 43.3923 0.0000 -5.9837 0.0000
# 3 55.1524 43.3923 82.5609 0.0000 -9.5799 0.0000
# 4 0.0000 0.0000 0.0000 -2.9041 0.0000 -12.4166
# 5 -15.2367 -5.9837 -9.5799 0.0000 39.2053 0.0000
# 6 0.0000 0.0000 0.0000 -12.4166 0.0000 42.4088
#
#
#
# Elastic Compliance Matrix: (Units=1/GPa)
#
#
# Indices 1 2 3 4 5 6 
#
# 1 0.011251 -0.004955 -0.004623 0.000000 0.002487 0.000000
# 2 -0.004955 0.013410 -0.003832 0.000000 -0.000816 0.000000
# 3 -0.004623 -0.003832 0.017433 0.000000 0.001878 0.000000
# 4 0.000000 0.000000 0.000000 -0.152916 0.000000 -0.044771
# 5 0.002487 -0.000816 0.001878 0.000000 0.026808 0.000000
# 6 0.000000 0.000000 0.000000 -0.044771 0.000000 0.010472
#
#
# Mechanical properties :
#
#
# Convention : Reuss Voigt Hill
#
# Bulk Modulus (GPa) = 65.47812 74.82974 70.15393
# Shear Modulus (GPa) = -120.10211 27.24393 -46.42909
#
# Velocity S-wave (km/s) = -7.60597 3.62255 -4.72906
# Velocity P-wave (km/s) = 6.75240 7.31718 1.99327
#
# Compressibility (1/GPa) = 0.01527228
#
# Stress axis : x y z
#
# Youngs Moduli (GPa) = 88.87913 74.57310 57.36347
#
# Poissons Ratio (x) = 0.36953 0.26520
# Poissons Ratio (y) = 0.44042 0.21983
# Poissons Ratio (z) = 0.41090 0.28578
#
# Static dielectric constant tensor:
#      x y z
#    x 4.185340 0.000000 -0.221190 
#    y 0.000000 4.231910 0.000000 
#    z -0.221190 0.000000 3.528560 
# 
# 
# High freq. dielectric constant tensor:
#      x y z
#    x 1.824280 0.000000 -0.011410 
#    y 0.000000 1.834070 0.000000 
#    z -0.011410 0.000000 1.783240 
# 
# From -- ./inp_files/47307.got.cif
#   From: 2010.06.25/outbox.cif.g09.slc.cpg/sg13_24_cif.got.tgz:47307.got - 2010.06.28 04:50:58.
