data_PCOD8120316
_publ_section_title
;
Structure prediction by ZEFSAII (Michael W. Deem and Ramdas Pophale) SiO2 
 PCOD8120316
Probable space group: P 2/C
;
_chemical_formula_sum "Si O2"
_cell_formula_units_Z 32
_cell_length_a 14.092444
_cell_length_b 9.811231
_cell_length_c 11.795956
_cell_angle_alpha 90.000000
_cell_angle_beta 93.955898
_cell_angle_gamma 90.000000
_cell_volume 1627.072852
_symmetry_space_group_name_H-M "P 2/C"
_symmetry_group_IT_number 13
_symmetry_cell_setting 'monoclinic'
loop_
_space_group_symop_operation_xyz
x,y,z
-x,y,1/2-z
-x,-y,-z
x,-y,1/2+z
loop_
_atom_site_type_symbol
_atom_site_label
_atom_site_fract_x
_atom_site_fract_y
_atom_site_fract_z
Si Si1 0.206987 0.888533 0.593842
Si Si2 0.678605 0.378831 0.982871
Si Si3 0.994861 0.073551 0.375975
Si Si4 0.391276 0.256522 0.752113
Si Si5 0.518464 0.716288 0.628403
Si Si6 0.194200 0.140082 0.449896
Si Si7 0.325719 0.317167 0.985663
Si Si8 0.655825 0.949021 0.704082
O O1 0.103444 0.839818 0.631882
O O2 0.238334 0.787867 0.495164
O O3 0.292354 0.870156 0.689654
O O4 0.190948 0.050130 0.564999
O O5 0.661035 0.307833 0.862697
O O6 0.705846 0.536106 0.967771
O O7 0.587539 0.376907 0.058673
O O8 0.765764 0.292934 0.040769
O O9 0.000000 0.996407 0.250000
O O10 0.091055 0.163175 0.384972
O O11 0.000000 0.000000 0.500000
O O12 0.500000 0.299012 0.750000
O O13 0.382019 0.094885 0.762801
O O14 0.343895 0.332236 0.853975
O O15 0.500000 0.645714 0.750000
O O16 0.420800 0.738906 0.553714
O O17 0.564998 0.864373 0.652859
O O18 0.264494 0.040677 0.385728
#
# Coordination Sequence:
#
# PCOD8120316 Si02
#       8
#     4   4   4   4   4   4   4   4
#     4  11  21  39  62  93 124 161 207 262 313 373
#     4  11  26  41  62  88 125 171 210 255 315 377
#     4  10  21  38  67 100 128 162 210 264 329 385
#     4  12  25  39  61  87 128 168 214 256 310 371
#     4  11  23  38  59  87 125 161 206 255 308 369
#     4  10  21  40  63  92 124 159 205 262 314 374
#     4  12  26  40  60  92 126 167 211 260 310 371
#     4  11  21  36  62  92 124 159 204 258 312 366
#
# _framework density 19.66722
#
# number of rings (size 3 to 8) (size 9 to 14) (size 15 to 20)
#    0.000    1.000    6.250    0.750    1.750    0.500 
#    0.000    0.625    0.000    0.000    0.000    0.000 
#    0.000    0.000    0.000    0.000    0.000    0.000 
#
# Total GULP energy -396438.945620 kJ/mol
# GULP energy per Si atom -12388.717051 kJ/mol
# Density = 1.962246 g / cm^3
# Si number density = 19.667220 Si / 1000 Ang^3
#
#
#
# Elastic Constant Matrix: (Units=GPa)
#
#
# Indices 1 2 3 4 5 6 
#
# 1 92.6394 37.1750 16.8098 0.0000 -14.1589 0.0000
# 2 37.1750 101.3267 13.1695 0.0000 2.4443 0.0000
# 3 16.8098 13.1695 102.5729 0.0000 -15.4367 0.0000
# 4 0.0000 0.0000 0.0000 30.3135 0.0000 7.4656
# 5 -14.1589 2.4443 -15.4367 0.0000 16.4551 0.0000
# 6 0.0000 0.0000 0.0000 7.4656 0.0000 21.4368
#
#
#
# Elastic Compliance Matrix: (Units=1/GPa)
#
#
# Indices 1 2 3 4 5 6 
#
# 1 0.015360 -0.006044 0.000446 0.000000 0.014533 0.000000
# 2 -0.006044 0.012556 -0.001962 0.000000 -0.008906 0.000000
# 3 0.000446 -0.001962 0.011678 0.000000 0.011631 0.000000
# 4 0.000000 0.000000 0.000000 0.036083 0.000000 -0.012567
# 5 0.014533 -0.008906 0.011631 0.000000 0.085510 0.000000
# 6 0.000000 0.000000 0.000000 -0.012567 0.000000 0.051025
#
#
# Mechanical properties :
#
#
# Convention : Reuss Voigt Hill
#
# Bulk Modulus (GPa) = 40.85843 47.87194 44.36519
# Shear Modulus (GPa) = 21.23216 28.93340 25.08278
#
# Velocity S-wave (km/s) = 3.28925 3.83972 3.57509
# Velocity P-wave (km/s) = 5.93679 6.63715 6.29671
#
# Compressibility (1/GPa) = 0.02447475
#
# Stress axis : x y z
#
# Youngs Moduli (GPa) = 65.10357 79.64118 85.62857
#
# Poissons Ratio (x) = 0.48134 -0.03818
# Poissons Ratio (y) = 0.39348 0.16800
# Poissons Ratio (z) = -0.02903 0.15625
#
# Static dielectric constant tensor:
#      x y z
#    x 3.879460 0.000000 -0.136920 
#    y 0.000000 3.213510 0.000000 
#    z -0.136920 0.000000 3.935860 
# 
# 
# High freq. dielectric constant tensor:
#      x y z
#    x 1.769930 0.000000 -0.006830 
#    y 0.000000 1.728400 0.000000 
#    z -0.006830 0.000000 1.786440 
# 
# From -- ./inp_files/36438.got.cif
#   From: 2010.06.25/outbox.cif.g09.slc.cpg/sg13_19_cif.got.tgz:36438.got - 2010.06.28 04:50:58.
