data_PCOD8120887
_publ_section_title
;
Structure prediction by ZEFSAII (Michael W. Deem and Ramdas Pophale) SiO2 
 PCOD8120887
Probable space group: P 2/C
;
_chemical_formula_sum "Si O2"
_cell_formula_units_Z 22
_cell_length_a 10.481618
_cell_length_b 5.451753
_cell_length_c 21.307504
_cell_angle_alpha 90.000000
_cell_angle_beta 130.446989
_cell_angle_gamma 90.000000
_cell_volume 926.585406
_symmetry_space_group_name_H-M "P 2/C"
_symmetry_group_IT_number 13
_symmetry_cell_setting 'monoclinic'
loop_
_space_group_symop_operation_xyz
x,y,z
-x,y,1/2-z
-x,-y,-z
x,-y,1/2+z
loop_
_atom_site_type_symbol
_atom_site_label
_atom_site_fract_x
_atom_site_fract_y
_atom_site_fract_z
Si Si1 0.851527 0.752714 0.465897
Si Si2 0.075309 0.482707 0.126627
Si Si3 0.334775 0.751888 0.558127
Si Si4 0.302314 0.386082 0.302328
Si Si5 0.000000 0.073047 0.250000
Si Si6 0.204844 0.306998 0.885551
O O1 0.920441 0.726482 0.416484
O O2 0.740149 0.507840 0.443031
O O3 0.017241 0.747111 0.563864
O O4 0.752403 0.005755 0.441641
O O5 0.260219 0.476603 0.217874
O O6 0.928135 0.493127 0.132013
O O7 0.526497 0.764942 0.642218
O O8 0.334408 0.764357 0.482039
O O9 0.143066 0.218134 0.261096
O O10 0.306567 0.598066 0.357005
O O11 0.090191 0.921700 0.332923
#
# Coordination Sequence:
#
# PCOD8120887 Si02
#       6
#     4   4   4   4   2   4
#     4  10  25  47  71 102 133 195 230 292 342 416
#     4  10  21  46  72  95 142 178 251 278 344 422
#     4  11  27  44  69 103 146 178 235 286 363 412
#     4  12  24  43  65 107 137 184 230 302 352 423
#     4  12  22  38  72  96 136 182 238 274 362 408
#     4  11  23  43  66 103 135 186 229 293 353 420
#
# _framework density 23.743091
#
# number of rings (size 3 to 8) (size 9 to 14) (size 15 to 20)
#    0.000    1.091    3.636    1.636    5.091    9.455 
#    0.000    1.818    0.000    0.000    0.000    0.000 
#    0.000    0.000    0.000    0.000    0.000    0.000 
#
# Total GULP energy -272564.063477 kJ/mol
# GULP energy per Si atom -12389.275613 kJ/mol
# Density = 2.368905 g / cm^3
# Si number density = 23.743091 Si / 1000 Ang^3
#
#
#
# Elastic Constant Matrix: (Units=GPa)
#
#
# Indices 1 2 3 4 5 6 
#
# 1 61.9569 37.2984 26.2991 0.0000 -5.4746 0.0000
# 2 37.2984 121.1211 34.2127 0.0000 14.1089 0.0000
# 3 26.2991 34.2127 149.1682 0.0000 -5.3100 0.0000
# 4 0.0000 0.0000 0.0000 32.6393 0.0000 9.3588
# 5 -5.4746 14.1089 -5.3100 0.0000 33.3872 0.0000
# 6 0.0000 0.0000 0.0000 9.3588 0.0000 21.7519
#
#
#
# Elastic Compliance Matrix: (Units=1/GPa)
#
#
# Indices 1 2 3 4 5 6 
#
# 1 0.021636 -0.006797 -0.002039 0.000000 0.006096 0.000000
# 2 -0.006797 0.011552 -0.001674 0.000000 -0.006262 0.000000
# 3 -0.002039 -0.001674 0.007503 0.000000 0.001566 0.000000
# 4 0.000000 0.000000 0.000000 0.034950 0.000000 -0.015037
# 5 0.006096 -0.006262 0.001566 0.000000 0.033847 0.000000
# 6 0.000000 0.000000 0.000000 -0.015037 0.000000 0.052443
#
#
# Mechanical properties :
#
#
# Convention : Reuss Voigt Hill
#
# Bulk Modulus (GPa) = 50.83505 58.65185 54.74345
# Shear Modulus (GPa) = 26.38446 33.18476 29.78461
#
# Velocity S-wave (km/s) = 3.33715 3.74258 3.54567
# Velocity P-wave (km/s) = 6.02542 6.59031 6.31419
#
# Compressibility (1/GPa) = 0.01967147
#
# Stress axis : x y z
#
# Youngs Moduli (GPa) = 46.21932 86.56839 133.28047
#
# Poissons Ratio (x) = 0.58839 0.27171
# Poissons Ratio (y) = 0.31415 0.22311
# Poissons Ratio (z) = 0.09422 0.14492
#
# Static dielectric constant tensor:
#      x y z
#    x 4.062570 0.000000 0.197250 
#    y 0.000000 4.376920 0.000000 
#    z 0.197250 0.000000 3.749380 
# 
# 
# High freq. dielectric constant tensor:
#      x y z
#    x 1.932040 0.000000 -0.014460 
#    y 0.000000 1.931660 0.000000 
#    z -0.014460 0.000000 1.959470 
# 
# From -- ./inp_files/85913.got.cif
#   From: 2010.06.25/outbox.cif.g09.slc.cpg/sg13_43_cif.got.tgz:85913.got - 2010.06.28 04:50:58.
