data_PCOD8120428
_publ_section_title
;
Structure prediction by ZEFSAII (Michael W. Deem and Ramdas Pophale) SiO2 
 PCOD8120428
Probable space group: P 2/C
;
_chemical_formula_sum "Si O2"
_cell_formula_units_Z 20
_cell_length_a 8.899707
_cell_length_b 12.343070
_cell_length_c 8.503220
_cell_angle_alpha 90.000000
_cell_angle_beta 80.850145
_cell_angle_gamma 90.000000
_cell_volume 922.190862
_symmetry_space_group_name_H-M "P 2/C"
_symmetry_group_IT_number 13
_symmetry_cell_setting 'monoclinic'
loop_
_space_group_symop_operation_xyz
x,y,z
-x,y,1/2-z
-x,-y,-z
x,-y,1/2+z
loop_
_atom_site_type_symbol
_atom_site_label
_atom_site_fract_x
_atom_site_fract_y
_atom_site_fract_z
Si Si1 0.381133 0.537808 0.647152
Si Si2 0.164985 0.345338 0.657987
Si Si3 0.662673 0.917900 0.647161
Si Si4 0.833906 0.708478 0.706231
Si Si5 0.661450 0.862448 0.289768
O O1 0.500000 0.582319 0.750000
O O2 0.500000 0.500000 0.500000
O O3 0.277793 0.435400 0.709351
O O4 0.268683 0.641475 0.649505
O O5 0.169609 0.346628 0.466884
O O6 0.214535 0.232354 0.728286
O O7 0.000000 0.375071 0.750000
O O8 0.500000 0.899876 0.750000
O O9 0.778856 0.831525 0.700601
O O10 0.638335 0.907693 0.467086
O O11 0.724900 0.038886 0.672886
O O12 0.000000 0.709702 0.750000
O O13 0.500000 0.819022 0.250000
#
# Coordination Sequence:
#
# PCOD8120428 Si02
#       5
#     4   4   4   4   4
#     4  12  25  45  70  95 124 166 217 265 318 384
#     4  11  26  43  64  95 133 169 210 264 321 382
#     4  10  21  39  65  94 129 166 213 262 311 376
#     4  11  26  43  64  95 132 170 209 263 326 378
#     4  10  21  40  64  97 127 167 214 260 314 373
#
# _framework density 21.687486
#
# number of rings (size 3 to 8) (size 9 to 14) (size 15 to 20)
#    0.000    1.200    2.000    4.200    5.600    5.600 
#    0.000    4.000    0.000    0.000    0.000    0.000 
#    0.000    0.000    0.000    0.000    0.000    0.000 
#
# Total GULP energy -247846.510222 kJ/mol
# GULP energy per Si atom -12392.325511 kJ/mol
# Density = 2.163812 g / cm^3
# Si number density = 21.687486 Si / 1000 Ang^3
#
#
#
# Elastic Constant Matrix: (Units=GPa)
#
#
# Indices 1 2 3 4 5 6 
#
# 1 154.3010 62.3357 30.4967 0.0000 -0.9311 0.0000
# 2 62.3357 96.7419 14.7177 0.0000 0.6380 0.0000
# 3 30.4967 14.7177 54.1559 0.0000 -2.0677 0.0000
# 4 0.0000 0.0000 0.0000 28.5329 0.0000 0.0399
# 5 -0.9311 0.6380 -2.0677 0.0000 40.2299 0.0000
# 6 0.0000 0.0000 0.0000 0.0399 0.0000 33.6334
#
#
#
# Elastic Compliance Matrix: (Units=1/GPa)
#
#
# Indices 1 2 3 4 5 6 
#
# 1 0.009468 -0.005519 -0.003827 0.000000 0.000110 0.000000
# 2 -0.005519 0.014004 -0.000713 0.000000 -0.000386 0.000000
# 3 -0.003827 -0.000713 0.020852 0.000000 0.000994 0.000000
# 4 0.000000 0.000000 0.000000 0.035047 0.000000 -0.000042
# 5 0.000110 -0.000386 0.000994 0.000000 0.024917 0.000000
# 6 0.000000 0.000000 0.000000 -0.000042 0.000000 0.029732
#
#
# Mechanical properties :
#
#
# Convention : Reuss Voigt Hill
#
# Bulk Modulus (GPa) = 41.31266 57.81099 49.56183
# Shear Modulus (GPa) = 30.82489 33.65582 32.24036
#
# Velocity S-wave (km/s) = 3.77413 3.94363 3.85981
# Velocity P-wave (km/s) = 6.17110 6.88844 6.53961
#
# Compressibility (1/GPa) = 0.02420566
#
# Stress axis : x y z
#
# Youngs Moduli (GPa) = 105.62431 71.40900 47.95663
#
# Poissons Ratio (x) = 0.39410 0.18355
# Poissons Ratio (y) = 0.58293 0.03418
# Poissons Ratio (z) = 0.40427 0.05089
#
# Static dielectric constant tensor:
#      x y z
#    x 4.031980 0.000000 0.063720 
#    y 0.000000 4.175240 0.000000 
#    z 0.063720 0.000000 3.989140 
# 
# 
# High freq. dielectric constant tensor:
#      x y z
#    x 1.861180 0.000000 0.006820 
#    y 0.000000 1.862820 0.000000 
#    z 0.006820 0.000000 1.849980 
# 
# From -- ./inp_files/11697.got.cif
#   From: 2010.06.25/outbox.cif.g09.slc.cpg/sg13_6_cif.got.tgz:11697.got - 2010.06.28 04:50:58.
