data_PCOD8120627
_publ_section_title
;
Structure prediction by ZEFSAII (Michael W. Deem and Ramdas Pophale) SiO2 
 PCOD8120627
Probable space group: P 2/C
;
_chemical_formula_sum "Si O2"
_cell_formula_units_Z 20
_cell_length_a 11.995905
_cell_length_b 8.598179
_cell_length_c 8.791380
_cell_angle_alpha 90.000000
_cell_angle_beta 99.802482
_cell_angle_gamma 90.000000
_cell_volume 893.530418
_symmetry_space_group_name_H-M "P 2/C"
_symmetry_group_IT_number 13
_symmetry_cell_setting 'monoclinic'
loop_
_space_group_symop_operation_xyz
x,y,z
-x,y,1/2-z
-x,-y,-z
x,-y,1/2+z
loop_
_atom_site_type_symbol
_atom_site_label
_atom_site_fract_x
_atom_site_fract_y
_atom_site_fract_z
Si Si1 0.371000 0.835678 0.676022
Si Si2 0.746466 0.986750 0.100843
Si Si3 0.833959 0.290200 0.009884
Si Si4 0.057819 0.245086 0.912500
Si Si5 0.791921 0.575502 0.819104
O O1 0.500000 0.854790 0.750000
O O2 0.290679 0.965271 0.738260
O O3 0.330791 0.659792 0.703297
O O4 0.349953 0.874996 0.493720
O O5 0.746912 0.150542 0.011710
O O6 0.870073 0.905062 0.126242
O O7 0.846119 0.394087 0.166645
O O8 0.784979 0.391507 0.855397
O O9 0.954168 0.208441 0.002027
O O10 0.000000 0.323967 0.750000
O O11 0.135047 0.362962 0.022565
#
# Coordination Sequence:
#
# PCOD8120627 Si02
#       5
#     4   4   4   4   4
#     4  10  21  41  62  85 117 154 197 251 294 334
#     4  10  22  37  60  89 114 149 200 242 291 353
#     4  11  21  38  56  84 122 157 190 239 289 351
#     4  11  21  36  59  86 117 154 190 237 296 353
#     4  10  23  38  58  86 119 158 200 235 286 353
#
# _framework density 22.383123000000001
#
# number of rings (size 3 to 8) (size 9 to 14) (size 15 to 20)
#    0.000    1.600    0.000    4.800    0.000    4.800 
#    0.000    5.000    0.000    0.000    0.000    0.000 
#    0.000    0.000    0.000    0.000    0.000    0.000 
#
# Total GULP energy -247805.593581 kJ/mol
# GULP energy per Si atom -12390.279679 kJ/mol
# Density = 2.233218 g / cm^3
# Si number density = 22.383123 Si / 1000 Ang^3
#
#
#
# Elastic Constant Matrix: (Units=GPa)
#
#
# Indices 1 2 3 4 5 6 
#
# 1 74.2744 29.1898 31.6591 0.0000 2.1454 0.0000
# 2 29.1898 55.4509 15.3172 0.0000 -1.6749 0.0000
# 3 31.6591 15.3172 84.3548 0.0000 3.7979 0.0000
# 4 0.0000 0.0000 0.0000 41.3234 0.0000 -3.8444
# 5 2.1454 -1.6749 3.7979 0.0000 26.9495 0.0000
# 6 0.0000 0.0000 0.0000 -3.8444 0.0000 21.7400
#
#
#
# Elastic Compliance Matrix: (Units=1/GPa)
#
#
# Indices 1 2 3 4 5 6 
#
# 1 0.019289 -0.008642 -0.005612 0.000000 -0.001282 0.000000
# 2 -0.008642 0.022934 -0.001022 0.000000 0.002257 0.000000
# 3 -0.005612 -0.001022 0.014220 0.000000 -0.001621 0.000000
# 4 0.000000 0.000000 0.000000 0.024604 0.000000 0.004351
# 5 -0.001282 0.002257 -0.001621 0.000000 0.037577 0.000000
# 6 0.000000 0.000000 0.000000 0.004351 0.000000 0.046768
#
#
# Mechanical properties :
#
#
# Convention : Reuss Voigt Hill
#
# Bulk Modulus (GPa) = 38.62730 40.71250 39.66990
# Shear Modulus (GPa) = 24.44078 27.19685 25.81882
#
# Velocity S-wave (km/s) = 3.30802 3.48955 3.40000
# Velocity P-wave (km/s) = 5.64672 5.87064 5.75977
#
# Compressibility (1/GPa) = 0.02588842
#
# Stress axis : x y z
#
# Youngs Moduli (GPa) = 51.84200 43.60331 70.32489
#
# Poissons Ratio (x) = 0.37684 0.39470
# Poissons Ratio (y) = 0.44804 0.07190
# Poissons Ratio (z) = 0.29096 0.04458
#
# Static dielectric constant tensor:
#      x y z
#    x 3.768940 0.000000 -0.262440 
#    y 0.000000 4.040170 0.000000 
#    z -0.262440 0.000000 4.152520 
# 
# 
# High freq. dielectric constant tensor:
#      x y z
#    x 1.848780 0.000000 -0.012860 
#    y 0.000000 1.878380 0.000000 
#    z -0.012860 0.000000 1.896730 
# 
# From -- ./inp_files/14800.got.cif
#   From: 2010.06.25/outbox.cif.g09.slc.cpg/sg13_8_cif.got.tgz:14800.got - 2010.06.28 04:50:58.
