data_PCOD8120903
_publ_section_title
;
Structure prediction by ZEFSAII (Michael W. Deem and Ramdas Pophale) SiO2 
 PCOD8120903
Probable space group: P 2/C
;
_chemical_formula_sum "Si O2"
_cell_formula_units_Z 20
_cell_length_a 16.618650
_cell_length_b 9.089702
_cell_length_c 10.261405
_cell_angle_alpha 90.000000
_cell_angle_beta 146.141563
_cell_angle_gamma 90.000000
_cell_volume 863.612235
_symmetry_space_group_name_H-M "P 2/C"
_symmetry_group_IT_number 13
_symmetry_cell_setting 'monoclinic'
loop_
_space_group_symop_operation_xyz
x,y,z
-x,y,1/2-z
-x,-y,-z
x,-y,1/2+z
loop_
_atom_site_type_symbol
_atom_site_label
_atom_site_fract_x
_atom_site_fract_y
_atom_site_fract_z
Si Si1 0.561352 0.733021 0.539054
Si Si2 0.500000 0.490964 0.250000
Si Si3 0.665266 0.234615 0.538947
Si Si4 0.885963 0.647802 0.987371
Si Si5 0.500000 0.024370 0.750000
Si Si6 0.943433 0.685603 0.539887
O O1 0.508232 0.589926 0.389418
O O2 0.471550 0.745179 0.549105
O O3 0.523218 0.879325 0.408477
O O4 0.731833 0.724171 0.801917
O O5 0.647638 0.389171 0.434755
O O6 0.639424 0.084875 0.421805
O O7 0.815412 0.213967 0.813065
O O8 0.876495 0.472264 0.986723
O O9 0.000000 0.707539 0.250000
O O10 0.932818 0.683541 0.902431
O O11 0.000000 0.758710 0.750000
#
# Coordination Sequence:
#
# PCOD8120903 Si02
#       6
#     4   2   4   4   2   4
#     4  11  23  41  67  94 130 174 221 273 320 392
#     4  10  22  34  68  98 124 158 228 266 336 368
#     4  11  23  41  67  94 130 174 221 273 320 392
#     4  10  23  39  64  99 135 165 209 274 340 392
#     4  10  26  42  64  90 136 170 232 262 328 372
#     4  10  23  39  64  99 135 165 209 274 340 392
#
# _framework density 23.158541
#
# number of rings (size 3 to 8) (size 9 to 14) (size 15 to 20)
#    0.000    1.600    2.000    1.200   11.200    0.000 
#    0.000    2.000    0.000    0.000    0.000    0.000 
#    0.000    0.000    0.000    0.000    0.000    0.000 
#
# Total GULP energy -247863.110337 kJ/mol
# GULP energy per Si atom -12393.155517 kJ/mol
# Density = 2.310583 g / cm^3
# Si number density = 23.158541 Si / 1000 Ang^3
#
#
#
# Elastic Constant Matrix: (Units=GPa)
#
#
# Indices 1 2 3 4 5 6 
#
# 1 58.9448 8.7008 15.9169 0.0000 3.9734 0.0000
# 2 8.7008 109.8636 40.4836 0.0000 -4.1952 0.0000
# 3 15.9169 40.4836 171.5948 0.0000 -5.5153 0.0000
# 4 0.0000 0.0000 0.0000 22.6715 0.0000 -6.1470
# 5 3.9734 -4.1952 -5.5153 0.0000 39.4865 0.0000
# 6 0.0000 0.0000 0.0000 -6.1470 0.0000 12.3928
#
#
#
# Elastic Compliance Matrix: (Units=1/GPa)
#
#
# Indices 1 2 3 4 5 6 
#
# 1 0.017643 -0.000930 -0.001484 0.000000 -0.002081 0.000000
# 2 -0.000930 0.010039 -0.002255 0.000000 0.000845 0.000000
# 3 -0.001484 -0.002255 0.006524 0.000000 0.000821 0.000000
# 4 0.000000 0.000000 0.000000 0.050962 0.000000 0.025278
# 5 -0.002081 0.000845 0.000821 0.000000 0.025739 0.000000
# 6 0.000000 0.000000 0.000000 0.025278 0.000000 0.093230
#
#
# Mechanical properties :
#
#
# Convention : Reuss Voigt Hill
#
# Bulk Modulus (GPa) = 40.21216 52.28953 46.25085
# Shear Modulus (GPa) = 22.54643 33.26362 27.90503
#
# Velocity S-wave (km/s) = 3.12359 3.79402 3.47501
# Velocity P-wave (km/s) = 5.51459 6.46690 6.00964
#
# Compressibility (1/GPa) = 0.02486810
#
# Stress axis : x y z
#
# Youngs Moduli (GPa) = 56.67856 99.61077 153.28596
#
# Poissons Ratio (x) = 0.09263 0.22749
# Poissons Ratio (y) = 0.05271 0.34567
# Poissons Ratio (z) = 0.08412 0.22463
#
# Static dielectric constant tensor:
#      x y z
#    x 4.072080 0.000000 -0.387560 
#    y 0.000000 4.343330 0.000000 
#    z -0.387560 0.000000 4.432480 
# 
# 
# High freq. dielectric constant tensor:
#      x y z
#    x 1.908730 0.000000 -0.030460 
#    y 0.000000 1.894080 0.000000 
#    z -0.030460 0.000000 1.934050 
# 
# From -- ./inp_files/28168.got.cif
#   From: 2010.06.25/outbox.cif.g09.slc.cpg/sg13_15_cif.got.tgz:28168.got - 2010.06.28 04:50:58.
