data_PCOD8120223
_publ_section_title
;
Structure prediction by ZEFSAII (Michael W. Deem and Ramdas Pophale) SiO2 
 PCOD8120223
Probable space group: P 2/C
;
_chemical_formula_sum "Si O2"
_cell_formula_units_Z 28
_cell_length_a 8.576901
_cell_length_b 6.355865
_cell_length_c 26.294950
_cell_angle_alpha 90.000000
_cell_angle_beta 105.972127
_cell_angle_gamma 90.000000
_cell_volume 1378.096323
_symmetry_space_group_name_H-M "P 2/C"
_symmetry_group_IT_number 13
_symmetry_cell_setting 'monoclinic'
loop_
_space_group_symop_operation_xyz
x,y,z
-x,y,1/2-z
-x,-y,-z
x,-y,1/2+z
loop_
_atom_site_type_symbol
_atom_site_label
_atom_site_fract_x
_atom_site_fract_y
_atom_site_fract_z
Si Si1 0.747318 0.001707 0.996388
Si Si2 0.872129 0.944587 0.699967
Si Si3 0.272638 0.652830 0.345000
Si Si4 0.674947 0.393279 0.244580
Si Si5 0.958781 0.597951 0.843977
Si Si6 0.033363 0.692962 0.541354
Si Si7 0.536165 0.306149 0.541008
O O1 0.882450 0.149784 0.033515
O O2 0.670559 0.854269 0.032387
O O3 0.620717 0.165311 0.960316
O O4 0.815368 0.839144 0.960814
O O5 0.756702 0.795067 0.721802
O O6 0.000000 0.056792 0.750000
O O7 0.977820 0.826214 0.666946
O O8 0.750614 0.098091 0.660194
O O9 0.346023 0.581229 0.297713
O O10 0.397523 0.592528 0.400974
O O11 0.094282 0.567103 0.340037
O O12 0.500000 0.326396 0.250000
O O13 0.791134 0.464006 0.301269
O O14 0.926633 0.589257 0.901134
O O15 0.000000 0.500000 0.500000
O O16 0.500000 0.500000 0.500000
#
# Coordination Sequence:
#
# PCOD8120223 Si02
#       7
#     4   4   4   4   4   4   4
#     4  10  23  39  58  90 121 156 205 244 298 363
#     4   9  19  38  60  81 109 150 195 238 287 348
#     4  11  21  38  63  84 111 155 200 236 288 356
#     4  10  23  38  56  87 120 148 187 242 297 347
#     4  10  21  38  60  84 116 154 194 241 290 352
#     4  11  22  39  62  90 123 158 197 247 302 357
#     4  11  23  40  61  87 121 160 201 251 299 349
#
# _framework density 20.317886000000001
#
# number of rings (size 3 to 8) (size 9 to 14) (size 15 to 20)
#    0.000    1.714    0.000    5.571    0.000    8.571 
#    0.000    1.429    0.000    0.000    0.000    0.000 
#    0.000    0.000    0.000    0.000    0.000    0.000 
#
# Total GULP energy -347149.280115 kJ/mol
# GULP energy per Si atom -12398.188576 kJ/mol
# Density = 2.027164 g / cm^3
# Si number density = 20.317886 Si / 1000 Ang^3
#
#
#
# Elastic Constant Matrix: (Units=GPa)
#
#
# Indices 1 2 3 4 5 6 
#
# 1 108.0055 21.5305 42.8854 0.0000 2.0253 0.0000
# 2 21.5305 91.4153 41.1053 0.0000 4.7780 0.0000
# 3 42.8854 41.1053 158.5024 0.0000 7.0372 0.0000
# 4 0.0000 0.0000 0.0000 28.5549 0.0000 7.2578
# 5 2.0253 4.7780 7.0372 0.0000 28.6402 0.0000
# 6 0.0000 0.0000 0.0000 7.2578 0.0000 18.8974
#
#
#
# Elastic Compliance Matrix: (Units=1/GPa)
#
#
# Indices 1 2 3 4 5 6 
#
# 1 0.010520 -0.001359 -0.002498 0.000000 0.000097 0.000000
# 2 -0.001359 0.012606 -0.002843 0.000000 -0.001308 0.000000
# 3 -0.002498 -0.002843 0.007778 0.000000 -0.001260 0.000000
# 4 0.000000 0.000000 0.000000 0.038809 0.000000 -0.014905
# 5 0.000097 -0.001308 -0.001260 0.000000 0.035437 0.000000
# 6 0.000000 0.000000 0.000000 -0.014905 0.000000 0.058642
#
#
# Mechanical properties :
#
#
# Convention : Reuss Voigt Hill
#
# Bulk Modulus (GPa) = 57.13430 63.21839 60.17635
# Shear Modulus (GPa) = 27.31829 32.04530 29.68180
#
# Velocity S-wave (km/s) = 3.67078 3.97570 3.82628
# Velocity P-wave (km/s) = 6.79319 7.22891 7.01443
#
# Compressibility (1/GPa) = 0.01750262
#
# Stress axis : x y z
#
# Youngs Moduli (GPa) = 95.05810 79.32631 128.56333
#
# Poissons Ratio (x) = 0.10784 0.32116
# Poissons Ratio (y) = 0.12923 0.36555
# Poissons Ratio (z) = 0.23746 0.22555
#
# Static dielectric constant tensor:
#      x y z
#    x 3.784420 0.000000 0.023360 
#    y 0.000000 3.710870 0.000000 
#    z 0.023360 0.000000 3.699370 
# 
# 
# High freq. dielectric constant tensor:
#      x y z
#    x 1.794660 0.000000 0.002650 
#    y 0.000000 1.796520 0.000000 
#    z 0.002650 0.000000 1.795140 
# 
# From -- ./inp_files/90873.got.cif
#   From: 2010.06.25/outbox.cif.g09.slc.cpg/sg13_46_cif.got.tgz:90873.got - 2010.06.28 04:50:58.
