data_PCOD8120792
_publ_section_title
;
Structure prediction by ZEFSAII (Michael W. Deem and Ramdas Pophale) SiO2 
 PCOD8120792
Probable space group: P 2/C
;
_chemical_formula_sum "Si O2"
_cell_formula_units_Z 20
_cell_length_a 5.240754
_cell_length_b 11.271783
_cell_length_c 16.397544
_cell_angle_alpha 90.000000
_cell_angle_beta 99.772470
_cell_angle_gamma 90.000000
_cell_volume 954.590769
_symmetry_space_group_name_H-M "P 2/C"
_symmetry_group_IT_number 13
_symmetry_cell_setting 'monoclinic'
loop_
_space_group_symop_operation_xyz
x,y,z
-x,y,1/2-z
-x,-y,-z
x,-y,1/2+z
loop_
_atom_site_type_symbol
_atom_site_label
_atom_site_fract_x
_atom_site_fract_y
_atom_site_fract_z
Si Si1 0.005027 0.638133 0.004374
Si Si2 0.841749 0.328100 0.321625
Si Si3 0.500000 0.457645 0.750000
Si Si4 0.282478 0.904672 0.295900
Si Si5 0.558961 0.701479 0.099374
Si Si6 0.500000 0.867066 0.750000
O O1 0.732538 0.664376 0.032734
O O2 0.253643 0.692928 0.063269
O O3 0.015204 0.681387 0.911474
O O4 0.000000 0.500000 0.000000
O O5 0.713864 0.457951 0.304210
O O6 0.642386 0.219261 0.321182
O O7 0.000000 0.297257 0.250000
O O8 0.378055 0.378036 0.816365
O O9 0.500000 0.845327 0.250000
O O10 0.349007 0.838859 0.384014
O O11 0.000000 0.868568 0.250000
O O12 0.317093 0.047957 0.296827
#
# Coordination Sequence:
#
# PCOD8120792 Si02
#       6
#     4   4   2   4   4   2
#     4  12  26  43  64 102 148 172 218 279 333 400
#     4  11  24  42  68  94 133 186 228 265 340 407
#     4  11  23  38  68  98 131 183 224 260 336 417
#     4  10  21  42  70  95 127 170 226 281 326 391
#     4  12  25  42  68 103 135 177 218 277 338 396
#     4   9  23  42  72  94 125 179 232 288 320 405
#
# _framework density 20.951387
#
# number of rings (size 3 to 8) (size 9 to 14) (size 15 to 20)
#    0.600    0.400    3.000    3.600    5.600    0.000 
#    0.000    2.000    0.000    0.000    0.000    0.000 
#    0.000    0.000    0.000    0.000    0.000    0.000 
#
# Total GULP energy -247777.354792 kJ/mol
# GULP energy per Si atom -12388.867740 kJ/mol
# Density = 2.090370 g / cm^3
# Si number density = 20.951387 Si / 1000 Ang^3
#
#
#
# Elastic Constant Matrix: (Units=GPa)
#
#
# Indices 1 2 3 4 5 6 
#
# 1 117.0742 21.7075 37.9208 0.0000 10.2883 0.0000
# 2 21.7075 113.5075 47.9343 0.0000 15.6706 0.0000
# 3 37.9208 47.9343 125.2996 0.0000 5.2320 0.0000
# 4 0.0000 0.0000 0.0000 -0.5250 0.0000 2.0017
# 5 10.2883 15.6706 5.2320 0.0000 43.8562 0.0000
# 6 0.0000 0.0000 0.0000 2.0017 0.0000 -52.0245
#
#
#
# Elastic Compliance Matrix: (Units=1/GPa)
#
#
# Indices 1 2 3 4 5 6 
#
# 1 0.009649 -0.000475 -0.002664 0.000000 -0.001776 0.000000
# 2 -0.000475 0.011026 -0.003934 0.000000 -0.003359 0.000000
# 3 -0.002664 -0.003934 0.010258 0.000000 0.000807 0.000000
# 4 0.000000 0.000000 0.000000 -2.232194 0.000000 -0.085886
# 5 -0.001776 -0.003359 0.000807 0.000000 0.024322 0.000000
# 6 0.000000 0.000000 0.000000 -0.085886 0.000000 -0.022526
#
#
# Mechanical properties :
#
#
# Convention : Reuss Voigt Hill
#
# Bulk Modulus (GPa) = 59.57128 63.44516 61.50822
# Shear Modulus (GPa) = -2.29387 14.81591 6.26102
#
# Velocity S-wave (km/s) = -1.04749 2.66213 1.73056
# Velocity P-wave (km/s) = 5.19922 6.30849 5.78052
#
# Compressibility (1/GPa) = 0.01678661
#
# Stress axis : x y z
#
# Youngs Moduli (GPa) = 103.64108 90.69550 97.48029
#
# Poissons Ratio (x) = 0.04308 0.25971
# Poissons Ratio (y) = 0.04922 0.38349
# Poissons Ratio (z) = 0.27612 0.35680
#
# Static dielectric constant tensor:
#      x y z
#    x 2.667400 0.000000 -0.357560 
#    y 0.000000 3.886010 0.000000 
#    z -0.357560 0.000000 3.433300 
# 
# 
# High freq. dielectric constant tensor:
#      x y z
#    x 1.825800 0.000000 0.003310 
#    y 0.000000 1.826480 0.000000 
#    z 0.003310 0.000000 1.805770 
# 
# From -- ./inp_files/43464.got.cif
#   From: 2010.06.25/outbox.cif.g09.slc.cpg/sg13_22_cif.got.tgz:43464.got - 2010.06.28 04:50:58.
