data_PCOD8120151
_publ_section_title
;
Structure prediction by ZEFSAII (Michael W. Deem and Ramdas Pophale) SiO2 
 PCOD8120151
Probable space group: P 2/C
;
_chemical_formula_sum "Si O2"
_cell_formula_units_Z 30
_cell_length_a 6.240107
_cell_length_b 14.276821
_cell_length_c 17.270312
_cell_angle_alpha 90.000000
_cell_angle_beta 74.365159
_cell_angle_gamma 90.000000
_cell_volume 1481.663247
_symmetry_space_group_name_H-M "P 2/C"
_symmetry_group_IT_number 13
_symmetry_cell_setting 'monoclinic'
loop_
_space_group_symop_operation_xyz
x,y,z
-x,y,1/2-z
-x,-y,-z
x,-y,1/2+z
loop_
_atom_site_type_symbol
_atom_site_label
_atom_site_fract_x
_atom_site_fract_y
_atom_site_fract_z
Si Si1 0.000000 0.309885 0.250000
Si Si2 0.156772 0.250058 0.662235
Si Si3 0.442743 0.609948 0.666915
Si Si4 0.771765 0.947573 0.542962
Si Si5 0.498730 0.402463 0.843286
Si Si6 0.504978 0.884613 0.419626
Si Si7 0.149199 0.271250 0.950033
Si Si8 0.179568 0.249885 0.388990
O O1 0.820491 0.371212 0.314998
O O2 0.874132 0.249637 0.197274
O O3 0.287867 0.348074 0.643900
O O4 0.331668 0.164686 0.658307
O O5 0.000000 0.251161 0.750000
O O6 0.022379 0.231310 0.596723
O O7 0.500000 0.600340 0.750000
O O8 0.491908 0.508384 0.625173
O O9 0.592198 0.692847 0.614958
O O10 0.649494 0.910812 0.479377
O O11 0.805174 0.859903 0.595360
O O12 0.611912 0.022270 0.602726
O O13 0.000000 0.000000 0.500000
O O14 0.500000 0.394172 0.750000
O O15 0.273043 0.360078 0.900979
O O16 0.316177 0.809798 0.460980
O O17 0.011103 0.299009 0.040265
#
# Coordination Sequence:
#
# PCOD8120151 Si02
#       8
#     2   4   4   4   4   4   4   4
#     4  10  24  42  68  84 126 172 210 270 312 364
#     4  11  21  36  63  92 131 166 205 255 316 378
#     4   9  22  41  62  92 125 171 215 264 313 377
#     4  11  21  40  70  90 117 164 211 259 320 382
#     4  10  21  37  63  96 129 171 214 250 321 386
#     4  10  22  37  64  94 122 165 204 253 318 385
#     4  11  22  39  63  97 129 166 204 264 316 380
#     4  11  23  41  68  89 127 163 220 260 321 369
#
# _framework density 20.247515
#
# number of rings (size 3 to 8) (size 9 to 14) (size 15 to 20)
#    0.000    1.600    4.000    0.000    2.800    1.600 
#    0.000    1.333   27.867    0.000    0.000    0.000 
#    0.000    0.000    0.000    0.000    0.000    0.000 
#
# Total GULP energy -371857.397637 kJ/mol
# GULP energy per Si atom -12395.246588 kJ/mol
# Density = 2.020143 g / cm^3
# Si number density = 20.247515 Si / 1000 Ang^3
#
#
#
# Elastic Constant Matrix: (Units=GPa)
#
#
# Indices 1 2 3 4 5 6 
#
# 1 124.0080 65.7925 35.4719 0.0000 -18.7078 0.0000
# 2 65.7925 169.4672 42.5035 0.0000 -23.0855 0.0000
# 3 35.4719 42.5035 77.5953 0.0000 -19.6867 0.0000
# 4 0.0000 0.0000 0.0000 26.7771 0.0000 -4.0692
# 5 -18.7078 -23.0855 -19.6867 0.0000 41.7385 0.0000
# 6 0.0000 0.0000 0.0000 -4.0692 0.0000 19.8110
#
#
#
# Elastic Compliance Matrix: (Units=1/GPa)
#
#
# Indices 1 2 3 4 5 6 
#
# 1 0.010853 -0.003293 -0.002709 0.000000 0.001765 0.000000
# 2 -0.003293 0.008038 -0.002436 0.000000 0.001821 0.000000
# 3 -0.002709 -0.002436 0.016823 0.000000 0.005374 0.000000
# 4 0.000000 0.000000 0.000000 0.038549 0.000000 0.007918
# 5 0.001765 0.001821 0.005374 0.000000 0.028291 0.000000
# 6 0.000000 0.000000 0.000000 0.007918 0.000000 0.052103
#
#
# Mechanical properties :
#
#
# Convention : Reuss Voigt Hill
#
# Bulk Modulus (GPa) = 53.08516 73.17848 63.13182
# Shear Modulus (GPa) = 28.11933 32.81882 30.46907
#
# Velocity S-wave (km/s) = 3.73068 4.03038 3.88342
# Velocity P-wave (km/s) = 6.69569 7.60783 7.16629
#
# Compressibility (1/GPa) = 0.01883766
#
# Stress axis : x y z
#
# Youngs Moduli (GPa) = 92.14431 124.40360 59.44114
#
# Poissons Ratio (x) = 0.40970 0.16105
# Poissons Ratio (y) = 0.30346 0.14477
# Poissons Ratio (z) = 0.24966 0.30299
#
# Static dielectric constant tensor:
#      x y z
#    x 4.183260 0.000000 -0.187750 
#    y 0.000000 3.941590 0.000000 
#    z -0.187750 0.000000 3.575600 
# 
# 
# High freq. dielectric constant tensor:
#      x y z
#    x 1.810600 0.000000 -0.014180 
#    y 0.000000 1.792490 0.000000 
#    z -0.014180 0.000000 1.768910 
# 
# From -- ./inp_files/61576.got.cif
#   From: 2010.06.25/outbox.cif.g09.slc.cpg/sg13_31_cif.got.tgz:61576.got - 2010.06.28 04:50:58.
