data_PCOD8120200
_publ_section_title
;
Structure prediction by ZEFSAII (Michael W. Deem and Ramdas Pophale) SiO2 
 PCOD8120200
Probable space group: P 2/C
;
_chemical_formula_sum "Si O2"
_cell_formula_units_Z 22
_cell_length_a 11.632417
_cell_length_b 17.772259
_cell_length_c 5.194301
_cell_angle_alpha 90.000000
_cell_angle_beta 112.316471
_cell_angle_gamma 90.000000
_cell_volume 993.410326
_symmetry_space_group_name_H-M "P 2/C"
_symmetry_group_IT_number 13
_symmetry_cell_setting 'monoclinic'
loop_
_space_group_symop_operation_xyz
x,y,z
-x,y,1/2-z
-x,-y,-z
x,-y,1/2+z
loop_
_atom_site_type_symbol
_atom_site_label
_atom_site_fract_x
_atom_site_fract_y
_atom_site_fract_z
Si Si1 0.000000 0.683018 0.750000
Si Si2 0.642152 0.266999 0.393439
Si Si3 0.137806 0.033858 0.313484
Si Si4 0.882802 0.189399 0.462930
Si Si5 0.862223 0.545599 0.481690
Si Si6 0.638088 0.635953 0.385203
O O1 0.908082 0.733282 0.837912
O O2 0.919708 0.629093 0.495898
O O3 0.500000 0.234792 0.250000
O O4 0.747132 0.200953 0.477048
O O5 0.661332 0.300962 0.690842
O O6 0.666202 0.329200 0.191162
O O7 0.132834 0.122551 0.255851
O O8 0.000000 0.000202 0.250000
O O9 0.205965 0.013328 0.641864
O O10 0.000000 0.171142 0.750000
O O11 0.905320 0.508031 0.787581
O O12 0.716006 0.560587 0.387649
O O13 0.500000 0.605046 0.250000
#
# Coordination Sequence:
#
# PCOD8120200 Si02
#       6
#     2   4   4   4   4   4
#     4  12  26  40  60  92 120 160 212 260 304 386
#     4  10  22  41  65  92 126 163 206 263 314 362
#     4  10  21  38  58  94 136 164 198 249 314 367
#     4  12  24  38  69  97 127 165 211 262 305 365
#     4  12  26  42  59  83 124 165 197 257 328 373
#     4  10  21  41  64  87 116 157 213 265 307 370
#
# _framework density 22.145935000000001
#
# number of rings (size 3 to 8) (size 9 to 14) (size 15 to 20)
#    0.000    1.091    2.727    4.364    2.545    0.727 
#    0.000    0.000    0.000    1.091    0.000    0.000 
#    0.000    1.455    0.000    0.000    0.000    0.000 
#
# Total GULP energy -272655.229049 kJ/mol
# GULP energy per Si atom -12393.419502 kJ/mol
# Density = 2.209553 g / cm^3
# Si number density = 22.145935 Si / 1000 Ang^3
#
#
#
# Elastic Constant Matrix: (Units=GPa)
#
#
# Indices 1 2 3 4 5 6 
#
# 1 120.1060 45.6247 45.7648 0.0000 -1.8252 0.0000
# 2 45.6247 127.0635 39.2815 0.0000 -10.6885 0.0000
# 3 45.7648 39.2815 99.2013 0.0000 -18.2809 0.0000
# 4 0.0000 0.0000 0.0000 17.1872 0.0000 -9.8404
# 5 -1.8252 -10.6885 -18.2809 0.0000 37.7535 0.0000
# 6 0.0000 0.0000 0.0000 -9.8404 0.0000 11.6502
#
#
#
# Elastic Compliance Matrix: (Units=1/GPa)
#
#
# Indices 1 2 3 4 5 6 
#
# 1 0.011039 -0.002797 -0.004428 0.000000 -0.002402 0.000000
# 2 -0.002797 0.009705 -0.002274 0.000000 0.001511 0.000000
# 3 -0.004428 -0.002274 0.014126 0.000000 0.005982 0.000000
# 4 0.000000 0.000000 0.000000 0.112671 0.000000 0.095169
# 5 -0.002402 0.001511 0.005982 0.000000 0.029696 0.000000
# 6 0.000000 0.000000 0.000000 0.095169 0.000000 0.166221
#
#
# Mechanical properties :
#
#
# Convention : Reuss Voigt Hill
#
# Bulk Modulus (GPa) = 63.00360 67.52365 65.26362
# Shear Modulus (GPa) = 13.59633 27.69816 20.64724
#
# Velocity S-wave (km/s) = 2.48047 3.54038 3.05671
# Velocity P-wave (km/s) = 6.05927 6.87523 6.48011
#
# Compressibility (1/GPa) = 0.01587211
#
# Stress axis : x y z
#
# Youngs Moduli (GPa) = 90.58663 103.04474 70.79120
#
# Poissons Ratio (x) = 0.28822 0.31345
# Poissons Ratio (y) = 0.25338 0.16097
# Poissons Ratio (z) = 0.40110 0.23432
#
# Static dielectric constant tensor:
#      x y z
#    x 4.398310 0.000000 -0.107280 
#    y 0.000000 3.683820 0.000000 
#    z -0.107280 0.000000 4.184560 
# 
# 
# High freq. dielectric constant tensor:
#      x y z
#    x 1.875420 0.000000 -0.015630 
#    y 0.000000 1.849920 0.000000 
#    z -0.015630 0.000000 1.876720 
# 
# From -- ./inp_files/3678.got.cif
#   From: 2010.06.25/outbox.cif.g09.slc.cpg/sg13_2_cif.got.tgz:3678.got - 2010.06.28 04:50:58.
