data_PCOD8120600
_publ_section_title
;
Structure prediction by ZEFSAII (Michael W. Deem and Ramdas Pophale) SiO2 
 PCOD8120600
Probable space group: P 2/C
;
_chemical_formula_sum "Si O2"
_cell_formula_units_Z 30
_cell_length_a 7.668836
_cell_length_b 16.530637
_cell_length_c 11.285293
_cell_angle_alpha 90.000000
_cell_angle_beta 74.360052
_cell_angle_gamma 90.000000
_cell_volume 1377.675125
_symmetry_space_group_name_H-M "P 2/C"
_symmetry_group_IT_number 13
_symmetry_cell_setting 'monoclinic'
loop_
_space_group_symop_operation_xyz
x,y,z
-x,y,1/2-z
-x,-y,-z
x,-y,1/2+z
loop_
_atom_site_type_symbol
_atom_site_label
_atom_site_fract_x
_atom_site_fract_y
_atom_site_fract_z
Si Si1 0.685974 0.270743 0.154517
Si Si2 0.808166 0.168425 0.750833
Si Si3 0.641361 0.942428 0.115726
Si Si4 0.000000 0.676677 0.750000
Si Si5 0.367540 0.889392 0.986613
Si Si6 0.700584 0.658032 0.227078
Si Si7 0.681482 0.595664 0.474487
Si Si8 0.743954 0.412325 0.479862
O O1 0.500000 0.298503 0.250000
O O2 0.856688 0.262936 0.212258
O O3 0.641415 0.188151 0.094651
O O4 0.755614 0.340334 0.054497
O O5 0.811555 0.109814 0.633726
O O6 0.756680 0.117530 0.876049
O O7 0.683596 0.245211 0.745226
O O8 0.000000 0.205778 0.750000
O O9 0.500000 0.934305 0.250000
O O10 0.569121 0.904581 0.004383
O O11 0.695436 0.035118 0.082674
O O12 0.118650 0.617646 0.645438
O O13 0.500000 0.622453 0.250000
O O14 0.776900 0.616552 0.331647
O O15 0.808763 0.631832 0.089486
O O16 0.753721 0.508306 0.499018
O O17 0.463815 0.607654 0.514770
#
# Coordination Sequence:
#
# PCOD8120600 Si02
#       8
#     4   4   4   2   4   4   4   4
#     4  12  25  44  68  96 137 177 219 279 341 403
#     4  11  23  37  60  96 132 164 213 271 329 395
#     4   9  20  40  68  90 123 166 222 268 324 404
#     4  12  28  44  64 106 136 178 224 280 346 418
#     4  10  21  42  65  95 122 171 224 268 326 399
#     4  10  21  40  69  94 125 176 225 271 324 394
#     4  10  22  44  69  94 128 180 226 280 329 399
#     4  10  24  42  68  98 135 172 226 277 341 397
#
# _framework density 21.775814
#
# number of rings (size 3 to 8) (size 9 to 14) (size 15 to 20)
#    0.000    1.600    2.667    1.600    5.600    1.600 
#    2.400    0.000    0.000    0.000    0.000    0.000 
#    0.000    0.000    0.000    0.000    0.000    0.000 
#
# Total GULP energy -371827.096431 kJ/mol
# GULP energy per Si atom -12394.236548 kJ/mol
# Density = 2.172625 g / cm^3
# Si number density = 21.775814 Si / 1000 Ang^3
#
#
#
# Elastic Constant Matrix: (Units=GPa)
#
#
# Indices 1 2 3 4 5 6 
#
# 1 77.9868 31.0072 39.3449 0.0000 14.5024 0.0000
# 2 31.0072 138.0830 53.1429 0.0000 21.7419 0.0000
# 3 39.3449 53.1429 123.4381 0.0000 13.3928 0.0000
# 4 0.0000 0.0000 0.0000 42.6566 0.0000 11.4114
# 5 14.5024 21.7419 13.3928 0.0000 28.7987 0.0000
# 6 0.0000 0.0000 0.0000 11.4114 0.0000 8.0317
#
#
#
# Elastic Compliance Matrix: (Units=1/GPa)
#
#
# Indices 1 2 3 4 5 6 
#
# 1 0.016394 -0.001253 -0.004100 0.000000 -0.005403 0.000000
# 2 -0.001253 0.009541 -0.003155 0.000000 -0.005105 0.000000
# 3 -0.004100 -0.003155 0.010830 0.000000 -0.000590 0.000000
# 4 0.000000 0.000000 0.000000 0.037817 0.000000 -0.053730
# 5 -0.005403 -0.005105 -0.000590 0.000000 0.041574 0.000000
# 6 0.000000 0.000000 0.000000 -0.053730 0.000000 0.200845
#
#
# Mechanical properties :
#
#
# Convention : Reuss Voigt Hill
#
# Bulk Modulus (GPa) = 50.62977 65.16643 57.89810
# Shear Modulus (GPa) = 14.68002 30.29827 22.48914
#
# Velocity S-wave (km/s) = 2.59924 3.73416 3.21714
# Velocity P-wave (km/s) = 5.68410 6.97015 6.35972
#
# Compressibility (1/GPa) = 0.01975123
#
# Stress axis : x y z
#
# Youngs Moduli (GPa) = 60.99808 104.80813 92.33462
#
# Poissons Ratio (x) = 0.13129 0.37856
# Poissons Ratio (y) = 0.07641 0.29127
# Poissons Ratio (z) = 0.25009 0.33062
#
# Static dielectric constant tensor:
#      x y z
#    x 3.979470 0.000000 0.314970 
#    y 0.000000 3.761230 0.000000 
#    z 0.314970 0.000000 4.115920 
# 
# 
# High freq. dielectric constant tensor:
#      x y z
#    x 1.842780 0.000000 0.018940 
#    y 0.000000 1.854380 0.000000 
#    z 0.018940 0.000000 1.861200 
# 
# From -- ./inp_files/30376.got.cif
#   From: 2010.06.25/outbox.cif.g09.slc.cpg/sg13_16_cif.got.tgz:30376.got - 2010.06.28 04:50:58.
