data_PCOD8120045
_publ_section_title
;
Structure prediction by ZEFSAII (Michael W. Deem and Ramdas Pophale) SiO2 
 PCOD8120045
Probable space group: P 2/C
;
_chemical_formula_sum "Si O2"
_cell_formula_units_Z 20
_cell_length_a 8.542132
_cell_length_b 23.769825
_cell_length_c 5.203932
_cell_angle_alpha 90.000000
_cell_angle_beta 61.093721
_cell_angle_gamma 90.000000
_cell_volume 924.988115
_symmetry_space_group_name_H-M "P 2/C"
_symmetry_group_IT_number 13
_symmetry_cell_setting 'monoclinic'
loop_
_space_group_symop_operation_xyz
x,y,z
-x,y,1/2-z
-x,-y,-z
x,-y,1/2+z
loop_
_atom_site_type_symbol
_atom_site_label
_atom_site_fract_x
_atom_site_fract_y
_atom_site_fract_z
Si Si1 0.616507 0.760545 0.911151
Si Si2 0.200834 0.524059 0.817379
Si Si3 0.111739 0.143981 0.408700
Si Si4 0.382987 0.366453 0.089356
Si Si5 0.289376 0.029851 0.395267
O O1 0.500000 0.767714 0.750000
O O2 0.785618 0.800677 0.762987
O O3 0.690434 0.696962 0.882688
O O4 0.500000 0.777957 0.250000
O O5 0.299256 0.490880 0.506684
O O6 0.214247 0.590960 0.750464
O O7 0.000000 0.500000 0.000000
O O8 0.246735 0.094735 0.381669
O O9 0.000000 0.123600 0.250000
O O10 0.000000 0.159918 0.750000
O O11 0.500000 0.371576 0.250000
O O12 0.500000 0.383325 0.750000
O O13 0.500000 0.022179 0.250000
O O14 0.206896 0.008395 0.730667
#
# Coordination Sequence:
#
# PCOD8120045 Si02
#       5
#     4   4   4   4   4
#     4  10  22  43  66  87 120 165 211 257 307 362
#     4  10  21  37  54  85 120 153 189 232 305 366
#     4  12  25  40  61  97 130 161 207 257 318 366
#     4  10  21  38  62  88 113 153 205 250 292 350
#     4  10  22  40  63  90 122 168 213 250 303 369
#
# _framework density 21.621901999999999
#
# number of rings (size 3 to 8) (size 9 to 14) (size 15 to 20)
#    0.000    1.600    0.000    4.200    0.000    7.200 
#    7.200    0.000    0.000    0.000    0.000    0.000 
#    0.000    0.000    0.000    0.000    0.000    0.000 
#
# Total GULP energy -247935.012383 kJ/mol
# GULP energy per Si atom -12396.750619 kJ/mol
# Density = 2.157269 g / cm^3
# Si number density = 21.621902 Si / 1000 Ang^3
#
#
#
# Elastic Constant Matrix: (Units=GPa)
#
#
# Indices 1 2 3 4 5 6 
#
# 1 54.4716 34.9923 50.2757 0.0000 23.1755 0.0000
# 2 34.9923 149.2513 61.9922 0.0000 -1.5257 0.0000
# 3 50.2757 61.9922 171.5621 0.0000 43.1217 0.0000
# 4 0.0000 0.0000 0.0000 38.8475 0.0000 7.1673
# 5 23.1755 -1.5257 43.1217 0.0000 33.7060 0.0000
# 6 0.0000 0.0000 0.0000 7.1673 0.0000 27.2605
#
#
#
# Elastic Compliance Matrix: (Units=1/GPa)
#
#
# Indices 1 2 3 4 5 6 
#
# 1 0.033866 -0.007337 -0.001971 0.000000 -0.021097 0.000000
# 2 -0.007337 0.010357 -0.004390 0.000000 0.011130 0.000000
# 3 -0.001971 -0.004390 0.011352 0.000000 -0.013367 0.000000
# 4 0.000000 0.000000 0.000000 0.027054 0.000000 -0.007113
# 5 -0.021097 0.011130 -0.013367 0.000000 0.061779 0.000000
# 6 0.000000 0.000000 0.000000 -0.007113 0.000000 0.038553
#
#
# Mechanical properties :
#
#
# Convention : Reuss Voigt Hill
#
# Bulk Modulus (GPa) = 35.48524 74.42284 54.95404
# Shear Modulus (GPa) = 22.75298 35.16445 28.95871
#
# Velocity S-wave (km/s) = 3.24745 4.03716 3.66365
# Velocity P-wave (km/s) = 5.52346 7.49842 6.58540
#
# Compressibility (1/GPa) = 0.02818073
#
# Stress axis : x y z
#
# Youngs Moduli (GPa) = 29.52800 96.54872 88.08731
#
# Poissons Ratio (x) = 0.70839 0.17358
# Poissons Ratio (y) = 0.21665 0.38669
# Poissons Ratio (z) = 0.05819 0.42384
#
# Static dielectric constant tensor:
#      x y z
#    x 5.088430 0.000000 2.215510 
#    y 0.000000 3.994400 0.000000 
#    z 2.215510 0.000000 6.619980 
# 
# 
# High freq. dielectric constant tensor:
#      x y z
#    x 1.834660 0.000000 0.029880 
#    y 0.000000 1.856770 0.000000 
#    z 0.029880 0.000000 1.872120 
# 
# From -- ./inp_files/1958.got.cif
#   From: 2010.06.25/outbox.cif.g09.slc.cpg/sg13_1_cif.got.tgz:1958.got - 2010.06.28 04:50:58.
