data_PCOD8120592
_publ_section_title
;
Structure prediction by ZEFSAII (Michael W. Deem and Ramdas Pophale) SiO2 
 PCOD8120592
Probable space group: P 2/C
;
_chemical_formula_sum "Si O2"
_cell_formula_units_Z 24
_cell_length_a 10.052255
_cell_length_b 13.911822
_cell_length_c 17.509969
_cell_angle_alpha 90.000000
_cell_angle_beta 150.125936
_cell_angle_gamma 90.000000
_cell_volume 1219.678324
_symmetry_space_group_name_H-M "P 2/C"
_symmetry_group_IT_number 13
_symmetry_cell_setting 'monoclinic'
loop_
_space_group_symop_operation_xyz
x,y,z
-x,y,1/2-z
-x,-y,-z
x,-y,1/2+z
loop_
_atom_site_type_symbol
_atom_site_label
_atom_site_fract_x
_atom_site_fract_y
_atom_site_fract_z
Si Si1 0.051193 0.948220 0.103869
Si Si2 0.730155 0.451080 0.162976
Si Si3 0.485566 0.044249 0.076025
Si Si4 0.227635 0.445852 0.657044
Si Si5 0.928719 0.742484 0.992590
Si Si6 0.603950 0.743280 0.680825
O O1 0.330391 0.982900 0.276230
O O2 0.816520 0.968799 0.046907
O O3 0.068786 0.836537 0.094404
O O4 0.000000 0.000000 0.000000
O O5 0.763040 0.516687 0.252970
O O6 0.662540 0.340710 0.149670
O O7 0.000000 0.451754 0.250000
O O8 0.500000 0.500000 0.000000
O O9 0.575788 0.155881 0.121894
O O10 0.500000 0.000000 0.000000
O O11 0.500000 0.469026 0.750000
O O12 0.000000 0.500000 0.500000
O O13 0.161668 0.333907 0.621429
O O14 0.845223 0.752103 0.862073
O O15 0.667773 0.715922 0.911349
#
# Coordination Sequence:
#
# PCOD8120592 Si02
#       6
#     4   4   4   4   4   4
#     4  11  22  41  66  93 126 168 215 259 312 375
#     4  12  26  42  64  95 131 164 205 262 323 378
#     4  11  24  41  65  95 130 168 208 262 324 377
#     4  12  24  42  69  96 125 169 218 260 312 380
#     4  10  21  40  68  94 122 166 221 264 305 373
#     4  10  21  42  66  90 128 172 208 260 325 372
#
# _framework density 19.677319000000001
#
# number of rings (size 3 to 8) (size 9 to 14) (size 15 to 20)
#    0.000    1.000    3.333    4.000    0.000    4.000 
#    0.000    1.667    0.000    0.000    0.000    0.000 
#    0.000    0.000    0.000    0.000    0.000    0.000 
#
# Total GULP energy -297682.872191 kJ/mol
# GULP energy per Si atom -12403.453008 kJ/mol
# Density = 1.963253 g / cm^3
# Si number density = 19.677319 Si / 1000 Ang^3
#
#
#
# Elastic Constant Matrix: (Units=GPa)
#
#
# Indices 1 2 3 4 5 6 
#
# 1 111.7411 63.3418 32.1862 0.0000 -12.7890 0.0000
# 2 63.3418 124.8916 51.3398 0.0000 -0.6824 0.0000
# 3 32.1862 51.3398 105.6150 0.0000 -13.2719 0.0000
# 4 0.0000 0.0000 0.0000 42.1507 0.0000 -8.2586
# 5 -12.7890 -0.6824 -13.2719 0.0000 38.5404 0.0000
# 6 0.0000 0.0000 0.0000 -8.2586 0.0000 46.0467
#
#
#
# Elastic Compliance Matrix: (Units=1/GPa)
#
#
# Indices 1 2 3 4 5 6 
#
# 1 0.013236 -0.006558 -0.000323 0.000000 0.004165 0.000000
# 2 -0.006558 0.013347 -0.004947 0.000000 -0.003643 0.000000
# 3 -0.000323 -0.004947 0.012487 0.000000 0.004106 0.000000
# 4 0.000000 0.000000 0.000000 0.024588 0.000000 0.004410
# 5 0.004165 -0.003643 0.004106 0.000000 0.028678 0.000000
# 6 0.000000 0.000000 0.000000 0.004410 0.000000 0.022508
#
#
# Mechanical properties :
#
#
# Convention : Reuss Voigt Hill
#
# Bulk Modulus (GPa) = 64.87112 70.66482 67.76797
# Shear Modulus (GPa) = 34.80967 38.37289 36.59128
#
# Velocity S-wave (km/s) = 4.21054 4.42079 4.31695
# Velocity P-wave (km/s) = 7.52843 7.87703 7.70470
#
# Compressibility (1/GPa) = 0.01541518
#
# Stress axis : x y z
#
# Youngs Moduli (GPa) = 75.55055 74.92551 80.08042
#
# Poissons Ratio (x) = 0.49134 0.02584
# Poissons Ratio (y) = 0.49543 0.39617
# Poissons Ratio (z) = 0.02438 0.37067
#
# Static dielectric constant tensor:
#      x y z
#    x 3.653370 0.000000 0.008250 
#    y 0.000000 3.494710 0.000000 
#    z 0.008250 0.000000 3.452990 
# 
# 
# High freq. dielectric constant tensor:
#      x y z
#    x 1.771840 0.000000 0.000520 
#    y 0.000000 1.785120 0.000000 
#    z 0.000520 0.000000 1.774580 
# 
# From -- ./inp_files/47782.got.cif
#   From: 2010.06.25/outbox.cif.g09.slc.cpg/sg13_24_cif.got.tgz:47782.got - 2010.06.28 04:50:58.
