data_PCOD8120909
_publ_section_title
;
Structure prediction by ZEFSAII (Michael W. Deem and Ramdas Pophale) SiO2 
 PCOD8120909
Probable space group: P 2/C
;
_chemical_formula_sum "Si O2"
_cell_formula_units_Z 26
_cell_length_a 11.154293
_cell_length_b 8.085420
_cell_length_c 14.319956
_cell_angle_alpha 90.000000
_cell_angle_beta 58.566781
_cell_angle_gamma 90.000000
_cell_volume 1101.950006
_symmetry_space_group_name_H-M "P 2/C"
_symmetry_group_IT_number 13
_symmetry_cell_setting 'monoclinic'
loop_
_space_group_symop_operation_xyz
x,y,z
-x,y,1/2-z
-x,-y,-z
x,-y,1/2+z
loop_
_atom_site_type_symbol
_atom_site_label
_atom_site_fract_x
_atom_site_fract_y
_atom_site_fract_z
Si Si1 0.310145 0.511806 0.235171
Si Si2 0.644242 0.062688 0.044358
Si Si3 0.102782 0.349873 0.958155
Si Si4 0.500000 0.743460 0.750000
Si Si5 0.788664 0.557011 0.907311
Si Si6 0.077620 0.791218 0.118966
Si Si7 0.486234 0.735953 0.453354
O O1 0.248142 0.581154 0.356305
O O2 0.423033 0.370009 0.205581
O O3 0.184537 0.439857 0.216557
O O4 0.381132 0.670264 0.157690
O O5 0.621913 0.143519 0.155190
O O6 0.601611 0.871102 0.070268
O O7 0.807890 0.065722 0.945413
O O8 0.540848 0.166906 0.020875
O O9 0.037859 0.204658 0.919123
O O10 0.134264 0.307647 0.055844
O O11 0.000000 0.500000 0.000000
O O12 0.832453 0.376736 0.925207
O O13 0.619266 0.583411 0.980275
O O14 0.000000 0.814062 0.250000
#
# Coordination Sequence:
#
# PCOD8120909 Si02
#       7
#     4   4   4   2   4   4   4
#     4  12  21  38  66  98 130 169 220 283 322 386
#     4  11  24  41  64  95 133 173 212 269 339 402
#     4  10  22  35  61  95 126 166 216 267 325 382
#     4  12  24  38  66 100 130 164 220 282 338 380
#     4  11  21  38  64  96 126 167 222 275 316 388
#     4  11  20  41  65  91 130 174 222 269 325 389
#     4  11  23  42  63  94 132 170 215 271 339 389
#
# _framework density 23.594536000000002
#
# number of rings (size 3 to 8) (size 9 to 14) (size 15 to 20)
#    0.000    0.923    4.615    4.154    0.000    1.846 
#    0.000    1.538    0.000    0.000    0.000    0.000 
#    0.000    0.000    0.000    0.000    0.000    0.000 
#
# Total GULP energy -322100.819459 kJ/mol
# GULP energy per Si atom -12388.493056 kJ/mol
# Density = 2.354083 g / cm^3
# Si number density = 23.594536 Si / 1000 Ang^3
#
#
#
# Elastic Constant Matrix: (Units=GPa)
#
#
# Indices 1 2 3 4 5 6 
#
# 1 109.5149 14.5294 33.2930 0.0000 22.8878 0.0000
# 2 14.5294 57.5275 46.1303 0.0000 -4.1959 0.0000
# 3 33.2930 46.1303 98.7754 0.0000 -4.1401 0.0000
# 4 0.0000 0.0000 0.0000 13.3919 0.0000 -1.6259
# 5 22.8878 -4.1959 -4.1401 0.0000 49.7967 0.0000
# 6 0.0000 0.0000 0.0000 -1.6259 0.0000 22.9007
#
#
#
# Elastic Compliance Matrix: (Units=1/GPa)
#
#
# Indices 1 2 3 4 5 6 
#
# 1 0.011573 -0.000028 -0.004125 0.000000 -0.005664 0.000000
# 2 -0.000028 0.027870 -0.012953 0.000000 0.001285 0.000000
# 3 -0.004125 -0.012953 0.017659 0.000000 0.002273 0.000000
# 4 0.000000 0.000000 0.000000 0.075321 0.000000 0.005348
# 5 -0.005664 0.001285 0.002273 0.000000 0.022982 0.000000
# 6 0.000000 0.000000 0.000000 0.005348 0.000000 0.044046
#
#
# Mechanical properties :
#
#
# Convention : Reuss Voigt Hill
#
# Bulk Modulus (GPa) = 43.68709 50.41369 47.05039
# Shear Modulus (GPa) = 20.72161 28.67552 24.69857
#
# Velocity S-wave (km/s) = 2.96672 3.48996 3.23893
# Velocity P-wave (km/s) = 5.50375 6.13619 5.82855
#
# Compressibility (1/GPa) = 0.02289005
#
# Stress axis : x y z
#
# Youngs Moduli (GPa) = 86.40989 35.88037 56.62913
#
# Poissons Ratio (x) = 0.00102 0.23359
# Poissons Ratio (y) = 0.00245 0.73350
# Poissons Ratio (z) = 0.35643 0.46475
#
# Static dielectric constant tensor:
#      x y z
#    x 5.029460 0.000000 0.331560 
#    y 0.000000 3.957150 0.000000 
#    z 0.331560 0.000000 3.844260 
# 
# 
# High freq. dielectric constant tensor:
#      x y z
#    x 1.949720 0.000000 0.010310 
#    y 0.000000 1.897870 0.000000 
#    z 0.010310 0.000000 1.933280 
# 
# From -- ./inp_files/49912.got.cif
#   From: 2010.06.25/outbox.cif.g09.slc.cpg/sg13_25_cif.got.tgz:49912.got - 2010.06.28 04:50:58.
