data_PCOD8120649
_publ_section_title
;
Structure prediction by ZEFSAII (Michael W. Deem and Ramdas Pophale) SiO2 
 PCOD8120649
Probable space group: P 2/C
;
_chemical_formula_sum "Si O2"
_cell_formula_units_Z 26
_cell_length_a 18.216792
_cell_length_b 11.724536
_cell_length_c 12.490947
_cell_angle_alpha 90.000000
_cell_angle_beta 153.050328
_cell_angle_gamma 90.000000
_cell_volume 1209.094331
_symmetry_space_group_name_H-M "P 2/C"
_symmetry_group_IT_number 13
_symmetry_cell_setting 'monoclinic'
loop_
_space_group_symop_operation_xyz
x,y,z
-x,y,1/2-z
-x,-y,-z
x,-y,1/2+z
loop_
_atom_site_type_symbol
_atom_site_label
_atom_site_fract_x
_atom_site_fract_y
_atom_site_fract_z
Si Si1 0.500000 0.097090 0.750000
Si Si2 0.120311 0.313137 0.153112
Si Si3 0.588151 0.466830 0.007958
Si Si4 0.045940 0.090064 0.928906
Si Si5 0.320491 0.702855 0.120442
Si Si6 0.242610 0.683434 0.265783
Si Si7 0.747154 0.939605 0.181375
O O1 0.600210 0.173422 0.795667
O O2 0.403010 0.016102 0.544701
O O3 0.243065 0.398012 0.250564
O O4 0.176402 0.307315 0.348769
O O5 0.127776 0.193175 0.101214
O O6 0.933499 0.350662 0.916510
O O7 0.639314 0.589841 0.025133
O O8 0.500000 0.500000 0.000000
O O9 0.459043 0.392205 0.773241
O O10 0.000000 0.127940 0.750000
O O11 0.881066 0.043927 0.764504
O O12 0.175787 0.985803 0.105789
O O13 0.247252 0.683104 0.142634
O O14 0.303332 0.807797 0.379196
#
# Coordination Sequence:
#
# PCOD8120649 Si02
#       7
#     2   4   4   4   4   4   4
#     4  12  22  42  62  96 130 176 220 272 346 398
#     4  11  20  43  66  95 131 172 223 271 328 401
#     4  10  21  41  63  95 131 169 219 272 336 388
#     4  10  22  41  65  92 129 173 216 277 330 393
#     4  11  21  40  69  93 130 178 221 274 329 408
#     4  10  24  39  65  97 132 174 225 274 327 400
#     4  10  23  41  61  95 133 168 222 273 336 402
#
# _framework density 21.503698
#
# number of rings (size 3 to 8) (size 9 to 14) (size 15 to 20)
#    0.000    1.538    3.077    0.923    2.154    0.615 
#    8.308    9.231    0.000    0.000    0.000    0.000 
#    0.000    0.000    0.000    0.000    0.000    0.000 
#
# Total GULP energy -322105.945778 kJ/mol
# GULP energy per Si atom -12388.690222 kJ/mol
# Density = 2.145475 g / cm^3
# Si number density = 21.503698 Si / 1000 Ang^3
#
#
#
# Elastic Constant Matrix: (Units=GPa)
#
#
# Indices 1 2 3 4 5 6 
#
# 1 72.4915 8.2753 12.9234 0.0000 4.8861 0.0000
# 2 8.2753 121.8985 45.6641 0.0000 8.0778 0.0000
# 3 12.9234 45.6641 79.0937 0.0000 -6.7317 0.0000
# 4 0.0000 0.0000 0.0000 16.8030 0.0000 6.4760
# 5 4.8861 8.0778 -6.7317 0.0000 33.7065 0.0000
# 6 0.0000 0.0000 0.0000 6.4760 0.0000 30.2467
#
#
#
# Elastic Compliance Matrix: (Units=1/GPa)
#
#
# Indices 1 2 3 4 5 6 
#
# 1 0.014434 0.000213 -0.002710 0.000000 -0.002685 0.000000
# 2 0.000213 0.010966 -0.006706 0.000000 -0.003998 0.000000
# 3 -0.002710 -0.006706 0.017424 0.000000 0.005480 0.000000
# 4 0.000000 0.000000 0.000000 0.064866 0.000000 -0.013888
# 5 -0.002685 -0.003998 0.005480 0.000000 0.032110 0.000000
# 6 0.000000 0.000000 0.000000 -0.013888 0.000000 0.036035
#
#
# Mechanical properties :
#
#
# Convention : Reuss Voigt Hill
#
# Bulk Modulus (GPa) = 40.95259 45.24550 43.09904
# Shear Modulus (GPa) = 24.70580 29.92599 27.31590
#
# Velocity S-wave (km/s) = 3.39323 3.73455 3.56798
# Velocity P-wave (km/s) = 5.86838 6.29939 6.08770
#
# Compressibility (1/GPa) = 0.02441848
#
# Stress axis : x y z
#
# Youngs Moduli (GPa) = 69.27857 91.18834 57.39093
#
# Poissons Ratio (x) = -0.01944 0.15554
# Poissons Ratio (y) = -0.01477 0.38489
# Poissons Ratio (z) = 0.18775 0.61155
#
# Static dielectric constant tensor:
#      x y z
#    x 3.787340 0.000000 0.214360 
#    y 0.000000 4.317180 0.000000 
#    z 0.214360 0.000000 3.988340 
# 
# 
# High freq. dielectric constant tensor:
#      x y z
#    x 1.840600 0.000000 0.014740 
#    y 0.000000 1.858480 0.000000 
#    z 0.014740 0.000000 1.836190 
# 
# From -- ./inp_files/39280.got.cif
#   From: 2010.06.25/outbox.cif.g09.slc.cpg/sg13_20_cif.got.tgz:39280.got - 2010.06.28 04:50:58.
