data_PCOD8120503
_publ_section_title
;
Structure prediction by ZEFSAII (Michael W. Deem and Ramdas Pophale) SiO2 
 PCOD8120503
Probable space group: P 2/C
;
_chemical_formula_sum "Si O2"
_cell_formula_units_Z 28
_cell_length_a 8.400064
_cell_length_b 15.720120
_cell_length_c 18.966003
_cell_angle_alpha 90.000000
_cell_angle_beta 29.634101
_cell_angle_gamma 90.000000
_cell_volume 1238.353966
_symmetry_space_group_name_H-M "P 2/C"
_symmetry_group_IT_number 13
_symmetry_cell_setting 'monoclinic'
loop_
_space_group_symop_operation_xyz
x,y,z
-x,y,1/2-z
-x,-y,-z
x,-y,1/2+z
loop_
_atom_site_type_symbol
_atom_site_label
_atom_site_fract_x
_atom_site_fract_y
_atom_site_fract_z
Si Si1 0.773461 0.478206 0.021723
Si Si2 0.916908 0.591395 0.703255
Si Si3 0.392249 0.776152 0.218365
Si Si4 0.239495 0.247894 0.059434
Si Si5 0.583266 0.967979 0.293379
Si Si6 0.223473 0.052903 0.068648
Si Si7 0.853896 0.339148 0.876731
O O1 0.891145 0.398773 0.929962
O O2 0.796555 0.558406 0.959321
O O3 0.418144 0.455450 0.187834
O O4 0.000000 0.500000 0.000000
O O5 0.000000 0.563798 0.750000
O O6 0.912100 0.695398 0.695396
O O7 0.500000 0.731898 0.250000
O O8 0.298072 0.873300 0.268979
O O9 0.068613 0.742470 0.308931
O O10 0.683988 0.759959 0.052500
O O11 0.221429 0.151463 0.095217
O O12 0.493481 0.304827 0.005904
O O13 0.500000 0.012274 0.250000
O O14 0.279893 0.960885 0.462944
O O15 0.869247 0.018324 0.222815
O O16 0.500000 0.000000 0.000000
O O17 0.000000 0.384320 0.750000
#
# Coordination Sequence:
#
# PCOD8120503 Si02
#       7
#     4   4   4   4   4   4   4
#     4  12  28  46  69 100 135 173 224 286 344 406
#     4  12  26  47  71  97 135 177 228 272 346 408
#     4   9  20  37  67  95 133 177 228 278 336 400
#     4  10  23  42  66  99 136 178 229 281 339 400
#     4  10  21  40  61  97 137 185 225 274 340 405
#     4  11  22  40  68 101 139 181 232 281 329 401
#     4  10  21  41  68  97 129 176 227 276 339 407
#
# _framework density 22.610658999999998
#
# number of rings (size 3 to 8) (size 9 to 14) (size 15 to 20)
#    0.000    1.429    1.429    3.000    6.000    3.429 
#    2.571    1.429    0.000    0.000    0.000    0.000 
#    0.000    0.000    0.000    0.000    0.000    0.000 
#
# Total GULP energy -347037.462918 kJ/mol
# GULP energy per Si atom -12394.195104 kJ/mol
# Density = 2.255920 g / cm^3
# Si number density = 22.610659 Si / 1000 Ang^3
#
#
#
# Elastic Constant Matrix: (Units=GPa)
#
#
# Indices 1 2 3 4 5 6 
#
# 1 119.0347 44.9116 25.9152 0.0000 4.4978 0.0000
# 2 44.9116 131.0841 44.6871 0.0000 -4.9180 0.0000
# 3 25.9152 44.6871 93.7429 0.0000 -6.7270 0.0000
# 4 0.0000 0.0000 0.0000 33.7849 0.0000 3.3171
# 5 4.4978 -4.9180 -6.7270 0.0000 33.1277 0.0000
# 6 0.0000 0.0000 0.0000 3.3171 0.0000 31.0916
#
#
#
# Elastic Compliance Matrix: (Units=1/GPa)
#
#
# Indices 1 2 3 4 5 6 
#
# 1 0.009924 -0.002976 -0.001475 0.000000 -0.002089 0.000000
# 2 -0.002976 0.010009 -0.003869 0.000000 0.001104 0.000000
# 3 -0.001475 -0.003869 0.013083 0.000000 0.002283 0.000000
# 4 0.000000 0.000000 0.000000 0.029912 0.000000 -0.003191
# 5 -0.002089 0.001104 0.002283 0.000000 0.031097 0.000000
# 6 0.000000 0.000000 0.000000 -0.003191 0.000000 0.032503
#
#
# Mechanical properties :
#
#
# Convention : Reuss Voigt Hill
#
# Bulk Modulus (GPa) = 61.06350 63.87660 62.47005
# Shear Modulus (GPa) = 33.64130 34.82403 34.23267
#
# Velocity S-wave (km/s) = 3.86145 3.92874 3.89524
# Velocity P-wave (km/s) = 6.85173 6.99228 6.92236
#
# Compressibility (1/GPa) = 0.01637640
#
# Stress axis : x y z
#
# Youngs Moduli (GPa) = 100.76993 99.91352 76.43245
#
# Poissons Ratio (x) = 0.29730 0.11272
# Poissons Ratio (y) = 0.29985 0.29574
# Poissons Ratio (z) = 0.14861 0.38659
#
# Static dielectric constant tensor:
#      x y z
#    x 4.115880 0.000000 0.265420 
#    y 0.000000 4.129800 0.000000 
#    z 0.265420 0.000000 4.263680 
# 
# 
# High freq. dielectric constant tensor:
#      x y z
#    x 1.889920 0.000000 0.019070 
#    y 0.000000 1.893230 0.000000 
#    z 0.019070 0.000000 1.888710 
# 
# From -- ./inp_files/76688.got.cif
#   From: 2010.06.25/outbox.cif.g09.slc.cpg/sg13_39_cif.got.tgz:76688.got - 2010.06.28 04:50:58.
