data_PCOD8120189
_publ_section_title
;
Structure prediction by ZEFSAII (Michael W. Deem and Ramdas Pophale) SiO2 
 PCOD8120189
Probable space group: P 2/C
;
_chemical_formula_sum "Si O2"
_cell_formula_units_Z 28
_cell_length_a 14.278185
_cell_length_b 17.915755
_cell_length_c 9.264009
_cell_angle_alpha 90.000000
_cell_angle_beta 143.933717
_cell_angle_gamma 90.000000
_cell_volume 1395.135693
_symmetry_space_group_name_H-M "P 2/C"
_symmetry_group_IT_number 13
_symmetry_cell_setting 'monoclinic'
loop_
_space_group_symop_operation_xyz
x,y,z
-x,y,1/2-z
-x,-y,-z
x,-y,1/2+z
loop_
_atom_site_type_symbol
_atom_site_label
_atom_site_fract_x
_atom_site_fract_y
_atom_site_fract_z
Si Si1 0.830464 0.860877 0.865711
Si Si2 0.814877 0.716093 0.680193
Si Si3 0.810952 0.573422 0.849477
Si Si4 0.809667 0.429358 0.675556
Si Si5 0.199599 0.141984 0.838579
Si Si6 0.806160 0.286012 0.842556
Si Si7 0.383842 0.993673 0.985656
O O1 0.760332 0.793764 0.682792
O O2 0.758547 0.938004 0.723036
O O3 0.785118 0.841133 0.972979
O O4 0.016948 0.873755 0.073306
O O5 0.747055 0.647577 0.690059
O O6 0.744224 0.711979 0.430303
O O7 0.004321 0.712772 0.918250
O O8 0.746957 0.502624 0.680056
O O9 0.744367 0.570838 0.930074
O O10 0.000668 0.572552 0.089555
O O11 0.741564 0.357863 0.676001
O O12 0.259455 0.213023 0.821412
O O13 0.309936 0.072974 0.935549
O O14 0.500000 0.960436 0.250000
O O15 0.500000 0.000000 0.000000
#
# Coordination Sequence:
#
# PCOD8120189 Si02
#       7
#     4   4   4   4   4   4   4
#     4  10  21  38  58  80 108 144 184 224 272 329
#     4   9  17  28  45  70  99 134 177 221 265 318
#     4   9  15  23  37  60  95 136 174 215 265 317
#     4   9  15  23  37  60  95 136 174 215 265 317
#     4  10  21  38  58  80 108 144 184 224 272 329
#     4   9  17  28  45  70  99 134 177 221 265 318
#     4  12  25  42  59  82 112 142 178 226 279 332
#
# _framework density 20.069732999999999
#
# number of rings (size 3 to 8) (size 9 to 14) (size 15 to 20)
#    0.000    2.286    1.429    2.143    2.000    6.857 
#    0.000    0.000    0.000    0.000    0.000    0.000 
#    0.000    2.286    0.000    0.143    0.000    0.714 
#
# Total GULP energy -347161.295705 kJ/mol
# GULP energy per Si atom -12398.617704 kJ/mol
# Density = 2.002405 g / cm^3
# Si number density = 20.069733 Si / 1000 Ang^3
#
#
#
# Elastic Constant Matrix: (Units=GPa)
#
#
# Indices 1 2 3 4 5 6 
#
# 1 96.5273 52.2670 43.9335 0.0000 -38.7539 0.0000
# 2 52.2670 139.0146 40.8710 0.0000 -21.3288 0.0000
# 3 43.9335 40.8710 67.5130 0.0000 -32.9404 0.0000
# 4 0.0000 0.0000 0.0000 18.4569 0.0000 -21.3116
# 5 -38.7539 -21.3288 -32.9404 0.0000 36.8697 0.0000
# 6 0.0000 0.0000 0.0000 -21.3116 0.0000 25.6767
#
#
#
# Elastic Compliance Matrix: (Units=1/GPa)
#
#
# Indices 1 2 3 4 5 6 
#
# 1 0.020724 -0.004450 -0.002517 0.000000 0.016960 0.000000
# 2 -0.004450 0.009714 -0.004476 0.000000 -0.003057 0.000000
# 3 -0.002517 -0.004476 0.029438 0.000000 0.021065 0.000000
# 4 0.000000 0.000000 0.000000 1.301550 0.000000 1.080285
# 5 0.016960 -0.003057 0.021065 0.000000 0.062001 0.000000
# 6 0.000000 0.000000 0.000000 1.080285 0.000000 0.935580
#
#
# Mechanical properties :
#
#
# Convention : Reuss Voigt Hill
#
# Bulk Modulus (GPa) = 27.03524 64.13309 45.58417
# Shear Modulus (GPa) = 2.08836 27.26622 14.67729
#
# Velocity S-wave (km/s) = 1.02118 3.68988 2.70722
# Velocity P-wave (km/s) = 3.85880 7.08365 5.70388
#
# Compressibility (1/GPa) = 0.03698876
#
# Stress axis : x y z
#
# Youngs Moduli (GPa) = 48.25345 102.94946 33.96973
#
# Poissons Ratio (x) = 0.45808 0.08551
# Poissons Ratio (y) = 0.21471 0.15206
# Poissons Ratio (z) = 0.12147 0.46085
#
# Static dielectric constant tensor:
#      x y z
#    x 3.522650 0.000000 -0.470230 
#    y 0.000000 3.866940 0.000000 
#    z -0.470230 0.000000 3.458960 
# 
# 
# High freq. dielectric constant tensor:
#      x y z
#    x 1.768240 0.000000 -0.040330 
#    y 0.000000 1.795540 0.000000 
#    z -0.040330 0.000000 1.758380 
# 
# From -- ./inp_files/20122.got.cif
#   From: 2010.06.25/outbox.cif.g09.slc.cpg/sg13_11_cif.got.tgz:20122.got - 2010.06.28 04:50:58.
