data_PCOD8120569
_publ_section_title
;
Structure prediction by ZEFSAII (Michael W. Deem and Ramdas Pophale) SiO2 
 PCOD8120569
Probable space group: P 2/C
;
_chemical_formula_sum "Si O2"
_cell_formula_units_Z 24
_cell_length_a 8.529490
_cell_length_b 14.804055
_cell_length_c 19.672095
_cell_angle_alpha 90.000000
_cell_angle_beta 28.177708
_cell_angle_gamma 90.000000
_cell_volume 1172.971775
_symmetry_space_group_name_H-M "P 2/C"
_symmetry_group_IT_number 13
_symmetry_cell_setting 'monoclinic'
loop_
_space_group_symop_operation_xyz
x,y,z
-x,y,1/2-z
-x,-y,-z
x,-y,1/2+z
loop_
_atom_site_type_symbol
_atom_site_label
_atom_site_fract_x
_atom_site_fract_y
_atom_site_fract_z
Si Si1 0.858614 0.584818 0.591540
Si Si2 0.370961 0.250652 0.410476
Si Si3 0.049109 0.644264 0.658614
Si Si4 0.313998 0.241792 0.585470
Si Si5 0.440812 0.057575 0.198665
Si Si6 0.666295 0.061337 0.491791
O O1 0.500000 0.554950 0.750000
O O2 0.847613 0.677262 0.550185
O O3 0.000000 0.500000 0.500000
O O4 0.056975 0.588441 0.586382
O O5 0.209190 0.230950 0.546306
O O6 0.368195 0.153702 0.375115
O O7 0.755186 0.281437 0.268244
O O8 0.417383 0.680854 0.518143
O O9 0.000000 0.590763 0.750000
O O10 0.477643 0.155750 0.558941
O O11 0.000000 0.271940 0.750000
O O12 0.500000 0.015845 0.250000
O O13 0.055397 0.071859 0.327139
O O14 0.610263 0.983809 0.085902
O O15 0.500000 0.000000 0.500000
#
# Coordination Sequence:
#
# PCOD8120569 Si02
#       6
#     4   4   4   4   4   4
#     4  10  22  42  68  98 126 162 209 264 332 399
#     4  10  21  40  66  88 124 173 209 257 327 400
#     4   9  19  39  65  91 118 167 212 249 316 399
#     4  11  22  38  58  92 127 164 220 267 316 373
#     4  12  24  41  62  92 131 173 227 273 323 382
#     4  12  24  39  62  92 127 175 222 275 318 373
#
# _framework density 20.460851999999999
#
# number of rings (size 3 to 8) (size 9 to 14) (size 15 to 20)
#    0.000    1.333    3.333    3.500    0.000    1.333 
#    0.000    8.333    0.000    0.000    0.000    0.000 
#    0.000    0.000    0.000    0.000    0.000    0.000 
#
# Total GULP energy -297386.638124 kJ/mol
# GULP energy per Si atom -12391.109922 kJ/mol
# Density = 2.041428 g / cm^3
# Si number density = 20.460852 Si / 1000 Ang^3
#
#
#
# Elastic Constant Matrix: (Units=GPa)
#
#
# Indices 1 2 3 4 5 6 
#
# 1 93.3045 37.8442 22.1866 0.0000 22.9207 0.0000
# 2 37.8442 96.5026 44.7429 0.0000 18.0794 0.0000
# 3 22.1866 44.7429 101.2646 0.0000 22.0567 0.0000
# 4 0.0000 0.0000 0.0000 30.5811 0.0000 10.1897
# 5 22.9207 18.0794 22.0567 0.0000 37.7216 0.0000
# 6 0.0000 0.0000 0.0000 10.1897 0.0000 30.8540
#
#
#
# Elastic Compliance Matrix: (Units=1/GPa)
#
#
# Indices 1 2 3 4 5 6 
#
# 1 0.014059 -0.004420 0.000312 0.000000 -0.006607 0.000000
# 2 -0.004420 0.014790 -0.005280 0.000000 -0.001316 0.000000
# 3 0.000312 -0.005280 0.013327 0.000000 -0.005451 0.000000
# 4 0.000000 0.000000 0.000000 0.036743 0.000000 -0.012135
# 5 -0.006607 -0.001316 -0.005451 0.000000 0.034343 0.000000
# 6 0.000000 0.000000 0.000000 -0.012135 0.000000 0.036418
#
#
# Mechanical properties :
#
#
# Convention : Reuss Voigt Hill
#
# Bulk Modulus (GPa) = 42.73558 55.62434 49.17996
# Shear Modulus (GPa) = 28.36754 32.25118 30.30936
#
# Velocity S-wave (km/s) = 3.72752 3.97449 3.85299
# Velocity P-wave (km/s) = 6.28154 6.95032 6.62437
#
# Compressibility (1/GPa) = 0.02339970
#
# Stress axis : x y z
#
# Youngs Moduli (GPa) = 71.12758 67.61161 75.03491
#
# Poissons Ratio (x) = 0.29886 -0.02339
# Poissons Ratio (y) = 0.31440 0.39618
# Poissons Ratio (z) = -0.02217 0.35699
#
# Static dielectric constant tensor:
#      x y z
#    x 4.050750 0.000000 0.250590 
#    y 0.000000 3.346590 0.000000 
#    z 0.250590 0.000000 3.798190 
# 
# 
# High freq. dielectric constant tensor:
#      x y z
#    x 1.815220 0.000000 0.018010 
#    y 0.000000 1.774480 0.000000 
#    z 0.018010 0.000000 1.804900 
# 
# From -- ./inp_files/12481.got.cif
#   From: 2010.06.25/outbox.cif.g09.slc.cpg/sg13_7_cif.got.tgz:12481.got - 2010.06.28 04:50:58.
