data_PCOD8120041
_publ_section_title
;
Structure prediction by ZEFSAII (Michael W. Deem and Ramdas Pophale) SiO2 
 PCOD8120041
Probable space group: P 2/C
;
_chemical_formula_sum "Si O2"
_cell_formula_units_Z 30
_cell_length_a 20.188898
_cell_length_b 13.041529
_cell_length_c 8.728941
_cell_angle_alpha 90.000000
_cell_angle_beta 44.436894
_cell_angle_gamma 90.000000
_cell_volume 1609.078343
_symmetry_space_group_name_H-M "P 2/C"
_symmetry_group_IT_number 13
_symmetry_cell_setting 'monoclinic'
loop_
_space_group_symop_operation_xyz
x,y,z
-x,y,1/2-z
-x,-y,-z
x,-y,1/2+z
loop_
_atom_site_type_symbol
_atom_site_label
_atom_site_fract_x
_atom_site_fract_y
_atom_site_fract_z
Si Si1 0.000000 0.001149 0.750000
Si Si2 0.058427 0.680270 0.293724
Si Si3 0.608058 0.410405 0.227965
Si Si4 0.400013 0.375261 0.602634
Si Si5 0.225414 0.713166 0.527122
Si Si6 0.920778 0.859943 0.621314
Si Si7 0.220515 0.625823 0.854850
Si Si8 0.895737 0.422946 0.477969
O O1 0.944963 0.931386 0.722960
O O2 0.077233 0.073195 0.536971
O O3 0.093784 0.595927 0.357254
O O4 0.000000 0.627277 0.250000
O O5 0.000143 0.770336 0.472414
O O6 0.153037 0.714100 0.043305
O O7 0.510454 0.345310 0.408012
O O8 0.600566 0.529754 0.280074
O O9 0.681182 0.358098 0.221187
O O10 0.640846 0.406555 0.996733
O O11 0.331583 0.283516 0.778436
O O12 0.185108 0.818845 0.666372
O O13 0.232375 0.634225 0.654813
O O14 0.147878 0.677824 0.530787
O O15 0.175165 0.513566 0.952339
O O16 0.000000 0.445794 0.250000
#
# Coordination Sequence:
#
# PCOD8120041 Si02
#       8
#     2   4   4   4   4   4   4   4
#     4  10  22  38  64  74 112 142 178 224 308 368
#     4  12  22  38  51  75 115 150 190 241 266 329
#     4  10  21  37  53  74 107 154 203 233 276 310
#     4  10  21  37  54  74 107 151 198 247 271 312
#     4  12  22  36  54  81 112 144 196 243 269 327
#     4  11  21  40  55  85 105 146 179 232 288 352
#     4  12  23  33  51  76 112 157 199 228 266 318
#     4  12  23  33  48  73 110 161 198 228 269 307
#
# _framework density 18.644213000000001
#
# number of rings (size 3 to 8) (size 9 to 14) (size 15 to 20)
#    0.000    0.800    4.667    3.600    0.000    3.200 
#    0.000    0.000    0.000    0.000    0.000    0.000 
#    0.000   36.267    0.000    0.000    0.000    0.000 
#
# Total GULP energy -371672.337549 kJ/mol
# GULP energy per Si atom -12389.077918 kJ/mol
# Density = 1.860178 g / cm^3
# Si number density = 18.644213 Si / 1000 Ang^3
#
#
#
# Elastic Constant Matrix: (Units=GPa)
#
#
# Indices 1 2 3 4 5 6 
#
# 1 125.5248 25.3031 49.7168 0.0000 6.2856 0.0000
# 2 25.3031 52.8486 37.3589 0.0000 -2.9366 0.0000
# 3 49.7168 37.3589 126.3847 0.0000 2.7798 0.0000
# 4 0.0000 0.0000 0.0000 27.8031 0.0000 0.5391
# 5 6.2856 -2.9366 2.7798 0.0000 37.4924 0.0000
# 6 0.0000 0.0000 0.0000 0.5391 0.0000 3.3547
#
#
#
# Elastic Compliance Matrix: (Units=1/GPa)
#
#
# Indices 1 2 3 4 5 6 
#
# 1 0.009779 -0.002627 -0.003035 0.000000 -0.001620 0.000000
# 2 -0.002627 0.024844 -0.006373 0.000000 0.002859 0.000000
# 3 -0.003035 -0.006373 0.011008 0.000000 -0.000807 0.000000
# 4 0.000000 0.000000 0.000000 0.036080 0.000000 -0.005798
# 5 -0.001620 0.002859 -0.000807 0.000000 0.027227 0.000000
# 6 0.000000 0.000000 0.000000 -0.005798 0.000000 0.299024
#
#
# Mechanical properties :
#
#
# Convention : Reuss Voigt Hill
#
# Bulk Modulus (GPa) = 46.38004 58.83507 52.60756
# Shear Modulus (GPa) = 11.38384 26.55532 18.96958
#
# Velocity S-wave (km/s) = 2.47368 3.77811 3.19321
# Velocity P-wave (km/s) = 5.75232 7.11740 6.47096
#
# Compressibility (1/GPa) = 0.02156100
#
# Stress axis : x y z
#
# Youngs Moduli (GPa) = 102.25796 40.25142 90.84445
#
# Poissons Ratio (x) = 0.10573 0.27569
# Poissons Ratio (y) = 0.26862 0.57898
# Poissons Ratio (z) = 0.31033 0.25653
#
# Static dielectric constant tensor:
#      x y z
#    x 3.792950 0.000000 0.159550 
#    y 0.000000 3.067260 0.000000 
#    z 0.159550 0.000000 3.928230 
# 
# 
# High freq. dielectric constant tensor:
#      x y z
#    x 1.734430 0.000000 0.020270 
#    y 0.000000 1.659710 0.000000 
#    z 0.020270 0.000000 1.746170 
# 
# From -- ./inp_files/23497.got.cif
#   From: 2010.06.25/outbox.cif.g09.slc.cpg/sg13_12_cif.got.tgz:23497.got - 2010.06.28 04:50:58.
