data_PCOD8120328
_publ_section_title
;
Structure prediction by ZEFSAII (Michael W. Deem and Ramdas Pophale) SiO2 
 PCOD8120328
Probable space group: P 2/C
;
_chemical_formula_sum "Si O2"
_cell_formula_units_Z 22
_cell_length_a 11.060897
_cell_length_b 9.716135
_cell_length_c 14.874828
_cell_angle_alpha 90.000000
_cell_angle_beta 41.638949
_cell_angle_gamma 90.000000
_cell_volume 1062.155134
_symmetry_space_group_name_H-M "P 2/C"
_symmetry_group_IT_number 13
_symmetry_cell_setting 'monoclinic'
loop_
_space_group_symop_operation_xyz
x,y,z
-x,y,1/2-z
-x,-y,-z
x,-y,1/2+z
loop_
_atom_site_type_symbol
_atom_site_label
_atom_site_fract_x
_atom_site_fract_y
_atom_site_fract_z
Si Si1 0.578669 0.351585 0.973902
Si Si2 0.314258 0.267102 0.895840
Si Si3 0.000000 0.951466 0.250000
Si Si4 0.638685 0.114022 0.453993
Si Si5 0.884487 0.477476 0.903838
Si Si6 0.128131 0.252496 0.823480
O O1 0.721736 0.367557 0.974969
O O2 0.682467 0.283851 0.831903
O O3 0.500000 0.500000 0.000000
O O4 0.407116 0.248218 0.083344
O O5 0.500000 0.329276 0.750000
O O6 0.183929 0.200049 0.891605
O O7 0.370922 0.149472 0.934664
O O8 0.199083 0.385650 0.008569
O O9 0.002707 0.855157 0.337562
O O10 0.163990 0.055344 0.172266
O O11 0.500000 0.000000 0.500000
O O12 0.000000 0.514275 0.750000
O O13 0.017980 0.396172 0.896966
#
# Coordination Sequence:
#
# PCOD8120328 Si02
#       6
#     4   4   2   4   4   4
#     4  11  19  39  67  92 127 173 218 269 336 394
#     4  12  23  39  65  99 138 174 221 284 336 390
#     4  12  24  42  68  94 132 188 228 262 344 408
#     4  12  24  41  65  94 130 179 228 264 333 407
#     4  10  21  38  68  99 131 172 222 270 340 405
#     4  11  21  42  64  95 135 175 212 284 337 393
#
# _framework density 20.712605
#
# number of rings (size 3 to 8) (size 9 to 14) (size 15 to 20)
#    0.000    0.727    8.182    0.545    1.273    0.727 
#    0.000    1.818    0.000    6.545    0.000    0.000 
#    0.000    0.000    0.000    0.000    0.000    0.000 
#
# Total GULP energy -272553.002489 kJ/mol
# GULP energy per Si atom -12388.772840 kJ/mol
# Density = 2.066546 g / cm^3
# Si number density = 20.712605 Si / 1000 Ang^3
#
#
#
# Elastic Constant Matrix: (Units=GPa)
#
#
# Indices 1 2 3 4 5 6 
#
# 1 154.1139 55.2552 29.6218 0.0000 -3.2638 0.0000
# 2 55.2552 131.8456 40.4267 0.0000 -13.4138 0.0000
# 3 29.6218 40.4267 65.5042 0.0000 -20.2767 0.0000
# 4 0.0000 0.0000 0.0000 33.9301 0.0000 -10.2634
# 5 -3.2638 -13.4138 -20.2767 0.0000 34.3765 0.0000
# 6 0.0000 0.0000 0.0000 -10.2634 0.0000 33.6072
#
#
#
# Elastic Compliance Matrix: (Units=1/GPa)
#
#
# Indices 1 2 3 4 5 6 
#
# 1 0.007902 -0.002748 -0.002419 0.000000 -0.001749 0.000000
# 2 -0.002748 0.010313 -0.004841 0.000000 0.000908 0.000000
# 3 -0.002419 -0.004841 0.022867 0.000000 0.011369 0.000000
# 4 0.000000 0.000000 0.000000 0.032472 0.000000 0.009917
# 5 -0.001749 0.000908 0.011369 0.000000 0.035984 0.000000
# 6 0.000000 0.000000 0.000000 0.009917 0.000000 0.032784
#
#
# Mechanical properties :
#
#
# Convention : Reuss Voigt Hill
#
# Bulk Modulus (GPa) = 47.46894 66.89680 57.18287
# Shear Modulus (GPa) = 29.52299 35.46008 32.49154
#
# Velocity S-wave (km/s) = 3.77949 4.14213 3.96496
# Velocity P-wave (km/s) = 6.48180 7.43263 6.97344
#
# Compressibility (1/GPa) = 0.02106641
#
# Stress axis : x y z
#
# Youngs Moduli (GPa) = 126.55409 96.96518 43.73091
#
# Poissons Ratio (x) = 0.26644 0.10577
# Poissons Ratio (y) = 0.34775 0.21171
# Poissons Ratio (z) = 0.30610 0.46943
#
# Static dielectric constant tensor:
#      x y z
#    x 4.747250 0.000000 -0.686990 
#    y 0.000000 3.324470 0.000000 
#    z -0.686990 0.000000 3.845240 
# 
# 
# High freq. dielectric constant tensor:
#      x y z
#    x 1.837180 0.000000 -0.034350 
#    y 0.000000 1.805450 0.000000 
#    z -0.034350 0.000000 1.780780 
# 
# From -- ./inp_files/58633.got.cif
#   From: 2010.06.25/outbox.cif.g09.slc.cpg/sg13_30_cif.got.tgz:58633.got - 2010.06.28 04:50:58.
