data_PCOD8120458
_publ_section_title
;
Structure prediction by ZEFSAII (Michael W. Deem and Ramdas Pophale) SiO2 
 PCOD8120458
Probable space group: P 2/C
;
_chemical_formula_sum "Si O2"
_cell_formula_units_Z 26
_cell_length_a 23.293688
_cell_length_b 5.291149
_cell_length_c 12.730926
_cell_angle_alpha 90.000000
_cell_angle_beta 128.075536
_cell_angle_gamma 90.000000
_cell_volume 1235.186249
_symmetry_space_group_name_H-M "P 2/C"
_symmetry_group_IT_number 13
_symmetry_cell_setting 'monoclinic'
loop_
_space_group_symop_operation_xyz
x,y,z
-x,y,1/2-z
-x,-y,-z
x,-y,1/2+z
loop_
_atom_site_type_symbol
_atom_site_label
_atom_site_fract_x
_atom_site_fract_y
_atom_site_fract_z
Si Si1 0.943088 0.146577 0.506378
Si Si2 0.525163 0.252238 0.160797
Si Si3 0.590202 0.248069 0.649357
Si Si4 0.807204 0.194022 0.224459
Si Si5 0.139756 0.228873 0.438988
Si Si6 0.753851 0.324589 0.765835
Si Si7 0.000000 0.532593 0.250000
O O1 0.885507 0.272828 0.362214
O O2 0.993457 0.329803 0.630974
O O3 0.896018 0.999268 0.539093
O O4 0.000000 0.000000 0.500000
O O5 0.500000 0.215006 0.250000
O O6 0.565643 0.520125 0.195320
O O7 0.578815 0.020117 0.193871
O O8 0.453404 0.248480 0.008520
O O9 0.674328 0.284256 0.721221
O O10 0.811977 0.141538 0.105452
O O11 0.754393 0.433242 0.188535
O O12 0.776866 0.933250 0.235453
O O13 0.191294 0.386783 0.575840
O O14 0.074035 0.384139 0.315407
#
# Coordination Sequence:
#
# PCOD8120458 Si02
#       7
#     4   4   4   4   4   4   2
#     4  11  24  41  62  90 120 162 214 274 328 378
#     4  10  21  39  67  99 130 167 211 254 310 366
#     4  10  22  40  64  96 133 166 211 258 303 379
#     4  11  25  42  63  89 125 165 212 260 320 382
#     4  11  26  40  61  93 119 165 215 265 319 387
#     4  11  25  44  63  93 131 169 209 260 318 375
#     4  12  22  40  66  84 122 160 216 270 324 378
#
# _framework density 21.049458000000001
#
# number of rings (size 3 to 8) (size 9 to 14) (size 15 to 20)
#    0.000    1.231    1.538    3.692    6.462    3.692 
#    0.000    0.000    0.000    0.000    0.000    0.000 
#    0.000    0.000    0.000    0.000    0.000    0.000 
#
# Total GULP energy -322339.712762 kJ/mol
# GULP energy per Si atom -12397.681260 kJ/mol
# Density = 2.100155 g / cm^3
# Si number density = 21.049458 Si / 1000 Ang^3
#
#
#
# Elastic Constant Matrix: (Units=GPa)
#
#
# Indices 1 2 3 4 5 6 
#
# 1 120.7153 31.9567 48.9891 0.0000 -6.7963 0.0000
# 2 31.9567 110.3351 22.6223 0.0000 -6.1168 0.0000
# 3 48.9891 22.6223 53.3474 0.0000 -15.3634 0.0000
# 4 0.0000 0.0000 0.0000 23.5922 0.0000 -2.4805
# 5 -6.7963 -6.1168 -15.3634 0.0000 39.5686 0.0000
# 6 0.0000 0.0000 0.0000 -2.4805 0.0000 34.4422
#
#
#
# Elastic Compliance Matrix: (Units=1/GPa)
#
#
# Indices 1 2 3 4 5 6 
#
# 1 0.013702 -0.001510 -0.012758 0.000000 -0.002834 0.000000
# 2 -0.001510 0.010093 -0.002836 0.000000 0.000200 0.000000
# 3 -0.012758 -0.002836 0.034797 0.000000 0.010881 0.000000
# 4 0.000000 0.000000 0.000000 0.042710 0.000000 0.003076
# 5 -0.002834 0.000200 0.010881 0.000000 0.029042 0.000000
# 6 0.000000 0.000000 0.000000 0.003076 0.000000 0.029256
#
#
# Mechanical properties :
#
#
# Convention : Reuss Voigt Hill
#
# Bulk Modulus (GPa) = 41.01052 54.61489 47.81271
# Shear Modulus (GPa) = 24.76039 31.57591 28.16815
#
# Velocity S-wave (km/s) = 3.43344 3.87729 3.66209
# Velocity P-wave (km/s) = 5.93660 6.78578 6.37534
#
# Compressibility (1/GPa) = 0.02438399
#
# Stress axis : x y z
#
# Youngs Moduli (GPa) = 72.98411 99.07718 28.73800
#
# Poissons Ratio (x) = 0.14958 0.36664
# Poissons Ratio (y) = 0.11018 0.08151
# Poissons Ratio (z) = 0.93114 0.28100
#
# Static dielectric constant tensor:
#      x y z
#    x 3.720560 0.000000 0.059750 
#    y 0.000000 3.977420 0.000000 
#    z 0.059750 0.000000 3.839690 
# 
# 
# High freq. dielectric constant tensor:
#      x y z
#    x 1.833540 0.000000 -0.008610 
#    y 0.000000 1.829090 0.000000 
#    z -0.008610 0.000000 1.828780 
# 
# From -- ./inp_files/39800.got.cif
#   From: 2010.06.25/outbox.cif.g09.slc.cpg/sg13_20_cif.got.tgz:39800.got - 2010.06.28 04:50:58.
