data_PCOD8120033
_publ_section_title
;
Structure prediction by ZEFSAII (Michael W. Deem and Ramdas Pophale) SiO2 
 PCOD8120033
Probable space group: P 2/C
;
_chemical_formula_sum "Si O2"
_cell_formula_units_Z 32
_cell_length_a 28.047355
_cell_length_b 8.452896
_cell_length_c 11.528347
_cell_angle_alpha 90.000000
_cell_angle_beta 32.275985
_cell_angle_gamma 90.000000
_cell_volume 1459.500079
_symmetry_space_group_name_H-M "P 2/C"
_symmetry_group_IT_number 13
_symmetry_cell_setting 'monoclinic'
loop_
_space_group_symop_operation_xyz
x,y,z
-x,y,1/2-z
-x,-y,-z
x,-y,1/2+z
loop_
_atom_site_type_symbol
_atom_site_label
_atom_site_fract_x
_atom_site_fract_y
_atom_site_fract_z
Si Si1 0.674580 0.267069 0.143681
Si Si2 0.842112 0.118358 0.860773
Si Si3 0.595050 0.105393 0.096740
Si Si4 0.599681 0.739066 0.054951
Si Si5 0.229676 0.191001 0.896779
Si Si6 0.906748 0.121109 0.492989
Si Si7 0.897311 0.749898 0.470593
Si Si8 0.745113 0.397869 0.430255
O O1 0.602305 0.201859 0.202042
O O2 0.636932 0.288146 0.349827
O O3 0.745769 0.126565 0.999249
O O4 0.726549 0.419945 0.990658
O O5 0.916521 0.149631 0.610532
O O6 0.855139 0.256237 0.928790
O O7 0.840968 0.942378 0.914492
O O8 0.500000 0.168065 0.250000
O O9 0.593741 0.917414 0.114204
O O10 0.672224 0.139460 0.844783
O O11 0.500000 0.665865 0.250000
O O12 0.661557 0.657266 0.024010
O O13 0.172167 0.234389 0.899169
O O14 0.246011 0.320496 0.960908
O O15 0.000000 0.174453 0.250000
O O16 0.888402 0.932427 0.525985
O O17 0.839042 0.634689 0.671840
O O18 0.000000 0.692861 0.250000
#
# Coordination Sequence:
#
# PCOD8120033 Si02
#       8
#     4   4   4   4   4   4   4   4
#     4  12  26  44  68  95 137 178 221 271 332 401
#     4  11  20  41  66  91 131 172 227 278 322 386
#     4  11  25  43  71 101 131 169 228 274 330 389
#     4  11  26  46  70 100 132 174 224 275 330 393
#     4  11  22  39  66  93 132 174 218 273 333 381
#     4  10  21  36  66 103 128 168 230 281 323 383
#     4  10  22  39  66  97 133 174 220 276 335 388
#     4  12  26  43  65  96 140 178 219 267 335 395
#
# _framework density 21.925315999999999
#
# number of rings (size 3 to 8) (size 9 to 14) (size 15 to 20)
#    0.000    1.000    5.000    1.500    5.250    3.500 
#    0.000    1.250    0.000    0.000    0.000    0.000 
#    0.000    0.000    0.000    0.000    0.000    0.000 
#
# Total GULP energy -396440.605007 kJ/mol
# GULP energy per Si atom -12388.768906 kJ/mol
# Density = 2.187541 g / cm^3
# Si number density = 21.925316 Si / 1000 Ang^3
#
#
#
# Elastic Constant Matrix: (Units=GPa)
#
#
# Indices 1 2 3 4 5 6 
#
# 1 104.6735 27.2836 31.5204 0.0000 2.9808 0.0000
# 2 27.2836 49.1412 11.4163 0.0000 2.2299 0.0000
# 3 31.5204 11.4163 107.4527 0.0000 -2.0313 0.0000
# 4 0.0000 0.0000 0.0000 10.1148 0.0000 9.5618
# 5 2.9808 2.2299 -2.0313 0.0000 47.9002 0.0000
# 6 0.0000 0.0000 0.0000 9.5618 0.0000 17.3432
#
#
#
# Elastic Compliance Matrix: (Units=1/GPa)
#
#
# Indices 1 2 3 4 5 6 
#
# 1 0.011996 -0.005961 -0.002897 0.000000 -0.000592 0.000000
# 2 -0.005961 0.023881 -0.000803 0.000000 -0.000775 0.000000
# 3 -0.002897 -0.000803 0.010254 0.000000 0.000653 0.000000
# 4 0.000000 0.000000 0.000000 0.206478 0.000000 -0.113838
# 5 -0.000592 -0.000775 0.000653 0.000000 0.020977 0.000000
# 6 0.000000 0.000000 0.000000 -0.113838 0.000000 0.120422
#
#
# Mechanical properties :
#
#
# Convention : Reuss Voigt Hill
#
# Bulk Modulus (GPa) = 37.30070 44.63420 40.96745
# Shear Modulus (GPa) = 11.84086 27.80811 19.82449
#
# Velocity S-wave (km/s) = 2.32643 3.56520 3.01022
# Velocity P-wave (km/s) = 4.92604 6.11139 5.55045
#
# Compressibility (1/GPa) = 0.02680915
#
# Stress axis : x y z
#
# Youngs Moduli (GPa) = 83.35838 41.87486 97.52380
#
# Poissons Ratio (x) = 0.24960 0.28252
# Poissons Ratio (y) = 0.49687 0.07835
# Poissons Ratio (z) = 0.24149 0.03364
#
# Static dielectric constant tensor:
#      x y z
#    x 4.483860 0.000000 0.099850 
#    y 0.000000 3.572110 0.000000 
#    z 0.099850 0.000000 4.191040 
# 
# 
# High freq. dielectric constant tensor:
#      x y z
#    x 1.887820 0.000000 0.006310 
#    y 0.000000 1.825350 0.000000 
#    z 0.006310 0.000000 1.874210 
# 
# From -- ./inp_files/42753.got.cif
#   From: 2010.06.25/outbox.cif.g09.slc.cpg/sg13_22_cif.got.tgz:42753.got - 2010.06.28 04:50:58.
