data_PCOD8120826
_publ_section_title
;
Structure prediction by ZEFSAII (Michael W. Deem and Ramdas Pophale) SiO2 
 PCOD8120826
Probable space group: P 2/C
;
_chemical_formula_sum "Si O2"
_cell_formula_units_Z 24
_cell_length_a 13.744852
_cell_length_b 9.447179
_cell_length_c 13.895245
_cell_angle_alpha 90.000000
_cell_angle_beta 138.793260
_cell_angle_gamma 90.000000
_cell_volume 1188.632185
_symmetry_space_group_name_H-M "P 2/C"
_symmetry_group_IT_number 13
_symmetry_cell_setting 'monoclinic'
loop_
_space_group_symop_operation_xyz
x,y,z
-x,y,1/2-z
-x,-y,-z
x,-y,1/2+z
loop_
_atom_site_type_symbol
_atom_site_label
_atom_site_fract_x
_atom_site_fract_y
_atom_site_fract_z
Si Si1 0.218348 0.524214 0.889012
Si Si2 0.162185 0.207809 0.830316
Si Si3 0.345203 0.005749 0.100984
Si Si4 0.781642 0.830471 0.334352
Si Si5 0.470249 0.717018 0.123066
Si Si6 0.038536 0.592003 0.935656
O O1 0.232816 0.362389 0.866043
O O2 0.162882 0.522780 0.958874
O O3 0.108390 0.611144 0.737443
O O4 0.376200 0.601831 0.994183
O O5 0.151780 0.127909 0.719818
O O6 0.000000 0.228122 0.750000
O O7 0.260757 0.119118 0.975822
O O8 0.500000 0.073996 0.250000
O O9 0.250925 0.969627 0.126673
O O10 0.375473 0.862062 0.063459
O O11 0.629484 0.746893 0.194919
O O12 0.900652 0.741383 0.483065
O O13 0.500000 0.651881 0.250000
O O14 0.000000 0.500000 0.000000
#
# Coordination Sequence:
#
# PCOD8120826 Si02
#       6
#     4   4   4   4   4   4
#     4  11  21  36  63  94 123 157 202 259 301 364
#     4  12  24  39  60  94 127 158 206 261 306 360
#     4   9  22  42  61  86 123 167 205 252 303 366
#     4  10  21  43  67  84 126 168 203 256 309 369
#     4   9  19  39  64  89 118 164 209 246 300 369
#     4  11  19  37  61  91 124 159 195 249 314 362
#
# _framework density 20.191276999999999
#
# number of rings (size 3 to 8) (size 9 to 14) (size 15 to 20)
#    0.000    2.000    6.667    0.000    0.000    6.000 
#    0.000    3.333    0.000    0.000    0.000    0.000 
#    0.000    0.000    0.000    0.000    0.000    0.000 
#
# Total GULP energy -297489.647313 kJ/mol
# GULP energy per Si atom -12395.401971 kJ/mol
# Density = 2.014532 g / cm^3
# Si number density = 20.191277 Si / 1000 Ang^3
#
#
#
# Elastic Constant Matrix: (Units=GPa)
#
#
# Indices 1 2 3 4 5 6 
#
# 1 75.8378 13.9552 30.0294 0.0000 -15.0950 0.0000
# 2 13.9552 72.0020 71.4045 0.0000 9.6868 0.0000
# 3 30.0294 71.4045 132.8497 0.0000 4.0795 0.0000
# 4 0.0000 0.0000 0.0000 21.5336 0.0000 -24.8991
# 5 -15.0950 9.6868 4.0795 0.0000 27.1019 0.0000
# 6 0.0000 0.0000 0.0000 -24.8991 0.0000 -3.7450
#
#
#
# Elastic Compliance Matrix: (Units=1/GPa)
#
#
# Indices 1 2 3 4 5 6 
#
# 1 0.016841 -0.001209 -0.003474 0.000000 0.010335 0.000000
# 2 -0.001209 0.031791 -0.016521 0.000000 -0.009550 0.000000
# 3 -0.003474 -0.016521 0.017150 0.000000 0.001388 0.000000
# 4 0.000000 0.000000 0.000000 0.005345 0.000000 -0.035539
# 5 0.010335 -0.009550 0.001388 0.000000 0.045859 0.000000
# 6 0.000000 0.000000 0.000000 -0.035539 0.000000 -0.030736
#
#
# Mechanical properties :
#
#
# Convention : Reuss Voigt Hill
#
# Bulk Modulus (GPa) = 42.78263 56.82975 49.80619
# Shear Modulus (GPa) = 36.64343 19.99813 28.32078
#
# Velocity S-wave (km/s) = 4.26469 3.15053 3.74923
# Velocity P-wave (km/s) = 6.74424 6.43749 6.59265
#
# Compressibility (1/GPa) = 0.02337397
#
# Stress axis : x y z
#
# Youngs Moduli (GPa) = 59.37731 31.45526 58.31036
#
# Poissons Ratio (x) = 0.03803 0.20259
# Poissons Ratio (y) = 0.07179 0.96333
# Poissons Ratio (z) = 0.20630 0.51966
#
# Static dielectric constant tensor:
#      x y z
#    x 3.806930 0.000000 0.057830 
#    y 0.000000 3.349030 0.000000 
#    z 0.057830 0.000000 3.844480 
# 
# 
# High freq. dielectric constant tensor:
#      x y z
#    x 1.793190 0.000000 0.000900 
#    y 0.000000 1.757650 0.000000 
#    z 0.000900 0.000000 1.794540 
# 
# From -- ./inp_files/53205.got.cif
#   From: 2010.06.25/outbox.cif.g09.slc.cpg/sg13_27_cif.got.tgz:53205.got - 2010.06.28 04:50:58.
