data_PCOD8120394
_publ_section_title
;
Structure prediction by ZEFSAII (Michael W. Deem and Ramdas Pophale) SiO2 
 PCOD8120394
Probable space group: P 2/C
;
_chemical_formula_sum "Si O2"
_cell_formula_units_Z 16
_cell_length_a 18.711598
_cell_length_b 6.937593
_cell_length_c 15.719630
_cell_angle_alpha 90.000000
_cell_angle_beta 19.861088
_cell_angle_gamma 90.000000
_cell_volume 693.281843
_symmetry_space_group_name_H-M "P 2/C"
_symmetry_group_IT_number 13
_symmetry_cell_setting 'monoclinic'
loop_
_space_group_symop_operation_xyz
x,y,z
-x,y,1/2-z
-x,-y,-z
x,-y,1/2+z
loop_
_atom_site_type_symbol
_atom_site_label
_atom_site_fract_x
_atom_site_fract_y
_atom_site_fract_z
Si Si1 0.656550 0.094113 0.502714
Si Si2 0.994366 0.609907 0.872564
Si Si3 0.755055 0.704271 0.309185
Si Si4 0.576455 0.552287 0.260911
O O1 0.520881 0.243694 0.596845
O O2 0.845421 0.219775 0.334167
O O3 0.753210 0.927242 0.337415
O O4 0.500000 0.007985 0.750000
O O5 0.111367 0.416970 0.771616
O O6 0.849730 0.691332 0.110185
O O7 0.831575 0.553551 0.978768
O O8 0.516802 0.619657 0.576506
O O9 0.500000 0.522125 0.250000
#
# Coordination Sequence:
#
# PCOD8120394 Si02
#       4
#     4   4   4   4
#     4  10  22  38  58  88 120 154 197 243 295 355
#     4  10  22  40  62  87 120 156 196 248 299 349
#     4  10  21  39  63  90 117 154 201 246 297 353
#     4  10  22  39  59  88 123 156 195 244 295 352
#
# _framework density 23.078635999999999
#
# number of rings (size 3 to 8) (size 9 to 14) (size 15 to 20)
#    0.000    2.000    0.000    2.250    0.000   13.000 
#    0.000    5.000    0.000    0.000    0.000    0.000 
#    0.000    0.000    0.000    0.000    0.000    0.000 
#
# Total GULP energy -198343.668007 kJ/mol
# GULP energy per Si atom -12396.479250 kJ/mol
# Density = 2.302611 g / cm^3
# Si number density = 23.078636 Si / 1000 Ang^3
#
#
#
# Elastic Constant Matrix: (Units=GPa)
#
#
# Indices 1 2 3 4 5 6 
#
# 1 53.6507 6.9822 23.6001 0.0000 -18.0423 0.0000
# 2 6.9822 81.6537 18.3905 0.0000 -0.0453 0.0000
# 3 23.6001 18.3905 146.0091 0.0000 -20.5437 0.0000
# 4 0.0000 0.0000 0.0000 31.9991 0.0000 7.4423
# 5 -18.0423 -0.0453 -20.5437 0.0000 42.4541 0.0000
# 6 0.0000 0.0000 0.0000 7.4423 0.0000 19.3857
#
#
#
# Elastic Compliance Matrix: (Units=1/GPa)
#
#
# Indices 1 2 3 4 5 6 
#
# 1 0.022703 -0.001421 -0.002289 0.000000 0.008539 0.000000
# 2 -0.001421 0.012719 -0.001562 0.000000 -0.001346 0.000000
# 3 -0.002289 -0.001562 0.007810 0.000000 0.002805 0.000000
# 4 0.000000 0.000000 0.000000 0.034315 0.000000 -0.013174
# 5 0.008539 -0.001346 0.002805 0.000000 0.028540 0.000000
# 6 0.000000 0.000000 0.000000 -0.013174 0.000000 0.056642
#
#
# Mechanical properties :
#
#
# Convention : Reuss Voigt Hill
#
# Bulk Modulus (GPa) = 30.59187 42.13990 36.36588
# Shear Modulus (GPa) = 27.14912 34.25718 30.70315
#
# Velocity S-wave (km/s) = 3.43355 3.85693 3.65138
# Velocity P-wave (km/s) = 5.38547 6.17523 5.79382
#
# Compressibility (1/GPa) = 0.03268842
#
# Stress axis : x y z
#
# Youngs Moduli (GPa) = 44.04797 78.62031 128.03681
#
# Poissons Ratio (x) = 0.11172 0.29309
# Poissons Ratio (y) = 0.06259 0.19996
# Poissons Ratio (z) = 0.10083 0.12279
#
# Static dielectric constant tensor:
#      x y z
#    x 3.826340 0.000000 -0.029450 
#    y 0.000000 4.025360 0.000000 
#    z -0.029450 0.000000 4.901330 
# 
# 
# High freq. dielectric constant tensor:
#      x y z
#    x 1.888780 0.000000 0.010650 
#    y 0.000000 1.895550 0.000000 
#    z 0.010650 0.000000 1.949500 
# 
# From -- ./inp_files/70354.got.cif
#   From: 2010.06.25/outbox.cif.g09.slc.cpg/sg13_36_cif.got.tgz:70354.got - 2010.06.28 04:50:58.
