data_PCOD8120693
_publ_section_title
;
Structure prediction by ZEFSAII (Michael W. Deem and Ramdas Pophale) SiO2 
 PCOD8120693
Probable space group: P 2/C
;
_chemical_formula_sum "Si O2"
_cell_formula_units_Z 16
_cell_length_a 5.271569
_cell_length_b 10.471317
_cell_length_c 12.347746
_cell_angle_alpha 90.000000
_cell_angle_beta 101.036087
_cell_angle_gamma 90.000000
_cell_volume 668.993976
_symmetry_space_group_name_H-M "P 2/C"
_symmetry_group_IT_number 13
_symmetry_cell_setting 'monoclinic'
loop_
_space_group_symop_operation_xyz
x,y,z
-x,y,1/2-z
-x,-y,-z
x,-y,1/2+z
loop_
_atom_site_type_symbol
_atom_site_label
_atom_site_fract_x
_atom_site_fract_y
_atom_site_fract_z
Si Si1 0.173776 0.983428 0.634104
Si Si2 0.052185 0.273613 0.637407
Si Si3 0.671434 0.876217 0.623191
Si Si4 0.496332 0.649003 0.018307
O O1 0.418232 0.962586 0.575482
O O2 0.239340 0.898781 0.746712
O O3 0.907389 0.922641 0.561903
O O4 0.125086 0.127068 0.664490
O O5 0.307416 0.334247 0.605380
O O6 0.000000 0.337984 0.750000
O O7 0.786289 0.295679 0.551180
O O8 0.623198 0.727010 0.593348
O O9 0.500000 0.500000 0.000000
#
# Coordination Sequence:
#
# PCOD8120693 Si02
#       4
#     4   4   4   4
#     4  10  21  41  68 105 136 169 231 279 372 380
#     4  12  25  47  72 101 139 179 228 296 348 407
#     4  10  21  41  68  98 142 171 225 292 326 419
#     4  12  28  47  68 103 141 189 238 268 337 419
#
# _framework density 23.916509999999999
#
# number of rings (size 3 to 8) (size 9 to 14) (size 15 to 20)
#    0.000    1.000    2.500    4.500    3.500    6.000 
#   13.500    0.000    0.000    0.000    0.000    0.000 
#    0.000    0.000    0.000    0.000    0.000    0.000 
#
# Total GULP energy -198309.175873 kJ/mol
# GULP energy per Si atom -12394.323492 kJ/mol
# Density = 2.386207 g / cm^3
# Si number density = 23.916510 Si / 1000 Ang^3
#
#
#
# Elastic Constant Matrix: (Units=GPa)
#
#
# Indices 1 2 3 4 5 6 
#
# 1 222.9923 75.7386 26.3984 0.0000 8.8970 0.0000
# 2 75.7386 179.5397 44.2082 0.0000 3.3558 0.0000
# 3 26.3984 44.2082 61.5385 0.0000 3.0573 0.0000
# 4 0.0000 0.0000 0.0000 20.8171 0.0000 11.8002
# 5 8.8970 3.3558 3.0573 0.0000 38.1254 0.0000
# 6 0.0000 0.0000 0.0000 11.8002 0.0000 7.9956
#
#
#
# Elastic Compliance Matrix: (Units=1/GPa)
#
#
# Indices 1 2 3 4 5 6 
#
# 1 0.005305 -0.002030 -0.000768 0.000000 -0.000998 0.000000
# 2 -0.002030 0.007545 -0.004558 0.000000 0.000175 0.000000
# 3 -0.000768 -0.004558 0.019904 0.000000 -0.001016 0.000000
# 4 0.000000 0.000000 0.000000 0.293935 0.000000 -0.433798
# 5 -0.000998 0.000175 -0.001016 0.000000 0.026528 0.000000
# 6 0.000000 0.000000 0.000000 -0.433798 0.000000 0.765280
#
#
# Mechanical properties :
#
#
# Convention : Reuss Voigt Hill
#
# Bulk Modulus (GPa) = 55.42519 84.08457 69.75488
# Shear Modulus (GPa) = 4.38895 34.56930 19.47913
#
# Velocity S-wave (km/s) = 1.35613 3.80599 2.85698
# Velocity P-wave (km/s) = 5.06724 7.38566 6.33344
#
# Compressibility (1/GPa) = 0.01804234
#
# Stress axis : x y z
#
# Youngs Moduli (GPa) = 188.51369 132.53268 50.24038
#
# Poissons Ratio (x) = 0.26906 0.03856
# Poissons Ratio (y) = 0.38270 0.22901
# Poissons Ratio (z) = 0.14470 0.60412
#
# Static dielectric constant tensor:
#      x y z
#    x 7.326090 0.000000 -0.325120 
#    y 0.000000 3.936660 0.000000 
#    z -0.325120 0.000000 4.465920 
# 
# 
# High freq. dielectric constant tensor:
#      x y z
#    x 2.003790 0.000000 -0.003070 
#    y 0.000000 1.914580 0.000000 
#    z -0.003070 0.000000 1.956570 
# 
# From -- ./inp_files/43290.got.cif
#   From: 2010.06.25/outbox.cif.g09.slc.cpg/sg13_22_cif.got.tgz:43290.got - 2010.06.28 04:50:58.
