data_PCOD8120856
_publ_section_title
;
Structure prediction by ZEFSAII (Michael W. Deem and Ramdas Pophale) SiO2 
 PCOD8120856
Probable space group: P 2/C
;
_chemical_formula_sum "Si O2"
_cell_formula_units_Z 22
_cell_length_a 21.663216
_cell_length_b 8.363050
_cell_length_c 14.193879
_cell_angle_alpha 90.000000
_cell_angle_beta 159.597758
_cell_angle_gamma 90.000000
_cell_volume 896.451859
_symmetry_space_group_name_H-M "P 2/C"
_symmetry_group_IT_number 13
_symmetry_cell_setting 'monoclinic'
loop_
_space_group_symop_operation_xyz
x,y,z
-x,y,1/2-z
-x,-y,-z
x,-y,1/2+z
loop_
_atom_site_type_symbol
_atom_site_label
_atom_site_fract_x
_atom_site_fract_y
_atom_site_fract_z
Si Si1 0.118811 0.342216 0.167046
Si Si2 0.000000 0.412771 0.250000
Si Si3 0.655278 0.434692 0.839778
Si Si4 0.517740 0.738636 0.967769
Si Si5 0.875245 0.851239 0.428772
Si Si6 0.838921 0.811852 0.961235
O O1 0.291543 0.360986 0.482546
O O2 0.201719 0.312588 0.182196
O O3 0.000000 0.500000 0.000000
O O4 0.994594 0.182486 0.006267
O O5 0.168209 0.515973 0.455451
O O6 0.054352 0.300143 0.413155
O O7 0.513304 0.577545 0.638512
O O8 0.593391 0.294296 0.681014
O O9 0.336539 0.837377 0.725371
O O10 0.660791 0.837825 0.110825
O O11 0.914249 0.019348 0.531889
O O12 0.000000 0.735760 0.250000
#
# Coordination Sequence:
#
# PCOD8120856 Si02
#       6
#     4   2   4   4   4   4
#     4  11  25  42  69  98 136 175 225 275 337 394
#     4   8  16  34  66  88 126 172 208 262 328 390
#     4   9  20  38  65  97 131 167 219 272 330 387
#     4  10  22  39  71  98 130 168 225 276 331 392
#     4  10  21  44  64  94 133 175 218 273 331 396
#     4  12  25  42  68  99 134 180 225 270 335 408
#
# _framework density 24.541194000000001
#
# number of rings (size 3 to 8) (size 9 to 14) (size 15 to 20)
#    0.000    1.818    0.909    2.182   11.455    0.727 
#    0.000    2.727    8.000    0.000    0.000    0.000 
#    0.000    0.000    0.000    0.000    0.000    0.000 
#
# Total GULP energy -272633.574546 kJ/mol
# GULP energy per Si atom -12392.435207 kJ/mol
# Density = 2.448534 g / cm^3
# Si number density = 24.541194 Si / 1000 Ang^3
#
#
#
# Elastic Constant Matrix: (Units=GPa)
#
#
# Indices 1 2 3 4 5 6 
#
# 1 69.2099 -6.8355 38.4400 0.0000 -6.7147 0.0000
# 2 -6.8355 52.4276 8.9358 0.0000 -10.4268 0.0000
# 3 38.4400 8.9358 133.2753 0.0000 -11.2000 0.0000
# 4 0.0000 0.0000 0.0000 19.6984 0.0000 11.3098
# 5 -6.7147 -10.4268 -11.2000 0.0000 38.9275 0.0000
# 6 0.0000 0.0000 0.0000 11.3098 0.0000 22.2335
#
#
#
# Elastic Compliance Matrix: (Units=1/GPa)
#
#
# Indices 1 2 3 4 5 6 
#
# 1 0.017968 0.003749 -0.005215 0.000000 0.002603 0.000000
# 2 0.003749 0.021040 -0.002013 0.000000 0.005703 0.000000
# 3 -0.005215 -0.002013 0.009245 0.000000 0.001221 0.000000
# 4 0.000000 0.000000 0.000000 0.071709 0.000000 -0.036477
# 5 0.002603 0.005703 0.001221 0.000000 0.028017 0.000000
# 6 0.000000 0.000000 0.000000 -0.036477 0.000000 0.063533
#
#
# Mechanical properties :
#
#
# Convention : Reuss Voigt Hill
#
# Bulk Modulus (GPa) = 24.21543 37.33261 30.77402
# Shear Modulus (GPa) = 21.53000 30.46338 25.99669
#
# Velocity S-wave (km/s) = 2.96514 3.52705 3.25823
# Velocity P-wave (km/s) = 4.64881 5.64199 5.16931
#
# Compressibility (1/GPa) = 0.04129598
#
# Stress axis : x y z
#
# Youngs Moduli (GPa) = 55.65401 47.52838 108.16648
#
# Poissons Ratio (x) = -0.17820 0.56410
# Poissons Ratio (y) = -0.20866 0.21772
# Poissons Ratio (z) = 0.29024 0.09566
#
# Static dielectric constant tensor:
#      x y z
#    x 4.700830 0.000000 0.212440 
#    y 0.000000 4.002530 0.000000 
#    z 0.212440 0.000000 4.673210 
# 
# 
# High freq. dielectric constant tensor:
#      x y z
#    x 1.969370 0.000000 0.015320 
#    y 0.000000 1.962180 0.000000 
#    z 0.015320 0.000000 1.981950 
# 
# From -- ./inp_files/58765.got.cif
#   From: 2010.06.25/outbox.cif.g09.slc.cpg/sg13_30_cif.got.tgz:58765.got - 2010.06.28 04:50:58.
