data_PCOD8120334
_publ_section_title
;
Structure prediction by ZEFSAII (Michael W. Deem and Ramdas Pophale) SiO2 
 PCOD8120334
Probable space group: P 2/C
;
_chemical_formula_sum "Si O2"
_cell_formula_units_Z 28
_cell_length_a 29.019520
_cell_length_b 8.466939
_cell_length_c 8.804643
_cell_angle_alpha 90.000000
_cell_angle_beta 31.637907
_cell_angle_gamma 90.000000
_cell_volume 1134.787949
_symmetry_space_group_name_H-M "P 2/C"
_symmetry_group_IT_number 13
_symmetry_cell_setting 'monoclinic'
loop_
_space_group_symop_operation_xyz
x,y,z
-x,y,1/2-z
-x,-y,-z
x,-y,1/2+z
loop_
_atom_site_type_symbol
_atom_site_label
_atom_site_fract_x
_atom_site_fract_y
_atom_site_fract_z
Si Si1 0.500000 0.531815 0.750000
Si Si2 0.791166 0.069613 0.604612
Si Si3 0.500000 0.047539 0.750000
Si Si4 0.877925 0.470365 0.083459
Si Si5 0.049127 0.707416 0.847041
Si Si6 0.318389 0.905663 0.362130
Si Si7 0.846993 0.275961 0.901624
Si Si8 0.425563 0.295189 0.747704
O O1 0.421877 0.423545 0.894667
O O2 0.534714 0.637004 0.517822
O O3 0.802068 0.892124 0.510590
O O4 0.881667 0.155705 0.395615
O O5 0.741266 0.162690 0.608456
O O6 0.729715 0.057682 0.926897
O O7 0.485594 0.151526 0.638958
O O8 0.586277 0.944465 0.474838
O O9 0.929166 0.348024 0.044969
O O10 0.823310 0.603677 0.329807
O O11 0.946317 0.558498 0.779250
O O12 0.817554 0.363095 0.141397
O O13 0.950628 0.769145 0.113488
O O14 0.330756 0.774010 0.462426
#
# Coordination Sequence:
#
# PCOD8120334 Si02
#       8
#     2   4   2   4   4   4   4   4
#     4   9  21  40  74 104 129 159 226 270 328 421
#     4  12  27  41  64  99 144 174 227 286 339 405
#     4  11  23  44  76  92 121 173 224 270 330 397
#     4  10  21  38  70  94 125 178 238 276 331 410
#     4  11  21  41  66  96 130 182 224 282 337 400
#     4  12  25  44  65  99 130 175 220 276 337 407
#     4  11  21  41  66  97 132 178 230 279 338 403
#     4  10  21  42  70 100 126 165 213 269 334 402
#
# _framework density 24.674213000000002
#
# number of rings (size 3 to 8) (size 9 to 14) (size 15 to 20)
#    0.000    1.143    1.429    6.429    2.000    0.000 
#    0.000   10.000    0.000    0.000    0.000    0.000 
#    0.000    0.000    0.000    0.000    0.000    0.000 
#
# Total GULP energy -346977.100489 kJ/mol
# GULP energy per Si atom -12392.039303 kJ/mol
# Density = 2.461805 g / cm^3
# Si number density = 24.674213 Si / 1000 Ang^3
#
#
#
# Elastic Constant Matrix: (Units=GPa)
#
#
# Indices 1 2 3 4 5 6 
#
# 1 116.8905 23.2065 26.4013 0.0000 12.5711 0.0000
# 2 23.2065 78.2750 22.9615 0.0000 -6.1432 0.0000
# 3 26.4013 22.9615 90.2891 0.0000 1.2601 0.0000
# 4 0.0000 0.0000 0.0000 32.7181 0.0000 1.7055
# 5 12.5711 -6.1432 1.2601 0.0000 39.5965 0.0000
# 6 0.0000 0.0000 0.0000 1.7055 0.0000 23.6668
#
#
#
# Elastic Compliance Matrix: (Units=1/GPa)
#
#
# Indices 1 2 3 4 5 6 
#
# 1 0.009938 -0.002574 -0.002203 0.000000 -0.003484 0.000000
# 2 -0.002574 0.014676 -0.003024 0.000000 0.003190 0.000000
# 3 -0.002203 -0.003024 0.012491 0.000000 -0.000167 0.000000
# 4 0.000000 0.000000 0.000000 0.030679 0.000000 -0.002211
# 5 -0.003484 0.003190 -0.000167 0.000000 0.026861 0.000000
# 6 0.000000 0.000000 0.000000 -0.002211 0.000000 0.042413
#
#
# Mechanical properties :
#
#
# Convention : Reuss Voigt Hill
#
# Bulk Modulus (GPa) = 46.50344 47.84367 47.17356
# Shear Modulus (GPa) = 31.28362 33.38864 32.33613
#
# Velocity S-wave (km/s) = 3.56457 3.68255 3.62404
# Velocity P-wave (km/s) = 5.98577 6.12485 6.05571
#
# Compressibility (1/GPa) = 0.02150379
#
# Stress axis : x y z
#
# Youngs Moduli (GPa) = 100.62128 68.13838 80.05701
#
# Poissons Ratio (x) = 0.17537 0.17636
# Poissons Ratio (y) = 0.25897 0.24211
# Poissons Ratio (z) = 0.22166 0.20607
#
# Static dielectric constant tensor:
#      x y z
#    x 4.842030 0.000000 0.197000 
#    y 0.000000 4.609070 0.000000 
#    z 0.197000 0.000000 4.293870 
# 
# 
# High freq. dielectric constant tensor:
#      x y z
#    x 2.001410 0.000000 0.020360 
#    y 0.000000 1.974830 0.000000 
#    z 0.020360 0.000000 1.965310 
# 
# From -- ./inp_files/24425.got.cif
#   From: 2010.06.25/outbox.cif.g09.slc.cpg/sg13_13_cif.got.tgz:24425.got - 2010.06.28 04:50:58.
