data_PCOD8120751
_publ_section_title
;
Structure prediction by ZEFSAII (Michael W. Deem and Ramdas Pophale) SiO2 
 PCOD8120751
Probable space group: P 2/C
;
_chemical_formula_sum "Si O2"
_cell_formula_units_Z 32
_cell_length_a 17.815862
_cell_length_b 9.058424
_cell_length_c 10.212795
_cell_angle_alpha 90.000000
_cell_angle_beta 67.559585
_cell_angle_gamma 90.000000
_cell_volume 1523.372981
_symmetry_space_group_name_H-M "P 2/C"
_symmetry_group_IT_number 13
_symmetry_cell_setting 'monoclinic'
loop_
_space_group_symop_operation_xyz
x,y,z
-x,y,1/2-z
-x,-y,-z
x,-y,1/2+z
loop_
_atom_site_type_symbol
_atom_site_label
_atom_site_fract_x
_atom_site_fract_y
_atom_site_fract_z
Si Si1 0.680450 0.783928 0.258876
Si Si2 0.998452 0.372377 0.895508
Si Si3 0.236478 0.465638 0.654549
Si Si4 0.771495 0.074351 0.241250
Si Si5 0.503818 0.133205 0.898919
Si Si6 0.174646 0.643436 0.926214
Si Si7 0.051525 0.938640 0.346669
Si Si8 0.334396 0.728754 0.519800
O O1 0.734946 0.696682 0.325714
O O2 0.588069 0.784581 0.371178
O O3 0.716783 0.946971 0.214987
O O4 0.682780 0.699436 0.120554
O O5 0.000000 0.445084 0.750000
O O6 0.064752 0.239507 0.859340
O O7 0.913028 0.291652 0.979584
O O8 0.000000 0.500000 0.000000
O O9 0.170481 0.533225 0.801481
O O10 0.203447 0.454985 0.529583
O O11 0.312451 0.578309 0.610018
O O12 0.773086 0.209481 0.136062
O O13 0.723903 0.135294 0.399756
O O14 0.860869 0.017109 0.222570
O O15 0.500000 0.078719 0.750000
O O16 0.428994 0.240319 0.982238
O O17 0.500000 0.000000 0.000000
O O18 0.000000 0.968907 0.250000
O O19 0.000000 0.000000 0.500000
#
# Coordination Sequence:
#
# PCOD8120751 Si02
#       8
#     4   4   4   4   4   4   4   4
#     4  11  24  39  71  98 129 179 217 279 329 395
#     4  11  25  43  64  92 128 172 219 275 341 396
#     4  11  24  43  67  95 134 174 226 270 332 399
#     4  11  25  41  71  95 132 171 228 274 338 403
#     4  10  21  42  65  99 141 170 222 272 330 392
#     4  11  24  45  65  97 130 172 225 277 330 406
#     4  11  26  45  63  94 130 170 218 279 331 391
#     4  10  23  44  64 100 136 174 222 273 334 398
#
# _framework density 21.006017
#
# number of rings (size 3 to 8) (size 9 to 14) (size 15 to 20)
#    0.000    1.250    3.750    0.750    8.750    1.000 
#    2.250    0.000    0.000    0.000    0.000    0.000 
#    0.000    0.000    0.000    0.000    0.000    0.000 
#
# Total GULP energy -396686.301098 kJ/mol
# GULP energy per Si atom -12396.446909 kJ/mol
# Density = 2.095821 g / cm^3
# Si number density = 21.006017 Si / 1000 Ang^3
#
#
#
# Elastic Constant Matrix: (Units=GPa)
#
#
# Indices 1 2 3 4 5 6 
#
# 1 80.3520 25.4167 36.3501 0.0000 -13.8538 0.0000
# 2 25.4167 100.8109 38.4696 0.0000 3.7638 0.0000
# 3 36.3501 38.4696 120.4635 0.0000 -3.1977 0.0000
# 4 0.0000 0.0000 0.0000 30.5552 0.0000 3.6002
# 5 -13.8538 3.7638 -3.1977 0.0000 42.1341 0.0000
# 6 0.0000 0.0000 0.0000 3.6002 0.0000 26.3211
#
#
#
# Elastic Compliance Matrix: (Units=1/GPa)
#
#
# Indices 1 2 3 4 5 6 
#
# 1 0.015929 -0.002765 -0.003785 0.000000 0.005197 0.000000
# 2 -0.002765 0.011846 -0.003007 0.000000 -0.002196 0.000000
# 3 -0.003785 -0.003007 0.010399 0.000000 -0.000187 0.000000
# 4 0.000000 0.000000 0.000000 0.033264 0.000000 -0.004550
# 5 0.005197 -0.002196 -0.000187 0.000000 0.025625 0.000000
# 6 0.000000 0.000000 0.000000 -0.004550 0.000000 0.038615
#
#
# Mechanical properties :
#
#
# Convention : Reuss Voigt Hill
#
# Bulk Modulus (GPa) = 52.47102 55.78879 54.12991
# Shear Modulus (GPa) = 31.02807 33.22808 32.12808
#
# Velocity S-wave (km/s) = 3.84748 3.98155 3.91509
# Velocity P-wave (km/s) = 6.69109 6.91036 6.80161
#
# Compressibility (1/GPa) = 0.01905814
#
# Stress axis : x y z
#
# Youngs Moduli (GPa) = 62.78054 84.41538 96.16525
#
# Poissons Ratio (x) = 0.23345 0.36402
# Poissons Ratio (y) = 0.17362 0.28915
# Poissons Ratio (z) = 0.23765 0.25382
#
# Static dielectric constant tensor:
#      x y z
#    x 3.232270 0.000000 0.040110 
#    y 0.000000 3.700850 0.000000 
#    z 0.040110 0.000000 3.938100 
# 
# 
# High freq. dielectric constant tensor:
#      x y z
#    x 1.810370 0.000000 -0.011690 
#    y 0.000000 1.821820 0.000000 
#    z -0.011690 0.000000 1.846450 
# 
# From -- ./inp_files/38790.got.cif
#   From: 2010.06.25/outbox.cif.g09.slc.cpg/sg13_20_cif.got.tgz:38790.got - 2010.06.28 04:50:58.
