data_PCOD8120585
_publ_section_title
;
Structure prediction by ZEFSAII (Michael W. Deem and Ramdas Pophale) SiO2 
 PCOD8120585
Probable space group: P 2/C
;
_chemical_formula_sum "Si O2"
_cell_formula_units_Z 28
_cell_length_a 8.721105
_cell_length_b 14.421822
_cell_length_c 20.735879
_cell_angle_alpha 90.000000
_cell_angle_beta 151.321039
_cell_angle_gamma 90.000000
_cell_volume 1251.601551
_symmetry_space_group_name_H-M "P 2/C"
_symmetry_group_IT_number 13
_symmetry_cell_setting 'monoclinic'
loop_
_space_group_symop_operation_xyz
x,y,z
-x,y,1/2-z
-x,-y,-z
x,-y,1/2+z
loop_
_atom_site_type_symbol
_atom_site_label
_atom_site_fract_x
_atom_site_fract_y
_atom_site_fract_z
Si Si1 0.676618 0.134314 0.594513
Si Si2 0.457747 0.736189 0.563490
Si Si3 0.188372 0.992482 0.967876
Si Si4 0.870357 0.424220 0.374201
Si Si5 0.141965 0.635151 0.105232
Si Si6 0.550320 0.109440 0.198447
Si Si7 0.223457 0.567943 0.879893
O O1 0.559739 0.226488 0.515925
O O2 0.415939 0.098251 0.550030
O O3 0.000000 0.157362 0.750000
O O4 0.713886 0.059468 0.552906
O O5 0.628181 0.808547 0.676194
O O6 0.666258 0.645274 0.631467
O O7 0.102659 0.711327 0.457787
O O8 0.831266 0.962726 0.818845
O O9 0.252269 0.048145 0.059391
O O10 0.500000 0.396350 0.250000
O O11 0.907298 0.535106 0.380219
O O12 0.086852 0.379273 0.509129
O O13 0.026873 0.386129 0.366464
O O14 0.500000 0.672659 0.250000
O O15 0.500000 0.157005 0.250000
O O16 0.000000 0.506739 0.750000
O O17 0.500000 0.500000 0.000000
#
# Coordination Sequence:
#
# PCOD8120585 Si02
#       7
#     4   4   4   4   4   4   4
#     4  10  21  40  67  98 137 178 224 286 344 412
#     4  11  26  43  66 108 142 175 241 293 350 406
#     4  10  21  42  71  98 132 184 228 267 353 424
#     4  10  22  43  71  94 130 188 236 288 351 414
#     4  10  22  43  69  95 135 183 229 286 351 415
#     4  11  24  44  72 103 142 181 228 290 341 426
#     4  12  27  44  70 101 138 187 239 294 347 418
#
# _framework density 22.371337
#
# number of rings (size 3 to 8) (size 9 to 14) (size 15 to 20)
#    0.000    1.429    2.857    1.286    6.000    3.429 
#    2.571    1.429    0.000    0.000    0.000    0.000 
#    0.000    0.000    0.000    0.000    0.000    0.000 
#
# Total GULP energy -346919.965233 kJ/mol
# GULP energy per Si atom -12389.998758 kJ/mol
# Density = 2.232042 g / cm^3
# Si number density = 22.371337 Si / 1000 Ang^3
#
#
#
# Elastic Constant Matrix: (Units=GPa)
#
#
# Indices 1 2 3 4 5 6 
#
# 1 98.1907 23.8035 51.7216 0.0000 -6.3255 0.0000
# 2 23.8035 72.8603 40.5858 0.0000 -9.6995 0.0000
# 3 51.7216 40.5858 167.0704 0.0000 -16.4036 0.0000
# 4 0.0000 0.0000 0.0000 16.0835 0.0000 12.5290
# 5 -6.3255 -9.6995 -16.4036 0.0000 36.9895 0.0000
# 6 0.0000 0.0000 0.0000 12.5290 0.0000 -25.2461
#
#
#
# Elastic Compliance Matrix: (Units=1/GPa)
#
#
# Indices 1 2 3 4 5 6 
#
# 1 0.012473 -0.002218 -0.003315 0.000000 0.000082 0.000000
# 2 -0.002218 0.016503 -0.003068 0.000000 0.002588 0.000000
# 3 -0.003315 -0.003068 0.007969 0.000000 0.002163 0.000000
# 4 0.000000 0.000000 0.000000 0.044840 0.000000 0.022253
# 5 0.000082 0.002588 0.002163 0.000000 0.028686 0.000000
# 6 0.000000 0.000000 0.000000 0.022253 0.000000 -0.028566
#
#
# Mechanical properties :
#
#
# Convention : Reuss Voigt Hill
#
# Bulk Modulus (GPa) = 50.64836 63.37147 57.00991
# Shear Modulus (GPa) = 47.30868 20.36609 33.83738
#
# Velocity S-wave (km/s) = 4.60358 3.02050 3.89335
# Velocity P-wave (km/s) = 7.13766 6.36813 6.76385
#
# Compressibility (1/GPa) = 0.01974398
#
# Stress axis : x y z
#
# Youngs Moduli (GPa) = 80.17229 60.59460 125.47984
#
# Poissons Ratio (x) = 0.13438 0.41593
# Poissons Ratio (y) = 0.17780 0.38503
# Poissons Ratio (z) = 0.26575 0.18593
#
# Static dielectric constant tensor:
#      x y z
#    x 4.087040 0.000000 -0.126740 
#    y 0.000000 3.958760 0.000000 
#    z -0.126740 0.000000 4.294590 
# 
# 
# High freq. dielectric constant tensor:
#      x y z
#    x 1.878650 0.000000 -0.010930 
#    y 0.000000 1.862930 0.000000 
#    z -0.010930 0.000000 1.900420 
# 
# From -- ./inp_files/76774.got.cif
#   From: 2010.06.25/outbox.cif.g09.slc.cpg/sg13_39_cif.got.tgz:76774.got - 2010.06.28 04:50:58.
