data_PCOD8120165
_publ_section_title
;
Structure prediction by ZEFSAII (Michael W. Deem and Ramdas Pophale) SiO2 
 PCOD8120165
Probable space group: P 2/C
;
_chemical_formula_sum "Si O2"
_cell_formula_units_Z 28
_cell_length_a 8.771107
_cell_length_b 14.076903
_cell_length_c 20.918678
_cell_angle_alpha 90.000000
_cell_angle_beta 149.733534
_cell_angle_gamma 90.000000
_cell_volume 1301.803505
_symmetry_space_group_name_H-M "P 2/C"
_symmetry_group_IT_number 13
_symmetry_cell_setting 'monoclinic'
loop_
_space_group_symop_operation_xyz
x,y,z
-x,y,1/2-z
-x,-y,-z
x,-y,1/2+z
loop_
_atom_site_type_symbol
_atom_site_label
_atom_site_fract_x
_atom_site_fract_y
_atom_site_fract_z
Si Si1 0.264722 0.261343 0.933698
Si Si2 0.724485 0.095907 0.464937
Si Si3 0.346577 0.536073 0.125384
Si Si4 0.597659 0.721194 0.162238
Si Si5 0.214073 0.112901 0.536662
Si Si6 0.294603 0.619280 0.820630
Si Si7 0.725608 0.785348 0.778398
O O1 0.404123 0.259314 0.914083
O O2 0.926742 0.303774 0.808915
O O3 0.259971 0.155628 0.963546
O O4 0.454444 0.334689 0.043634
O O5 0.445240 0.133035 0.322396
O O6 0.036687 0.100290 0.538637
O O7 0.669883 0.983745 0.455253
O O8 0.500000 0.542108 0.250000
O O9 0.360423 0.639155 0.096519
O O10 0.552364 0.467976 0.158176
O O11 0.000000 0.500000 0.000000
O O12 0.497598 0.820992 0.157258
O O13 0.021812 0.169079 0.414648
O O14 0.169414 0.698183 0.726801
O O15 0.000000 0.579409 0.750000
O O16 0.500000 0.743002 0.750000
#
# Coordination Sequence:
#
# PCOD8120165 Si02
#       7
#     4   4   4   4   4   4   4
#     4  10  24  45  65  99 142 174 221 277 343 417
#     4   9  21  38  64  98 130 175 223 277 335 400
#     4  12  30  47  72 104 137 181 235 290 348 418
#     4  11  26  43  66  96 137 181 218 280 347 406
#     4  10  21  37  66  97 130 175 225 276 333 406
#     4  11  24  43  73  96 131 179 223 283 338 410
#     4   9  19  37  62  93 131 167 226 277 328 396
#
# _framework density 21.508621999999999
#
# number of rings (size 3 to 8) (size 9 to 14) (size 15 to 20)
#    0.000    1.714    0.000    2.143   16.000    1.143 
#    0.000    0.000    0.000    0.000    0.000    0.000 
#    0.000    0.000    0.000    0.000    0.000    0.000 
#
# Total GULP energy -347204.685793 kJ/mol
# GULP energy per Si atom -12400.167350 kJ/mol
# Density = 2.145967 g / cm^3
# Si number density = 21.508622 Si / 1000 Ang^3
#
#
#
# Elastic Constant Matrix: (Units=GPa)
#
#
# Indices 1 2 3 4 5 6 
#
# 1 119.9376 73.8285 56.1798 0.0000 4.4928 0.0000
# 2 73.8285 144.5357 33.7684 0.0000 3.2262 0.0000
# 3 56.1798 33.7684 78.4889 0.0000 -6.1219 0.0000
# 4 0.0000 0.0000 0.0000 -204.0320 0.0000 -34.0973
# 5 4.4928 3.2262 -6.1219 0.0000 32.6634 0.0000
# 6 0.0000 0.0000 0.0000 -34.0973 0.0000 32.5237
#
#
#
# Elastic Compliance Matrix: (Units=1/GPa)
#
#
# Indices 1 2 3 4 5 6 
#
# 1 0.016841 -0.006275 -0.009628 0.000000 -0.003501 0.000000
# 2 -0.006275 0.010093 0.000140 0.000000 -0.000108 0.000000
# 3 -0.009628 0.000140 0.019966 0.000000 0.005052 0.000000
# 4 0.000000 0.000000 0.000000 -0.004171 0.000000 -0.004372
# 5 -0.003501 -0.000108 0.005052 0.000000 0.032054 0.000000
# 6 0.000000 0.000000 0.000000 -0.004372 0.000000 0.026163
#
#
# Mechanical properties :
#
#
# Convention : Reuss Voigt Hill
#
# Bulk Modulus (GPa) = 65.03749 74.50171 69.76960
# Shear Modulus (GPa) = 36.33814 -15.82327 10.25743
#
# Velocity S-wave (km/s) = 4.11477 -2.71527 2.18617
# Velocity P-wave (km/s) = 7.27177 4.98829 6.23545
#
# Compressibility (1/GPa) = 0.01537575
#
# Stress axis : x y z
#
# Youngs Moduli (GPa) = 59.37871 99.07383 50.08637
#
# Poissons Ratio (x) = 0.62167 0.48222
# Poissons Ratio (y) = 0.37259 -0.00703
# Poissons Ratio (z) = 0.57168 -0.01391
#
# Static dielectric constant tensor:
#      x y z
#    x 4.040900 0.000000 -0.072480 
#    y 0.000000 3.958860 0.000000 
#    z -0.072480 0.000000 3.935100 
# 
# 
# High freq. dielectric constant tensor:
#      x y z
#    x 1.846780 0.000000 0.001320 
#    y 0.000000 1.848170 0.000000 
#    z 0.001320 0.000000 1.852600 
# 
# From -- ./inp_files/76750.got.cif
#   From: 2010.06.25/outbox.cif.g09.slc.cpg/sg13_39_cif.got.tgz:76750.got - 2010.06.28 04:50:58.
