data_PCOD8120283
_publ_section_title
;
Structure prediction by ZEFSAII (Michael W. Deem and Ramdas Pophale) SiO2 
 PCOD8120283
Probable space group: P 2/C
;
_chemical_formula_sum "Si O2"
_cell_formula_units_Z 24
_cell_length_a 30.972277
_cell_length_b 5.109189
_cell_length_c 21.485806
_cell_angle_alpha 90.000000
_cell_angle_beta 161.130008
_cell_angle_gamma 90.000000
_cell_volume 1099.628888
_symmetry_space_group_name_H-M "P 2/C"
_symmetry_group_IT_number 13
_symmetry_cell_setting 'monoclinic'
loop_
_space_group_symop_operation_xyz
x,y,z
-x,y,1/2-z
-x,-y,-z
x,-y,1/2+z
loop_
_atom_site_type_symbol
_atom_site_label
_atom_site_fract_x
_atom_site_fract_y
_atom_site_fract_z
Si Si1 0.212732 0.527084 0.180748
Si Si2 0.848602 0.031710 0.622001
Si Si3 0.502495 0.451127 0.613867
Si Si4 0.446380 0.945506 0.743161
Si Si5 0.204005 0.475514 0.527399
Si Si6 0.069581 0.024535 0.028468
O O1 0.372323 0.495506 0.394560
O O2 0.157138 0.521513 0.034779
O O3 0.145897 0.299204 0.130187
O O4 0.177972 0.796552 0.167789
O O5 0.713312 0.048849 0.477071
O O6 0.867964 0.288430 0.606520
O O7 0.964577 0.001225 0.829785
O O8 0.847677 0.789214 0.573923
O O9 0.500571 0.656257 0.668340
O O10 0.635486 0.504652 0.755290
O O11 0.499661 0.153803 0.633454
O O12 0.500000 0.031883 0.750000
O O13 0.000000 0.000000 0.000000
#
# Coordination Sequence:
#
# PCOD8120283 Si02
#       6
#     4   4   4   4   4   4
#     4  12  25  42  69  92 130 174 203 261 321 376
#     4  10  23  41  65  90 132 163 213 270 297 375
#     4  10  22  39  63  99 126 156 209 263 318 374
#     4  10  21  38  63  92 123 171 205 257 314 366
#     4  10  22  43  67  99 123 160 216 265 322 363
#     4  12  28  45  61  94 130 174 215 254 310 378
#
# _framework density 21.825544000000001
#
# number of rings (size 3 to 8) (size 9 to 14) (size 15 to 20)
#    0.000    1.333    0.000    4.500    4.667    4.000 
#    0.000    6.667    0.000    0.000    0.000    0.000 
#    0.000    0.000    0.000    0.000    0.000    0.000 
#
# Total GULP energy -297741.918846 kJ/mol
# GULP energy per Si atom -12405.913285 kJ/mol
# Density = 2.177587 g / cm^3
# Si number density = 21.825544 Si / 1000 Ang^3
#
#
#
# Elastic Constant Matrix: (Units=GPa)
#
#
# Indices 1 2 3 4 5 6 
#
# 1 103.2271 23.4064 4.9310 0.0000 0.1770 0.0000
# 2 23.4064 84.0681 -15.4527 0.0000 10.9349 0.0000
# 3 4.9310 -15.4527 72.3923 0.0000 2.5984 0.0000
# 4 0.0000 0.0000 0.0000 58.3233 0.0000 53.4599
# 5 0.1770 10.9349 2.5984 0.0000 15.5024 0.0000
# 6 0.0000 0.0000 0.0000 53.4599 0.0000 89.3788
#
#
#
# Elastic Compliance Matrix: (Units=1/GPa)
#
#
# Indices 1 2 3 4 5 6 
#
# 1 0.010570 -0.003581 -0.001580 0.000000 0.002670 0.000000
# 2 -0.003581 0.015063 0.003862 0.000000 -0.011231 0.000000
# 3 -0.001580 0.003862 0.014933 0.000000 -0.005209 0.000000
# 4 0.000000 0.000000 0.000000 0.037954 0.000000 -0.022702
# 5 0.002670 -0.011231 -0.005209 0.000000 0.073271 0.000000
# 6 0.000000 0.000000 0.000000 -0.022702 0.000000 0.024767
#
#
# Mechanical properties :
#
#
# Convention : Reuss Voigt Hill
#
# Bulk Modulus (GPa) = 26.33747 31.71742 29.02744
# Shear Modulus (GPa) = 26.06727 49.09440 37.58084
#
# Velocity S-wave (km/s) = 3.45968 4.74793 4.15405
# Velocity P-wave (km/s) = 5.29648 6.67989 6.02800
#
# Compressibility (1/GPa) = 0.03796872
#
# Stress axis : x y z
#
# Youngs Moduli (GPa) = 94.60564 66.38832 66.96722
#
# Poissons Ratio (x) = 0.23772 0.10582
# Poissons Ratio (y) = 0.33875 -0.25865
# Poissons Ratio (z) = 0.14949 -0.25641
#
# Static dielectric constant tensor:
#      x y z
#    x 3.777330 0.000000 0.144490 
#    y 0.000000 4.113230 0.000000 
#    z 0.144490 0.000000 3.850820 
# 
# 
# High freq. dielectric constant tensor:
#      x y z
#    x 1.854150 0.000000 0.009350 
#    y 0.000000 1.874110 0.000000 
#    z 0.009350 0.000000 1.867270 
# 
# From -- ./inp_files/82680.got.cif
#   From: 2010.06.25/outbox.cif.g09.slc.cpg/sg13_42_cif.got.tgz:82680.got - 2010.06.28 04:50:58.
