data_PCOD8120375
_publ_section_title
;
Structure prediction by ZEFSAII (Michael W. Deem and Ramdas Pophale) SiO2 
 PCOD8120375
Probable space group: P 2/C
;
_chemical_formula_sum "Si O2"
_cell_formula_units_Z 28
_cell_length_a 9.866295
_cell_length_b 15.026568
_cell_length_c 10.646225
_cell_angle_alpha 90.000000
_cell_angle_beta 118.848032
_cell_angle_gamma 90.000000
_cell_volume 1382.500538
_symmetry_space_group_name_H-M "P 2/C"
_symmetry_group_IT_number 13
_symmetry_cell_setting 'monoclinic'
loop_
_space_group_symop_operation_xyz
x,y,z
-x,y,1/2-z
-x,-y,-z
x,-y,1/2+z
loop_
_atom_site_type_symbol
_atom_site_label
_atom_site_fract_x
_atom_site_fract_y
_atom_site_fract_z
Si Si1 0.770922 0.936014 0.865561
Si Si2 0.745069 0.276428 0.817130
Si Si3 0.657523 0.549797 0.593717
Si Si4 0.516889 0.089014 0.082711
Si Si5 0.170807 0.533154 0.090901
Si Si6 0.448479 0.268192 0.535647
Si Si7 0.940688 0.891145 0.359903
O O1 0.616147 0.925194 0.875805
O O2 0.699801 0.901860 0.702579
O O3 0.826706 0.037655 0.873154
O O4 0.911202 0.877100 0.982381
O O5 0.846530 0.364240 0.878234
O O6 0.600585 0.308638 0.668994
O O7 0.681533 0.239852 0.921516
O O8 0.851410 0.201132 0.801990
O O9 0.500000 0.500000 0.500000
O O10 0.754324 0.525234 0.512975
O O11 0.738379 0.522183 0.760658
O O12 0.623229 0.656344 0.587603
O O13 0.483635 0.180403 0.997963
O O14 0.500000 0.000000 0.000000
O O15 0.000000 0.500000 0.000000
O O16 0.000000 0.924713 0.250000
#
# Coordination Sequence:
#
# PCOD8120375 Si02
#       7
#     4   4   4   4   4   4   4
#     4  10  23  38  55  88 122 153 207 249 308 370
#     4  10  21  39  62  89 122 158 216 256 307 388
#     4  11  22  44  67  93 128 172 220 268 325 400
#     4  11  21  39  61  86 120 157 205 257 301 365
#     4  11  24  42  65  98 131 170 213 279 338 386
#     4  10  21  39  65  90 118 165 211 255 317 371
#     4  11  22  38  60  85 122 167 201 252 319 375
#
# _framework density 20.253157000000002
#
# number of rings (size 3 to 8) (size 9 to 14) (size 15 to 20)
#    0.000    1.429    1.429    4.286    0.000    5.714 
#    7.714    1.429    0.000    0.000    0.000    0.000 
#    0.000    0.000    0.000    0.000    0.000    0.000 
#
# Total GULP energy -346925.629777 kJ/mol
# GULP energy per Si atom -12390.201063 kJ/mol
# Density = 2.020706 g / cm^3
# Si number density = 20.253157 Si / 1000 Ang^3
#
#
#
# Elastic Constant Matrix: (Units=GPa)
#
#
# Indices 1 2 3 4 5 6 
#
# 1 100.0010 56.7299 40.4156 0.0000 13.6260 0.0000
# 2 56.7299 112.5682 38.6621 0.0000 2.0304 0.0000
# 3 40.4156 38.6621 108.2954 0.0000 14.7085 0.0000
# 4 0.0000 0.0000 0.0000 29.4415 0.0000 2.2975
# 5 13.6260 2.0304 14.7085 0.0000 33.3432 0.0000
# 6 0.0000 0.0000 0.0000 2.2975 0.0000 35.1739
#
#
#
# Elastic Compliance Matrix: (Units=1/GPa)
#
#
# Indices 1 2 3 4 5 6 
#
# 1 0.015649 -0.006858 -0.002744 0.000000 -0.004767 0.000000
# 2 -0.006858 0.013164 -0.002566 0.000000 0.003133 0.000000
# 3 -0.002744 -0.002566 0.011702 0.000000 -0.003884 0.000000
# 4 0.000000 0.000000 0.000000 0.034140 0.000000 -0.002230
# 5 -0.004767 0.003133 -0.003884 0.000000 0.033462 0.000000
# 6 0.000000 0.000000 0.000000 -0.002230 0.000000 0.028576
#
#
# Mechanical properties :
#
#
# Convention : Reuss Voigt Hill
#
# Bulk Modulus (GPa) = 61.80957 65.83107 63.82032
# Shear Modulus (GPa) = 30.04411 31.92885 30.98648
#
# Velocity S-wave (km/s) = 3.85571 3.97481 3.91571
# Velocity P-wave (km/s) = 7.09977 7.32394 7.21273
#
# Compressibility (1/GPa) = 0.01617872
#
# Stress axis : x y z
#
# Youngs Moduli (GPa) = 63.90157 75.96250 85.45691
#
# Poissons Ratio (x) = 0.52095 0.23453
# Poissons Ratio (y) = 0.43823 0.21927
# Poissons Ratio (z) = 0.17537 0.19491
#
# Static dielectric constant tensor:
#      x y z
#    x 3.629810 0.000000 0.079030 
#    y 0.000000 3.502520 0.000000 
#    z 0.079030 0.000000 4.846160 
# 
# 
# High freq. dielectric constant tensor:
#      x y z
#    x 1.798170 0.000000 0.008040 
#    y 0.000000 1.786750 0.000000 
#    z 0.008040 0.000000 1.801200 
# 
# From -- ./inp_files/30315.got.cif
#   From: 2010.06.25/outbox.cif.g09.slc.cpg/sg13_16_cif.got.tgz:30315.got - 2010.06.28 04:50:58.
