data_PCOD8120491
_publ_section_title
;
Structure prediction by ZEFSAII (Michael W. Deem and Ramdas Pophale) SiO2 
 PCOD8120491
Probable space group: P 2/C
;
_chemical_formula_sum "Si O2"
_cell_formula_units_Z 26
_cell_length_a 14.444694
_cell_length_b 6.220991
_cell_length_c 14.048598
_cell_angle_alpha 90.000000
_cell_angle_beta 86.684868
_cell_angle_gamma 90.000000
_cell_volume 1260.298845
_symmetry_space_group_name_H-M "P 2/C"
_symmetry_group_IT_number 13
_symmetry_cell_setting 'monoclinic'
loop_
_space_group_symop_operation_xyz
x,y,z
-x,y,1/2-z
-x,-y,-z
x,-y,1/2+z
loop_
_atom_site_type_symbol
_atom_site_label
_atom_site_fract_x
_atom_site_fract_y
_atom_site_fract_z
Si Si1 0.645193 0.841844 0.176535
Si Si2 0.500000 0.155578 0.250000
Si Si3 0.927557 0.692936 0.001524
Si Si4 0.226607 0.219207 0.325271
Si Si5 0.278955 0.533864 0.480001
Si Si6 0.966024 0.037107 0.148720
Si Si7 0.348895 0.532935 0.682743
O O1 0.625871 0.689276 0.267611
O O2 0.559697 0.008403 0.174040
O O3 0.738652 0.976125 0.190739
O O4 0.658316 0.708498 0.079003
O O5 0.566191 0.301472 0.311326
O O6 0.932108 0.819331 0.100769
O O7 0.823570 0.616370 0.991005
O O8 0.000000 0.500000 0.000000
O O9 0.950071 0.855623 0.914229
O O10 0.271616 0.317136 0.418576
O O11 0.115816 0.214039 0.339536
O O12 0.255630 0.367778 0.234581
O O13 0.332063 0.480721 0.573766
O O14 0.000000 0.967845 0.250000
#
# Coordination Sequence:
#
# PCOD8120491 Si02
#       7
#     4   2   4   4   4   4   4
#     4  10  22  42  65  89 131 155 202 267 302 383
#     4  10  22  44  66  96 122 158 208 252 320 390
#     4  11  23  40  60  93 132 163 216 263 297 373
#     4  10  21  40  60  91 124 165 211 252 307 371
#     4  11  22  41  64  93 127 167 207 260 316 361
#     4  11  23  39  61  88 125 170 211 259 312 360
#     4  10  23  40  67  92 123 165 204 255 319 378
#
# _framework density 20.630027999999999
#
# number of rings (size 3 to 8) (size 9 to 14) (size 15 to 20)
#    0.000    1.538    3.077    1.385    0.000    4.923 
#    0.000   10.769    0.000    0.000    0.000    0.000 
#    0.000    0.000    0.000    0.000    0.000    0.000 
#
# Total GULP energy -322484.336357 kJ/mol
# GULP energy per Si atom -12403.243706 kJ/mol
# Density = 2.058307 g / cm^3
# Si number density = 20.630028 Si / 1000 Ang^3
#
#
#
# Elastic Constant Matrix: (Units=GPa)
#
#
# Indices 1 2 3 4 5 6 
#
# 1 100.3512 32.0771 37.1872 0.0000 -6.0272 0.0000
# 2 32.0771 92.6028 29.4807 0.0000 2.0678 0.0000
# 3 37.1872 29.4807 120.4698 0.0000 15.9810 0.0000
# 4 0.0000 0.0000 0.0000 20.3799 0.0000 -4.2663
# 5 -6.0272 2.0678 15.9810 0.0000 28.8909 0.0000
# 6 0.0000 0.0000 0.0000 -4.2663 0.0000 28.5538
#
#
#
# Elastic Compliance Matrix: (Units=1/GPa)
#
#
# Indices 1 2 3 4 5 6 
#
# 1 0.012724 -0.003316 -0.003777 0.000000 0.004981 0.000000
# 2 -0.003316 0.012593 -0.001993 0.000000 -0.000491 0.000000
# 3 -0.003777 -0.001993 0.010835 0.000000 -0.006639 0.000000
# 4 0.000000 0.000000 0.000000 0.050652 0.000000 0.007568
# 5 0.004981 -0.000491 -0.006639 0.000000 0.039359 0.000000
# 6 0.000000 0.000000 0.000000 0.007568 0.000000 0.036152
#
#
# Mechanical properties :
#
#
# Convention : Reuss Voigt Hill
#
# Bulk Modulus (GPa) = 55.61815 56.76821 56.19318
# Shear Modulus (GPa) = 26.81235 29.87682 28.34458
#
# Velocity S-wave (km/s) = 3.60901 3.80968 3.71070
# Velocity P-wave (km/s) = 6.66220 6.85044 6.75698
#
# Compressibility (1/GPa) = 0.01797974
#
# Stress axis : x y z
#
# Youngs Moduli (GPa) = 78.59286 79.40945 92.29312
#
# Poissons Ratio (x) = 0.26334 0.34858
# Poissons Ratio (y) = 0.26064 0.18393
# Poissons Ratio (z) = 0.29683 0.15825
#
# Static dielectric constant tensor:
#      x y z
#    x 3.720130 0.000000 -0.311280 
#    y 0.000000 3.828970 0.000000 
#    z -0.311280 0.000000 3.650680 
# 
# 
# High freq. dielectric constant tensor:
#      x y z
#    x 1.806810 0.000000 -0.022380 
#    y 0.000000 1.816420 0.000000 
#    z -0.022380 0.000000 1.799940 
# 
# From -- ./inp_files/52197.got.cif
#   From: 2010.06.25/outbox.cif.g09.slc.cpg/sg13_27_cif.got.tgz:52197.got - 2010.06.28 04:50:58.
