data_PCOD8120724
_publ_section_title
;
Structure prediction by ZEFSAII (Michael W. Deem and Ramdas Pophale) SiO2 
 PCOD8120724
Probable space group: P 2/C
;
_chemical_formula_sum "Si O2"
_cell_formula_units_Z 26
_cell_length_a 14.826386
_cell_length_b 17.776549
_cell_length_c 8.506810
_cell_angle_alpha 90.000000
_cell_angle_beta 33.636248
_cell_angle_gamma 90.000000
_cell_volume 1241.924712
_symmetry_space_group_name_H-M "P 2/C"
_symmetry_group_IT_number 13
_symmetry_cell_setting 'monoclinic'
loop_
_space_group_symop_operation_xyz
x,y,z
-x,y,1/2-z
-x,-y,-z
x,-y,1/2+z
loop_
_atom_site_type_symbol
_atom_site_label
_atom_site_fract_x
_atom_site_fract_y
_atom_site_fract_z
Si Si1 0.597032 0.224989 0.359822
Si Si2 0.716889 0.190211 0.516746
Si Si3 0.500000 0.345632 0.250000
Si Si4 0.834452 0.407317 0.692860
Si Si5 0.184018 0.907923 0.037753
Si Si6 0.000000 0.529930 0.250000
Si Si7 0.000000 0.717358 0.750000
Si Si8 0.687857 0.024985 0.443298
O O1 0.667692 0.238624 0.432589
O O2 0.417550 0.190980 0.649896
O O3 0.578926 0.298334 0.278415
O O4 0.717129 0.169757 0.090157
O O5 0.748104 0.103592 0.430589
O O6 0.879680 0.227353 0.337968
O O7 0.359817 0.398917 0.522201
O O8 0.870458 0.478987 0.531439
O O9 0.903943 0.417713 0.767480
O O10 0.912007 0.332542 0.508362
O O11 0.284330 0.965128 0.781484
O O12 0.194626 0.954696 0.183822
O O13 0.000000 0.891584 0.250000
O O14 0.500000 0.007390 0.750000
#
# Coordination Sequence:
#
# PCOD8120724 Si02
#       8
#     4   4   2   4   4   2   2   4
#     4  10  23  42  58  89 133 163 212 270 324 377
#     4  10  21  42  61  88 127 173 211 271 330 385
#     4  12  24  38  66 106 126 168 218 256 316 376
#     4  10  23  42  68 101 130 172 209 248 314 370
#     4  11  24  40  59  88 119 165 219 274 329 381
#     4   9  22  48  68  94 141 166 204 256 293 378
#     4  11  22  40  70  96 125 174 216 258 323 382
#     4  11  22  40  61  83 119 167 219 268 341 380
#
# _framework density 20.935247
#
# number of rings (size 3 to 8) (size 9 to 14) (size 15 to 20)
#    0.000    1.538    4.615    0.923    4.308    3.077 
#    0.000    0.000    0.000    0.000    0.000    0.000 
#    0.000    0.000    0.000    0.000    0.000    0.000 
#
# Total GULP energy -322345.502087 kJ/mol
# GULP energy per Si atom -12397.903926 kJ/mol
# Density = 2.088760 g / cm^3
# Si number density = 20.935247 Si / 1000 Ang^3
#
#
#
# Elastic Constant Matrix: (Units=GPa)
#
#
# Indices 1 2 3 4 5 6 
#
# 1 84.6542 41.8473 36.1371 0.0000 -11.5755 0.0000
# 2 41.8473 70.7244 32.6859 0.0000 -14.0516 0.0000
# 3 36.1371 32.6859 110.2441 0.0000 -20.8482 0.0000
# 4 0.0000 0.0000 0.0000 0.8988 0.0000 -24.7498
# 5 -11.5755 -14.0516 -20.8482 0.0000 33.7944 0.0000
# 6 0.0000 0.0000 0.0000 -24.7498 0.0000 1.8490
#
#
#
# Elastic Compliance Matrix: (Units=1/GPa)
#
#
# Indices 1 2 3 4 5 6 
#
# 1 0.017572 -0.008906 -0.003036 0.000000 0.000443 0.000000
# 2 -0.008906 0.021475 -0.002645 0.000000 0.004247 0.000000
# 3 -0.003036 -0.002645 0.011825 0.000000 0.005156 0.000000
# 4 0.000000 0.000000 0.000000 -0.003027 0.000000 -0.040514
# 5 0.000443 0.004247 0.005156 0.000000 0.034689 0.000000
# 6 0.000000 0.000000 0.000000 -0.040514 0.000000 -0.001471
#
#
# Mechanical properties :
#
#
# Convention : Reuss Voigt Hill
#
# Bulk Modulus (GPa) = 46.08457 54.10703 50.09580
# Shear Modulus (GPa) = 42.56464 17.63860 30.10162
#
# Velocity S-wave (km/s) = 4.51395 2.90579 3.79600
# Velocity P-wave (km/s) = 7.01629 6.09583 6.57219
#
# Compressibility (1/GPa) = 0.02169924
#
# Stress axis : x y z
#
# Youngs Moduli (GPa) = 56.90940 46.56535 84.56771
#
# Poissons Ratio (x) = 0.41472 0.25671
# Poissons Ratio (y) = 0.50685 0.22364
# Poissons Ratio (z) = 0.17275 0.12314
#
# Static dielectric constant tensor:
#      x y z
#    x 3.862430 0.000000 0.209110 
#    y 0.000000 3.576660 0.000000 
#    z 0.209110 0.000000 4.001800 
# 
# 
# High freq. dielectric constant tensor:
#      x y z
#    x 1.823770 0.000000 0.003820 
#    y 0.000000 1.804070 0.000000 
#    z 0.003820 0.000000 1.830710 
# 
# From -- ./inp_files/20178.got.cif
#   From: 2010.06.25/outbox.cif.g09.slc.cpg/sg13_11_cif.got.tgz:20178.got - 2010.06.28 04:50:58.
