data_PCOD8120810
_publ_section_title
;
Structure prediction by ZEFSAII (Michael W. Deem and Ramdas Pophale) SiO2 
 PCOD8120810
Probable space group: P 2/C
;
_chemical_formula_sum "Si O2"
_cell_formula_units_Z 24
_cell_length_a 12.382904
_cell_length_b 12.037681
_cell_length_c 13.493485
_cell_angle_alpha 90.000000
_cell_angle_beta 31.594363
_cell_angle_gamma 90.000000
_cell_volume 1053.754912
_symmetry_space_group_name_H-M "P 2/C"
_symmetry_group_IT_number 13
_symmetry_cell_setting 'monoclinic'
loop_
_space_group_symop_operation_xyz
x,y,z
-x,y,1/2-z
-x,-y,-z
x,-y,1/2+z
loop_
_atom_site_type_symbol
_atom_site_label
_atom_site_fract_x
_atom_site_fract_y
_atom_site_fract_z
Si Si1 0.767525 0.726897 0.732015
Si Si2 0.499432 0.259479 0.615802
Si Si3 0.742477 0.599390 0.561131
Si Si4 0.000000 0.224445 0.750000
Si Si5 0.880966 0.923986 0.514966
Si Si6 0.828962 0.645386 0.003298
Si Si7 0.500000 0.941956 0.250000
O O1 0.796446 0.628685 0.631604
O O2 0.758285 0.841289 0.681023
O O3 0.956699 0.712008 0.660688
O O4 0.550589 0.726631 0.960145
O O5 0.294944 0.332612 0.796552
O O6 0.695631 0.302992 0.521249
O O7 0.474011 0.131544 0.670381
O O8 0.500000 0.580241 0.750000
O O9 0.809221 0.693304 0.428057
O O10 0.862005 0.483874 0.450916
O O11 0.965284 0.144120 0.680621
O O12 0.709874 0.985777 0.581036
O O13 0.000000 0.000000 0.500000
#
# Coordination Sequence:
#
# PCOD8120810 Si02
#       7
#     4   4   4   2   4   4   2
#     4  11  25  38  67 100 131 171 230 269 329 412
#     4  10  22  42  68  99 130 171 227 280 319 409
#     4  11  24  44  65  96 140 178 220 273 341 400
#     4  10  28  42  70 102 140 180 226 286 334 410
#     4  11  25  47  68 101 136 182 231 285 344 401
#     4  10  21  43  64  98 133 175 220 271 334 399
#     4  10  24  44  70  98 136 178 230 282 348 402
#
# _framework density 22.775694000000001
#
# number of rings (size 3 to 8) (size 9 to 14) (size 15 to 20)
#    0.000    1.667    1.667    3.000    9.333    5.333 
#    0.000    0.000    0.000    0.000    0.000    0.000 
#    0.000    0.000    0.000    0.000    0.000    0.000 
#
# Total GULP energy -297389.269803 kJ/mol
# GULP energy per Si atom -12391.219575 kJ/mol
# Density = 2.272386 g / cm^3
# Si number density = 22.775694 Si / 1000 Ang^3
#
#
#
# Elastic Constant Matrix: (Units=GPa)
#
#
# Indices 1 2 3 4 5 6 
#
# 1 32.2595 25.7825 23.4220 0.0000 -3.4998 0.0000
# 2 25.7825 125.3181 39.5249 0.0000 8.1357 0.0000
# 3 23.4220 39.5249 138.7980 0.0000 29.6001 0.0000
# 4 0.0000 0.0000 0.0000 24.9547 0.0000 -18.8462
# 5 -3.4998 8.1357 29.6001 0.0000 30.8937 0.0000
# 6 0.0000 0.0000 0.0000 -18.8462 0.0000 3.0279
#
#
#
# Elastic Compliance Matrix: (Units=1/GPa)
#
#
# Indices 1 2 3 4 5 6 
#
# 1 0.045040 -0.007507 -0.008763 0.000000 0.015475 0.000000
# 2 -0.007507 0.010019 -0.001058 0.000000 -0.002475 0.000000
# 3 -0.008763 -0.001058 0.011484 0.000000 -0.011717 0.000000
# 4 0.000000 0.000000 0.000000 -0.010829 0.000000 -0.067400
# 5 0.015475 -0.002475 -0.011717 0.000000 0.046000 0.000000
# 6 0.000000 0.000000 0.000000 -0.067400 0.000000 -0.089246
#
#
# Mechanical properties :
#
#
# Convention : Reuss Voigt Hill
#
# Bulk Modulus (GPa) = 31.36267 52.64828 42.00548
# Shear Modulus (GPa) = 86.57571 25.61834 56.09702
#
# Velocity S-wave (km/s) = 6.17210 3.35746 4.96827
# Velocity P-wave (km/s) = 8.03699 6.18031 7.16901
#
# Compressibility (1/GPa) = 0.03188504
#
# Stress axis : x y z
#
# Youngs Moduli (GPa) = 22.20260 99.81367 87.08111
#
# Poissons Ratio (x) = 0.74932 0.76308
# Poissons Ratio (y) = 0.16668 0.09216
# Poissons Ratio (z) = 0.19456 0.10564
#
# Static dielectric constant tensor:
#      x y z
#    x 3.539250 0.000000 0.133050 
#    y 0.000000 4.594260 0.000000 
#    z 0.133050 0.000000 4.531740 
# 
# 
# High freq. dielectric constant tensor:
#      x y z
#    x 1.882010 0.000000 0.006950 
#    y 0.000000 1.906420 0.000000 
#    z 0.006950 0.000000 1.902910 
# 
# From -- ./inp_files/53642.got.cif
#   From: 2010.06.25/outbox.cif.g09.slc.cpg/sg13_27_cif.got.tgz:53642.got - 2010.06.28 04:50:58.
