data_PCOD8120666
_publ_section_title
;
Structure prediction by ZEFSAII (Michael W. Deem and Ramdas Pophale) SiO2 
 PCOD8120666
Probable space group: P 2/C
;
_chemical_formula_sum "Si O2"
_cell_formula_units_Z 24
_cell_length_a 12.715762
_cell_length_b 15.656852
_cell_length_c 5.334721
_cell_angle_alpha 90.000000
_cell_angle_beta 101.833381
_cell_angle_gamma 90.000000
_cell_volume 1039.511916
_symmetry_space_group_name_H-M "P 2/C"
_symmetry_group_IT_number 13
_symmetry_cell_setting 'monoclinic'
loop_
_space_group_symop_operation_xyz
x,y,z
-x,y,1/2-z
-x,-y,-z
x,-y,1/2+z
loop_
_atom_site_type_symbol
_atom_site_label
_atom_site_fract_x
_atom_site_fract_y
_atom_site_fract_z
Si Si1 0.872086 0.035120 0.302369
Si Si2 0.124385 0.543414 0.432522
Si Si3 0.372086 0.035120 0.802368
Si Si4 0.500000 0.192119 0.750000
Si Si5 0.624386 0.543414 0.932521
Si Si6 0.000000 0.702737 0.250000
Si Si7 0.000000 0.192119 0.250000
Si Si8 0.500000 0.702737 0.750000
O O1 0.893145 0.136074 0.267294
O O2 0.928716 0.009859 0.591163
O O3 0.750000 1.000000 0.250001
O O4 0.074645 0.505302 0.665365
O O5 0.250000 0.528983 0.500000
O O6 0.099674 0.643632 0.384756
O O7 0.393145 0.136074 0.767294
O O8 0.428716 0.990141 0.591163
O O9 0.468394 0.244110 0.483640
O O10 0.574646 0.494697 0.665365
O O11 0.599674 0.643632 0.884755
O O12 0.968393 0.755891 0.483640
#
# Coordination Sequence:
#
# PCOD8120666 Si02
#       8
#     4   4   4   2   4   2   2   2
#     4  10  21  41  65  86 116 170 219 253 314 391
#     4  10  21  41  67  91 127 177 216 246 302 392
#     4  10  21  41  65  86 116 170 219 253 314 391
#     4  12  24  40  62  96 134 158 212 282 322 366
#     4  10  21  41  67  91 127 177 216 246 302 392
#     4  12  24  40  62 102 134 162 206 274 332 356
#     4  12  24  40  62  96 134 158 212 282 322 366
#     4  12  24  40  62 102 134 162 206 274 332 356
#
# _framework density 23.087758999999998
#
# number of rings (size 3 to 8) (size 9 to 14) (size 15 to 20)
#    0.000    1.333    0.000    6.000    0.000    0.000 
#   18.000    0.000    0.000    0.000    0.000    0.000 
#    0.000    0.000    0.000    0.000    0.000    0.000 
#
# Total GULP energy -297333.772840 kJ/mol
# GULP energy per Si atom -12388.907202 kJ/mol
# Density = 2.303521 g / cm^3
# Si number density = 23.087759 Si / 1000 Ang^3
#
#
#
# Elastic Constant Matrix: (Units=GPa)
#
#
# Indices 1 2 3 4 5 6 
#
# 1 84.6742 30.6223 62.1122 0.0000 -10.9151 0.0000
# 2 30.6223 156.4156 92.7185 0.0000 -15.1866 0.0000
# 3 62.1122 92.7185 259.2666 0.0000 -24.0712 0.0000
# 4 0.0000 0.0000 0.0000 70.6814 0.0000 -2.3113
# 5 -10.9151 -15.1866 -24.0712 0.0000 41.8255 0.0000
# 6 0.0000 0.0000 0.0000 -2.3113 0.0000 33.9096
#
#
#
# Elastic Compliance Matrix: (Units=1/GPa)
#
#
# Indices 1 2 3 4 5 6 
#
# 1 0.014565 -0.000901 -0.003005 0.000000 0.001744 0.000000
# 2 -0.000901 0.008241 -0.002615 0.000000 0.001252 0.000000
# 3 -0.003005 -0.002615 0.005653 0.000000 0.001520 0.000000
# 4 0.000000 0.000000 0.000000 0.014180 0.000000 0.000966
# 5 0.001744 0.001252 0.001520 0.000000 0.025693 0.000000
# 6 0.000000 0.000000 0.000000 0.000966 0.000000 0.029556
#
#
# Mechanical properties :
#
#
# Convention : Reuss Voigt Hill
#
# Bulk Modulus (GPa) = 64.86163 96.80691 80.83427
# Shear Modulus (GPa) = 43.07735 50.27689 46.67712
#
# Velocity S-wave (km/s) = 4.32419 4.67158 4.50124
# Velocity P-wave (km/s) = 7.28601 8.43322 7.88052
#
# Compressibility (1/GPa) = 0.01541743
#
# Stress axis : x y z
#
# Youngs Moduli (GPa) = 68.65740 121.33912 176.88613
#
# Poissons Ratio (x) = 0.10929 0.53159
# Poissons Ratio (y) = 0.06184 0.46260
# Poissons Ratio (z) = 0.20634 0.31733
#
# Static dielectric constant tensor:
#      x y z
#    x 4.635840 0.000000 -0.353570 
#    y 0.000000 3.975850 0.000000 
#    z -0.353570 0.000000 5.670860 
# 
# 
# High freq. dielectric constant tensor:
#      x y z
#    x 1.937090 0.000000 -0.004410 
#    y 0.000000 1.888100 0.000000 
#    z -0.004410 0.000000 1.968250 
# 
# From -- ./inp_files/5000.got.cif
#   From: 2010.06.25/outbox.cif.g09.slc.cpg/sg13_3_cif.got.tgz:5000.got - 2010.06.28 04:50:58.
