data_PCOD8120242
_publ_section_title
;
Structure prediction by ZEFSAII (Michael W. Deem and Ramdas Pophale) SiO2 
 PCOD8120242
Probable space group: P 2/C
;
_chemical_formula_sum "Si O2"
_cell_formula_units_Z 32
_cell_length_a 11.957400
_cell_length_b 8.854697
_cell_length_c 28.234454
_cell_angle_alpha 90.000000
_cell_angle_beta 147.672573
_cell_angle_gamma 90.000000
_cell_volume 1598.623744
_symmetry_space_group_name_H-M "P 2/C"
_symmetry_group_IT_number 13
_symmetry_cell_setting 'monoclinic'
loop_
_space_group_symop_operation_xyz
x,y,z
-x,y,1/2-z
-x,-y,-z
x,-y,1/2+z
loop_
_atom_site_type_symbol
_atom_site_label
_atom_site_fract_x
_atom_site_fract_y
_atom_site_fract_z
Si Si1 0.509875 0.421546 0.146917
Si Si2 0.356557 0.926483 0.487875
Si Si3 0.077201 0.581964 0.655821
Si Si4 0.490346 0.924965 0.639901
Si Si5 0.285595 0.105437 0.647148
Si Si6 0.640574 0.570532 0.009995
Si Si7 0.079670 0.069460 0.155579
Si Si8 0.812233 0.561527 0.402140
O O1 0.759104 0.434499 0.242469
O O2 0.433445 0.250173 0.127573
O O3 0.451633 0.478289 0.073808
O O4 0.403145 0.526622 0.148121
O O5 0.452067 0.975389 0.572481
O O6 0.359318 0.748176 0.483073
O O7 0.500000 0.000000 0.500000
O O8 0.120890 0.983220 0.396143
O O9 0.020520 0.756185 0.627294
O O10 0.186121 0.516538 0.648136
O O11 0.874553 0.489967 0.598399
O O12 0.731748 0.955118 0.739786
O O13 0.331379 0.021579 0.614489
O O14 0.500000 0.146764 0.750000
O O15 0.159541 0.259025 0.592995
O O16 0.142184 0.995875 0.626969
O O17 0.500000 0.500000 0.000000
O O18 0.000000 0.500000 0.500000
#
# Coordination Sequence:
#
# PCOD8120242 Si02
#       8
#     4   4   4   4   4   4   4   4
#     4  10  22  42  63  87 123 163 201 246 305 363
#     4  11  24  41  62  87 119 159 201 253 300 355
#     4  11  22  41  64  89 122 162 201 248 304 366
#     4   9  22  41  63  88 120 159 200 248 300 360
#     4  10  21  38  60  91 123 156 200 249 299 358
#     4  11  24  43  63  89 122 156 208 253 300 365
#     4  10  22  40  64  90 119 157 202 248 301 357
#     4  12  23  35  59  94 128 159 195 247 301 360
#
# _framework density 20.017216000000001
#
# number of rings (size 3 to 8) (size 9 to 14) (size 15 to 20)
#    0.000    1.500    1.250    3.375    3.500    5.500 
#    0.000    5.000    0.000    0.000    0.000    0.000 
#    0.000    0.000    0.000    0.000    0.000    0.000 
#
# Total GULP energy -396987.265038 kJ/mol
# GULP energy per Si atom -12405.852032 kJ/mol
# Density = 1.997166 g / cm^3
# Si number density = 20.017216 Si / 1000 Ang^3
#
#
#
# Elastic Constant Matrix: (Units=GPa)
#
#
# Indices 1 2 3 4 5 6 
#
# 1 131.3074 46.3439 44.9890 0.0000 15.3514 0.0000
# 2 46.3439 93.3782 38.2149 0.0000 3.3879 0.0000
# 3 44.9890 38.2149 95.9448 0.0000 10.0552 0.0000
# 4 0.0000 0.0000 0.0000 35.7159 0.0000 5.2680
# 5 15.3514 3.3879 10.0552 0.0000 24.6458 0.0000
# 6 0.0000 0.0000 0.0000 5.2680 0.0000 40.1770
#
#
#
# Elastic Compliance Matrix: (Units=1/GPa)
#
#
# Indices 1 2 3 4 5 6 
#
# 1 0.010540 -0.003872 -0.002892 0.000000 -0.004853 0.000000
# 2 -0.003872 0.014220 -0.004070 0.000000 0.002118 0.000000
# 3 -0.002892 -0.004070 0.013740 0.000000 -0.003245 0.000000
# 4 0.000000 0.000000 0.000000 0.028551 0.000000 -0.003744
# 5 -0.004853 0.002118 -0.003245 0.000000 0.044631 0.000000
# 6 0.000000 0.000000 0.000000 -0.003744 0.000000 0.025381
#
#
# Mechanical properties :
#
#
# Convention : Reuss Voigt Hill
#
# Bulk Modulus (GPa) = 59.40818 64.41401 61.91109
# Shear Modulus (GPa) = 30.42471 32.84658 31.63564
#
# Velocity S-wave (km/s) = 3.90285 4.05522 3.97976
# Velocity P-wave (km/s) = 7.07479 7.36040 7.21901
#
# Compressibility (1/GPa) = 0.01683270
#
# Stress axis : x y z
#
# Youngs Moduli (GPa) = 94.87317 70.32576 72.78128
#
# Poissons Ratio (x) = 0.27228 0.21046
# Poissons Ratio (y) = 0.36732 0.29623
# Poissons Ratio (z) = 0.27434 0.28623
#
# Static dielectric constant tensor:
#      x y z
#    x 3.516610 0.000000 -0.002050 
#    y 0.000000 3.613070 0.000000 
#    z -0.002050 0.000000 3.774870 
# 
# 
# High freq. dielectric constant tensor:
#      x y z
#    x 1.776090 0.000000 0.000400 
#    y 0.000000 1.791460 0.000000 
#    z 0.000400 0.000000 1.793420 
# 
# From -- ./inp_files/96699.got.cif
#   From: 2010.06.25/outbox.cif.g09.slc.cpg/sg13_49_cif.got.tgz:96699.got - 2010.06.28 04:50:58.
