data_PCOD8120323
_publ_section_title
;
Structure prediction by ZEFSAII (Michael W. Deem and Ramdas Pophale) SiO2 
 PCOD8120323
Probable space group: P 2/C
;
_chemical_formula_sum "Si O2"
_cell_formula_units_Z 30
_cell_length_a 11.196050
_cell_length_b 8.970568
_cell_length_c 14.448689
_cell_angle_alpha 90.000000
_cell_angle_beta 117.273666
_cell_angle_gamma 90.000000
_cell_volume 1289.825366
_symmetry_space_group_name_H-M "P 2/C"
_symmetry_group_IT_number 13
_symmetry_cell_setting 'monoclinic'
loop_
_space_group_symop_operation_xyz
x,y,z
-x,y,1/2-z
-x,-y,-z
x,-y,1/2+z
loop_
_atom_site_type_symbol
_atom_site_label
_atom_site_fract_x
_atom_site_fract_y
_atom_site_fract_z
Si Si1 0.259135 0.945952 0.555331
Si Si2 0.065153 0.804780 0.967502
Si Si3 0.792693 0.664871 0.886788
Si Si4 0.774453 0.160823 0.659404
Si Si5 0.153387 0.505563 0.281894
Si Si6 0.708781 0.584196 0.488327
Si Si7 0.000000 0.067635 0.250000
Si Si8 0.512483 0.184811 0.861270
O O1 0.286766 0.824386 0.647116
O O2 0.231458 0.849276 0.453163
O O3 0.122486 0.039952 0.531139
O O4 0.386113 0.049717 0.584734
O O5 0.939954 0.724967 0.974208
O O6 0.032303 0.824876 0.847234
O O7 0.185587 0.690147 0.024667
O O8 0.801058 0.572042 0.796540
O O9 0.715416 0.571650 0.937252
O O10 0.830780 0.317180 0.717226
O O11 0.628401 0.131658 0.649257
O O12 0.872739 0.033240 0.733099
O O13 0.256073 0.439164 0.392580
O O14 0.000000 0.464599 0.250000
O O15 0.562992 0.663702 0.430202
O O16 0.500000 0.224636 0.750000
#
# Coordination Sequence:
#
# PCOD8120323 Si02
#       8
#     4   4   4   4   4   4   2   4
#     4  10  24  45  67 105 135 189 241 292 359 420
#     4  10  21  38  68 102 143 182 227 297 359 414
#     4  12  23  42  71 103 147 187 234 296 353 428
#     4  11  23  46  73 102 144 187 236 304 357 425
#     4  12  24  42  72 111 143 189 242 294 366 424
#     4  11  24  46  70 103 147 187 241 292 358 428
#     4  10  22  40  72 108 138 178 244 294 368 428
#     4  11  26  49  72 102 144 192 243 292 361 427
#
# _framework density 23.258962
#
# number of rings (size 3 to 8) (size 9 to 14) (size 15 to 20)
#    0.000    1.067    3.333    2.800    1.867    0.533 
#    4.800    0.667    0.000    0.000    0.000    0.000 
#    0.000    0.000    0.000    0.000    0.000    0.000 
#
# Total GULP energy -371941.649857 kJ/mol
# GULP energy per Si atom -12398.054995 kJ/mol
# Density = 2.320602 g / cm^3
# Si number density = 23.258962 Si / 1000 Ang^3
#
#
#
# Elastic Constant Matrix: (Units=GPa)
#
#
# Indices 1 2 3 4 5 6 
#
# 1 113.6830 24.7127 8.1528 0.0000 19.6398 0.0000
# 2 24.7127 116.7393 20.3538 0.0000 4.5823 0.0000
# 3 8.1528 20.3538 74.6894 0.0000 2.9406 0.0000
# 4 0.0000 0.0000 0.0000 -11.8938 0.0000 5.7115
# 5 19.6398 4.5823 2.9406 0.0000 19.4953 0.0000
# 6 0.0000 0.0000 0.0000 5.7115 0.0000 20.3346
#
#
#
# Elastic Compliance Matrix: (Units=1/GPa)
#
#
# Indices 1 2 3 4 5 6 
#
# 1 0.011067 -0.001876 -0.000277 0.000000 -0.010666 0.000000
# 2 -0.001876 0.009371 -0.002351 0.000000 0.000042 0.000000
# 3 -0.000277 -0.002351 0.014111 0.000000 -0.001297 0.000000
# 4 0.000000 0.000000 0.000000 -0.074085 0.000000 0.020809
# 5 -0.010666 0.000042 -0.001297 0.000000 0.062225 0.000000
# 6 0.000000 0.000000 0.000000 0.020809 0.000000 0.043333
#
#
# Mechanical properties :
#
#
# Convention : Reuss Voigt Hill
#
# Bulk Modulus (GPa) = 39.15122 45.72780 42.43951
# Shear Modulus (GPa) = 59.85005 22.38006 41.11506
#
# Velocity S-wave (km/s) = 5.07818 3.10532 4.20897
# Velocity P-wave (km/s) = 7.15913 5.70617 6.47354
#
# Compressibility (1/GPa) = 0.02554199
#
# Stress axis : x y z
#
# Youngs Moduli (GPa) = 90.36148 106.70763 70.86834
#
# Poissons Ratio (x) = 0.20016 0.01962
# Poissons Ratio (y) = 0.16950 0.16659
# Poissons Ratio (z) = 0.02502 0.25084
#
# Static dielectric constant tensor:
#      x y z
#    x 4.201390 0.000000 0.142210 
#    y 0.000000 4.503180 0.000000 
#    z 0.142210 0.000000 4.093380 
# 
# 
# High freq. dielectric constant tensor:
#      x y z
#    x 1.912600 0.000000 -0.000160 
#    y 0.000000 1.946610 0.000000 
#    z -0.000160 0.000000 1.905390 
# 
# From -- ./inp_files/50479.got.cif
#   From: 2010.06.25/outbox.cif.g09.slc.cpg/sg13_26_cif.got.tgz:50479.got - 2010.06.28 04:50:58.
