data_PCOD8120559
_publ_section_title
;
Structure prediction by ZEFSAII (Michael W. Deem and Ramdas Pophale) SiO2 
 PCOD8120559
Probable space group: P 2/C
;
_chemical_formula_sum "Si O2"
_cell_formula_units_Z 14
_cell_length_a 8.899237
_cell_length_b 10.090308
_cell_length_c 15.409506
_cell_angle_alpha 90.000000
_cell_angle_beta 149.976946
_cell_angle_gamma 90.000000
_cell_volume 692.338440
_symmetry_space_group_name_H-M "P 2/C"
_symmetry_group_IT_number 13
_symmetry_cell_setting 'monoclinic'
loop_
_space_group_symop_operation_xyz
x,y,z
-x,y,1/2-z
-x,-y,-z
x,-y,1/2+z
loop_
_atom_site_type_symbol
_atom_site_label
_atom_site_fract_x
_atom_site_fract_y
_atom_site_fract_z
Si Si1 0.166100 0.745949 0.915232
Si Si2 0.000000 0.000023 0.250000
Si Si3 0.856747 0.644054 0.928379
Si Si4 0.166077 0.254004 0.750843
O O1 0.000000 0.675488 0.750000
O O2 0.964687 0.724186 0.898655
O O3 0.500031 0.686253 0.095326
O O4 0.196948 0.903868 0.910774
O O5 0.196978 0.903907 0.286208
O O6 0.500000 0.633647 0.750000
O O7 0.000000 0.500000 0.000000
O O8 0.964611 0.724234 0.065989
O O9 0.000000 0.324440 0.750000
#
# Coordination Sequence:
#
# PCOD8120559 Si02
#       4
#     4   2   4   4
#     4  10  21  40  65  94 127 163 205 255 308 366
#     4   8  22  38  68  92 132 156 210 244 318 360
#     4  12  26  43  64  91 124 165 211 257 309 368
#     4  10  21  40  65  94 127 163 205 255 308 366
#
# _framework density 20.221325
#
# number of rings (size 3 to 8) (size 9 to 14) (size 15 to 20)
#    1.714    0.000    0.000    5.143    0.000    2.286 
#    0.000    5.714    0.000    0.000    0.000    0.000 
#    0.000    0.000    0.000    0.000    0.000    0.000 
#
# Total GULP energy -173441.903468 kJ/mol
# GULP energy per Si atom -12388.707391 kJ/mol
# Density = 2.017530 g / cm^3
# Si number density = 20.221325 Si / 1000 Ang^3
#
#
#
# Elastic Constant Matrix: (Units=GPa)
#
#
# Indices 1 2 3 4 5 6 
#
# 1 172.9643 39.5372 97.1657 0.0000 -4.6917 0.0000
# 2 39.5372 81.5004 33.2966 0.0000 -6.3453 0.0000
# 3 97.1657 33.2966 181.5303 0.0000 13.4572 0.0000
# 4 0.0000 0.0000 0.0000 47.7832 0.0000 -34.2345
# 5 -4.6917 -6.3453 13.4572 0.0000 54.0262 0.0000
# 6 0.0000 0.0000 0.0000 -34.2345 0.0000 81.5364
#
#
#
# Elastic Compliance Matrix: (Units=1/GPa)
#
#
# Indices 1 2 3 4 5 6 
#
# 1 0.008848 -0.002362 -0.004421 0.000000 0.001592 0.000000
# 2 -0.002362 0.014157 -0.001467 0.000000 0.001823 0.000000
# 3 -0.004421 -0.001467 0.008339 0.000000 -0.002633 0.000000
# 4 0.000000 0.000000 0.000000 0.029932 0.000000 0.012567
# 5 0.001592 0.001823 -0.002633 0.000000 0.019518 0.000000
# 6 0.000000 0.000000 0.000000 0.012567 0.000000 0.017541
#
#
# Mechanical properties :
#
#
# Convention : Reuss Voigt Hill
#
# Bulk Modulus (GPa) = 67.36848 86.22156 76.79502
# Shear Modulus (GPa) = 41.74152 54.40218 48.07185
#
# Velocity S-wave (km/s) = 4.54831 5.19247 4.88103
# Velocity P-wave (km/s) = 7.80838 8.87020 8.35617
#
# Compressibility (1/GPa) = 0.01484374
#
# Stress axis : x y z
#
# Youngs Moduli (GPa) = 113.01767 70.63462 119.91307
#
# Poissons Ratio (x) = 0.16686 0.53011
# Poissons Ratio (y) = 0.26699 0.17597
# Poissons Ratio (z) = 0.49963 0.10365
#
# Static dielectric constant tensor:
#      x y z
#    x 3.611250 0.000000 -0.003860 
#    y 0.000000 3.376440 0.000000 
#    z -0.003860 0.000000 3.604880 
# 
# 
# High freq. dielectric constant tensor:
#      x y z
#    x 1.796150 0.000000 0.002950 
#    y 0.000000 1.766830 0.000000 
#    z 0.002950 0.000000 1.798960 
# 
# From -- ./inp_files/11396.got.cif
#   From: 2010.06.25/outbox.cif.g09.slc.cpg/sg13_6_cif.got.tgz:11396.got - 2010.06.28 04:50:58.
