data_PCOD8120500
_publ_section_title
;
Structure prediction by ZEFSAII (Michael W. Deem and Ramdas Pophale) SiO2 
 PCOD8120500
Probable space group: P 2/C
;
_chemical_formula_sum "Si O2"
_cell_formula_units_Z 24
_cell_length_a 17.896468
_cell_length_b 5.135015
_cell_length_c 23.050359
_cell_angle_alpha 90.000000
_cell_angle_beta 149.409192
_cell_angle_gamma 90.000000
_cell_volume 1078.008096
_symmetry_space_group_name_H-M "P 2/C"
_symmetry_group_IT_number 13
_symmetry_cell_setting 'monoclinic'
loop_
_space_group_symop_operation_xyz
x,y,z
-x,y,1/2-z
-x,-y,-z
x,-y,1/2+z
loop_
_atom_site_type_symbol
_atom_site_label
_atom_site_fract_x
_atom_site_fract_y
_atom_site_fract_z
Si Si1 0.184606 0.704066 0.139506
Si Si2 0.451897 0.021125 0.867409
Si Si3 0.268428 0.858210 0.498741
Si Si4 0.620035 0.282626 0.081083
Si Si5 0.874686 0.209350 0.472908
Si Si6 0.165088 0.635390 0.865622
O O1 0.198318 0.423838 0.118119
O O2 0.342375 0.749082 0.275304
O O3 0.152953 0.923906 0.070721
O O4 0.048637 0.719627 0.094399
O O5 0.352265 0.804311 0.833458
O O6 0.556001 0.930070 0.883470
O O7 0.565451 0.077576 0.995791
O O8 0.205918 0.791637 0.519808
O O9 0.259972 0.587879 0.459155
O O10 0.175963 0.092615 0.407975
O O11 0.779706 0.359636 0.164128
O O12 0.500000 0.500000 0.000000
O O13 0.000000 0.542728 0.750000
#
# Coordination Sequence:
#
# PCOD8120500 Si02
#       6
#     4   4   4   4   4   4
#     4  10  23  42  66  93 122 170 214 261 328 379
#     4  10  23  39  64  93 126 171 209 263 321 384
#     4  11  23  42  62  92 132 164 212 274 316 381
#     4  10  21  40  61  91 131 164 213 258 315 391
#     4  10  23  43  63  94 128 161 218 268 314 388
#     4  11  24  39  62  96 127 169 214 257 326 387
#
# _framework density 22.263283000000001
#
# number of rings (size 3 to 8) (size 9 to 14) (size 15 to 20)
#    0.000    1.667    1.667    1.500    4.667    2.000 
#    0.000    1.667    0.000    0.000    0.000    0.000 
#    0.000    0.000    0.000    0.000    0.000    0.000 
#
# Total GULP energy -297381.911300 kJ/mol
# GULP energy per Si atom -12390.912971 kJ/mol
# Density = 2.221261 g / cm^3
# Si number density = 22.263283 Si / 1000 Ang^3
#
#
#
# Elastic Constant Matrix: (Units=GPa)
#
#
# Indices 1 2 3 4 5 6 
#
# 1 172.6760 32.3112 53.5009 0.0000 37.4661 0.0000
# 2 32.3112 76.4719 -0.9475 0.0000 4.1471 0.0000
# 3 53.5009 -0.9475 87.3770 0.0000 26.3293 0.0000
# 4 0.0000 0.0000 0.0000 32.5632 0.0000 -0.1740
# 5 37.4661 4.1471 26.3293 0.0000 31.0058 0.0000
# 6 0.0000 0.0000 0.0000 -0.1740 0.0000 28.0774
#
#
#
# Elastic Compliance Matrix: (Units=1/GPa)
#
#
# Indices 1 2 3 4 5 6 
#
# 1 0.009157 -0.003487 -0.003294 0.000000 -0.007801 0.000000
# 2 -0.003487 0.014553 0.002163 0.000000 0.000430 0.000000
# 3 -0.003294 0.002163 0.016627 0.000000 -0.010429 0.000000
# 4 0.000000 0.000000 0.000000 0.030711 0.000000 0.000190
# 5 -0.007801 0.000430 -0.010429 0.000000 0.050477 0.000000
# 6 0.000000 0.000000 0.000000 0.000190 0.000000 0.035617
#
#
# Mechanical properties :
#
#
# Convention : Reuss Voigt Hill
#
# Bulk Modulus (GPa) = 32.15093 56.25042 44.20067
# Shear Modulus (GPa) = 28.28936 35.10662 31.69799
#
# Velocity S-wave (km/s) = 3.56852 3.97531 3.77739
# Velocity P-wave (km/s) = 5.60818 6.81114 6.23872
#
# Compressibility (1/GPa) = 0.03110330
#
# Stress axis : x y z
#
# Youngs Moduli (GPa) = 109.20797 68.71233 60.14166
#
# Poissons Ratio (x) = 0.23958 0.19809
# Poissons Ratio (y) = 0.38078 -0.13010
# Poissons Ratio (z) = 0.35970 -0.14864
#
# Static dielectric constant tensor:
#      x y z
#    x 4.573880 0.000000 0.203960 
#    y 0.000000 4.069230 0.000000 
#    z 0.203960 0.000000 3.952640 
# 
# 
# High freq. dielectric constant tensor:
#      x y z
#    x 1.892450 0.000000 0.022650 
#    y 0.000000 1.888440 0.000000 
#    z 0.022650 0.000000 1.852660 
# 
# From -- ./inp_files/87755.got.cif
#   From: 2010.06.25/outbox.cif.g09.slc.cpg/sg13_44_cif.got.tgz:87755.got - 2010.06.28 04:50:58.
