data_PCOD8120081
_publ_section_title
;
Structure prediction by ZEFSAII (Michael W. Deem and Ramdas Pophale) SiO2 
 PCOD8120081
Probable space group: P 2/C
;
_chemical_formula_sum "Si O2"
_cell_formula_units_Z 20
_cell_length_a 8.158536
_cell_length_b 23.240454
_cell_length_c 8.966410
_cell_angle_alpha 90.000000
_cell_angle_beta 33.745904
_cell_angle_gamma 90.000000
_cell_volume 944.426001
_symmetry_space_group_name_H-M "P 2/C"
_symmetry_group_IT_number 13
_symmetry_cell_setting 'monoclinic'
loop_
_space_group_symop_operation_xyz
x,y,z
-x,y,1/2-z
-x,-y,-z
x,-y,1/2+z
loop_
_atom_site_type_symbol
_atom_site_label
_atom_site_fract_x
_atom_site_fract_y
_atom_site_fract_z
Si Si1 0.612499 0.056680 0.831850
Si Si2 0.824947 0.543842 0.032178
Si Si3 0.875101 0.877545 0.678066
Si Si4 0.172571 0.327250 0.965852
Si Si5 0.157919 0.763018 0.978931
O O1 0.500000 0.054241 0.750000
O O2 0.959350 0.073793 0.552431
O O3 0.467836 0.106587 0.043233
O O4 0.500000 0.000000 0.000000
O O5 0.500000 0.518100 0.250000
O O6 0.800857 0.607834 0.120483
O O7 0.000000 0.550709 0.750000
O O8 0.000000 0.500000 0.000000
O O9 0.892673 0.814986 0.596129
O O10 0.000000 0.876174 0.750000
O O11 0.500000 0.302225 0.750000
O O12 0.000000 0.323875 0.250000
O O13 0.001572 0.292384 0.968757
O O14 0.500000 0.749315 0.750000
O O15 0.000000 0.780308 0.250000
#
# Coordination Sequence:
#
# PCOD8120081 Si02
#       5
#     4   4   4   4   4
#     4  10  21  37  59  85 112 147 191 237 287 345
#     4  10  21  37  60  89 121 159 202 245 297 353
#     4  10  22  40  59  81 114 156 193 231 291 362
#     4  10  22  41  62  85 119 165 203 238 296 367
#     4  12  25  39  60  92 120 151 200 257 303 341
#
# _framework density 21.176886
#
# number of rings (size 3 to 8) (size 9 to 14) (size 15 to 20)
#    0.000    1.600    0.000    4.200    0.000    6.400 
#    0.000    0.000    0.000    0.000    0.000    0.000 
#    0.000    0.000    0.000    0.000    0.000    0.000 
#
# Total GULP energy -247859.842091 kJ/mol
# GULP energy per Si atom -12392.992105 kJ/mol
# Density = 2.112869 g / cm^3
# Si number density = 21.176886 Si / 1000 Ang^3
#
#
#
# Elastic Constant Matrix: (Units=GPa)
#
#
# Indices 1 2 3 4 5 6 
#
# 1 68.1660 55.9074 58.2000 0.0000 -18.8771 0.0000
# 2 55.9074 113.8346 39.3360 0.0000 1.3873 0.0000
# 3 58.2000 39.3360 153.6628 0.0000 -14.7423 0.0000
# 4 0.0000 0.0000 0.0000 -9.3653 0.0000 -87.6572
# 5 -18.8771 1.3873 -14.7423 0.0000 37.3584 0.0000
# 6 0.0000 0.0000 0.0000 -87.6572 0.0000 -115.0743
#
#
#
# Elastic Compliance Matrix: (Units=1/GPa)
#
#
# Indices 1 2 3 4 5 6 
#
# 1 0.042867 -0.017858 -0.009898 0.000000 0.018418 0.000000
# 2 -0.017858 0.017146 0.001505 0.000000 -0.009066 0.000000
# 3 -0.009898 0.001505 0.009756 0.000000 -0.001207 0.000000
# 4 0.000000 0.000000 0.000000 0.017419 0.000000 -0.013269
# 5 0.018418 -0.009066 -0.001207 0.000000 0.035934 0.000000
# 6 0.000000 0.000000 0.000000 -0.013269 0.000000 0.001418
#
#
# Mechanical properties :
#
#
# Convention : Reuss Voigt Hill
#
# Bulk Modulus (GPa) = 57.91325 71.39446 64.65385
# Shear Modulus (GPa) = 27.35270 -5.26823 11.04223
#
# Velocity S-wave (km/s) = 3.59782 -1.57896 2.28596
# Velocity P-wave (km/s) = 6.68325 5.51928 6.12896
#
# Compressibility (1/GPa) = 0.01726721
#
# Stress axis : x y z
#
# Youngs Moduli (GPa) = 23.32770 58.32400 102.50621
#
# Poissons Ratio (x) = 1.04153 1.01458
# Poissons Ratio (y) = 0.41658 -0.15424
# Poissons Ratio (z) = 0.23089 -0.08776
#
# Static dielectric constant tensor:
#      x y z
#    x 3.593250 0.000000 -0.083160 
#    y 0.000000 3.927140 0.000000 
#    z -0.083160 0.000000 4.556290 
# 
# 
# High freq. dielectric constant tensor:
#      x y z
#    x 1.816010 0.000000 -0.002020 
#    y 0.000000 1.831500 0.000000 
#    z -0.002020 0.000000 1.861290 
# 
# From -- ./inp_files/13761.got.cif
#   From: 2010.06.25/outbox.cif.g09.slc.cpg/sg13_7_cif.got.tgz:13761.got - 2010.06.28 04:50:58.
