data_PCOD8120324
_publ_section_title
;
Structure prediction by ZEFSAII (Michael W. Deem and Ramdas Pophale) SiO2 
 PCOD8120324
Probable space group: P 2/C
;
_chemical_formula_sum "Si O2"
_cell_formula_units_Z 18
_cell_length_a 7.963383
_cell_length_b 8.531978
_cell_length_c 16.897968
_cell_angle_alpha 90.000000
_cell_angle_beta 139.089772
_cell_angle_gamma 90.000000
_cell_volume 751.866459
_symmetry_space_group_name_H-M "P 2/C"
_symmetry_group_IT_number 13
_symmetry_cell_setting 'monoclinic'
loop_
_space_group_symop_operation_xyz
x,y,z
-x,y,1/2-z
-x,-y,-z
x,-y,1/2+z
loop_
_atom_site_type_symbol
_atom_site_label
_atom_site_fract_x
_atom_site_fract_y
_atom_site_fract_z
Si Si1 0.255365 0.962894 0.542539
Si Si2 0.154109 0.539828 0.136135
Si Si3 0.200920 0.716226 0.391536
Si Si4 0.500000 0.741866 0.750000
Si Si5 0.435351 0.691323 0.107289
O O1 0.211211 0.882371 0.441614
O O2 0.444161 0.845728 0.654677
O O3 0.400052 0.124731 0.586372
O O4 0.000000 0.000000 0.500000
O O5 0.251984 0.363539 0.184014
O O6 0.178172 0.596238 0.049980
O O7 0.344345 0.657302 0.250444
O O8 0.876431 0.576987 0.074467
O O9 0.466455 0.651297 0.446629
O O10 0.000000 0.743176 0.250000
#
# Coordination Sequence:
#
# PCOD8120324 Si02
#       5
#     4   4   4   2   4
#     4  12  23  39  68  99 127 175 217 270 326 386
#     4   9  19  42  64  88 129 172 209 264 319 390
#     4  10  21  38  68  91 125 171 214 259 327 377
#     4  10  24  40  68  96 132 170 222 268 326 390
#     4   9  18  37  64  87 125 164 212 260 315 371
#
# _framework density 23.940422999999999
#
# number of rings (size 3 to 8) (size 9 to 14) (size 15 to 20)
#    0.000    2.222    2.222    2.000    3.111    0.889 
#    0.000   10.000   34.222    0.000    0.000    0.000 
#    0.000    0.000    0.000    0.000    0.000    0.000 
#
# Total GULP energy -223020.184087 kJ/mol
# GULP energy per Si atom -12390.010227 kJ/mol
# Density = 2.388593 g / cm^3
# Si number density = 23.940423 Si / 1000 Ang^3
#
#
#
# Elastic Constant Matrix: (Units=GPa)
#
#
# Indices 1 2 3 4 5 6 
#
# 1 233.6814 76.7065 26.6277 0.0000 -26.2807 0.0000
# 2 76.7065 131.8547 32.4844 0.0000 -12.9563 0.0000
# 3 26.6277 32.4844 77.8126 0.0000 -26.5005 0.0000
# 4 0.0000 0.0000 0.0000 -1.1523 0.0000 -28.6864
# 5 -26.2807 -12.9563 -26.5005 0.0000 31.9363 0.0000
# 6 0.0000 0.0000 0.0000 -28.6864 0.0000 24.7243
#
#
#
# Elastic Compliance Matrix: (Units=1/GPa)
#
#
# Indices 1 2 3 4 5 6 
#
# 1 0.005657 -0.003072 0.000708 0.000000 0.003996 0.000000
# 2 -0.003072 0.010134 -0.003680 0.000000 -0.001471 0.000000
# 3 0.000708 -0.003680 0.019285 0.000000 0.015092 0.000000
# 4 0.000000 0.000000 0.000000 -0.029040 0.000000 -0.033693
# 5 0.003996 -0.001471 0.015092 0.000000 0.046527 0.000000
# 6 0.000000 0.000000 0.000000 -0.033693 0.000000 0.001353
#
#
# Mechanical properties :
#
#
# Convention : Reuss Voigt Hill
#
# Bulk Modulus (GPa) = 43.50425 79.44288 61.47357
# Shear Modulus (GPa) = 67.87206 31.60368 49.73787
#
# Velocity S-wave (km/s) = 5.33029 3.63726 4.56298
# Velocity P-wave (km/s) = 7.48959 7.13408 7.31399
#
# Compressibility (1/GPa) = 0.02298626
#
# Stress axis : x y z
#
# Youngs Moduli (GPa) = 176.78470 98.68156 51.85254
#
# Poissons Ratio (x) = 0.30320 -0.03670
# Poissons Ratio (y) = 0.54317 0.19082
# Poissons Ratio (z) = -0.12512 0.36315
#
# Static dielectric constant tensor:
#      x y z
#    x 6.470420 0.000000 0.143020 
#    y 0.000000 4.424750 0.000000 
#    z 0.143020 0.000000 4.453780 
# 
# 
# High freq. dielectric constant tensor:
#      x y z
#    x 1.970380 0.000000 -0.004510 
#    y 0.000000 1.953540 0.000000 
#    z -0.004510 0.000000 1.952790 
# 
# From -- ./inp_files/63101.got.cif
#   From: 2010.06.25/outbox.cif.g09.slc.cpg/sg13_32_cif.got.tgz:63101.got - 2010.06.28 04:50:58.
