data_PCOD8120674
_publ_section_title
;
Structure prediction by ZEFSAII (Michael W. Deem and Ramdas Pophale) SiO2 
 PCOD8120674
Probable space group: P 2/C
;
_chemical_formula_sum "Si O2"
_cell_formula_units_Z 30
_cell_length_a 16.034742
_cell_length_b 6.415751
_cell_length_c 14.031830
_cell_angle_alpha 90.000000
_cell_angle_beta 85.670150
_cell_angle_gamma 90.000000
_cell_volume 1439.403369
_symmetry_space_group_name_H-M "P 2/C"
_symmetry_group_IT_number 13
_symmetry_cell_setting 'monoclinic'
loop_
_space_group_symop_operation_xyz
x,y,z
-x,y,1/2-z
-x,-y,-z
x,-y,1/2+z
loop_
_atom_site_type_symbol
_atom_site_label
_atom_site_fract_x
_atom_site_fract_y
_atom_site_fract_z
Si Si1 0.334585 0.015003 0.059811
Si Si2 0.411539 0.247077 0.211292
Si Si3 0.974319 0.385088 0.410193
Si Si4 0.000000 0.286227 0.750000
Si Si5 0.291924 0.023671 0.847748
Si Si6 0.811699 0.287781 0.356649
Si Si7 0.315640 0.637148 0.187409
Si Si8 0.109014 0.072367 0.323765
O O1 0.339451 0.775826 0.093181
O O2 0.409473 0.141895 0.105913
O O3 0.248468 0.101510 0.109632
O O4 0.338796 0.044703 0.945582
O O5 0.500000 0.197323 0.250000
O O6 0.396195 0.493341 0.202598
O O7 0.336795 0.157840 0.283716
O O8 0.963562 0.561048 0.331655
O O9 0.879019 0.307874 0.436080
O O10 0.000000 0.500000 0.500000
O O11 0.037495 0.191735 0.389051
O O12 0.074085 0.145441 0.787198
O O13 0.297302 0.234884 0.785586
O O14 0.194691 0.967430 0.875573
O O15 0.763268 0.499743 0.336723
O O16 0.869353 0.226511 0.263219
#
# Coordination Sequence:
#
# PCOD8120674 Si02
#       8
#     4   4   4   2   4   4   4   4
#     4  10  24  40  67  99 126 164 211 263 311 383
#     4  10  23  45  68  96 131 162 204 255 318 392
#     4  12  28  39  60  95 127 172 222 275 317 369
#     4  12  24  42  62  80 132 172 214 274 324 354
#     4  11  24  41  67  96 127 166 214 258 321 384
#     4  11  21  43  60  89 129 167 221 265 312 373
#     4  10  21  41  66  89 127 172 207 257 324 371
#     4  12  23  42  62  89 124 172 219 264 320 372
#
# _framework density 20.84197
#
# number of rings (size 3 to 8) (size 9 to 14) (size 15 to 20)
#    0.000    1.067    6.667    0.800    3.733    5.333 
#    0.000    1.333    0.000    0.000    0.000    0.000 
#    0.000    0.000    0.000    0.000    0.000    0.000 
#
# Total GULP energy -371876.861496 kJ/mol
# GULP energy per Si atom -12395.895383 kJ/mol
# Density = 2.079453 g / cm^3
# Si number density = 20.841970 Si / 1000 Ang^3
#
#
#
# Elastic Constant Matrix: (Units=GPa)
#
#
# Indices 1 2 3 4 5 6 
#
# 1 96.9113 26.4717 13.9493 0.0000 29.1042 0.0000
# 2 26.4717 114.4556 23.8386 0.0000 6.3901 0.0000
# 3 13.9493 23.8386 99.0572 0.0000 24.3423 0.0000
# 4 0.0000 0.0000 0.0000 11.7678 0.0000 9.8925
# 5 29.1042 6.3901 24.3423 0.0000 31.5213 0.0000
# 6 0.0000 0.0000 0.0000 9.8925 0.0000 21.4567
#
#
#
# Elastic Compliance Matrix: (Units=1/GPa)
#
#
# Indices 1 2 3 4 5 6 
#
# 1 0.015518 -0.003223 0.002408 0.000000 -0.015534 0.000000
# 2 -0.003223 0.009868 -0.002667 0.000000 0.003035 0.000000
# 3 0.002408 -0.002667 0.013344 0.000000 -0.011987 0.000000
# 4 0.000000 0.000000 0.000000 0.138756 0.000000 -0.063973
# 5 -0.015534 0.003035 -0.011987 0.000000 0.054709 0.000000
# 6 0.000000 0.000000 0.000000 -0.063973 0.000000 0.076100
#
#
# Mechanical properties :
#
#
# Convention : Reuss Voigt Hill
#
# Bulk Modulus (GPa) = 31.48102 48.77146 40.12624
# Shear Modulus (GPa) = 15.34458 29.36012 22.35235
#
# Velocity S-wave (km/s) = 2.71631 3.75734 3.27841
# Velocity P-wave (km/s) = 4.99752 6.50191 5.79871
#
# Compressibility (1/GPa) = 0.03176517
#
# Stress axis : x y z
#
# Youngs Moduli (GPa) = 64.44288 101.33272 74.94225
#
# Poissons Ratio (x) = 0.32661 -0.18044
# Poissons Ratio (y) = 0.20771 0.19986
# Poissons Ratio (z) = -0.15516 0.27023
#
# Static dielectric constant tensor:
#      x y z
#    x 4.288810 0.000000 0.365820 
#    y 0.000000 3.962310 0.000000 
#    z 0.365820 0.000000 3.821830 
# 
# 
# High freq. dielectric constant tensor:
#      x y z
#    x 1.815970 0.000000 0.022130 
#    y 0.000000 1.828780 0.000000 
#    z 0.022130 0.000000 1.804680 
# 
# From -- ./inp_files/54470.got.cif
#   From: 2010.06.25/outbox.cif.g09.slc.cpg/sg13_28_cif.got.tgz:54470.got - 2010.06.28 04:50:58.
