data_PCOD8120987
_publ_section_title
;
Structure prediction by ZEFSAII (Michael W. Deem and Ramdas Pophale) SiO2 
 PCOD8120987
Probable space group: P 2/C
;
_chemical_formula_sum "Si O2"
_cell_formula_units_Z 24
_cell_length_a 18.704442
_cell_length_b 12.209022
_cell_length_c 13.675642
_cell_angle_alpha 90.000000
_cell_angle_beta 158.937605
_cell_angle_gamma 90.000000
_cell_volume 1122.361040
_symmetry_space_group_name_H-M "P 2/C"
_symmetry_group_IT_number 13
_symmetry_cell_setting 'monoclinic'
loop_
_space_group_symop_operation_xyz
x,y,z
-x,y,1/2-z
-x,-y,-z
x,-y,1/2+z
loop_
_atom_site_type_symbol
_atom_site_label
_atom_site_fract_x
_atom_site_fract_y
_atom_site_fract_z
Si Si1 0.098593 0.579620 0.779668
Si Si2 0.118344 0.745878 0.128015
Si Si3 0.500000 0.962673 0.750000
Si Si4 0.541823 0.810746 0.627601
Si Si5 0.173880 0.328418 0.908269
Si Si6 0.713517 0.141549 0.141984
Si Si7 0.500000 0.684465 0.250000
O O1 0.097748 0.449347 0.783833
O O2 0.000000 0.631694 0.750000
O O3 0.971315 0.631380 0.527977
O O4 0.328875 0.608532 0.073542
O O5 0.305013 0.794518 0.304156
O O6 0.209932 0.730135 0.351701
O O7 0.944658 0.835731 0.914562
O O8 0.596191 0.890108 0.787401
O O9 0.332992 0.035686 0.482804
O O10 0.654766 0.868672 0.680909
O O11 0.631172 0.690675 0.774155
O O12 0.000000 0.271695 0.750000
O O13 0.579375 0.243928 0.940026
#
# Coordination Sequence:
#
# PCOD8120987 Si02
#       7
#     4   4   2   4   4   4   2
#     4  10  22  38  60  92 125 163 211 241 300 367
#     4  11  22  41  64  90 124 165 202 252 305 366
#     4  11  24  43  66  92 122 159 208 261 316 372
#     4  12  23  42  66  91 125 162 206 259 309 363
#     4  11  22  41  61  91 129 162 202 257 300 361
#     4  10  23  43  63  90 125 160 206 256 315 363
#     4   9  20  39  62  88 128 167 196 257 302 358
#
# _framework density 21.383493000000001
#
# number of rings (size 3 to 8) (size 9 to 14) (size 15 to 20)
#    0.000    1.333    3.333    2.000    2.333    0.667 
#    0.000    4.167    0.000    0.000    0.000    0.000 
#    0.000    0.000    0.000    0.000    0.000    0.000 
#
# Total GULP energy -297405.465700 kJ/mol
# GULP energy per Si atom -12391.894404 kJ/mol
# Density = 2.133482 g / cm^3
# Si number density = 21.383493 Si / 1000 Ang^3
#
#
#
# Elastic Constant Matrix: (Units=GPa)
#
#
# Indices 1 2 3 4 5 6 
#
# 1 112.6922 27.3554 50.0018 0.0000 6.5828 0.0000
# 2 27.3554 68.2024 34.5209 0.0000 -1.5915 0.0000
# 3 50.0018 34.5209 131.1116 0.0000 15.0089 0.0000
# 4 0.0000 0.0000 0.0000 48.8700 0.0000 -3.7255
# 5 6.5828 -1.5915 15.0089 0.0000 36.3273 0.0000
# 6 0.0000 0.0000 0.0000 -3.7255 0.0000 21.3864
#
#
#
# Elastic Compliance Matrix: (Units=1/GPa)
#
#
# Indices 1 2 3 4 5 6 
#
# 1 0.011102 -0.002732 -0.003433 0.000000 -0.000713 0.000000
# 2 -0.002732 0.017847 -0.003992 0.000000 0.002926 0.000000
# 3 -0.003433 -0.003992 0.010429 0.000000 -0.003862 0.000000
# 4 0.000000 0.000000 0.000000 0.020738 0.000000 0.003612
# 5 -0.000713 0.002926 -0.003862 0.000000 0.029380 0.000000
# 6 0.000000 0.000000 0.000000 0.003612 0.000000 0.047388
#
#
# Mechanical properties :
#
#
# Convention : Reuss Voigt Hill
#
# Bulk Modulus (GPa) = 52.45414 59.52916 55.99165
# Shear Modulus (GPa) = 30.57116 34.65862 32.61489
#
# Velocity S-wave (km/s) = 3.78519 4.03030 3.90966
# Velocity P-wave (km/s) = 6.60961 7.03967 6.82803
#
# Compressibility (1/GPa) = 0.01906427
#
# Stress axis : x y z
#
# Youngs Moduli (GPa) = 90.07609 56.03219 95.88200
#
# Poissons Ratio (x) = 0.15307 0.32916
# Poissons Ratio (y) = 0.24608 0.38277
# Poissons Ratio (z) = 0.30923 0.22369
#
# Static dielectric constant tensor:
#      x y z
#    x 3.999860 0.000000 0.115920 
#    y 0.000000 3.706950 0.000000 
#    z 0.115920 0.000000 3.669380 
# 
# 
# High freq. dielectric constant tensor:
#      x y z
#    x 1.852070 0.000000 0.003250 
#    y 0.000000 1.825520 0.000000 
#    z 0.003250 0.000000 1.842020 
# 
# From -- ./inp_files/57760.got.cif
#   From: 2010.06.25/outbox.cif.g09.slc.cpg/sg13_29_cif.got.tgz:57760.got - 2010.06.28 04:50:58.
