data_PCOD8120443
_publ_section_title
;
Structure prediction by ZEFSAII (Michael W. Deem and Ramdas Pophale) SiO2 
 PCOD8120443
Probable space group: P 2/C
;
_chemical_formula_sum "Si O2"
_cell_formula_units_Z 18
_cell_length_a 8.626568
_cell_length_b 20.374331
_cell_length_c 10.020199
_cell_angle_alpha 90.000000
_cell_angle_beta 148.461503
_cell_angle_gamma 90.000000
_cell_volume 921.210066
_symmetry_space_group_name_H-M "P 2/C"
_symmetry_group_IT_number 13
_symmetry_cell_setting 'monoclinic'
loop_
_space_group_symop_operation_xyz
x,y,z
-x,y,1/2-z
-x,-y,-z
x,-y,1/2+z
loop_
_atom_site_type_symbol
_atom_site_label
_atom_site_fract_x
_atom_site_fract_y
_atom_site_fract_z
Si Si1 0.185228 0.033878 0.251972
Si Si2 0.685680 0.822215 0.752333
Si Si3 0.500000 0.637790 0.250000
Si Si4 0.321522 0.511591 0.000190
Si Si5 0.674020 0.763254 0.250925
O O1 0.240480 0.109273 0.261205
O O2 0.000000 0.026031 0.250000
O O3 0.500000 0.000000 0.500000
O O4 0.000000 0.000000 0.000000
O O5 0.500000 0.833363 0.750000
O O6 0.500343 0.778274 0.512980
O O7 0.991911 0.787590 0.014920
O O8 0.713979 0.589601 0.492532
O O9 0.683524 0.684334 0.282318
O O10 0.000000 0.479262 0.750000
O O11 0.500000 0.475298 0.250000
O O12 0.500000 0.500000 0.000000
O O13 0.500000 0.796331 0.250000
#
# Coordination Sequence:
#
# PCOD8120443 Si02
#       5
#     4   4   2   4   4
#     4  12  25  43  65  93 125 165 209 262 322 382
#     4  12  24  41  63  92 126 162 210 267 319 374
#     4   8  24  36  72  84 136 160 228 244 328 368
#     4  10  21  39  66  94 128 169 210 259 315 371
#     4  10  22  40  64  87 121 169 213 252 313 382
#
# _framework density 19.539515999999999
#
# number of rings (size 3 to 8) (size 9 to 14) (size 15 to 20)
#    1.333    0.000    0.000    6.667    3.111    0.000 
#    0.000    3.333    0.000    0.000    0.000    0.000 
#    0.000    0.000    0.000    0.000    0.000    0.000 
#
# Total GULP energy -223073.235850 kJ/mol
# GULP energy per Si atom -12392.957547 kJ/mol
# Density = 1.949504 g / cm^3
# Si number density = 19.539516 Si / 1000 Ang^3
#
#
#
# Elastic Constant Matrix: (Units=GPa)
#
#
# Indices 1 2 3 4 5 6 
#
# 1 160.2055 4.9191 67.9472 0.0000 -5.1589 0.0000
# 2 4.9191 49.7034 21.7295 0.0000 -6.2552 0.0000
# 3 67.9472 21.7295 166.6540 0.0000 8.1878 0.0000
# 4 0.0000 0.0000 0.0000 -32.4234 0.0000 -6.5449
# 5 -5.1589 -6.2552 8.1878 0.0000 44.2147 0.0000
# 6 0.0000 0.0000 0.0000 -6.5449 0.0000 25.6000
#
#
#
# Elastic Compliance Matrix: (Units=1/GPa)
#
#
# Indices 1 2 3 4 5 6 
#
# 1 0.007679 0.000902 -0.003329 0.000000 0.001640 0.000000
# 2 0.000902 0.022014 -0.003427 0.000000 0.003854 0.000000
# 3 -0.003329 -0.003427 0.007920 0.000000 -0.002340 0.000000
# 4 0.000000 0.000000 0.000000 -0.029328 0.000000 -0.007498
# 5 0.001640 0.003854 -0.002340 0.000000 0.023787 0.000000
# 6 0.000000 0.000000 0.000000 -0.007498 0.000000 0.037145
#
#
# Mechanical properties :
#
#
# Convention : Reuss Voigt Hill
#
# Bulk Modulus (GPa) = 38.60543 62.86162 50.73352
# Shear Modulus (GPa) = 55.82884 26.27607 41.05245
#
# Velocity S-wave (km/s) = 5.35110 3.67108 4.58864
# Velocity P-wave (km/s) = 7.61443 7.08594 7.35493
#
# Compressibility (1/GPa) = 0.02590309
#
# Stress axis : x y z
#
# Youngs Moduli (GPa) = 130.22490 45.42661 126.26941
#
# Poissons Ratio (x) = -0.04097 0.42035
# Poissons Ratio (y) = -0.11744 0.43277
# Poissons Ratio (z) = 0.43352 0.15569
#
# Static dielectric constant tensor:
#      x y z
#    x 3.560790 0.000000 -0.072520 
#    y 0.000000 3.497260 0.000000 
#    z -0.072520 0.000000 3.635090 
# 
# 
# High freq. dielectric constant tensor:
#      x y z
#    x 1.768720 0.000000 -0.002550 
#    y 0.000000 1.747020 0.000000 
#    z -0.002550 0.000000 1.780230 
# 
# From -- ./inp_files/13370.got.cif
#   From: 2010.06.25/outbox.cif.g09.slc.cpg/sg13_7_cif.got.tgz:13370.got - 2010.06.28 04:50:58.
