data_PCOD8120595
_publ_section_title
;
Structure prediction by ZEFSAII (Michael W. Deem and Ramdas Pophale) SiO2 
 PCOD8120595
Probable space group: P 2/C
;
_chemical_formula_sum "Si O2"
_cell_formula_units_Z 26
_cell_length_a 8.376576
_cell_length_b 8.988071
_cell_length_c 23.839379
_cell_angle_alpha 90.000000
_cell_angle_beta 136.955797
_cell_angle_gamma 90.000000
_cell_volume 1225.096555
_symmetry_space_group_name_H-M "P 2/C"
_symmetry_group_IT_number 13
_symmetry_cell_setting 'monoclinic'
loop_
_space_group_symop_operation_xyz
x,y,z
-x,y,1/2-z
-x,-y,-z
x,-y,1/2+z
loop_
_atom_site_type_symbol
_atom_site_label
_atom_site_fract_x
_atom_site_fract_y
_atom_site_fract_z
Si Si1 0.456162 0.426307 0.303680
Si Si2 0.824250 0.108695 0.122791
Si Si3 0.000000 0.654604 0.750000
Si Si4 0.730234 0.270200 0.890005
Si Si5 0.412649 0.070352 0.549203
Si Si6 0.788958 0.198789 0.444366
Si Si7 0.245061 0.993134 0.670062
O O1 0.500000 0.377114 0.250000
O O2 0.588406 0.581800 0.342906
O O3 0.577563 0.306247 0.374671
O O4 0.183963 0.437401 0.256417
O O5 0.835154 0.248220 0.167130
O O6 0.684149 0.968343 0.110940
O O7 0.698791 0.157199 0.032289
O O8 0.087146 0.049001 0.182371
O O9 0.583934 0.172451 0.895874
O O10 0.750134 0.171413 0.838487
O O11 0.990238 0.299942 0.980905
O O12 0.281272 0.910869 0.522881
O O13 0.861585 0.091648 0.411437
O O14 0.500000 0.930813 0.750000
#
# Coordination Sequence:
#
# PCOD8120595 Si02
#       7
#     4   4   2   4   4   4   4
#     4  12  27  47  67  95 142 188 225 271 341 413
#     4  11  21  40  68 100 131 165 221 284 338 398
#     4  12  26  46  68 102 136 184 228 272 340 424
#     4  11  23  43  63 100 132 177 227 275 335 402
#     4  10  21  40  69 101 129 163 224 287 337 390
#     4  11  19  43  68  95 128 173 230 272 324 410
#     4  11  21  37  68  99 129 169 221 277 341 394
#
# _framework density 21.222819000000001
#
# number of rings (size 3 to 8) (size 9 to 14) (size 15 to 20)
#    0.000    0.923    4.615    4.154    2.154    0.000 
#    5.538    0.769    0.000    0.000    0.000    0.000 
#    0.000    0.000    0.000    0.000    0.000    0.000 
#
# Total GULP energy -322280.530658 kJ/mol
# GULP energy per Si atom -12395.405025 kJ/mol
# Density = 2.117451 g / cm^3
# Si number density = 21.222819 Si / 1000 Ang^3
#
#
#
# Elastic Constant Matrix: (Units=GPa)
#
#
# Indices 1 2 3 4 5 6 
#
# 1 127.1982 13.1954 29.9165 0.0000 20.9450 0.0000
# 2 13.1954 77.3077 21.8262 0.0000 -1.6657 0.0000
# 3 29.9165 21.8262 86.7539 0.0000 13.9312 0.0000
# 4 0.0000 0.0000 0.0000 33.5042 0.0000 6.3198
# 5 20.9450 -1.6657 13.9312 0.0000 36.7619 0.0000
# 6 0.0000 0.0000 0.0000 6.3198 0.0000 24.1822
#
#
#
# Elastic Compliance Matrix: (Units=1/GPa)
#
#
# Indices 1 2 3 4 5 6 
#
# 1 0.009224 -0.001050 -0.002199 0.000000 -0.004469 0.000000
# 2 -0.001050 0.014196 -0.003630 0.000000 0.002617 0.000000
# 3 -0.002199 -0.003630 0.013867 0.000000 -0.004167 0.000000
# 4 0.000000 0.000000 0.000000 0.031395 0.000000 -0.008205
# 5 -0.004469 0.002617 -0.004167 0.000000 0.031446 0.000000
# 6 0.000000 0.000000 0.000000 -0.008205 0.000000 0.043497
#
#
# Mechanical properties :
#
#
# Convention : Reuss Voigt Hill
#
# Bulk Modulus (GPa) = 42.49882 46.79290 44.64586
# Shear Modulus (GPa) = 30.26178 33.97777 32.11977
#
# Velocity S-wave (km/s) = 3.78022 4.00559 3.89453
# Velocity P-wave (km/s) = 6.25475 6.59464 6.42694
#
# Compressibility (1/GPa) = 0.02353007
#
# Stress axis : x y z
#
# Youngs Moduli (GPa) = 108.41526 70.44415 72.11146
#
# Poissons Ratio (x) = 0.07396 0.15857
# Poissons Ratio (y) = 0.11382 0.26174
# Poissons Ratio (z) = 0.23839 0.25569
#
# Static dielectric constant tensor:
#      x y z
#    x 4.176250 0.000000 0.064320 
#    y 0.000000 3.564250 0.000000 
#    z 0.064320 0.000000 3.865600 
# 
# 
# High freq. dielectric constant tensor:
#      x y z
#    x 1.845660 0.000000 0.008370 
#    y 0.000000 1.799270 0.000000 
#    z 0.008370 0.000000 1.840840 
# 
# From -- ./inp_files/63732.got.cif
#   From: 2010.06.25/outbox.cif.g09.slc.cpg/sg13_32_cif.got.tgz:63732.got - 2010.06.28 04:50:58.
