data_PCOD8120681
_publ_section_title
;
Structure prediction by ZEFSAII (Michael W. Deem and Ramdas Pophale) SiO2 
 PCOD8120681
Probable space group: P 2/C
;
_chemical_formula_sum "Si O2"
_cell_formula_units_Z 28
_cell_length_a 13.500491
_cell_length_b 6.035270
_cell_length_c 18.345078
_cell_angle_alpha 90.000000
_cell_angle_beta 58.955726
_cell_angle_gamma 90.000000
_cell_volume 1280.647498
_symmetry_space_group_name_H-M "P 2/C"
_symmetry_group_IT_number 13
_symmetry_cell_setting 'monoclinic'
loop_
_space_group_symop_operation_xyz
x,y,z
-x,y,1/2-z
-x,-y,-z
x,-y,1/2+z
loop_
_atom_site_type_symbol
_atom_site_label
_atom_site_fract_x
_atom_site_fract_y
_atom_site_fract_z
Si Si1 0.833983 0.186024 0.497310
Si Si2 0.626352 0.498676 0.540664
Si Si3 0.736861 0.050688 0.748205
Si Si4 0.432782 0.808966 0.066482
Si Si5 0.032156 0.765060 0.820293
Si Si6 0.706031 0.804825 0.623118
Si Si7 0.859490 0.429832 0.626922
O O1 0.749204 0.375504 0.498317
O O2 0.902253 0.270609 0.544679
O O3 0.926967 0.111960 0.401487
O O4 0.757960 0.973320 0.544436
O O5 0.627511 0.637792 0.465576
O O6 0.521037 0.325972 0.584300
O O7 0.608880 0.662470 0.617142
O O8 0.662548 0.066710 0.849199
O O9 0.766375 0.298057 0.710813
O O10 0.853257 0.913821 0.720017
O O11 0.661068 0.933387 0.712489
O O12 0.500000 0.000000 0.000000
O O13 0.042527 0.523484 0.855850
O O14 0.000000 0.717408 0.750000
O O15 0.806791 0.645435 0.610604
#
# Coordination Sequence:
#
# PCOD8120681 Si02
#       7
#     4   4   4   4   4   4   4
#     4  10  21  41  66  96 132 173 215 265 319 388
#     4  10  23  40  68  94 124 176 217 261 328 386
#     4  10  24  43  64  95 133 168 216 272 325 378
#     4  11  25  44  67  92 131 173 212 274 327 385
#     4  11  25  36  63 100 135 175 213 266 322 391
#     4   9  20  42  68  93 127 166 217 267 313 388
#     4   9  21  42  63  93 130 172 216 260 317 381
#
# _framework density 21.863942000000002
#
# number of rings (size 3 to 8) (size 9 to 14) (size 15 to 20)
#    0.000    2.000    0.000    1.286    6.000   11.429 
#    0.000   17.143    0.000    0.000    0.000    0.000 
#    0.000    0.000    0.000    0.000    0.000    0.000 
#
# Total GULP energy -347098.760813 kJ/mol
# GULP energy per Si atom -12396.384315 kJ/mol
# Density = 2.181418 g / cm^3
# Si number density = 21.863942 Si / 1000 Ang^3
#
#
#
# Elastic Constant Matrix: (Units=GPa)
#
#
# Indices 1 2 3 4 5 6 
#
# 1 111.4693 49.5082 53.7461 0.0000 17.1852 0.0000
# 2 49.5082 110.4316 42.4616 0.0000 6.9597 0.0000
# 3 53.7461 42.4616 132.9095 0.0000 0.3709 0.0000
# 4 0.0000 0.0000 0.0000 27.2676 0.0000 11.0693
# 5 17.1852 6.9597 0.3709 0.0000 32.8260 0.0000
# 6 0.0000 0.0000 0.0000 11.0693 0.0000 33.9037
#
#
#
# Elastic Compliance Matrix: (Units=1/GPa)
#
#
# Indices 1 2 3 4 5 6 
#
# 1 0.013848 -0.004177 -0.004248 0.000000 -0.006316 0.000000
# 2 -0.004177 0.011738 -0.002060 0.000000 -0.000279 0.000000
# 3 -0.004248 -0.002060 0.009893 0.000000 0.002549 0.000000
# 4 0.000000 0.000000 0.000000 0.042277 0.000000 -0.013803
# 5 -0.006316 -0.000279 0.002549 0.000000 0.033801 0.000000
# 6 0.000000 0.000000 0.000000 -0.013803 0.000000 0.034002
#
#
# Mechanical properties :
#
#
# Convention : Reuss Voigt Hill
#
# Bulk Modulus (GPa) = 68.92388 71.80470 70.36429
# Shear Modulus (GPa) = 29.17765 32.73908 30.95836
#
# Velocity S-wave (km/s) = 3.65706 3.87382 3.76700
# Velocity P-wave (km/s) = 7.03026 7.27472 7.15353
#
# Compressibility (1/GPa) = 0.01450876
#
# Stress axis : x y z
#
# Youngs Moduli (GPa) = 72.21163 85.19601 101.08460
#
# Poissons Ratio (x) = 0.35586 0.42939
# Poissons Ratio (y) = 0.30162 0.20824
# Poissons Ratio (z) = 0.30675 0.17551
#
# Static dielectric constant tensor:
#      x y z
#    x 4.065530 0.000000 0.422680 
#    y 0.000000 4.238360 0.000000 
#    z 0.422680 0.000000 3.866260 
# 
# 
# High freq. dielectric constant tensor:
#      x y z
#    x 1.852490 0.000000 0.025450 
#    y 0.000000 1.875280 0.000000 
#    z 0.025450 0.000000 1.849230 
# 
# From -- ./inp_files/67477.got.cif
#   From: 2010.06.25/outbox.cif.g09.slc.cpg/sg13_34_cif.got.tgz:67477.got - 2010.06.28 04:50:58.
