data_PCOD8120141
_publ_section_title
;
Structure prediction by ZEFSAII (Michael W. Deem and Ramdas Pophale) SiO2 
 PCOD8120141
Probable space group: P 2/C
;
_chemical_formula_sum "Si O2"
_cell_formula_units_Z 26
_cell_length_a 11.261935
_cell_length_b 9.457699
_cell_length_c 16.675504
_cell_angle_alpha 90.000000
_cell_angle_beta 137.761175
_cell_angle_gamma 90.000000
_cell_volume 1193.961898
_symmetry_space_group_name_H-M "P 2/C"
_symmetry_group_IT_number 13
_symmetry_cell_setting 'monoclinic'
loop_
_space_group_symop_operation_xyz
x,y,z
-x,y,1/2-z
-x,-y,-z
x,-y,1/2+z
loop_
_atom_site_type_symbol
_atom_site_label
_atom_site_fract_x
_atom_site_fract_y
_atom_site_fract_z
Si Si1 0.563962 0.462355 0.691559
Si Si2 0.715100 0.178813 0.726919
Si Si3 0.883296 0.126416 0.974191
Si Si4 0.000000 0.750000 0.250000
Si Si5 0.715101 0.321187 0.488182
Si Si6 0.883296 0.626416 0.909105
Si Si7 0.563963 0.962356 0.872404
O O1 0.500000 0.424858 0.750000
O O2 0.604505 0.323574 0.658544
O O3 0.407271 0.541627 0.566670
O O4 0.734934 0.565024 0.775744
O O5 0.791477 0.202921 0.853538
O O6 0.592728 0.041627 0.659399
O O7 0.873001 0.154890 0.742338
O O8 0.734934 0.065025 0.959189
O O9 0.000000 0.250000 0.075573
O O10 0.000000 0.000000 0.000000
O O11 0.126997 0.654890 0.369337
O O12 0.791477 0.297079 0.437939
O O13 0.604507 0.176426 0.445962
O O14 0.000000 0.500000 0.000000
O O15 0.500000 0.924858 0.750000
#
# Coordination Sequence:
#
# PCOD8120141 Si02
#       7
#     4   4   4   2   4   4   4
#     4  10  21  37  62  94 120 147 196 254 312 353
#     4  11  23  39  61  88 121 164 196 248 300 360
#     4  11  19  34  60  94 123 151 191 244 308 354
#     4  12  24  44  60  78 122 168 212 240 288 368
#     4  11  23  39  61  88 121 164 196 248 300 360
#     4  11  19  34  60  94 123 151 191 244 308 354
#     4  10  21  37  62  94 120 147 196 254 312 353
#
# _framework density 21.776240999999999
#
# number of rings (size 3 to 8) (size 9 to 14) (size 15 to 20)
#    0.000    1.231    4.615    2.769    4.308    1.231 
#    0.000    0.000    0.000    1.846    0.000    0.000 
#    0.000    0.000    0.000    0.000    0.000    0.000 
#
# Total GULP energy -322373.603804 kJ/mol
# GULP energy per Si atom -12398.984762 kJ/mol
# Density = 2.172668 g / cm^3
# Si number density = 21.776241 Si / 1000 Ang^3
#
#
#
# Elastic Constant Matrix: (Units=GPa)
#
#
# Indices 1 2 3 4 5 6 
#
# 1 84.2052 32.2468 19.1813 0.0000 25.9639 0.0000
# 2 32.2468 120.0293 42.9672 0.0000 15.8631 0.0000
# 3 19.1813 42.9672 113.8482 0.0000 17.8980 0.0000
# 4 0.0000 0.0000 0.0000 30.7136 0.0000 15.1259
# 5 25.9639 15.8631 17.8980 0.0000 29.3503 0.0000
# 6 0.0000 0.0000 0.0000 15.1259 0.0000 20.4910
#
#
#
# Elastic Compliance Matrix: (Units=1/GPa)
#
#
# Indices 1 2 3 4 5 6 
#
# 1 0.017178 -0.002923 0.000387 0.000000 -0.013852 0.000000
# 2 -0.002923 0.010429 -0.003278 0.000000 -0.001052 0.000000
# 3 0.000387 -0.003278 0.010763 0.000000 -0.005133 0.000000
# 4 0.000000 0.000000 0.000000 0.051156 0.000000 -0.037762
# 5 -0.013852 -0.001052 -0.005133 0.000000 0.050024 0.000000
# 6 0.000000 0.000000 0.000000 -0.037762 0.000000 0.076677
#
#
# Mechanical properties :
#
#
# Convention : Reuss Voigt Hill
#
# Bulk Modulus (GPa) = 37.39545 56.31926 46.85736
# Shear Modulus (GPa) = 21.11760 31.02347 26.07053
#
# Velocity S-wave (km/s) = 3.11747 3.77855 3.46381
# Velocity P-wave (km/s) = 5.49254 6.70488 6.12876
#
# Compressibility (1/GPa) = 0.02674122
#
# Stress axis : x y z
#
# Youngs Moduli (GPa) = 58.21347 95.88601 92.91326
#
# Poissons Ratio (x) = 0.28025 -0.03591
# Poissons Ratio (y) = 0.17014 0.30459
# Poissons Ratio (z) = -0.02250 0.31433
#
# Static dielectric constant tensor:
#      x y z
#    x 3.835360 0.000000 0.530420 
#    y 0.000000 3.882510 0.000000 
#    z 0.530420 0.000000 4.193810 
# 
# 
# High freq. dielectric constant tensor:
#      x y z
#    x 1.822570 0.000000 0.044120 
#    y 0.000000 1.857510 0.000000 
#    z 0.044120 0.000000 1.852380 
# 
# From -- ./inp_files/78325.got.cif
#   From: 2010.06.25/outbox.cif.g09.slc.cpg/sg13_40_cif.got.tgz:78325.got - 2010.06.28 04:50:58.
