data_PCOD8120097
_publ_section_title
;
Structure prediction by ZEFSAII (Michael W. Deem and Ramdas Pophale) SiO2 
 PCOD8120097
Probable space group: P 2/C
;
_chemical_formula_sum "Si O2"
_cell_formula_units_Z 30
_cell_length_a 14.540985
_cell_length_b 12.498398
_cell_length_c 8.585998
_cell_angle_alpha 90.000000
_cell_angle_beta 105.368344
_cell_angle_gamma 90.000000
_cell_volume 1504.613637
_symmetry_space_group_name_H-M "P 2/C"
_symmetry_group_IT_number 13
_symmetry_cell_setting 'monoclinic'
loop_
_space_group_symop_operation_xyz
x,y,z
-x,y,1/2-z
-x,-y,-z
x,-y,1/2+z
loop_
_atom_site_type_symbol
_atom_site_label
_atom_site_fract_x
_atom_site_fract_y
_atom_site_fract_z
Si Si1 0.964698 0.357243 0.067386
Si Si2 0.716463 0.500226 0.122892
Si Si3 0.849438 0.442621 0.431763
Si Si4 0.667506 0.129945 0.913254
Si Si5 0.107671 0.874566 0.015702
Si Si6 0.568746 0.950680 0.657309
Si Si7 0.000000 0.036496 0.750000
Si Si8 0.390982 0.368479 0.667971
O O1 0.000000 0.401642 0.250000
O O2 0.061630 0.362147 0.005790
O O3 0.884505 0.433653 0.958902
O O4 0.926199 0.238589 0.064740
O O5 0.797540 0.426874 0.241693
O O6 0.668915 0.579351 0.222108
O O7 0.769061 0.578674 0.024766
O O8 0.639698 0.421679 0.009263
O O9 0.779215 0.121887 0.934919
O O10 0.626977 0.242750 0.839796
O O11 0.620860 0.040792 0.782475
O O12 0.644247 0.118076 0.089391
O O13 0.070295 0.965999 0.885234
O O14 0.066805 0.890032 0.171300
O O15 0.500000 0.885103 0.750000
O O16 0.500000 0.000000 0.500000
O O17 0.500000 0.393821 0.750000
#
# Coordination Sequence:
#
# PCOD8120097 Si02
#       8
#     4   4   4   4   4   4   2   4
#     4  11  21  36  62  86 122 154 195 249 299 344
#     4  10  21  39  60  86 119 157 201 245 290 360
#     4  10  21  37  59  90 116 151 200 247 295 342
#     4  11  22  39  66  89 120 154 201 249 299 363
#     4  11  22  39  60  85 121 164 201 239 295 349
#     4   9  19  39  64  92 116 145 192 256 311 351
#     4  10  24  40  56  84 126 164 200 242 286 354
#     4  11  23  40  61  86 122 160 197 247 305 357
#
# _framework density 19.938673000000001
#
# number of rings (size 3 to 8) (size 9 to 14) (size 15 to 20)
#    0.000    1.600    2.000    4.000    0.000    2.133 
#    0.000    8.667    0.000    0.000    0.000    0.000 
#    0.000    0.000    0.000    0.000    0.000    0.000 
#
# Total GULP energy -371879.999599 kJ/mol
# GULP energy per Si atom -12395.999987 kJ/mol
# Density = 1.989329 g / cm^3
# Si number density = 19.938673 Si / 1000 Ang^3
#
#
#
# Elastic Constant Matrix: (Units=GPa)
#
#
# Indices 1 2 3 4 5 6 
#
# 1 130.6135 30.6867 53.2315 0.0000 1.8748 0.0000
# 2 30.6867 68.8211 24.6091 0.0000 3.8766 0.0000
# 3 53.2315 24.6091 112.5478 0.0000 4.6896 0.0000
# 4 0.0000 0.0000 0.0000 28.4296 0.0000 2.3661
# 5 1.8748 3.8766 4.6896 0.0000 33.3416 0.0000
# 6 0.0000 0.0000 0.0000 2.3661 0.0000 35.6140
#
#
#
# Elastic Compliance Matrix: (Units=1/GPa)
#
#
# Indices 1 2 3 4 5 6 
#
# 1 0.010033 -0.003029 -0.004098 0.000000 0.000364 0.000000
# 2 -0.003029 0.016738 -0.002166 0.000000 -0.001471 0.000000
# 3 -0.004098 -0.002166 0.011343 0.000000 -0.001113 0.000000
# 4 0.000000 0.000000 0.000000 0.035370 0.000000 -0.002350
# 5 0.000364 -0.001471 -0.001113 0.000000 0.030300 0.000000
# 6 0.000000 0.000000 0.000000 -0.002350 0.000000 0.028235
#
#
# Mechanical properties :
#
#
# Convention : Reuss Voigt Hill
#
# Bulk Modulus (GPa) = 51.20686 58.78189 54.99437
# Shear Modulus (GPa) = 31.82393 33.04072 32.43233
#
# Velocity S-wave (km/s) = 3.99944 4.07519 4.03749
# Velocity P-wave (km/s) = 6.86042 7.18945 7.02686
#
# Compressibility (1/GPa) = 0.01952863
#
# Stress axis : x y z
#
# Youngs Moduli (GPa) = 99.67434 59.74319 88.15694
#
# Poissons Ratio (x) = 0.18094 0.36128
# Poissons Ratio (y) = 0.30187 0.19096
# Poissons Ratio (z) = 0.40847 0.12941
#
# Static dielectric constant tensor:
#      x y z
#    x 4.168750 0.000000 -0.138830 
#    y 0.000000 3.273810 0.000000 
#    z -0.138830 0.000000 4.053650 
# 
# 
# High freq. dielectric constant tensor:
#      x y z
#    x 1.802950 0.000000 -0.000740 
#    y 0.000000 1.747640 0.000000 
#    z -0.000740 0.000000 1.791970 
# 
# From -- ./inp_files/19087.got.cif
#   From: 2010.06.25/outbox.cif.g09.slc.cpg/sg13_10_cif.got.tgz:19087.got - 2010.06.28 04:50:58.
