data_PCOD8120733
_publ_section_title
;
Structure prediction by ZEFSAII (Michael W. Deem and Ramdas Pophale) SiO2 
 PCOD8120733
Probable space group: P 2/C
;
_chemical_formula_sum "Si O2"
_cell_formula_units_Z 24
_cell_length_a 8.583487
_cell_length_b 16.740657
_cell_length_c 14.663180
_cell_angle_alpha 90.000000
_cell_angle_beta 33.361328
_cell_angle_gamma 90.000000
_cell_volume 1158.675081
_symmetry_space_group_name_H-M "P 2/C"
_symmetry_group_IT_number 13
_symmetry_cell_setting 'monoclinic'
loop_
_space_group_symop_operation_xyz
x,y,z
-x,y,1/2-z
-x,-y,-z
x,-y,1/2+z
loop_
_atom_site_type_symbol
_atom_site_label
_atom_site_fract_x
_atom_site_fract_y
_atom_site_fract_z
Si Si1 0.149516 0.083295 0.323041
Si Si2 0.453876 0.309288 0.546630
Si Si3 0.794526 0.932186 0.498793
Si Si4 0.404542 0.403671 0.393115
Si Si5 0.000000 0.186897 0.750000
Si Si6 0.164423 0.541600 0.263198
Si Si7 0.000000 0.215204 0.250000
O O1 0.093821 0.099533 0.457669
O O2 0.107706 0.161712 0.281786
O O3 0.463382 0.049102 0.159363
O O4 0.938950 0.013738 0.394043
O O5 0.403231 0.331948 0.465665
O O6 0.237457 0.240641 0.681621
O O7 0.386505 0.385253 0.643327
O O8 0.766446 0.274463 0.406426
O O9 0.854230 0.863520 0.398920
O O10 0.500000 0.367199 0.250000
O O11 0.642401 0.468204 0.303123
O O12 0.085558 0.440203 0.541687
O O13 0.000000 0.522421 0.250000
#
# Coordination Sequence:
#
# PCOD8120733 Si02
#       7
#     4   4   4   4   2   4   2
#     4  10  23  43  62  94 119 165 207 254 300 365
#     4  11  24  40  61  88 126 161 203 248 312 367
#     4  10  23  41  67  87 126 160 209 252 303 363
#     4  11  23  40  66  91 121 158 207 252 302 361
#     4  12  21  42  63  88 124 172 194 252 313 370
#     4  10  21  42  63  88 120 162 202 245 304 368
#     4  12  25  40  65  92 124 164 210 250 313 368
#
# _framework density 20.713311999999998
#
# number of rings (size 3 to 8) (size 9 to 14) (size 15 to 20)
#    0.000    1.333    4.167    3.000    5.833    2.667 
#    0.000    0.000    0.000    0.000    0.000    0.000 
#    0.000    0.000    0.000    0.000    0.000    0.000 
#
# Total GULP energy -297585.731610 kJ/mol
# GULP energy per Si atom -12399.405484 kJ/mol
# Density = 2.066617 g / cm^3
# Si number density = 20.713312 Si / 1000 Ang^3
#
#
#
# Elastic Constant Matrix: (Units=GPa)
#
#
# Indices 1 2 3 4 5 6 
#
# 1 44.9356 19.2647 17.1295 0.0000 -8.9282 0.0000
# 2 19.2647 63.2478 15.8609 0.0000 -8.2468 0.0000
# 3 17.1295 15.8609 102.6432 0.0000 -11.1260 0.0000
# 4 0.0000 0.0000 0.0000 80.7518 0.0000 -25.1027
# 5 -8.9282 -8.2468 -11.1260 0.0000 41.5942 0.0000
# 6 0.0000 0.0000 0.0000 -25.1027 0.0000 30.8646
#
#
#
# Elastic Compliance Matrix: (Units=1/GPa)
#
#
# Indices 1 2 3 4 5 6 
#
# 1 0.027151 -0.007033 -0.003052 0.000000 0.003617 0.000000
# 2 -0.007033 0.018560 -0.001503 0.000000 0.001768 0.000000
# 3 -0.003052 -0.001503 0.010691 0.000000 0.001907 0.000000
# 4 0.000000 0.000000 0.000000 0.016574 0.000000 0.013480
# 5 0.003617 0.001768 0.001907 0.000000 0.025679 0.000000
# 6 0.000000 0.000000 0.000000 0.013480 0.000000 0.043363
#
#
# Mechanical properties :
#
#
# Convention : Reuss Voigt Hill
#
# Bulk Modulus (GPa) = 30.09631 35.03743 32.56687
# Shear Modulus (GPa) = 28.36558 41.21356 34.78957
#
# Velocity S-wave (km/s) = 3.70461 4.46546 4.10271
# Velocity P-wave (km/s) = 5.73239 6.59843 6.18060
#
# Compressibility (1/GPa) = 0.03322666
#
# Stress axis : x y z
#
# Youngs Moduli (GPa) = 36.83042 53.87814 93.53909
#
# Poissons Ratio (x) = 0.37893 0.28551
# Poissons Ratio (y) = 0.25903 0.14056
# Poissons Ratio (z) = 0.11242 0.08096
#
# Static dielectric constant tensor:
#      x y z
#    x 3.599210 0.000000 -0.008650 
#    y 0.000000 3.697250 0.000000 
#    z -0.008650 0.000000 4.172970 
# 
# 
# High freq. dielectric constant tensor:
#      x y z
#    x 1.790770 0.000000 -0.007230 
#    y 0.000000 1.807480 0.000000 
#    z -0.007230 0.000000 1.837050 
# 
# From -- ./inp_files/48056.got.cif
#   From: 2010.06.25/outbox.cif.g09.slc.cpg/sg13_25_cif.got.tgz:48056.got - 2010.06.28 04:50:58.
