data_PCOD8120250
_publ_section_title
;
Structure prediction by ZEFSAII (Michael W. Deem and Ramdas Pophale) SiO2 
 PCOD8120250
Probable space group: P 2/C
;
_chemical_formula_sum "Si O2"
_cell_formula_units_Z 26
_cell_length_a 10.154903
_cell_length_b 10.826918
_cell_length_c 16.559577
_cell_angle_alpha 90.000000
_cell_angle_beta 136.485450
_cell_angle_gamma 90.000000
_cell_volume 1253.597907
_symmetry_space_group_name_H-M "P 2/C"
_symmetry_group_IT_number 13
_symmetry_cell_setting 'monoclinic'
loop_
_space_group_symop_operation_xyz
x,y,z
-x,y,1/2-z
-x,-y,-z
x,-y,1/2+z
loop_
_atom_site_type_symbol
_atom_site_label
_atom_site_fract_x
_atom_site_fract_y
_atom_site_fract_z
Si Si1 0.754775 0.974961 0.676453
Si Si2 0.141051 0.403814 0.460518
Si Si3 0.424600 0.039116 0.632221
Si Si4 0.086878 0.919204 0.409627
Si Si5 0.476118 0.324584 0.827986
Si Si6 0.000000 0.249532 0.250000
Si Si7 0.944674 0.659273 0.394963
O O1 0.534833 0.976366 0.605414
O O2 0.800494 0.072258 0.625605
O O3 0.878024 0.018890 0.809219
O O4 0.812435 0.836797 0.675226
O O5 0.372721 0.398777 0.547773
O O6 0.024619 0.331872 0.340256
O O7 0.099795 0.341637 0.529288
O O8 0.072833 0.544060 0.426557
O O9 0.500000 0.985782 0.750000
O O10 0.453366 0.184259 0.639039
O O11 0.203542 0.000606 0.526781
O O12 0.071014 0.778701 0.431336
O O13 0.500000 0.382376 0.750000
O O14 0.250006 0.338560 0.747009
#
# Coordination Sequence:
#
# PCOD8120250 Si02
#       7
#     4   4   4   4   4   2   4
#     4  10  22  40  58  94 124 163 196 258 322 361
#     4  10  22  40  63  89 122 170 206 258 308 355
#     4  11  22  36  63  94 120 165 199 250 318 372
#     4  10  21  38  61  88 124 158 200 255 300 372
#     4   9  18  38  61  88 119 157 208 256 306 360
#     4  10  22  40  60  90 134 158 196 258 320 366
#     4  10  21  41  66  88 120 166 219 254 291 372
#
# _framework density 20.740303000000001
#
# number of rings (size 3 to 8) (size 9 to 14) (size 15 to 20)
#    0.000    2.154    1.538    2.308    2.154    1.846 
#    2.769    1.538    0.000    0.000    0.000    0.000 
#    0.000    0.000    0.000    0.000    0.000    0.000 
#
# Total GULP energy -322252.962057 kJ/mol
# GULP energy per Si atom -12394.344694 kJ/mol
# Density = 2.069310 g / cm^3
# Si number density = 20.740303 Si / 1000 Ang^3
#
#
#
# Elastic Constant Matrix: (Units=GPa)
#
#
# Indices 1 2 3 4 5 6 
#
# 1 49.0115 34.1549 27.1433 0.0000 5.7082 0.0000
# 2 34.1549 119.6771 65.3298 0.0000 5.4421 0.0000
# 3 27.1433 65.3298 116.1743 0.0000 11.5985 0.0000
# 4 0.0000 0.0000 0.0000 31.6842 0.0000 1.1086
# 5 5.7082 5.4421 11.5985 0.0000 33.3901 0.0000
# 6 0.0000 0.0000 0.0000 1.1086 0.0000 25.1616
#
#
#
# Elastic Compliance Matrix: (Units=1/GPa)
#
#
# Indices 1 2 3 4 5 6 
#
# 1 0.026288 -0.006022 -0.002491 0.000000 -0.002647 0.000000
# 2 -0.006022 0.013442 -0.006253 0.000000 0.001011 0.000000
# 3 -0.002491 -0.006253 0.013013 0.000000 -0.003075 0.000000
# 4 0.000000 0.000000 0.000000 0.031610 0.000000 -0.001393
# 5 -0.002647 0.001011 -0.003075 0.000000 0.031305 0.000000
# 6 0.000000 0.000000 0.000000 -0.001393 0.000000 0.039804
#
#
# Mechanical properties :
#
#
# Convention : Reuss Voigt Hill
#
# Bulk Modulus (GPa) = 43.08366 59.79097 51.43731
# Shear Modulus (GPa) = 25.94280 28.59618 27.26949
#
# Velocity S-wave (km/s) = 3.54056 3.71721 3.62996
# Velocity P-wave (km/s) = 6.12634 6.87856 6.51332
#
# Compressibility (1/GPa) = 0.02321065
#
# Stress axis : x y z
#
# Youngs Moduli (GPa) = 38.04013 74.39470 76.84589
#
# Poissons Ratio (x) = 0.44801 0.19144
# Poissons Ratio (y) = 0.22908 0.48050
# Poissons Ratio (z) = 0.09477 0.46517
#
# Static dielectric constant tensor:
#      x y z
#    x 3.638530 0.000000 0.126160 
#    y 0.000000 3.503300 0.000000 
#    z 0.126160 0.000000 4.146330 
# 
# 
# High freq. dielectric constant tensor:
#      x y z
#    x 1.793080 0.000000 0.008040 
#    y 0.000000 1.791640 0.000000 
#    z 0.008040 0.000000 1.830970 
# 
# From -- ./inp_files/66536.got.cif
#   From: 2010.06.25/outbox.cif.g09.slc.cpg/sg13_34_cif.got.tgz:66536.got - 2010.06.28 04:50:58.
