data_PCOD8120656
_publ_section_title
;
Structure prediction by ZEFSAII (Michael W. Deem and Ramdas Pophale) SiO2 
 PCOD8120656
Probable space group: P 2/C
;
_chemical_formula_sum "Si O2"
_cell_formula_units_Z 30
_cell_length_a 25.453779
_cell_length_b 10.065373
_cell_length_c 14.336878
_cell_angle_alpha 90.000000
_cell_angle_beta 24.204788
_cell_angle_gamma 90.000000
_cell_volume 1505.982065
_symmetry_space_group_name_H-M "P 2/C"
_symmetry_group_IT_number 13
_symmetry_cell_setting 'monoclinic'
loop_
_space_group_symop_operation_xyz
x,y,z
-x,y,1/2-z
-x,-y,-z
x,-y,1/2+z
loop_
_atom_site_type_symbol
_atom_site_label
_atom_site_fract_x
_atom_site_fract_y
_atom_site_fract_z
Si Si1 0.273552 0.958763 0.543813
Si Si2 0.832581 0.175150 0.115542
Si Si3 0.870851 0.827416 0.339757
Si Si4 0.693839 0.404901 0.101407
Si Si5 0.361186 0.307769 0.814680
Si Si6 0.635726 0.391938 0.410761
Si Si7 0.578277 0.677244 0.498587
Si Si8 0.500000 0.890644 0.750000
O O1 0.223638 0.943715 0.730951
O O2 0.280665 0.816406 0.482058
O O3 0.172136 0.049157 0.653147
O O4 0.415634 0.020998 0.315656
O O5 0.748557 0.306697 0.275068
O O6 0.820636 0.141108 0.025553
O O7 0.978546 0.197137 0.907973
O O8 0.815699 0.689251 0.388688
O O9 0.720789 0.558384 0.029937
O O10 0.650630 0.405817 0.277420
O O11 0.573994 0.344200 0.240855
O O12 0.496511 0.322769 0.651135
O O13 0.379959 0.289184 0.673848
O O14 0.644644 0.544100 0.433586
O O15 0.603575 0.805143 0.522271
#
# Coordination Sequence:
#
# PCOD8120656 Si02
#       8
#     4   4   4   4   4   4   4   2
#     4  12  24  36  55  90 119 155 193 240 281 345
#     4  10  22  39  61  85 111 158 204 226 285 345
#     4  10  21  41  64  77 117 160 191 242 281 336
#     4   8  15  36  59  83 106 151 187 235 297 342
#     4   9  19  34  60  83 117 142 184 244 301 338
#     4   8  16  34  60  84 111 143 190 242 289 346
#     4   9  18  34  55  86 115 146 182 239 301 337
#     4  12  24  32  54  90 120 152 192 228 292 356
#
# _framework density 19.920556000000001
#
# number of rings (size 3 to 8) (size 9 to 14) (size 15 to 20)
#    0.000    2.400    1.333    2.800    1.867    2.667 
#    0.000    0.667    2.933    1.600    0.000    0.000 
#    0.000    0.000    0.000    0.000    0.000    0.000 
#
# Total GULP energy -371841.887737 kJ/mol
# GULP energy per Si atom -12394.729591 kJ/mol
# Density = 1.987522 g / cm^3
# Si number density = 19.920556 Si / 1000 Ang^3
#
#
#
# Elastic Constant Matrix: (Units=GPa)
#
#
# Indices 1 2 3 4 5 6 
#
# 1 70.1406 54.9818 31.4994 0.0000 -6.7438 0.0000
# 2 54.9818 143.9594 55.5225 0.0000 -7.7553 0.0000
# 3 31.4994 55.5225 76.2862 0.0000 -12.2268 0.0000
# 4 0.0000 0.0000 0.0000 23.3905 0.0000 0.1719
# 5 -6.7438 -7.7553 -12.2268 0.0000 28.1846 0.0000
# 6 0.0000 0.0000 0.0000 0.1719 0.0000 31.1506
#
#
#
# Elastic Compliance Matrix: (Units=1/GPa)
#
#
# Indices 1 2 3 4 5 6 
#
# 1 0.021254 -0.006598 -0.003708 0.000000 0.001662 0.000000
# 2 -0.006598 0.011710 -0.005949 0.000000 -0.000937 0.000000
# 3 -0.003708 -0.005949 0.019952 0.000000 0.006131 0.000000
# 4 0.000000 0.000000 0.000000 0.042754 0.000000 -0.000236
# 5 0.001662 -0.000937 0.006131 0.000000 0.038280 0.000000
# 6 0.000000 0.000000 0.000000 -0.000236 0.000000 0.032103
#
#
# Mechanical properties :
#
#
# Convention : Reuss Voigt Hill
#
# Bulk Modulus (GPa) = 49.00201 63.82152 56.41176
# Shear Modulus (GPa) = 24.34701 26.43729 25.39215
#
# Velocity S-wave (km/s) = 3.49980 3.64694 3.57413
# Velocity P-wave (km/s) = 6.40184 7.05983 6.73887
#
# Compressibility (1/GPa) = 0.02040733
#
# Stress axis : x y z
#
# Youngs Moduli (GPa) = 47.05028 85.39596 50.12117
#
# Poissons Ratio (x) = 0.56344 0.18582
# Poissons Ratio (y) = 0.31044 0.29816
# Poissons Ratio (z) = 0.17444 0.50799
#
# Static dielectric constant tensor:
#      x y z
#    x 3.642440 0.000000 0.010230 
#    y 0.000000 3.853180 0.000000 
#    z 0.010230 0.000000 3.380210 
# 
# 
# High freq. dielectric constant tensor:
#      x y z
#    x 1.780010 0.000000 0.010050 
#    y 0.000000 1.784090 0.000000 
#    z 0.010050 0.000000 1.744210 
# 
# From -- ./inp_files/72400.got.cif
#   From: 2010.06.25/outbox.cif.g09.slc.cpg/sg13_37_cif.got.tgz:72400.got - 2010.06.28 04:50:58.
