data_PCOD8120722
_publ_section_title
;
Structure prediction by ZEFSAII (Michael W. Deem and Ramdas Pophale) SiO2 
 PCOD8120722
Probable space group: P 2/C
;
_chemical_formula_sum "Si O2"
_cell_formula_units_Z 28
_cell_length_a 13.783335
_cell_length_b 7.298659
_cell_length_c 15.918256
_cell_angle_alpha 90.000000
_cell_angle_beta 55.569725
_cell_angle_gamma 90.000000
_cell_volume 1320.837359
_symmetry_space_group_name_H-M "P 2/C"
_symmetry_group_IT_number 13
_symmetry_cell_setting 'monoclinic'
loop_
_space_group_symop_operation_xyz
x,y,z
-x,y,1/2-z
-x,-y,-z
x,-y,1/2+z
loop_
_atom_site_type_symbol
_atom_site_label
_atom_site_fract_x
_atom_site_fract_y
_atom_site_fract_z
Si Si1 0.577898 0.761919 0.385049
Si Si2 0.275353 0.009677 0.437265
Si Si3 0.000000 0.380416 0.250000
Si Si4 0.076771 0.273238 0.039738
Si Si5 0.840641 0.639341 0.571360
Si Si6 0.230150 0.536619 0.713381
Si Si7 0.500000 0.848422 0.250000
Si Si8 0.648481 0.874495 0.920325
O O1 0.675937 0.614088 0.361726
O O2 0.528521 0.719459 0.315972
O O3 0.471635 0.759263 0.504486
O O4 0.629935 0.968452 0.359571
O O5 0.167992 0.878285 0.462917
O O6 0.387712 0.974232 0.324098
O O7 0.307202 0.976662 0.518218
O O8 0.240503 0.219809 0.439545
O O9 0.045555 0.247200 0.153190
O O10 0.101882 0.513245 0.238205
O O11 0.960768 0.258643 0.039282
O O12 0.134100 0.474440 0.004563
O O13 0.773824 0.553195 0.684272
O O14 0.256848 0.735084 0.661472
#
# Coordination Sequence:
#
# PCOD8120722 Si02
#       8
#     4   4   2   4   4   4   2   4
#     4  10  22  40  61  90 125 166 212 265 319 380
#     4  11  21  39  63  90 127 167 205 266 320 380
#     4  10  22  38  64  92 130 164 214 266 312 380
#     4  10  21  42  60  93 128 165 214 265 312 379
#     4  10  23  37  65  90 126 169 213 257 321 377
#     4  11  21  41  61  91 128 169 209 269 315 380
#     4  10  22  40  62  92 126 162 214 268 314 384
#     4  10  22  38  63  92 125 165 215 260 323 382
#
# _framework density 21.198674
#
# number of rings (size 3 to 8) (size 9 to 14) (size 15 to 20)
#    0.000    1.714    1.429    2.571    2.000    0.000 
#    0.000   15.000    0.000    0.000    0.000    0.000 
#    0.000    0.000    0.000    0.000    0.000    0.000 
#
# Total GULP energy -347248.562895 kJ/mol
# GULP energy per Si atom -12401.734389 kJ/mol
# Density = 2.115042 g / cm^3
# Si number density = 21.198674 Si / 1000 Ang^3
#
#
#
# Elastic Constant Matrix: (Units=GPa)
#
#
# Indices 1 2 3 4 5 6 
#
# 1 78.4939 33.5089 26.4478 0.0000 -10.8856 0.0000
# 2 33.5089 65.8739 33.3428 0.0000 -10.4733 0.0000
# 3 26.4478 33.3428 95.0440 0.0000 -3.7466 0.0000
# 4 0.0000 0.0000 0.0000 19.6992 0.0000 -5.1396
# 5 -10.8856 -10.4733 -3.7466 0.0000 32.7453 0.0000
# 6 0.0000 0.0000 0.0000 -5.1396 0.0000 34.6583
#
#
#
# Elastic Compliance Matrix: (Units=1/GPa)
#
#
# Indices 1 2 3 4 5 6 
#
# 1 0.016882 -0.007022 -0.002111 0.000000 0.003125 0.000000
# 2 -0.007022 0.022300 -0.005706 0.000000 0.004145 0.000000
# 3 -0.002111 -0.005706 0.013070 0.000000 -0.001031 0.000000
# 4 0.000000 0.000000 0.000000 0.052807 0.000000 0.007831
# 5 0.003125 0.004145 -0.001031 0.000000 0.032785 0.000000
# 6 0.000000 0.000000 0.000000 0.007831 0.000000 0.030014
#
#
# Mechanical properties :
#
#
# Convention : Reuss Voigt Hill
#
# Bulk Modulus (GPa) = 44.29925 47.33453 45.81689
# Shear Modulus (GPa) = 24.38302 27.16136 25.77219
#
# Velocity S-wave (km/s) = 3.39516 3.58338 3.49054
# Velocity P-wave (km/s) = 6.02595 6.28476 6.15672
#
# Compressibility (1/GPa) = 0.02257374
#
# Stress axis : x y z
#
# Youngs Moduli (GPa) = 59.23352 44.84375 76.51211
#
# Poissons Ratio (x) = 0.31491 0.16152
# Poissons Ratio (y) = 0.41596 0.43654
# Poissons Ratio (z) = 0.12505 0.25586
#
# Static dielectric constant tensor:
#      x y z
#    x 3.983170 0.000000 -0.155230 
#    y 0.000000 3.425590 0.000000 
#    z -0.155230 0.000000 3.917910 
# 
# 
# High freq. dielectric constant tensor:
#      x y z
#    x 1.843890 0.000000 -0.006060 
#    y 0.000000 1.800740 0.000000 
#    z -0.006060 0.000000 1.841290 
# 
# From -- ./inp_files/67294.got.cif
#   From: 2010.06.25/outbox.cif.g09.slc.cpg/sg13_34_cif.got.tgz:67294.got - 2010.06.28 04:50:58.
