data_PCOD8120489
_publ_section_title
;
Structure prediction by ZEFSAII (Michael W. Deem and Ramdas Pophale) SiO2 
 PCOD8120489
Probable space group: P 2/C
;
_chemical_formula_sum "Si O2"
_cell_formula_units_Z 28
_cell_length_a 13.774699
_cell_length_b 8.074327
_cell_length_c 27.726081
_cell_angle_alpha 90.000000
_cell_angle_beta 153.351881
_cell_angle_gamma 90.000000
_cell_volume 1383.085236
_symmetry_space_group_name_H-M "P 2/C"
_symmetry_group_IT_number 13
_symmetry_cell_setting 'monoclinic'
loop_
_space_group_symop_operation_xyz
x,y,z
-x,y,1/2-z
-x,-y,-z
x,-y,1/2+z
loop_
_atom_site_type_symbol
_atom_site_label
_atom_site_fract_x
_atom_site_fract_y
_atom_site_fract_z
Si Si1 0.429749 0.099409 0.123355
Si Si2 0.500000 0.729486 0.750000
Si Si3 0.926499 0.290861 0.595627
Si Si4 0.117856 0.964714 0.712213
Si Si5 0.926177 0.548848 0.914639
Si Si6 0.754764 0.780289 0.496731
Si Si7 0.697157 0.442915 0.054704
Si Si8 0.000000 0.205431 0.250000
O O1 0.387398 0.154361 0.159646
O O2 0.682644 0.125940 0.225181
O O3 0.279335 0.207019 0.021650
O O4 0.395682 0.902519 0.101021
O O5 0.680490 0.613966 0.805572
O O6 0.839799 0.400310 0.601512
O O7 0.098937 0.161169 0.694353
O O8 0.062497 0.396299 0.617332
O O9 0.896342 0.889468 0.595165
O O10 0.138438 0.918275 0.777628
O O11 0.093557 0.689009 0.973628
O O12 0.000000 0.500000 0.000000
O O13 0.619887 0.652566 0.471128
O O14 0.840684 0.321674 0.149920
O O15 0.500000 0.500000 0.000000
#
# Coordination Sequence:
#
# PCOD8120489 Si02
#       8
#     4   2   4   4   4   4   4   2
#     4  11  22  40  63  89 120 167 203 252 305 365
#     4  12  24  38  68  88 118 168 208 250 308 374
#     4  10  23  40  63  90 126 162 200 260 308 358
#     4  10  21  40  60  89 122 159 208 246 302 366
#     4  11  22  41  61  90 124 154 204 258 306 361
#     4   9  22  39  61  87 124 157 199 252 306 355
#     4  10  21  40  63  91 122 161 202 251 309 363
#     4  10  22  38  62  88 122 162 200 256 294 364
#
# _framework density 20.244595
#
# number of rings (size 3 to 8) (size 9 to 14) (size 15 to 20)
#    0.000    1.714    2.857    0.857    0.000    5.714 
#    0.000    4.286    0.000    0.000    0.000    0.000 
#    0.000    0.000    0.000    0.000    0.000    0.000 
#
# Total GULP energy -347134.291201 kJ/mol
# GULP energy per Si atom -12397.653257 kJ/mol
# Density = 2.019852 g / cm^3
# Si number density = 20.244595 Si / 1000 Ang^3
#
#
#
# Elastic Constant Matrix: (Units=GPa)
#
#
# Indices 1 2 3 4 5 6 
#
# 1 150.9469 71.8737 42.5512 0.0000 9.9593 0.0000
# 2 71.8737 122.0157 37.4411 0.0000 -1.9736 0.0000
# 3 42.5512 37.4411 68.5136 0.0000 2.2770 0.0000
# 4 0.0000 0.0000 0.0000 26.1920 0.0000 -1.9949
# 5 9.9593 -1.9736 2.2770 0.0000 34.0187 0.0000
# 6 0.0000 0.0000 0.0000 -1.9949 0.0000 35.8497
#
#
#
# Elastic Compliance Matrix: (Units=1/GPa)
#
#
# Indices 1 2 3 4 5 6 
#
# 1 0.010180 -0.004970 -0.003505 0.000000 -0.003034 0.000000
# 2 -0.004970 0.012303 -0.003717 0.000000 0.002417 0.000000
# 3 -0.003505 -0.003717 0.018819 0.000000 -0.000449 0.000000
# 4 0.000000 0.000000 0.000000 0.038342 0.000000 0.002134
# 5 -0.003034 0.002417 -0.000449 0.000000 0.030454 0.000000
# 6 0.000000 0.000000 0.000000 0.002134 0.000000 0.028013
#
#
# Mechanical properties :
#
#
# Convention : Reuss Voigt Hill
#
# Bulk Modulus (GPa) = 59.11261 71.68979 65.40120
# Shear Modulus (GPa) = 29.73824 31.85276 30.79550
#
# Velocity S-wave (km/s) = 3.83684 3.97091 3.90445
# Velocity P-wave (km/s) = 6.99222 7.51750 7.25961
#
# Compressibility (1/GPa) = 0.01691686
#
# Stress axis : x y z
#
# Youngs Moduli (GPa) = 98.23658 81.28260 53.13791
#
# Poissons Ratio (x) = 0.40395 0.18627
# Poissons Ratio (y) = 0.48820 0.19752
# Poissons Ratio (z) = 0.34437 0.30213
#
# Static dielectric constant tensor:
#      x y z
#    x 3.883210 0.000000 -0.045770 
#    y 0.000000 4.456010 0.000000 
#    z -0.045770 0.000000 3.477070 
# 
# 
# High freq. dielectric constant tensor:
#      x y z
#    x 1.803470 0.000000 -0.001370 
#    y 0.000000 1.802540 0.000000 
#    z -0.001370 0.000000 1.775720 
# 
# From -- ./inp_files/92291.got.cif
#   From: 2010.06.25/outbox.cif.g09.slc.cpg/sg13_47_cif.got.tgz:92291.got - 2010.06.28 04:50:58.
