data_PCOD8120775
_publ_section_title
;
Structure prediction by ZEFSAII (Michael W. Deem and Ramdas Pophale) SiO2 
 PCOD8120775
Probable space group: P 2/C
;
_chemical_formula_sum "Si O2"
_cell_formula_units_Z 26
_cell_length_a 9.969558
_cell_length_b 13.195456
_cell_length_c 20.757298
_cell_angle_alpha 90.000000
_cell_angle_beta 150.990619
_cell_angle_gamma 90.000000
_cell_volume 1324.251921
_symmetry_space_group_name_H-M "P 2/C"
_symmetry_group_IT_number 13
_symmetry_cell_setting 'monoclinic'
loop_
_space_group_symop_operation_xyz
x,y,z
-x,y,1/2-z
-x,-y,-z
x,-y,1/2+z
loop_
_atom_site_type_symbol
_atom_site_label
_atom_site_fract_x
_atom_site_fract_y
_atom_site_fract_z
Si Si1 0.790492 0.245729 0.219875
Si Si2 0.668194 0.519356 0.684300
Si Si3 0.000000 0.630262 0.250000
Si Si4 0.165693 0.750192 0.444586
Si Si5 0.800698 0.892167 0.361178
Si Si6 0.941307 0.548945 0.042981
Si Si7 0.204539 0.874888 0.650162
O O1 0.776583 0.366763 0.220191
O O2 0.893347 0.190498 0.328859
O O3 0.000000 0.215776 0.250000
O O4 0.478218 0.206506 0.075215
O O5 0.340718 0.504541 0.546921
O O6 0.748788 0.444521 0.660723
O O7 0.796536 0.478628 0.804119
O O8 0.893178 0.698769 0.147847
O O9 0.107119 0.670604 0.478659
O O10 0.949075 0.840489 0.362699
O O11 0.500000 0.845493 0.250000
O O12 0.979690 0.869634 0.499600
O O13 0.764173 0.006646 0.320810
O O14 0.000000 0.500000 0.000000
O O15 0.500000 0.831125 0.750000
#
# Coordination Sequence:
#
# PCOD8120775 Si02
#       7
#     4   4   2   4   4   4   4
#     4  11  23  38  64  94 120 167 212 254 304 376
#     4  10  22  37  60  82 122 164 201 241 313 361
#     4  10  22  40  58  86 128 168 196 254 302 372
#     4  10  23  39  60  89 127 164 210 252 316 371
#     4  10  22  41  67  93 120 162 204 257 325 371
#     4  10  22  36  56  88 118 155 203 263 296 359
#     4  10  21  42  68  91 126 158 208 262 315 375
#
# _framework density 19.633727
#
# number of rings (size 3 to 8) (size 9 to 14) (size 15 to 20)
#    0.000    1.846    2.308    0.462    4.308    5.538 
#    1.385    0.769    0.000    0.000    0.000    0.000 
#    0.000    0.000    0.000    0.000    0.000    0.000 
#
# Total GULP energy -322291.331912 kJ/mol
# GULP energy per Si atom -12395.820458 kJ/mol
# Density = 1.958904 g / cm^3
# Si number density = 19.633727 Si / 1000 Ang^3
#
#
#
# Elastic Constant Matrix: (Units=GPa)
#
#
# Indices 1 2 3 4 5 6 
#
# 1 117.2384 53.2672 13.0242 0.0000 1.7082 0.0000
# 2 53.2672 69.7809 24.7393 0.0000 0.3725 0.0000
# 3 13.0242 24.7393 71.5770 0.0000 9.3001 0.0000
# 4 0.0000 0.0000 0.0000 23.4750 0.0000 6.4383
# 5 1.7082 0.3725 9.3001 0.0000 31.6087 0.0000
# 6 0.0000 0.0000 0.0000 6.4383 0.0000 27.5983
#
#
#
# Elastic Compliance Matrix: (Units=1/GPa)
#
#
# Indices 1 2 3 4 5 6 
#
# 1 0.013182 -0.010545 0.001375 0.000000 -0.000993 0.000000
# 2 -0.010545 0.024838 -0.006969 0.000000 0.002328 0.000000
# 3 0.001375 -0.006969 0.016769 0.000000 -0.004926 0.000000
# 4 0.000000 0.000000 0.000000 0.045510 0.000000 -0.010617
# 5 -0.000993 0.002328 -0.004926 0.000000 0.033112 0.000000
# 6 0.000000 0.000000 0.000000 -0.010617 0.000000 0.038711
#
#
# Mechanical properties :
#
#
# Convention : Reuss Voigt Hill
#
# Bulk Modulus (GPa) = 44.41880 48.96196 46.69038
# Shear Modulus (GPa) = 23.59544 27.70742 25.65143
#
# Velocity S-wave (km/s) = 3.47043 3.76069 3.61847
# Velocity P-wave (km/s) = 6.22345 6.62185 6.42574
#
# Compressibility (1/GPa) = 0.02251299
#
# Stress axis : x y z
#
# Youngs Moduli (GPa) = 75.85833 40.26056 59.63249
#
# Poissons Ratio (x) = 0.42455 -0.08199
# Poissons Ratio (y) = 0.79993 0.41555
# Poissons Ratio (z) = -0.10430 0.28056
#
# Static dielectric constant tensor:
#      x y z
#    x 3.117420 0.000000 -0.087470 
#    y 0.000000 3.608980 0.000000 
#    z -0.087470 0.000000 3.567340 
# 
# 
# High freq. dielectric constant tensor:
#      x y z
#    x 1.762040 0.000000 0.007270 
#    y 0.000000 1.759000 0.000000 
#    z 0.007270 0.000000 1.775860 
# 
# From -- ./inp_files/76643.got.cif
#   From: 2010.06.25/outbox.cif.g09.slc.cpg/sg13_39_cif.got.tgz:76643.got - 2010.06.28 04:50:58.
