data_PCOD8120923
_publ_section_title
;
Structure prediction by ZEFSAII (Michael W. Deem and Ramdas Pophale) SiO2 
 PCOD8120923
Probable space group: P 2/C
;
_chemical_formula_sum "Si O2"
_cell_formula_units_Z 24
_cell_length_a 18.048382
_cell_length_b 8.781092
_cell_length_c 17.167420
_cell_angle_alpha 90.000000
_cell_angle_beta 151.592027
_cell_angle_gamma 90.000000
_cell_volume 1294.397121
_symmetry_space_group_name_H-M "P 2/C"
_symmetry_group_IT_number 13
_symmetry_cell_setting 'monoclinic'
loop_
_space_group_symop_operation_xyz
x,y,z
-x,y,1/2-z
-x,-y,-z
x,-y,1/2+z
loop_
_atom_site_type_symbol
_atom_site_label
_atom_site_fract_x
_atom_site_fract_y
_atom_site_fract_z
Si Si1 0.565114 0.291046 0.391022
Si Si2 0.639483 0.450229 0.183542
Si Si3 0.347778 0.955056 0.406675
Si Si4 0.162225 0.249781 0.234884
Si Si5 0.880285 0.455187 0.709991
Si Si6 0.132606 0.290891 0.640953
O O1 0.500000 0.231506 0.250000
O O2 0.429155 0.400193 0.297819
O O3 0.596522 0.138353 0.467425
O O4 0.718849 0.392886 0.527582
O O5 0.711945 0.303336 0.210860
O O6 0.770604 0.578987 0.314956
O O7 0.500000 0.500000 0.000000
O O8 0.244939 0.850845 0.255557
O O9 0.500000 0.000000 0.500000
O O10 0.235164 0.091325 0.332972
O O11 0.139246 0.367119 0.285242
O O12 0.001752 0.230704 0.039546
O O13 0.929421 0.360317 0.833640
O O14 0.000000 0.435540 0.750000
#
# Coordination Sequence:
#
# PCOD8120923 Si02
#       6
#     4   4   4   4   4   4
#     4  11  24  38  61  91 119 158 203 248 307 353
#     4  11  17  38  62  90 114 152 205 255 282 346
#     4  11  21  40  62  86 121 157 201 250 294 363
#     4  11  21  37  62  87 121 153 203 242 300 356
#     4  10  22  38  58  87 123 154 194 253 301 349
#     4  10  22  36  62  94 114 155 206 246 297 357
#
# _framework density 18.541450999999999
#
# number of rings (size 3 to 8) (size 9 to 14) (size 15 to 20)
#    0.000    1.333    6.667    2.500    4.667    0.000 
#    0.000    5.833    0.000    0.000    0.000    0.000 
#    0.000    0.000    0.000    0.000    0.000    0.000 
#
# Total GULP energy -297501.672459 kJ/mol
# GULP energy per Si atom -12395.903019 kJ/mol
# Density = 1.849925 g / cm^3
# Si number density = 18.541451 Si / 1000 Ang^3
#
#
#
# Elastic Constant Matrix: (Units=GPa)
#
#
# Indices 1 2 3 4 5 6 
#
# 1 119.0501 56.7089 68.0796 0.0000 18.8977 0.0000
# 2 56.7089 121.0388 57.9084 0.0000 -0.0526 0.0000
# 3 68.0796 57.9084 130.8366 0.0000 -9.7039 0.0000
# 4 0.0000 0.0000 0.0000 31.0227 0.0000 8.3387
# 5 18.8977 -0.0526 -9.7039 0.0000 29.0958 0.0000
# 6 0.0000 0.0000 0.0000 8.3387 0.0000 18.6857
#
#
#
# Elastic Compliance Matrix: (Units=1/GPa)
#
#
# Indices 1 2 3 4 5 6 
#
# 1 0.017290 -0.004195 -0.008176 0.000000 -0.013964 0.000000
# 2 -0.004195 0.011569 -0.002803 0.000000 0.001811 0.000000
# 3 -0.008176 -0.002803 0.013875 0.000000 0.009932 0.000000
# 4 0.000000 0.000000 0.000000 0.036628 0.000000 -0.016346
# 5 -0.013964 0.001811 0.009932 0.000000 0.046755 0.000000
# 6 0.000000 0.000000 0.000000 -0.016346 0.000000 0.060811
#
#
# Mechanical properties :
#
#
# Convention : Reuss Voigt Hill
#
# Bulk Modulus (GPa) = 80.73862 81.81325 81.27594
# Shear Modulus (GPa) = 22.58297 28.30942 25.44619
#
# Velocity S-wave (km/s) = 3.49373 3.91169 3.70860
# Velocity P-wave (km/s) = 7.74044 8.03879 7.89102
#
# Compressibility (1/GPa) = 0.01238565
#
# Stress axis : x y z
#
# Youngs Moduli (GPa) = 57.83617 86.43499 72.07396
#
# Poissons Ratio (x) = 0.36263 0.58925
# Poissons Ratio (y) = 0.24265 0.20204
# Poissons Ratio (z) = 0.47285 0.24230
#
# Static dielectric constant tensor:
#      x y z
#    x 3.511060 0.000000 0.055480 
#    y 0.000000 3.553700 0.000000 
#    z 0.055480 0.000000 3.475430 
# 
# 
# High freq. dielectric constant tensor:
#      x y z
#    x 1.702690 0.000000 0.016220 
#    y 0.000000 1.722220 0.000000 
#    z 0.016220 0.000000 1.734400 
# 
# From -- ./inp_files/63278.got.cif
#   From: 2010.06.25/outbox.cif.g09.slc.cpg/sg13_32_cif.got.tgz:63278.got - 2010.06.28 04:50:58.
