data_PCOD8120948
_publ_section_title
;
Structure prediction by ZEFSAII (Michael W. Deem and Ramdas Pophale) SiO2 
 PCOD8120948
Probable space group: P 2/C
;
_chemical_formula_sum "Si O2"
_cell_formula_units_Z 28
_cell_length_a 15.920428
_cell_length_b 7.950642
_cell_length_c 11.617482
_cell_angle_alpha 90.000000
_cell_angle_beta 111.131982
_cell_angle_gamma 90.000000
_cell_volume 1371.624838
_symmetry_space_group_name_H-M "P 2/C"
_symmetry_group_IT_number 13
_symmetry_cell_setting 'monoclinic'
loop_
_space_group_symop_operation_xyz
x,y,z
-x,y,1/2-z
-x,-y,-z
x,-y,1/2+z
loop_
_atom_site_type_symbol
_atom_site_label
_atom_site_fract_x
_atom_site_fract_y
_atom_site_fract_z
Si Si1 0.196079 0.889445 0.199076
Si Si2 0.629833 0.168909 0.560610
Si Si3 0.896126 0.598025 0.226257
Si Si4 0.809072 0.747429 0.751948
Si Si5 0.246913 0.370003 0.035771
Si Si6 0.721551 0.260303 0.968021
Si Si7 0.539464 0.865249 0.385547
O O1 0.289316 0.873131 0.313929
O O2 0.128121 0.734892 0.188268
O O3 0.224393 0.883167 0.077507
O O4 0.146701 0.066052 0.209202
O O5 0.663356 0.310751 0.487891
O O6 0.540194 0.228029 0.583755
O O7 0.598830 0.000915 0.482104
O O8 0.877396 0.406744 0.261595
O O9 0.000000 0.609241 0.250000
O O10 0.841458 0.656334 0.086433
O O11 0.755791 0.725182 0.844683
O O12 0.739538 0.757345 0.612536
O O13 0.246549 0.564180 0.067386
O O14 0.614715 0.271111 0.891409
O O15 0.500000 0.948148 0.250000
#
# Coordination Sequence:
#
# PCOD8120948 Si02
#       7
#     4   4   4   4   4   4   4
#     4  11  21  41  67  91 128 170 213 257 317 383
#     4  10  22  37  59  91 124 170 214 261 316 366
#     4  10  24  45  67  97 129 160 210 270 320 379
#     4  11  23  41  67  93 125 174 211 254 322 384
#     4  10  23  42  65  89 129 169 213 261 320 380
#     4  11  22  40  63  93 128 171 218 257 316 378
#     4  11  21  35  60  93 127 164 217 271 307 367
#
# _framework density 20.413747000000001
#
# number of rings (size 3 to 8) (size 9 to 14) (size 15 to 20)
#    0.000    1.429    4.286    0.857    2.000    1.714 
#    0.000    1.429    0.000    0.000    0.000    0.000 
#    0.000    0.000    0.000    0.000    0.000    0.000 
#
# Total GULP energy -346944.824183 kJ/mol
# GULP energy per Si atom -12390.886578 kJ/mol
# Density = 2.036728 g / cm^3
# Si number density = 20.413747 Si / 1000 Ang^3
#
#
#
# Elastic Constant Matrix: (Units=GPa)
#
#
# Indices 1 2 3 4 5 6 
#
# 1 150.0778 50.7800 51.5268 0.0000 -3.8004 0.0000
# 2 50.7800 112.4706 34.6095 0.0000 -6.7725 0.0000
# 3 51.5268 34.6095 88.8084 0.0000 -22.7906 0.0000
# 4 0.0000 0.0000 0.0000 24.1483 0.0000 -3.9233
# 5 -3.8004 -6.7725 -22.7906 0.0000 25.9136 0.0000
# 6 0.0000 0.0000 0.0000 -3.9233 0.0000 25.8307
#
#
#
# Elastic Compliance Matrix: (Units=1/GPa)
#
#
# Indices 1 2 3 4 5 6 
#
# 1 0.009362 -0.002816 -0.005386 0.000000 -0.004100 0.000000
# 2 -0.002816 0.010973 -0.002599 0.000000 0.000169 0.000000
# 3 -0.005386 -0.002599 0.019400 0.000000 0.015592 0.000000
# 4 0.000000 0.000000 0.000000 0.042458 0.000000 0.006449
# 5 -0.004100 0.000169 0.015592 0.000000 0.051746 0.000000
# 6 0.000000 0.000000 0.000000 0.006449 0.000000 0.039693
#
#
# Mechanical properties :
#
#
# Convention : Reuss Voigt Hill
#
# Bulk Modulus (GPa) = 55.15372 69.46547 62.30960
# Shear Modulus (GPa) = 24.84135 29.47457 27.15796
#
# Velocity S-wave (km/s) = 3.49218 3.80394 3.65139
# Velocity P-wave (km/s) = 6.58309 7.30725 6.95460
#
# Compressibility (1/GPa) = 0.01813114
#
# Stress axis : x y z
#
# Youngs Moduli (GPa) = 106.81994 91.13650 51.54749
#
# Poissons Ratio (x) = 0.25665 0.27765
# Poissons Ratio (y) = 0.30082 0.13396
# Poissons Ratio (z) = 0.57537 0.23685
#
# Static dielectric constant tensor:
#      x y z
#    x 3.629040 0.000000 -0.176750 
#    y 0.000000 3.880830 0.000000 
#    z -0.176750 0.000000 3.785800 
# 
# 
# High freq. dielectric constant tensor:
#      x y z
#    x 1.785360 0.000000 -0.018530 
#    y 0.000000 1.796490 0.000000 
#    z -0.018530 0.000000 1.803320 
# 
# From -- ./inp_files/36238.got.cif
#   From: 2010.06.25/outbox.cif.g09.slc.cpg/sg13_19_cif.got.tgz:36238.got - 2010.06.28 04:50:58.
