data_PCOD8120010
_publ_section_title
;
Structure prediction by ZEFSAII (Michael W. Deem and Ramdas Pophale) SiO2 
 PCOD8120010
Probable space group: P 2/C
;
_chemical_formula_sum "Si O2"
_cell_formula_units_Z 28
_cell_length_a 31.918217
_cell_length_b 9.379796
_cell_length_c 9.135129
_cell_angle_alpha 90.000000
_cell_angle_beta 26.790742
_cell_angle_gamma 90.000000
_cell_volume 1232.725425
_symmetry_space_group_name_H-M "P 2/C"
_symmetry_group_IT_number 13
_symmetry_cell_setting 'monoclinic'
loop_
_space_group_symop_operation_xyz
x,y,z
-x,y,1/2-z
-x,-y,-z
x,-y,1/2+z
loop_
_atom_site_type_symbol
_atom_site_label
_atom_site_fract_x
_atom_site_fract_y
_atom_site_fract_z
Si Si1 0.259797 0.831665 0.790275
Si Si2 0.659303 0.305889 0.013689
Si Si3 0.551615 0.691367 0.337217
Si Si4 0.924088 0.667162 0.794709
Si Si5 0.121950 0.587162 0.242011
Si Si6 0.378652 0.510523 0.122461
Si Si7 0.790565 0.910321 0.229701
O O1 0.370853 0.815246 0.421234
O O2 0.209757 0.926282 0.821286
O O3 0.216505 0.673032 0.911503
O O4 0.241699 0.904003 0.002601
O O5 0.552856 0.248992 0.341452
O O6 0.681175 0.402614 0.090220
O O7 0.686608 0.393323 0.780796
O O8 0.720271 0.165991 0.836992
O O9 0.561961 0.614049 0.460056
O O10 0.555024 0.577826 0.194341
O O11 0.872015 0.577120 0.829764
O O12 0.035382 0.665068 0.428949
O O13 0.895415 0.586747 0.031951
O O14 0.890417 0.831902 0.900126
#
# Coordination Sequence:
#
# PCOD8120010 Si02
#       7
#     4   4   4   4   4   4   4
#     4  11  26  41  57  85 120 161 199 237 289 349
#     4  11  21  37  59  87 120 153 195 245 294 346
#     4  11  21  37  59  87 120 153 195 245 294 346
#     4   9  20  40  65  92 118 146 188 242 294 345
#     4   9  20  40  65  92 118 146 188 242 294 345
#     4  10  21  36  60  90 115 150 199 248 298 342
#     4  11  26  41  57  85 120 161 199 237 289 349
#
# _framework density 22.713898
#
# number of rings (size 3 to 8) (size 9 to 14) (size 15 to 20)
#    0.000    1.714    1.429    3.429    6.000    2.286 
#    0.000    0.000    0.000    0.000    0.000    0.000 
#    0.000    0.000    0.000    0.000    0.000    0.000 
#
# Total GULP energy -347160.081399 kJ/mol
# GULP energy per Si atom -12398.574336 kJ/mol
# Density = 2.266220 g / cm^3
# Si number density = 22.713898 Si / 1000 Ang^3
#
#
#
# Elastic Constant Matrix: (Units=GPa)
#
#
# Indices 1 2 3 4 5 6 
#
# 1 99.4616 15.3221 16.7246 0.0000 14.6905 0.0000
# 2 15.3221 54.8889 15.7037 0.0000 10.6522 0.0000
# 3 16.7246 15.7037 47.3587 0.0000 -0.1176 0.0000
# 4 0.0000 0.0000 0.0000 22.1731 0.0000 -17.2276
# 5 14.6905 10.6522 -0.1176 0.0000 29.3888 0.0000
# 6 0.0000 0.0000 0.0000 -17.2276 0.0000 106.9295
#
#
#
# Elastic Compliance Matrix: (Units=1/GPa)
#
#
# Indices 1 2 3 4 5 6 
#
# 1 0.011663 -0.001125 -0.003759 0.000000 -0.005437 0.000000
# 2 -0.001125 0.021946 -0.006898 0.000000 -0.007420 0.000000
# 3 -0.003759 -0.006898 0.024742 0.000000 0.004478 0.000000
# 4 0.000000 0.000000 0.000000 0.051553 0.000000 0.008306
# 5 -0.005437 -0.007420 0.004478 0.000000 0.039452 0.000000
# 6 0.000000 0.000000 0.000000 0.008306 0.000000 0.010690
#
#
# Mechanical properties :
#
#
# Convention : Reuss Voigt Hill
#
# Bulk Modulus (GPa) = 28.74754 33.02335 30.88545
# Shear Modulus (GPa) = 25.61409 41.96220 33.78815
#
# Velocity S-wave (km/s) = 3.36174 4.30283 3.86107
# Velocity P-wave (km/s) = 5.26804 6.26548 5.78828
#
# Compressibility (1/GPa) = 0.03478558
#
# Stress axis : x y z
#
# Youngs Moduli (GPa) = 85.74439 45.56587 40.41789
#
# Poissons Ratio (x) = 0.05126 0.15193
# Poissons Ratio (y) = 0.09646 0.27882
# Poissons Ratio (z) = 0.32232 0.31433
#
# Static dielectric constant tensor:
#      x y z
#    x 4.343790 0.000000 0.002720 
#    y 0.000000 3.747310 0.000000 
#    z 0.002720 0.000000 4.017750 
# 
# 
# High freq. dielectric constant tensor:
#      x y z
#    x 1.914960 0.000000 -0.001840 
#    y 0.000000 1.858550 0.000000 
#    z -0.001840 0.000000 1.891570 
# 
# From -- ./inp_files/24925.got.cif
#   From: 2010.06.25/outbox.cif.g09.slc.cpg/sg13_13_cif.got.tgz:24925.got - 2010.06.28 04:50:58.
