data_PCOD8120571
_publ_section_title
;
Structure prediction by ZEFSAII (Michael W. Deem and Ramdas Pophale) SiO2 
 PCOD8120571
Probable space group: P 2/C
;
_chemical_formula_sum "Si O2"
_cell_formula_units_Z 30
_cell_length_a 10.827391
_cell_length_b 13.126238
_cell_length_c 19.060744
_cell_angle_alpha 90.000000
_cell_angle_beta 148.978377
_cell_angle_gamma 90.000000
_cell_volume 1396.098104
_symmetry_space_group_name_H-M "P 2/C"
_symmetry_group_IT_number 13
_symmetry_cell_setting 'monoclinic'
loop_
_space_group_symop_operation_xyz
x,y,z
-x,y,1/2-z
-x,-y,-z
x,-y,1/2+z
loop_
_atom_site_type_symbol
_atom_site_label
_atom_site_fract_x
_atom_site_fract_y
_atom_site_fract_z
Si Si1 0.000000 0.805640 0.250000
Si Si2 0.291760 0.614267 0.704132
Si Si3 0.757192 0.893470 0.003103
Si Si4 0.972081 0.752792 0.463628
Si Si5 0.501136 0.736500 0.445235
Si Si6 0.626263 0.391513 0.735931
Si Si7 0.290364 0.214516 0.312028
Si Si8 0.190529 0.872580 0.988207
O O1 0.943782 0.877605 0.156910
O O2 0.766901 0.736905 0.153270
O O3 0.500000 0.605292 0.750000
O O4 0.248768 0.501155 0.714740
O O5 0.366098 0.690580 0.801229
O O6 0.057020 0.656755 0.551705
O O7 0.811991 0.816894 0.965297
O O8 0.795582 0.007261 0.995433
O O9 0.486460 0.874928 0.897218
O O10 0.818019 0.701148 0.326923
O O11 0.818504 0.827276 0.437976
O O12 0.538291 0.636616 0.412440
O O13 0.697186 0.739126 0.603371
O O14 0.563853 0.835937 0.428939
O O15 0.500000 0.386195 0.750000
O O16 0.035208 0.165943 0.168296
#
# Coordination Sequence:
#
# PCOD8120571 Si02
#       8
#     2   4   4   4   4   4   4   4
#     4  10  24  38  64  88 126 166 208 252 310 368
#     4  10  21  40  66  92 123 166 206 259 322 375
#     4  11  23  39  64  92 124 172 210 251 313 376
#     4  11  21  42  61  96 128 163 205 267 311 370
#     4  11  23  43  63  94 129 163 208 266 307 371
#     4  11  22  40  67  94 121 163 210 262 320 378
#     4  10  24  42  62  92 130 169 206 262 313 373
#     4  11  25  39  66  93 128 168 211 262 311 372
#
# _framework density 21.488461000000001
#
# number of rings (size 3 to 8) (size 9 to 14) (size 15 to 20)
#    0.000    1.333    4.000    1.200    3.733    1.600 
#    0.000    1.333    5.867    0.000    0.000    0.000 
#    0.000    0.000    0.000    0.000    0.000    0.000 
#
# Total GULP energy -371890.953948 kJ/mol
# GULP energy per Si atom -12396.365132 kJ/mol
# Density = 2.143955 g / cm^3
# Si number density = 21.488461 Si / 1000 Ang^3
#
#
#
# Elastic Constant Matrix: (Units=GPa)
#
#
# Indices 1 2 3 4 5 6 
#
# 1 80.7692 34.9819 17.7979 0.0000 -3.0181 0.0000
# 2 34.9819 156.4571 42.5365 0.0000 -11.8205 0.0000
# 3 17.7979 42.5365 60.9978 0.0000 -6.7532 0.0000
# 4 0.0000 0.0000 0.0000 35.6215 0.0000 17.0169
# 5 -3.0181 -11.8205 -6.7532 0.0000 35.1195 0.0000
# 6 0.0000 0.0000 0.0000 17.0169 0.0000 34.2379
#
#
#
# Elastic Compliance Matrix: (Units=1/GPa)
#
#
# Indices 1 2 3 4 5 6 
#
# 1 0.013975 -0.002493 -0.002349 0.000000 -0.000090 0.000000
# 2 -0.002493 0.008424 -0.004963 0.000000 0.001667 0.000000
# 3 -0.002349 -0.004963 0.020775 0.000000 0.002123 0.000000
# 4 0.000000 0.000000 0.000000 0.036814 0.000000 -0.018297
# 5 -0.000090 0.001667 0.002123 0.000000 0.029436 0.000000
# 6 0.000000 0.000000 0.000000 -0.018297 0.000000 0.038301
#
#
# Mechanical properties :
#
#
# Convention : Reuss Voigt Hill
#
# Bulk Modulus (GPa) = 42.43586 54.31741 48.37663
# Shear Modulus (GPa) = 28.54064 34.52297 31.53180
#
# Velocity S-wave (km/s) = 3.64838 4.01257 3.83480
# Velocity P-wave (km/s) = 6.12688 6.84105 6.49379
#
# Compressibility (1/GPa) = 0.02356498
#
# Stress axis : x y z
#
# Youngs Moduli (GPa) = 71.55701 118.70860 48.13451
#
# Poissons Ratio (x) = 0.29590 0.11308
# Poissons Ratio (y) = 0.17837 0.23887
# Poissons Ratio (z) = 0.16810 0.58910
#
# Static dielectric constant tensor:
#      x y z
#    x 3.938980 0.000000 -0.173460 
#    y 0.000000 3.876720 0.000000 
#    z -0.173460 0.000000 3.888810 
# 
# 
# High freq. dielectric constant tensor:
#      x y z
#    x 1.850230 0.000000 -0.008560 
#    y 0.000000 1.832400 0.000000 
#    z -0.008560 0.000000 1.841830 
# 
# From -- ./inp_files/78637.got.cif
#   From: 2010.06.25/outbox.cif.g09.slc.cpg/sg13_40_cif.got.tgz:78637.got - 2010.06.28 04:50:58.
