data_PCOD8120570
_publ_section_title
;
Structure prediction by ZEFSAII (Michael W. Deem and Ramdas Pophale) SiO2 
 PCOD8120570
Probable space group: P 2/C
;
_chemical_formula_sum "Si O2"
_cell_formula_units_Z 24
_cell_length_a 16.419992
_cell_length_b 6.486770
_cell_length_c 22.453735
_cell_angle_alpha 90.000000
_cell_angle_beta 29.608942
_cell_angle_gamma 90.000000
_cell_volume 1181.639944
_symmetry_space_group_name_H-M "P 2/C"
_symmetry_group_IT_number 13
_symmetry_cell_setting 'monoclinic'
loop_
_space_group_symop_operation_xyz
x,y,z
-x,y,1/2-z
-x,-y,-z
x,-y,1/2+z
loop_
_atom_site_type_symbol
_atom_site_label
_atom_site_fract_x
_atom_site_fract_y
_atom_site_fract_z
Si Si1 0.597845 0.930831 0.812601
Si Si2 0.405712 0.586120 0.868788
Si Si3 0.264039 0.397117 0.185615
Si Si4 0.879460 0.188703 0.579033
Si Si5 0.944868 0.509712 0.442799
Si Si6 0.544715 0.688639 0.049597
O O1 0.493369 0.795589 0.833250
O O2 0.707959 0.787377 0.784988
O O3 0.702286 0.099046 0.709253
O O4 0.474853 0.065372 0.931229
O O5 0.500000 0.504923 0.750000
O O6 0.409597 0.412602 0.916696
O O7 0.213379 0.637755 0.978832
O O8 0.375685 0.592645 0.132015
O O9 0.069258 0.449102 0.310303
O O10 0.305877 0.336348 0.091629
O O11 0.872144 0.303984 0.520320
O O12 0.942066 0.355569 0.586079
O O13 0.000000 0.000000 0.500000
#
# Coordination Sequence:
#
# PCOD8120570 Si02
#       6
#     4   4   4   4   4   4
#     4  11  21  40  64  93 125 166 212 257 311 381
#     4  11  25  40  60  91 130 165 204 259 328 370
#     4  10  21  40  66  92 120 165 217 253 308 372
#     4  11  21  37  65  94 124 164 215 255 308 375
#     4  11  23  39  64  93 129 166 206 266 313 368
#     4  10  22  41  64  89 126 167 205 259 310 378
#
# _framework density 20.310755
#
# number of rings (size 3 to 8) (size 9 to 14) (size 15 to 20)
#    0.000    1.333    3.333    2.500    4.667    4.000 
#    0.000    0.000    0.000    0.000    0.000    0.000 
#    0.000    0.000    0.000    0.000    0.000    0.000 
#
# Total GULP energy -297616.094929 kJ/mol
# GULP energy per Si atom -12400.670622 kJ/mol
# Density = 2.026453 g / cm^3
# Si number density = 20.310755 Si / 1000 Ang^3
#
#
#
# Elastic Constant Matrix: (Units=GPa)
#
#
# Indices 1 2 3 4 5 6 
#
# 1 74.1191 17.9605 60.4302 0.0000 1.0668 0.0000
# 2 17.9605 86.9348 39.1094 0.0000 1.8716 0.0000
# 3 60.4302 39.1094 175.1162 0.0000 3.8011 0.0000
# 4 0.0000 0.0000 0.0000 38.0186 0.0000 -3.1078
# 5 1.0668 1.8716 3.8011 0.0000 35.0355 0.0000
# 6 0.0000 0.0000 0.0000 -3.1078 0.0000 13.5327
#
#
#
# Elastic Compliance Matrix: (Units=1/GPa)
#
#
# Indices 1 2 3 4 5 6 
#
# 1 0.018865 -0.001079 -0.006273 0.000000 0.000164 0.000000
# 2 -0.001079 0.012854 -0.002490 0.000000 -0.000384 0.000000
# 3 -0.006273 -0.002490 0.008444 0.000000 -0.000592 0.000000
# 4 0.000000 0.000000 0.000000 0.026806 0.000000 0.006156
# 5 0.000164 -0.000384 -0.000592 0.000000 0.028622 0.000000
# 6 0.000000 0.000000 0.000000 0.006156 0.000000 0.075309
#
#
# Mechanical properties :
#
#
# Convention : Reuss Voigt Hill
#
# Bulk Modulus (GPa) = 48.82869 63.46336 56.14603
# Shear Modulus (GPa) = 25.32793 31.89539 28.61166
#
# Velocity S-wave (km/s) = 3.53515 3.96709 3.75733
# Velocity P-wave (km/s) = 6.38405 7.23172 6.82106
#
# Compressibility (1/GPa) = 0.02047976
#
# Stress axis : x y z
#
# Youngs Moduli (GPa) = 53.00802 77.79506 118.42647
#
# Poissons Ratio (x) = 0.08395 0.74284
# Poissons Ratio (y) = 0.05720 0.29489
# Poissons Ratio (z) = 0.33250 0.19372
#
# Static dielectric constant tensor:
#      x y z
#    x 3.505860 0.000000 0.201330 
#    y 0.000000 3.694880 0.000000 
#    z 0.201330 0.000000 3.953590 
# 
# 
# High freq. dielectric constant tensor:
#      x y z
#    x 1.770540 0.000000 0.007020 
#    y 0.000000 1.798240 0.000000 
#    z 0.007020 0.000000 1.807920 
# 
# From -- ./inp_files/77304.got.cif
#   From: 2010.06.25/outbox.cif.g09.slc.cpg/sg13_39_cif.got.tgz:77304.got - 2010.06.28 04:50:58.
