data_PCOD8120713
_publ_section_title
;
Structure prediction by ZEFSAII (Michael W. Deem and Ramdas Pophale) SiO2 
 PCOD8120713
Probable space group: P 2/C
;
_chemical_formula_sum "Si O2"
_cell_formula_units_Z 30
_cell_length_a 12.992600
_cell_length_b 15.996729
_cell_length_c 16.186500
_cell_angle_alpha 90.000000
_cell_angle_beta 24.995896
_cell_angle_gamma 90.000000
_cell_volume 1421.548723
_symmetry_space_group_name_H-M "P 2/C"
_symmetry_group_IT_number 13
_symmetry_cell_setting 'monoclinic'
loop_
_space_group_symop_operation_xyz
x,y,z
-x,y,1/2-z
-x,-y,-z
x,-y,1/2+z
loop_
_atom_site_type_symbol
_atom_site_label
_atom_site_fract_x
_atom_site_fract_y
_atom_site_fract_z
Si Si1 0.500000 0.285752 0.750000
Si Si2 0.171260 0.265249 0.450058
Si Si3 0.293267 0.931948 0.132128
Si Si4 0.908971 0.413153 0.406699
Si Si5 0.235139 0.406006 0.528221
Si Si6 0.620959 0.762696 0.338325
Si Si7 0.355447 0.654076 0.661489
Si Si8 0.744584 0.086224 0.033161
O O1 0.731353 0.343079 0.568640
O O2 0.457939 0.228148 0.700082
O O3 0.288416 0.338797 0.418973
O O4 0.278163 0.271717 0.280221
O O5 0.246136 0.178257 0.435772
O O6 0.883854 0.278508 0.655945
O O7 0.379321 0.854616 0.123913
O O8 0.008824 0.958481 0.360971
O O9 0.296067 0.906658 0.034635
O O10 0.500000 0.000000 0.000000
O O11 0.784674 0.503828 0.500290
O O12 0.000000 0.390316 0.250000
O O13 0.139719 0.410624 0.299396
O O14 0.446945 0.406767 0.441854
O O15 0.000000 0.379039 0.750000
O O16 0.438657 0.700444 0.517667
O O17 0.500000 0.041354 0.250000
#
# Coordination Sequence:
#
# PCOD8120713 Si02
#       8
#     2   4   4   4   4   4   4   4
#     4  12  24  46  64  92 128 180 226 266 328 398
#     4  11  22  39  66 101 124 170 226 268 332 388
#     4  10  23  43  68 105 137 166 210 275 339 386
#     4  11  26  42  59  88 131 176 222 284 332 383
#     4  11  24  38  61  94 128 167 224 285 334 383
#     4  11  23  42  71  92 128 171 223 270 321 412
#     4  12  23  42  65  90 126 174 225 272 338 394
#     4  10  21  41  71  99 137 175 214 265 322 403
#
# _framework density 21.103743000000001
#
# number of rings (size 3 to 8) (size 9 to 14) (size 15 to 20)
#    0.000    1.067    4.000    2.800    3.733    4.267 
#    1.200    2.667    0.000    0.000    0.000    0.000 
#    0.000    0.000    0.000    0.000    0.000    0.000 
#
# Total GULP energy -371927.196814 kJ/mol
# GULP energy per Si atom -12397.573227 kJ/mol
# Density = 2.105571 g / cm^3
# Si number density = 21.103743 Si / 1000 Ang^3
#
#
#
# Elastic Constant Matrix: (Units=GPa)
#
#
# Indices 1 2 3 4 5 6 
#
# 1 154.3872 55.3201 50.7124 0.0000 -13.6608 0.0000
# 2 55.3201 72.7919 39.4491 0.0000 -14.8206 0.0000
# 3 50.7124 39.4491 125.1348 0.0000 -13.2199 0.0000
# 4 0.0000 0.0000 0.0000 42.7229 0.0000 -18.8371
# 5 -13.6608 -14.8206 -13.2199 0.0000 44.6228 0.0000
# 6 0.0000 0.0000 0.0000 -18.8371 0.0000 14.0699
#
#
#
# Elastic Compliance Matrix: (Units=1/GPa)
#
#
# Indices 1 2 3 4 5 6 
#
# 1 0.009246 -0.005972 -0.001832 0.000000 0.000304 0.000000
# 2 -0.005972 0.021179 -0.003826 0.000000 0.004072 0.000000
# 3 -0.001832 -0.003826 0.010062 0.000000 0.001149 0.000000
# 4 0.000000 0.000000 0.000000 0.057132 0.000000 0.076489
# 5 0.000304 0.004072 0.001149 0.000000 0.024196 0.000000
# 6 0.000000 0.000000 0.000000 0.076489 0.000000 0.173480
#
#
# Mechanical properties :
#
#
# Convention : Reuss Voigt Hill
#
# Bulk Modulus (GPa) = 58.05264 71.47521 64.76393
# Shear Modulus (GPa) = 15.41799 34.07194 24.74497
#
# Velocity S-wave (km/s) = 2.70586 4.02244 3.42795
# Velocity P-wave (km/s) = 6.10984 7.45087 6.81343
#
# Compressibility (1/GPa) = 0.01722574
#
# Stress axis : x y z
#
# Youngs Moduli (GPa) = 108.15787 47.21673 99.38786
#
# Poissons Ratio (x) = 0.28196 0.18210
# Poissons Ratio (y) = 0.64588 0.38030
# Poissons Ratio (z) = 0.19817 0.18067
#
# Static dielectric constant tensor:
#      x y z
#    x 4.039430 0.000000 -0.154080 
#    y 0.000000 3.380690 0.000000 
#    z -0.154080 0.000000 4.324250 
# 
# 
# High freq. dielectric constant tensor:
#      x y z
#    x 1.842290 0.000000 -0.006330 
#    y 0.000000 1.789870 0.000000 
#    z -0.006330 0.000000 1.856280 
# 
# From -- ./inp_files/51613.got.cif
#   From: 2010.06.25/outbox.cif.g09.slc.cpg/sg13_26_cif.got.tgz:51613.got - 2010.06.28 04:50:58.
