data_PCOD8120142
_publ_section_title
;
Structure prediction by ZEFSAII (Michael W. Deem and Ramdas Pophale) SiO2 
 PCOD8120142
Probable space group: P 2/C
;
_chemical_formula_sum "Si O2"
_cell_formula_units_Z 32
_cell_length_a 11.218548
_cell_length_b 17.079736
_cell_length_c 21.697419
_cell_angle_alpha 90.000000
_cell_angle_beta 157.533555
_cell_angle_gamma 90.000000
_cell_volume 1588.733284
_symmetry_space_group_name_H-M "P 2/C"
_symmetry_group_IT_number 13
_symmetry_cell_setting 'monoclinic'
loop_
_space_group_symop_operation_xyz
x,y,z
-x,y,1/2-z
-x,-y,-z
x,-y,1/2+z
loop_
_atom_site_type_symbol
_atom_site_label
_atom_site_fract_x
_atom_site_fract_y
_atom_site_fract_z
Si Si1 0.540277 0.959947 0.585991
Si Si2 0.139725 0.822980 0.593322
Si Si3 0.129291 0.586328 0.566139
Si Si4 0.720799 0.764339 0.573903
Si Si5 0.811316 0.804112 0.102218
Si Si6 0.870335 0.274272 0.860211
Si Si7 0.823981 0.309343 0.007752
Si Si8 0.150198 0.911551 0.941689
O O1 0.357523 0.878272 0.508904
O O2 0.898605 0.943068 0.772155
O O3 0.500000 0.000000 0.500000
O O4 0.407715 0.020865 0.573001
O O5 0.500000 0.837011 0.750000
O O6 0.946896 0.800348 0.439960
O O7 0.099918 0.752180 0.622908
O O8 0.996925 0.897927 0.560690
O O9 0.500000 0.587520 0.750000
O O10 0.000000 0.500000 0.500000
O O11 0.030757 0.646240 0.463789
O O12 0.955910 0.609237 0.546810
O O13 0.435472 0.746397 0.482651
O O14 0.783211 0.687071 0.562298
O O15 0.671798 0.835311 0.501221
O O16 0.000000 0.789746 0.750000
O O17 0.000000 0.839265 0.250000
O O18 0.003137 0.749437 0.146917
O O19 0.500172 0.287220 0.680999
#
# Coordination Sequence:
#
# PCOD8120142 Si02
#       8
#     4   4   4   4   4   4   4   4
#     4  12  22  37  57  83 115 157 208 260 313 371
#     4  10  21  38  58  81 114 155 201 251 309 360
#     4  11  23  41  68  95 125 164 202 244 296 359
#     4  11  21  37  60  88 122 156 199 252 308 360
#     4  12  23  37  60  93 121 158 205 255 311 365
#     4  11  22  39  63  94 124 158 202 253 300 368
#     4  10  21  37  62  94 124 153 201 252 296 359
#     4  11  23  38  55  82 113 154 206 260 311 367
#
# _framework density 20.141833999999999
#
# number of rings (size 3 to 8) (size 9 to 14) (size 15 to 20)
#    0.000    1.000    3.750    5.625    3.500    0.000 
#    0.000    3.750    0.000    3.000    0.000    0.000 
#    0.000    0.000    0.000    0.000    0.000    0.000 
#
# Total GULP energy -396506.859734 kJ/mol
# GULP energy per Si atom -12390.839367 kJ/mol
# Density = 2.009599 g / cm^3
# Si number density = 20.141834 Si / 1000 Ang^3
#
#
#
# Elastic Constant Matrix: (Units=GPa)
#
#
# Indices 1 2 3 4 5 6 
#
# 1 126.4011 54.5367 29.5052 0.0000 16.0597 0.0000
# 2 54.5367 94.8854 21.2349 0.0000 9.2437 0.0000
# 3 29.5052 21.2349 73.7842 0.0000 16.2995 0.0000
# 4 0.0000 0.0000 0.0000 33.5648 0.0000 -5.9518
# 5 16.0597 9.2437 16.2995 0.0000 34.6295 0.0000
# 6 0.0000 0.0000 0.0000 -5.9518 0.0000 46.0740
#
#
#
# Elastic Compliance Matrix: (Units=1/GPa)
#
#
# Indices 1 2 3 4 5 6 
#
# 1 0.011230 -0.005691 -0.002275 0.000000 -0.002618 0.000000
# 2 -0.005691 0.014233 -0.001746 0.000000 -0.000339 0.000000
# 3 -0.002275 -0.001746 0.016327 0.000000 -0.006164 0.000000
# 4 0.000000 0.000000 0.000000 0.030492 0.000000 0.003939
# 5 -0.002618 -0.000339 -0.006164 0.000000 0.033083 0.000000
# 6 0.000000 0.000000 0.000000 0.003939 0.000000 0.022213
#
#
# Mechanical properties :
#
#
# Convention : Reuss Voigt Hill
#
# Bulk Modulus (GPa) = 44.70662 56.18048 50.44355
# Shear Modulus (GPa) = 32.37160 35.50660 33.93910
#
# Velocity S-wave (km/s) = 4.01332 4.20316 4.10933
# Velocity P-wave (km/s) = 6.61209 7.17693 6.90029
#
# Compressibility (1/GPa) = 0.02236805
#
# Stress axis : x y z
#
# Youngs Moduli (GPa) = 89.04566 70.25680 61.24916
#
# Poissons Ratio (x) = 0.39980 0.13932
# Poissons Ratio (y) = 0.50672 0.10694
# Poissons Ratio (z) = 0.20254 0.12267
#
# Static dielectric constant tensor:
#      x y z
#    x 3.982430 0.000000 0.065620 
#    y 0.000000 3.516410 0.000000 
#    z 0.065620 0.000000 3.423600 
# 
# 
# High freq. dielectric constant tensor:
#      x y z
#    x 1.795430 0.000000 0.016650 
#    y 0.000000 1.747570 0.000000 
#    z 0.016650 0.000000 1.797100 
# 
# From -- ./inp_files/86677.got.cif
#   From: 2010.06.25/outbox.cif.g09.slc.cpg/sg13_44_cif.got.tgz:86677.got - 2010.06.28 04:50:58.
