data_PCOD8120207
_publ_section_title
;
Structure prediction by ZEFSAII (Michael W. Deem and Ramdas Pophale) SiO2 
 PCOD8120207
Probable space group: P 2/C
;
_chemical_formula_sum "Si O2"
_cell_formula_units_Z 24
_cell_length_a 16.892637
_cell_length_b 8.626487
_cell_length_c 13.976486
_cell_angle_alpha 90.000000
_cell_angle_beta 146.601967
_cell_angle_gamma 90.000000
_cell_volume 1121.111822
_symmetry_space_group_name_H-M "P 2/C"
_symmetry_group_IT_number 13
_symmetry_cell_setting 'monoclinic'
loop_
_space_group_symop_operation_xyz
x,y,z
-x,y,1/2-z
-x,-y,-z
x,-y,1/2+z
loop_
_atom_site_type_symbol
_atom_site_label
_atom_site_fract_x
_atom_site_fract_y
_atom_site_fract_z
Si Si1 0.246008 0.698720 0.129311
Si Si2 0.734363 0.331479 0.348680
Si Si3 0.850126 0.176364 0.646175
Si Si4 0.982749 0.320998 0.960962
Si Si5 0.518908 0.819732 0.499129
Si Si6 0.346964 0.888908 0.053676
O O1 0.257439 0.514913 0.133225
O O2 0.091223 0.751482 0.018203
O O3 0.363183 0.750094 0.324451
O O4 0.265843 0.777945 0.046849
O O5 0.752515 0.270322 0.473684
O O6 0.583821 0.270700 0.155417
O O7 0.858333 0.258355 0.404036
O O8 0.878777 0.287116 0.765729
O O9 0.000000 0.122945 0.750000
O O10 0.757902 0.027148 0.582791
O O11 0.000000 0.500000 0.000000
O O12 0.619863 0.791031 0.508334
O O13 0.500000 0.000000 0.500000
O O14 0.500000 0.949930 0.250000
#
# Coordination Sequence:
#
# PCOD8120207 Si02
#       6
#     4   4   4   4   4   4
#     4  10  21  38  59  87 118 153 195 244 298 353
#     4  10  21  38  61  86 117 153 196 245 295 354
#     4  10  21  38  59  85 115 153 197 242 297 356
#     4   9  20  38  60  86 116 153 197 244 296 356
#     4  11  22  39  60  85 118 156 198 244 293 352
#     4  10  22  39  58  87 122 156 197 245 295 353
#
# _framework density 21.407319999999999
#
# number of rings (size 3 to 8) (size 9 to 14) (size 15 to 20)
#    0.000    2.000    0.000    3.500    0.000    4.000 
#    0.000   17.500    0.000    0.000    0.000    0.000 
#    0.000    0.000    0.000    0.000    0.000    0.000 
#
# Total GULP energy -297476.109547 kJ/mol
# GULP energy per Si atom -12394.837898 kJ/mol
# Density = 2.135860 g / cm^3
# Si number density = 21.407320 Si / 1000 Ang^3
#
#
#
# Elastic Constant Matrix: (Units=GPa)
#
#
# Indices 1 2 3 4 5 6 
#
# 1 107.1661 27.2026 10.2499 0.0000 5.3943 0.0000
# 2 27.2026 76.9029 31.9913 0.0000 0.3635 0.0000
# 3 10.2499 31.9913 71.2074 0.0000 -10.8068 0.0000
# 4 0.0000 0.0000 0.0000 41.3202 0.0000 -1.0434
# 5 5.3943 0.3635 -10.8068 0.0000 28.1346 0.0000
# 6 0.0000 0.0000 0.0000 -1.0434 0.0000 29.4278
#
#
#
# Elastic Compliance Matrix: (Units=1/GPa)
#
#
# Indices 1 2 3 4 5 6 
#
# 1 0.010358 -0.003575 -0.000190 0.000000 -0.002013 0.000000
# 2 -0.003575 0.017494 -0.007725 0.000000 -0.002508 0.000000
# 3 -0.000190 -0.007725 0.018649 0.000000 0.007300 0.000000
# 4 0.000000 0.000000 0.000000 0.024223 0.000000 0.000859
# 5 -0.002013 -0.002508 0.007300 0.000000 0.038766 0.000000
# 6 0.000000 0.000000 0.000000 0.000859 0.000000 0.034012
#
#
# Mechanical properties :
#
#
# Convention : Reuss Voigt Hill
#
# Bulk Modulus (GPa) = 42.51759 43.79600 43.15680
# Shear Modulus (GPa) = 28.68224 32.16535 30.42379
#
# Velocity S-wave (km/s) = 3.66434 3.88047 3.77395
# Velocity P-wave (km/s) = 6.14879 6.37026 6.26050
#
# Compressibility (1/GPa) = 0.02351968
#
# Stress axis : x y z
#
# Youngs Moduli (GPa) = 96.54013 57.16349 53.62085
#
# Poissons Ratio (x) = 0.20438 0.01020
# Poissons Ratio (y) = 0.34517 0.41424
# Poissons Ratio (z) = 0.01836 0.44161
#
# Static dielectric constant tensor:
#      x y z
#    x 4.663140 0.000000 -0.394990 
#    y 0.000000 3.422010 0.000000 
#    z -0.394990 0.000000 4.959970 
# 
# 
# High freq. dielectric constant tensor:
#      x y z
#    x 1.857480 0.000000 0.004460 
#    y 0.000000 1.824260 0.000000 
#    z 0.004460 0.000000 1.842270 
# 
# From -- ./inp_files/55385.got.cif
#   From: 2010.06.25/outbox.cif.g09.slc.cpg/sg13_28_cif.got.tgz:55385.got - 2010.06.28 04:50:58.
