data_PCOD8120320
_publ_section_title
;
Structure prediction by ZEFSAII (Michael W. Deem and Ramdas Pophale) SiO2 
 PCOD8120320
Probable space group: P 2/C
;
_chemical_formula_sum "Si O2"
_cell_formula_units_Z 28
_cell_length_a 5.745120
_cell_length_b 14.214469
_cell_length_c 19.135496
_cell_angle_alpha 90.000000
_cell_angle_beta 57.936575
_cell_angle_gamma 90.000000
_cell_volume 1324.308524
_symmetry_space_group_name_H-M "P 2/C"
_symmetry_group_IT_number 13
_symmetry_cell_setting 'monoclinic'
loop_
_space_group_symop_operation_xyz
x,y,z
-x,y,1/2-z
-x,-y,-z
x,-y,1/2+z
loop_
_atom_site_type_symbol
_atom_site_label
_atom_site_fract_x
_atom_site_fract_y
_atom_site_fract_z
Si Si1 0.287785 0.116469 0.577678
Si Si2 0.632033 0.518146 0.124124
Si Si3 0.500000 0.675048 0.250000
Si Si4 0.718891 0.342049 0.334511
Si Si5 0.000000 0.781803 0.250000
Si Si6 0.867288 0.393504 0.460991
Si Si7 0.122713 0.935235 0.538475
Si Si8 0.783110 0.775269 0.556867
O O1 0.150057 0.156486 0.668345
O O2 0.613707 0.117836 0.535384
O O3 0.228061 0.177558 0.517792
O O4 0.194973 0.006040 0.590090
O O5 0.621570 0.610256 0.171217
O O6 0.387103 0.443347 0.176813
O O7 0.918157 0.470975 0.099276
O O8 0.632471 0.554093 0.043620
O O9 0.756823 0.728689 0.245900
O O10 0.739629 0.344500 0.414440
O O11 0.500175 0.257452 0.360418
O O12 0.000000 0.316318 0.250000
O O13 0.022574 0.315550 0.483041
O O14 0.907605 0.852198 0.591603
O O15 0.000000 0.000000 0.500000
#
# Coordination Sequence:
#
# PCOD8120320 Si02
#       8
#     4   4   2   4   2   4   4   4
#     4  10  22  44  70 100 133 174 218 284 357 423
#     4  10  23  39  60  91 131 182 231 280 350 400
#     4  12  28  44  66 106 142 188 226 294 348 416
#     4  11  23  38  63  90 135 182 233 290 341 405
#     4  12  30  42  74 108 146 178 228 292 350 422
#     4  10  21  39  63  87 127 175 236 285 333 415
#     4   9  20  40  74  91 126 171 218 272 345 424
#     4  10  21  38  67  97 126 177 228 284 346 419
#
# _framework density 21.143111000000001
#
# number of rings (size 3 to 8) (size 9 to 14) (size 15 to 20)
#    0.000    1.714    0.000    3.000   11.000    1.714 
#    0.000    0.000   37.714    0.000    0.000    0.000 
#    0.000    0.000    0.000    0.000    0.000    0.000 
#
# Total GULP energy -346912.114813 kJ/mol
# GULP energy per Si atom -12389.718386 kJ/mol
# Density = 2.109499 g / cm^3
# Si number density = 21.143111 Si / 1000 Ang^3
#
#
#
# Elastic Constant Matrix: (Units=GPa)
#
#
# Indices 1 2 3 4 5 6 
#
# 1 120.1965 63.4231 49.3286 0.0000 -12.4307 0.0000
# 2 63.4231 128.1743 69.6784 0.0000 -23.9336 0.0000
# 3 49.3286 69.6784 106.9633 0.0000 -16.6228 0.0000
# 4 0.0000 0.0000 0.0000 34.9922 0.0000 -1.7675
# 5 -12.4307 -23.9336 -16.6228 0.0000 24.9989 0.0000
# 6 0.0000 0.0000 0.0000 -1.7675 0.0000 14.9029
#
#
#
# Elastic Compliance Matrix: (Units=1/GPa)
#
#
# Indices 1 2 3 4 5 6 
#
# 1 0.011680 -0.004432 -0.002516 0.000000 -0.000108 0.000000
# 2 -0.004432 0.014993 -0.006507 0.000000 0.007824 0.000000
# 3 -0.002516 -0.006507 0.015152 0.000000 0.002594 0.000000
# 4 0.000000 0.000000 0.000000 0.028750 0.000000 0.003410
# 5 -0.000108 0.007824 0.002594 0.000000 0.049163 0.000000
# 6 0.000000 0.000000 0.000000 0.003410 0.000000 0.067506
#
#
# Mechanical properties :
#
#
# Convention : Reuss Voigt Hill
#
# Bulk Modulus (GPa) = 67.05170 80.02159 73.53665
# Shear Modulus (GPa) = 22.81812 26.50573 24.66192
#
# Velocity S-wave (km/s) = 3.28872 3.54451 3.41901
# Velocity P-wave (km/s) = 6.79728 7.39467 7.10226
#
# Compressibility (1/GPa) = 0.01491387
#
# Stress axis : x y z
#
# Youngs Moduli (GPa) = 85.61957 66.69746 65.99994
#
# Poissons Ratio (x) = 0.29557 0.16608
# Poissons Ratio (y) = 0.37943 0.42948
# Poissons Ratio (z) = 0.21544 0.43402
#
# Static dielectric constant tensor:
#      x y z
#    x 4.305860 0.000000 -0.045950 
#    y 0.000000 4.577110 0.000000 
#    z -0.045950 0.000000 3.636650 
# 
# 
# High freq. dielectric constant tensor:
#      x y z
#    x 1.843130 0.000000 -0.006110 
#    y 0.000000 1.844580 0.000000 
#    z -0.006110 0.000000 1.804660 
# 
# From -- ./inp_files/61333.got.cif
#   From: 2010.06.25/outbox.cif.g09.slc.cpg/sg13_31_cif.got.tgz:61333.got - 2010.06.28 04:50:58.
