data_PCOD8120241
_publ_section_title
;
Structure prediction by ZEFSAII (Michael W. Deem and Ramdas Pophale) SiO2 
 PCOD8120241
Probable space group: P 2/C
;
_chemical_formula_sum "Si O2"
_cell_formula_units_Z 28
_cell_length_a 14.449175
_cell_length_b 9.519427
_cell_length_c 19.960820
_cell_angle_alpha 90.000000
_cell_angle_beta 30.703941
_cell_angle_gamma 90.000000
_cell_volume 1401.892783
_symmetry_space_group_name_H-M "P 2/C"
_symmetry_group_IT_number 13
_symmetry_cell_setting 'monoclinic'
loop_
_space_group_symop_operation_xyz
x,y,z
-x,y,1/2-z
-x,-y,-z
x,-y,1/2+z
loop_
_atom_site_type_symbol
_atom_site_label
_atom_site_fract_x
_atom_site_fract_y
_atom_site_fract_z
Si Si1 0.487712 0.083680 0.077762
Si Si2 0.882383 0.472554 0.389299
Si Si3 0.408477 0.376561 0.513319
Si Si4 0.113725 0.290740 0.796174
Si Si5 0.351793 0.150525 0.748972
Si Si6 0.881192 0.947945 0.388030
Si Si7 0.745313 0.799282 0.039227
O O1 0.340770 0.001525 0.216862
O O2 0.443511 0.252735 0.097003
O O3 0.675816 0.087804 0.999733
O O4 0.500000 0.000000 0.000000
O O5 0.696595 0.552705 0.483802
O O6 0.831875 0.351112 0.472493
O O7 0.000000 0.427511 0.250000
O O8 0.009255 0.562888 0.359221
O O9 0.500000 0.500000 0.500000
O O10 0.257007 0.286329 0.646570
O O11 0.223581 0.268259 0.795946
O O12 0.963005 0.171969 0.883356
O O13 0.291167 0.148792 0.863046
O O14 0.559107 0.199938 0.612882
O O15 0.000000 0.971175 0.250000
O O16 0.893082 0.092941 0.420180
#
# Coordination Sequence:
#
# PCOD8120241 Si02
#       7
#     4   4   4   4   4   4   4
#     4  11  20  36  64  91 115 159 204 247 302 357
#     4  10  21  38  60  91 123 153 199 256 314 360
#     4  11  21  35  61  95 122 151 198 258 303 360
#     4  11  20  39  60  86 124 155 193 257 312 355
#     4  10  22  40  62  83 122 161 207 243 300 359
#     4  11  19  36  63  86 117 154 198 251 305 350
#     4  10  23  39  61  86 120 161 205 248 293 370
#
# _framework density 19.972996999999999
#
# number of rings (size 3 to 8) (size 9 to 14) (size 15 to 20)
#    0.000    1.429    4.286    1.714    2.000    1.143 
#    5.143    0.000    9.429    0.000    0.000    0.000 
#    0.000    0.000    0.000    0.000    0.000    0.000 
#
# Total GULP energy -346931.394939 kJ/mol
# GULP energy per Si atom -12390.406962 kJ/mol
# Density = 1.992754 g / cm^3
# Si number density = 19.972997 Si / 1000 Ang^3
#
#
#
# Elastic Constant Matrix: (Units=GPa)
#
#
# Indices 1 2 3 4 5 6 
#
# 1 89.1910 44.8753 17.4153 0.0000 -2.1535 0.0000
# 2 44.8753 141.8345 32.4777 0.0000 4.3354 0.0000
# 3 17.4153 32.4777 29.5584 0.0000 -3.2929 0.0000
# 4 0.0000 0.0000 0.0000 33.2990 0.0000 -0.8208
# 5 -2.1535 4.3354 -3.2929 0.0000 20.5628 0.0000
# 6 0.0000 0.0000 0.0000 -0.8208 0.0000 13.5439
#
#
#
# Elastic Compliance Matrix: (Units=1/GPa)
#
#
# Indices 1 2 3 4 5 6 
#
# 1 0.013802 -0.003460 -0.004162 0.000000 0.001508 0.000000
# 2 -0.003460 0.010574 -0.010048 0.000000 -0.004201 0.000000
# 3 -0.004162 -0.010048 0.048375 0.000000 0.009429 0.000000
# 4 0.000000 0.000000 0.000000 0.030076 0.000000 0.001823
# 5 0.001508 -0.004201 0.009429 0.000000 0.051185 0.000000
# 6 0.000000 0.000000 0.000000 0.001823 0.000000 0.073945
#
#
# Mechanical properties :
#
#
# Convention : Reuss Voigt Hill
#
# Bulk Modulus (GPa) = 26.73064 50.01340 38.37202
# Shear Modulus (GPa) = 18.13122 24.53550 21.33336
#
# Velocity S-wave (km/s) = 3.01622 3.50870 3.27174
# Velocity P-wave (km/s) = 5.05396 6.44279 5.79017
#
# Compressibility (1/GPa) = 0.03741026
#
# Stress axis : x y z
#
# Youngs Moduli (GPa) = 72.45443 94.56782 20.67195
#
# Poissons Ratio (x) = 0.32719 0.08604
# Poissons Ratio (y) = 0.25068 0.20772
# Poissons Ratio (z) = 0.30157 0.95025
#
# Static dielectric constant tensor:
#      x y z
#    x 3.680430 0.000000 -0.133120 
#    y 0.000000 4.075280 0.000000 
#    z -0.133120 0.000000 3.262120 
# 
# 
# High freq. dielectric constant tensor:
#      x y z
#    x 1.779830 0.000000 -0.017610 
#    y 0.000000 1.788800 0.000000 
#    z -0.017610 0.000000 1.752070 
# 
# From -- ./inp_files/57439.got.cif
#   From: 2010.06.25/outbox.cif.g09.slc.cpg/sg13_29_cif.got.tgz:57439.got - 2010.06.28 04:50:58.
