data_PCOD8120870
_publ_section_title
;
Structure prediction by ZEFSAII (Michael W. Deem and Ramdas Pophale) SiO2 
 PCOD8120870
Probable space group: P 2/C
;
_chemical_formula_sum "Si O2"
_cell_formula_units_Z 28
_cell_length_a 15.365010
_cell_length_b 7.906708
_cell_length_c 20.430174
_cell_angle_alpha 90.000000
_cell_angle_beta 149.345830
_cell_angle_gamma 90.000000
_cell_volume 1265.456649
_symmetry_space_group_name_H-M "P 2/C"
_symmetry_group_IT_number 13
_symmetry_cell_setting 'monoclinic'
loop_
_space_group_symop_operation_xyz
x,y,z
-x,y,1/2-z
-x,-y,-z
x,-y,1/2+z
loop_
_atom_site_type_symbol
_atom_site_label
_atom_site_fract_x
_atom_site_fract_y
_atom_site_fract_z
Si Si1 0.152124 0.026494 0.421159
Si Si2 0.697772 0.150792 0.231389
Si Si3 0.870382 0.576095 0.610843
Si Si4 0.413825 0.390505 0.999294
Si Si5 0.037170 0.368560 0.467677
Si Si6 0.224011 0.915423 0.334108
Si Si7 0.682680 0.904661 0.343779
O O1 0.118797 0.222968 0.388302
O O2 0.238912 0.985766 0.546152
O O3 0.273656 0.970606 0.440379
O O4 0.978397 0.919481 0.307586
O O5 0.552052 0.291633 0.132384
O O6 0.881507 0.239816 0.354533
O O7 0.682624 0.037885 0.156354
O O8 0.666968 0.028802 0.272605
O O9 0.686075 0.505961 0.512477
O O10 0.922746 0.518314 0.571358
O O11 0.000000 0.510292 0.750000
O O12 0.500000 0.500000 0.000000
O O13 0.290595 0.275311 0.874425
O O14 0.199849 0.257323 0.595671
O O15 0.000000 0.500000 0.500000
O O16 0.500000 0.835730 0.250000
#
# Coordination Sequence:
#
# PCOD8120870 Si02
#       7
#     4   4   4   4   4   4   4
#     4  10  21  44  74 103 130 185 242 290 359 432
#     4  12  25  49  69 105 147 190 249 298 358 443
#     4  11  22  46  71 100 147 181 236 303 369 426
#     4  12  28  42  71 113 148 186 238 314 372 421
#     4  11  26  45  73 104 147 194 239 297 371 435
#     4  11  22  43  73 101 135 183 244 295 349 433
#     4  11  25  45  72 102 145 191 243 296 361 438
#
# _framework density 22.126398999999999
#
# number of rings (size 3 to 8) (size 9 to 14) (size 15 to 20)
#    0.000    0.857    4.286    3.429    2.000    9.143 
#    0.000    0.000    0.000    0.000    0.000    0.000 
#    0.000    0.000    0.000    0.000    0.000    0.000 
#
# Total GULP energy -347175.001882 kJ/mol
# GULP energy per Si atom -12399.107210 kJ/mol
# Density = 2.207604 g / cm^3
# Si number density = 22.126399 Si / 1000 Ang^3
#
#
#
# Elastic Constant Matrix: (Units=GPa)
#
#
# Indices 1 2 3 4 5 6 
#
# 1 197.3254 78.5479 65.4343 0.0000 -7.3664 0.0000
# 2 78.5479 105.5185 65.0394 0.0000 3.9990 0.0000
# 3 65.4343 65.0394 119.6322 0.0000 7.5418 0.0000
# 4 0.0000 0.0000 0.0000 39.8338 0.0000 6.7361
# 5 -7.3664 3.9990 7.5418 0.0000 44.4119 0.0000
# 6 0.0000 0.0000 0.0000 6.7361 0.0000 47.2438
#
#
#
# Elastic Compliance Matrix: (Units=1/GPa)
#
#
# Indices 1 2 3 4 5 6 
#
# 1 0.007562 -0.004629 -0.001744 0.000000 0.001967 0.000000
# 2 -0.004629 0.017087 -0.006684 0.000000 -0.001171 0.000000
# 3 -0.001744 -0.006684 0.013066 0.000000 -0.001906 0.000000
# 4 0.000000 0.000000 0.000000 0.025725 0.000000 -0.003668
# 5 0.001967 -0.001171 -0.001906 0.000000 0.023272 0.000000
# 6 0.000000 0.000000 0.000000 -0.003668 0.000000 0.021690
#
#
# Mechanical properties :
#
#
# Convention : Reuss Voigt Hill
#
# Bulk Modulus (GPa) = 86.18607 93.39104 89.78856
# Shear Modulus (GPa) = 36.13183 40.52819 38.33001
#
# Velocity S-wave (km/s) = 4.04539 4.28444 4.16663
# Velocity P-wave (km/s) = 7.80106 8.17159 7.98847
#
# Compressibility (1/GPa) = 0.01160280
#
# Stress axis : x y z
#
# Youngs Moduli (GPa) = 132.23983 58.52399 76.53167
#
# Poissons Ratio (x) = 0.27091 0.13343
# Poissons Ratio (y) = 0.61214 0.51152
# Poissons Ratio (z) = 0.23056 0.39116
#
# Static dielectric constant tensor:
#      x y z
#    x 4.642680 0.000000 -0.363310 
#    y 0.000000 3.929370 0.000000 
#    z -0.363310 0.000000 4.134930 
# 
# 
# High freq. dielectric constant tensor:
#      x y z
#    x 1.892460 0.000000 0.003160 
#    y 0.000000 1.862420 0.000000 
#    z 0.003160 0.000000 1.876200 
# 
# From -- ./inp_files/80030.got.cif
#   From: 2010.06.25/outbox.cif.g09.slc.cpg/sg13_41_cif.got.tgz:80030.got - 2010.06.28 04:50:58.
