data_PCOD8120426
_publ_section_title
;
Structure prediction by ZEFSAII (Michael W. Deem and Ramdas Pophale) SiO2 
 PCOD8120426
Probable space group: P 2/C
;
_chemical_formula_sum "Si O2"
_cell_formula_units_Z 20
_cell_length_a 21.013078
_cell_length_b 6.143365
_cell_length_c 14.307263
_cell_angle_alpha 90.000000
_cell_angle_beta 29.085082
_cell_angle_gamma 90.000000
_cell_volume 897.811568
_symmetry_space_group_name_H-M "P 2/C"
_symmetry_group_IT_number 13
_symmetry_cell_setting 'monoclinic'
loop_
_space_group_symop_operation_xyz
x,y,z
-x,y,1/2-z
-x,-y,-z
x,-y,1/2+z
loop_
_atom_site_type_symbol
_atom_site_label
_atom_site_fract_x
_atom_site_fract_y
_atom_site_fract_z
Si Si1 0.134053 0.178883 0.112596
Si Si2 0.877115 0.841979 0.667071
Si Si3 0.224445 0.480899 0.343546
Si Si4 0.643745 0.858837 0.413758
Si Si5 0.362210 0.101657 0.264464
O O1 0.117625 0.275285 0.238430
O O2 0.000000 0.063136 0.250000
O O3 0.156175 0.370627 0.009304
O O4 0.244194 0.990150 0.979414
O O5 0.880883 0.667800 0.577566
O O6 0.742270 0.977248 0.836948
O O7 0.000000 0.000000 0.500000
O O8 0.296369 0.616402 0.168549
O O9 0.329595 0.334324 0.262010
O O10 0.498602 0.868512 0.647475
O O11 0.620325 0.917678 0.335815
#
# Coordination Sequence:
#
# PCOD8120426 Si02
#       5
#     4   4   4   4   4
#     4  11  24  40  61  90 123 166 211 255 313 375
#     4  11  24  42  62  90 128 164 206 261 316 372
#     4  10  21  39  65  92 123 163 209 257 311 374
#     4   9  19  37  62  89 121 161 201 251 311 368
#     4   9  19  38  61  88 123 159 201 253 308 366
#
# _framework density 22.276389999999999
#
# number of rings (size 3 to 8) (size 9 to 14) (size 15 to 20)
#    0.000    2.000    0.000    4.200    0.000    9.600 
#    0.000    0.000    0.000    0.000    0.000    0.000 
#    0.000    0.000    0.000    0.000    0.000    0.000 
#
# Total GULP energy -247835.049363 kJ/mol
# GULP energy per Si atom -12391.752468 kJ/mol
# Density = 2.222569 g / cm^3
# Si number density = 22.276390 Si / 1000 Ang^3
#
#
#
# Elastic Constant Matrix: (Units=GPa)
#
#
# Indices 1 2 3 4 5 6 
#
# 1 124.6739 40.1386 65.7459 0.0000 -3.8892 0.0000
# 2 40.1386 106.6562 44.7739 0.0000 -3.1172 0.0000
# 3 65.7459 44.7739 127.1400 0.0000 -25.2936 0.0000
# 4 0.0000 0.0000 0.0000 27.2107 0.0000 -2.0558
# 5 -3.8892 -3.1172 -25.2936 0.0000 38.1120 0.0000
# 6 0.0000 0.0000 0.0000 -2.0558 0.0000 28.3967
#
#
#
# Elastic Compliance Matrix: (Units=1/GPa)
#
#
# Indices 1 2 3 4 5 6 
#
# 1 0.011697 -0.002001 -0.005921 0.000000 -0.002899 0.000000
# 2 -0.002001 0.011469 -0.003293 0.000000 -0.001451 0.000000
# 3 -0.005921 -0.003293 0.013725 0.000000 0.008235 0.000000
# 4 0.000000 0.000000 0.000000 0.036952 0.000000 0.002675
# 5 -0.002899 -0.001451 0.008235 0.000000 0.031289 0.000000
# 6 0.000000 0.000000 0.000000 0.002675 0.000000 0.035409
#
#
# Mechanical properties :
#
#
# Convention : Reuss Voigt Hill
#
# Bulk Modulus (GPa) = 69.14990 73.30968 71.22979
# Shear Modulus (GPa) = 29.79883 32.59800 31.19841
#
# Velocity S-wave (km/s) = 3.66141 3.82952 3.74641
# Velocity P-wave (km/s) = 6.99884 7.24805 7.12453
#
# Compressibility (1/GPa) = 0.01446134
#
# Stress axis : x y z
#
# Youngs Moduli (GPa) = 85.49161 87.19193 72.85968
#
# Poissons Ratio (x) = 0.17449 0.43139
# Poissons Ratio (y) = 0.17109 0.23991
# Poissons Ratio (z) = 0.50618 0.28711
#
# Static dielectric constant tensor:
#      x y z
#    x 3.999570 0.000000 -0.274690 
#    y 0.000000 3.961190 0.000000 
#    z -0.274690 0.000000 4.340110 
# 
# 
# High freq. dielectric constant tensor:
#      x y z
#    x 1.873650 0.000000 -0.019150 
#    y 0.000000 1.864600 0.000000 
#    z -0.019150 0.000000 1.879080 
# 
# From -- ./inp_files/48981.got.cif
#   From: 2010.06.25/outbox.cif.g09.slc.cpg/sg13_25_cif.got.tgz:48981.got - 2010.06.28 04:50:58.
