data_PCOD8120801
_publ_section_title
;
Structure prediction by ZEFSAII (Michael W. Deem and Ramdas Pophale) SiO2 
 PCOD8120801
Probable space group: P 2/C
;
_chemical_formula_sum "Si O2"
_cell_formula_units_Z 26
_cell_length_a 15.463480
_cell_length_b 8.324752
_cell_length_c 14.430626
_cell_angle_alpha 90.000000
_cell_angle_beta 43.406284
_cell_angle_gamma 90.000000
_cell_volume 1276.515612
_symmetry_space_group_name_H-M "P 2/C"
_symmetry_group_IT_number 13
_symmetry_cell_setting 'monoclinic'
loop_
_space_group_symop_operation_xyz
x,y,z
-x,y,1/2-z
-x,-y,-z
x,-y,1/2+z
loop_
_atom_site_type_symbol
_atom_site_label
_atom_site_fract_x
_atom_site_fract_y
_atom_site_fract_z
Si Si1 0.806866 0.079447 0.538742
Si Si2 0.948917 0.231071 0.888223
Si Si3 0.287441 0.585014 0.848279
Si Si4 0.370751 0.104191 0.190921
Si Si5 0.500000 0.373325 0.750000
Si Si6 0.403160 0.882171 0.454513
Si Si7 0.893493 0.634940 0.084594
O O1 0.707737 0.096289 0.532815
O O2 0.876996 0.247837 0.507190
O O3 0.911883 0.954954 0.423419
O O4 0.737296 0.013599 0.685531
O O5 0.000000 0.281154 0.750000
O O6 0.071640 0.251425 0.857487
O O7 0.831220 0.346319 0.002303
O O8 0.368929 0.724747 0.741254
O O9 0.375881 0.482232 0.846444
O O10 0.236401 0.465352 0.806887
O O11 0.508957 0.038920 0.107311
O O12 0.346669 0.139785 0.101056
O O13 0.509871 0.265274 0.648898
O O14 0.000000 0.500000 0.000000
#
# Coordination Sequence:
#
# PCOD8120801 Si02
#       7
#     4   4   4   4   2   4   4
#     4  11  21  42  66  92 130 172 216 278 322 383
#     4  10  24  41  65  95 124 175 225 266 316 385
#     4  10  23  41  66  93 134 171 209 278 330 387
#     4  10  23  39  65  98 128 173 218 264 327 403
#     4  12  22  40  68  98 136 172 206 272 344 390
#     4  11  22  40  64  97 133 171 218 265 329 403
#     4  10  21  43  61  86 127 168 212 268 325 377
#
# _framework density 20.367944999999999
#
# number of rings (size 3 to 8) (size 9 to 14) (size 15 to 20)
#    0.000    1.538    3.077    0.462    6.462    1.846 
#    0.000    0.769    0.000    0.000    0.000    0.000 
#    0.000    0.000    0.000    0.000    0.000    0.000 
#
# Total GULP energy -322203.272272 kJ/mol
# GULP energy per Si atom -12392.433549 kJ/mol
# Density = 2.032159 g / cm^3
# Si number density = 20.367945 Si / 1000 Ang^3
#
#
#
# Elastic Constant Matrix: (Units=GPa)
#
#
# Indices 1 2 3 4 5 6 
#
# 1 145.3397 67.0256 50.3179 0.0000 4.4996 0.0000
# 2 67.0256 125.4148 37.1733 0.0000 -4.2806 0.0000
# 3 50.3179 37.1733 91.2430 0.0000 18.4976 0.0000
# 4 0.0000 0.0000 0.0000 8.0856 0.0000 -9.7925
# 5 4.4996 -4.2806 18.4976 0.0000 32.0617 0.0000
# 6 0.0000 0.0000 0.0000 -9.7925 0.0000 41.0311
#
#
#
# Elastic Compliance Matrix: (Units=1/GPa)
#
#
# Indices 1 2 3 4 5 6 
#
# 1 0.010210 -0.004279 -0.003942 0.000000 0.000270 0.000000
# 2 -0.004279 0.011287 -0.003019 0.000000 0.003849 0.000000
# 3 -0.003942 -0.003019 0.016232 0.000000 -0.009214 0.000000
# 4 0.000000 0.000000 0.000000 0.173957 0.000000 0.041517
# 5 0.000270 0.003849 -0.009214 0.000000 0.036982 0.000000
# 6 0.000000 0.000000 0.000000 0.041517 0.000000 0.034280
#
#
# Mechanical properties :
#
#
# Convention : Reuss Voigt Hill
#
# Bulk Modulus (GPa) = 65.57999 74.55902 70.06950
# Shear Modulus (GPa) = 16.10253 30.06774 23.08513
#
# Velocity S-wave (km/s) = 2.81478 3.84634 3.37026
# Velocity P-wave (km/s) = 6.54458 7.51075 7.04425
#
# Compressibility (1/GPa) = 0.01524855
#
# Stress axis : x y z
#
# Youngs Moduli (GPa) = 97.94161 88.60128 61.60808
#
# Poissons Ratio (x) = 0.37912 0.24286
# Poissons Ratio (y) = 0.41909 0.18598
# Poissons Ratio (z) = 0.38609 0.26747
#
# Static dielectric constant tensor:
#      x y z
#    x 3.993050 0.000000 -0.139320 
#    y 0.000000 4.006440 0.000000 
#    z -0.139320 0.000000 3.560940 
# 
# 
# High freq. dielectric constant tensor:
#      x y z
#    x 1.807010 0.000000 -0.015160 
#    y 0.000000 1.814160 0.000000 
#    z -0.015160 0.000000 1.768970 
# 
# From -- ./inp_files/52914.got.cif
#   From: 2010.06.25/outbox.cif.g09.slc.cpg/sg13_27_cif.got.tgz:52914.got - 2010.06.28 04:50:58.
