data_PCOD8120943
_publ_section_title
;
Structure prediction by ZEFSAII (Michael W. Deem and Ramdas Pophale) SiO2 
 PCOD8120943
Probable space group: P 2/C
;
_chemical_formula_sum "Si O2"
_cell_formula_units_Z 24
_cell_length_a 15.906169
_cell_length_b 10.828535
_cell_length_c 23.320163
_cell_angle_alpha 90.000000
_cell_angle_beta 19.363416
_cell_angle_gamma 90.000000
_cell_volume 1331.764536
_symmetry_space_group_name_H-M "P 2/C"
_symmetry_group_IT_number 13
_symmetry_cell_setting 'monoclinic'
loop_
_space_group_symop_operation_xyz
x,y,z
-x,y,1/2-z
-x,-y,-z
x,-y,1/2+z
loop_
_atom_site_type_symbol
_atom_site_label
_atom_site_fract_x
_atom_site_fract_y
_atom_site_fract_z
Si Si1 0.110941 0.782807 0.020671
Si Si2 0.584443 0.217306 0.283860
Si Si3 0.651392 0.019192 0.598544
Si Si4 0.610070 0.638049 0.365864
Si Si5 0.156038 0.748913 0.594028
Si Si6 0.293569 0.362071 0.182311
O O1 0.835980 0.734169 0.213061
O O2 0.179405 0.752965 0.910314
O O3 0.327084 0.721544 0.922886
O O4 0.119894 0.931672 0.025033
O O5 0.639923 0.266099 0.310995
O O6 0.540328 0.068432 0.314829
O O7 0.500000 0.076933 0.750000
O O8 0.759371 0.126637 0.490571
O O9 0.395531 0.665763 0.457014
O O10 0.709157 0.500052 0.290960
O O11 0.506937 0.652966 0.496550
O O12 0.000000 0.790436 0.750000
O O13 0.985422 0.666023 0.661993
#
# Coordination Sequence:
#
# PCOD8120943 Si02
#       6
#     4   4   4   4   4   4
#     4   8  18  37  58  81 108 140 181 224 269 323
#     4   8  18  37  58  81 108 140 181 224 269 323
#     4   8  18  37  58  82 110 143 179 222 277 328
#     4  10  22  37  56  80 111 149 184 224 272 324
#     4  10  22  37  52  82 114 139 183 230 271 324
#     4  10  22  37  56  80 111 149 184 224 272 324
#
# _framework density 18.021204999999998
#
# number of rings (size 3 to 8) (size 9 to 14) (size 15 to 20)
#    1.000    2.000    0.000    0.000    2.333    5.333 
#    0.000    6.667    0.000    0.000    0.000    0.000 
#    0.000    0.000    0.000    0.000    0.000    0.000 
#
# Total GULP energy -297432.427251 kJ/mol
# GULP energy per Si atom -12393.017802 kJ/mol
# Density = 1.798019 g / cm^3
# Si number density = 18.021205 Si / 1000 Ang^3
#
#
#
# Elastic Constant Matrix: (Units=GPa)
#
#
# Indices 1 2 3 4 5 6 
#
# 1 112.7539 61.8434 56.5126 0.0000 -4.0531 0.0000
# 2 61.8434 109.2864 62.0144 0.0000 0.5599 0.0000
# 3 56.5126 62.0144 100.8152 0.0000 -10.2255 0.0000
# 4 0.0000 0.0000 0.0000 -1.6200 0.0000 -14.7570
# 5 -4.0531 0.5599 -10.2255 0.0000 18.4168 0.0000
# 6 0.0000 0.0000 0.0000 -14.7570 0.0000 9.9805
#
#
#
# Elastic Compliance Matrix: (Units=1/GPa)
#
#
# Indices 1 2 3 4 5 6 
#
# 1 0.014141 -0.005459 -0.004489 0.000000 0.000785 0.000000
# 2 -0.005459 0.016719 -0.007839 0.000000 -0.006062 0.000000
# 3 -0.004489 -0.007839 0.018207 0.000000 0.009359 0.000000
# 4 0.000000 0.000000 0.000000 -0.042663 0.000000 -0.063081
# 5 0.000785 -0.006062 0.009359 0.000000 0.059852 0.000000
# 6 0.000000 0.000000 0.000000 -0.063081 0.000000 0.006925
#
#
# Mechanical properties :
#
#
# Convention : Reuss Voigt Hill
#
# Bulk Modulus (GPa) = 74.11574 75.95513 75.03544
# Shear Modulus (GPa) = 44.14897 14.85446 29.50171
#
# Velocity S-wave (km/s) = 4.95495 2.87414 4.05044
# Velocity P-wave (km/s) = 8.59951 7.29749 7.97512
#
# Compressibility (1/GPa) = 0.01349241
#
# Stress axis : x y z
#
# Youngs Moduli (GPa) = 70.71488 59.81367 54.92381
#
# Poissons Ratio (x) = 0.32651 0.24658
# Poissons Ratio (y) = 0.38602 0.43055
# Poissons Ratio (z) = 0.31747 0.46888
#
# Static dielectric constant tensor:
#      x y z
#    x 3.280720 0.000000 -0.039230 
#    y 0.000000 3.137070 0.000000 
#    z -0.039230 0.000000 3.245120 
# 
# 
# High freq. dielectric constant tensor:
#      x y z
#    x 1.695950 0.000000 0.002240 
#    y 0.000000 1.684800 0.000000 
#    z 0.002240 0.000000 1.697250 
# 
# From -- ./inp_files/80143.got.cif
#   From: 2010.06.25/outbox.cif.g09.slc.cpg/sg13_41_cif.got.tgz:80143.got - 2010.06.28 04:50:58.
