data_PCOD8120388
_publ_section_title
;
Structure prediction by ZEFSAII (Michael W. Deem and Ramdas Pophale) SiO2 
 PCOD8120388
Probable space group: P 2/C
;
_chemical_formula_sum "Si O2"
_cell_formula_units_Z 22
_cell_length_a 6.324732
_cell_length_b 8.309453
_cell_length_c 20.693392
_cell_angle_alpha 90.000000
_cell_angle_beta 93.530647
_cell_angle_gamma 90.000000
_cell_volume 1085.478372
_symmetry_space_group_name_H-M "P 2/C"
_symmetry_group_IT_number 13
_symmetry_cell_setting 'monoclinic'
loop_
_space_group_symop_operation_xyz
x,y,z
-x,y,1/2-z
-x,-y,-z
x,-y,1/2+z
loop_
_atom_site_type_symbol
_atom_site_label
_atom_site_fract_x
_atom_site_fract_y
_atom_site_fract_z
Si Si1 0.500000 0.484210 0.250000
Si Si2 0.240824 0.873445 0.936515
Si Si3 0.867982 0.320079 0.189032
Si Si4 0.619948 0.637273 0.964825
Si Si5 0.818527 0.435748 0.855984
Si Si6 0.953958 0.802991 0.051707
O O1 0.632358 0.362412 0.207200
O O2 0.354415 0.600392 0.203134
O O3 0.127540 0.790780 0.873907
O O4 0.477831 0.799006 0.949146
O O5 0.212509 0.064778 0.922577
O O6 0.117930 0.861116 0.001216
O O7 0.000000 0.235721 0.250000
O O8 0.977034 0.488071 0.173317
O O9 0.711398 0.567445 0.900621
O O10 0.500000 0.500000 0.000000
O O11 0.813473 0.667338 0.016228
O O12 0.896270 0.270985 0.889833
#
# Coordination Sequence:
#
# PCOD8120388 Si02
#       6
#     2   4   4   4   4   4
#     4  10  22  38  64  90 110 160 224 260 300 366
#     4  11  22  40  60  90 132 159 201 254 325 383
#     4  10  21  39  63  87 117 164 215 256 300 379
#     4  12  21  36  63  92 122 161 204 251 314 379
#     4  11  21  38  62  90 124 157 215 260 308 369
#     4  11  24  37  60  97 126 159 196 266 324 374
#
# _framework density 20.267561000000001
#
# number of rings (size 3 to 8) (size 9 to 14) (size 15 to 20)
#    0.000    1.091    5.455    2.182    0.000    0.000 
#    0.000    2.727    0.000    2.182    0.000    0.000 
#    0.000    0.000    0.000    0.000    0.000    0.000 
#
# Total GULP energy -272610.246796 kJ/mol
# GULP energy per Si atom -12391.374854 kJ/mol
# Density = 2.022143 g / cm^3
# Si number density = 20.267561 Si / 1000 Ang^3
#
#
#
# Elastic Constant Matrix: (Units=GPa)
#
#
# Indices 1 2 3 4 5 6 
#
# 1 95.1000 36.0804 28.1578 0.0000 1.6480 0.0000
# 2 36.0804 82.4003 41.1605 0.0000 9.2421 0.0000
# 3 28.1578 41.1605 115.2082 0.0000 21.9247 0.0000
# 4 0.0000 0.0000 0.0000 12.7839 0.0000 1.8808
# 5 1.6480 9.2421 21.9247 0.0000 42.4948 0.0000
# 6 0.0000 0.0000 0.0000 1.8808 0.0000 35.5846
#
#
#
# Elastic Compliance Matrix: (Units=1/GPa)
#
#
# Indices 1 2 3 4 5 6 
#
# 1 0.012863 -0.004974 -0.001639 0.000000 0.001428 0.000000
# 2 -0.004974 0.016707 -0.004545 0.000000 -0.001096 0.000000
# 3 -0.001639 -0.004545 0.011647 0.000000 -0.004957 0.000000
# 4 0.000000 0.000000 0.000000 0.078837 0.000000 -0.004167
# 5 0.001428 -0.001096 -0.004957 0.000000 0.026273 0.000000
# 6 0.000000 0.000000 0.000000 -0.004167 0.000000 0.028322
#
#
# Mechanical properties :
#
#
# Convention : Reuss Voigt Hill
#
# Bulk Modulus (GPa) = 52.90192 55.94509 54.42351
# Shear Modulus (GPa) = 24.59856 30.65999 27.62927
#
# Velocity S-wave (km/s) = 3.48759 3.89364 3.69620
# Velocity P-wave (km/s) = 6.50969 6.91933 6.71764
#
# Compressibility (1/GPa) = 0.01890290
#
# Stress axis : x y z
#
# Youngs Moduli (GPa) = 77.74413 59.85581 85.85535
#
# Poissons Ratio (x) = 0.29771 0.14068
# Poissons Ratio (y) = 0.38669 0.39018
# Poissons Ratio (z) = 0.12739 0.27202
#
# Static dielectric constant tensor:
#      x y z
#    x 3.917090 0.000000 0.018270 
#    y 0.000000 3.531110 0.000000 
#    z 0.018270 0.000000 3.966030 
# 
# 
# High freq. dielectric constant tensor:
#      x y z
#    x 1.805950 0.000000 0.004270 
#    y 0.000000 1.758090 0.000000 
#    z 0.004270 0.000000 1.806730 
# 
# From -- ./inp_files/73091.got.cif
#   From: 2010.06.25/outbox.cif.g09.slc.cpg/sg13_37_cif.got.tgz:73091.got - 2010.06.28 04:50:58.
