data_PCOD8120044
_publ_section_title
;
Structure prediction by ZEFSAII (Michael W. Deem and Ramdas Pophale) SiO2 
 PCOD8120044
Probable space group: P 2/C
;
_chemical_formula_sum "Si O2"
_cell_formula_units_Z 26
_cell_length_a 22.706094
_cell_length_b 11.523364
_cell_length_c 23.185941
_cell_angle_alpha 90.000000
_cell_angle_beta 167.350860
_cell_angle_gamma 90.000000
_cell_volume 1328.468340
_symmetry_space_group_name_H-M "P 2/C"
_symmetry_group_IT_number 13
_symmetry_cell_setting 'monoclinic'
loop_
_space_group_symop_operation_xyz
x,y,z
-x,y,1/2-z
-x,-y,-z
x,-y,1/2+z
loop_
_atom_site_type_symbol
_atom_site_label
_atom_site_fract_x
_atom_site_fract_y
_atom_site_fract_z
Si Si1 0.333054 0.100421 0.648724
Si Si2 0.796746 0.759066 0.638141
Si Si3 0.729224 0.617544 0.922151
Si Si4 0.730272 0.455335 0.300526
Si Si5 0.247617 0.397749 0.300886
Si Si6 0.000000 0.422208 0.250000
Si Si7 0.209453 0.865363 0.497446
O O1 0.500000 0.091390 0.750000
O O2 0.070175 0.174829 0.385906
O O3 0.240660 0.967591 0.575929
O O4 0.531384 0.159639 0.884724
O O5 0.828361 0.713076 0.733525
O O6 0.776158 0.657495 0.569141
O O7 0.500000 0.624414 0.750000
O O8 0.614957 0.603941 0.748227
O O9 0.896878 0.739557 0.081236
O O10 0.897420 0.503710 0.100193
O O11 0.737916 0.365335 0.253657
O O12 0.030169 0.499853 0.600833
O O13 0.539373 0.561853 0.101339
O O14 0.500000 0.838168 0.750000
O O15 0.000000 0.913041 0.250000
#
# Coordination Sequence:
#
# PCOD8120044 Si02
#       7
#     4   4   4   4   4   2   4
#     4  11  21  36  53  79 109 154 187 226 279 334
#     4  12  22  33  56  81 119 143 181 236 280 339
#     4  11  23  36  58  86 120 147 183 242 290 340
#     4  10  21  37  57  78 116 152 188 222 279 353
#     4  10  21  37  54  81 112 156 188 221 277 352
#     4  12  22  32  52  92 118 140 172 236 306 334
#     4  10  21  38  55  78 113 153 196 226 278 343
#
# _framework density 19.571411000000001
#
# number of rings (size 3 to 8) (size 9 to 14) (size 15 to 20)
#    0.000    1.231    3.846    3.692    2.154    0.000 
#    0.000    0.000    0.000    1.846    0.000    0.000 
#    0.000    0.000    0.000    0.000    0.000    0.000 
#
# Total GULP energy -322158.044472 kJ/mol
# GULP energy per Si atom -12390.694018 kJ/mol
# Density = 1.952687 g / cm^3
# Si number density = 19.571411 Si / 1000 Ang^3
#
#
#
# Elastic Constant Matrix: (Units=GPa)
#
#
# Indices 1 2 3 4 5 6 
#
# 1 126.2536 44.6603 16.3367 0.0000 -20.2673 0.0000
# 2 44.6603 109.1582 36.4301 0.0000 -8.3834 0.0000
# 3 16.3367 36.4301 94.8068 0.0000 -9.3303 0.0000
# 4 0.0000 0.0000 0.0000 17.9734 0.0000 -11.7457
# 5 -20.2673 -8.3834 -9.3303 0.0000 24.7932 0.0000
# 6 0.0000 0.0000 0.0000 -11.7457 0.0000 -4.3701
#
#
#
# Elastic Compliance Matrix: (Units=1/GPa)
#
#
# Indices 1 2 3 4 5 6 
#
# 1 0.010403 -0.003825 0.000402 0.000000 0.007362 0.000000
# 2 -0.003825 0.012023 -0.004017 0.000000 -0.000573 0.000000
# 3 0.000402 -0.004017 0.012379 0.000000 0.003629 0.000000
# 4 0.000000 0.000000 0.000000 0.020185 0.000000 -0.054251
# 5 0.007362 -0.000573 0.003629 0.000000 0.047524 0.000000
# 6 0.000000 0.000000 0.000000 -0.054251 0.000000 -0.083016
#
#
# Mechanical properties :
#
#
# Convention : Reuss Voigt Hill
#
# Bulk Modulus (GPa) = 50.18970 58.34143 54.26557
# Shear Modulus (GPa) = 121.89137 23.19873 72.54505
#
# Velocity S-wave (km/s) = 7.90035 3.44661 6.09486
# Velocity P-wave (km/s) = 10.43651 6.76114 8.79300
#
# Compressibility (1/GPa) = 0.01992441
#
# Stress axis : x y z
#
# Youngs Moduli (GPa) = 96.12157 83.17684 80.78042
#
# Poissons Ratio (x) = 0.31816 -0.03245
# Poissons Ratio (y) = 0.36767 0.32450
# Poissons Ratio (z) = -0.03861 0.33413
#
# Static dielectric constant tensor:
#      x y z
#    x 3.659710 0.000000 -0.113940 
#    y 0.000000 4.092600 0.000000 
#    z -0.113940 0.000000 3.669110 
# 
# 
# High freq. dielectric constant tensor:
#      x y z
#    x 1.734660 0.000000 -0.003600 
#    y 0.000000 1.754600 0.000000 
#    z -0.003600 0.000000 1.771140 
# 
# From -- ./inp_files/94109.got.cif
#   From: 2010.06.25/outbox.cif.g09.slc.cpg/sg13_48_cif.got.tgz:94109.got - 2010.06.28 04:50:58.
