data_PCOD8120582
_publ_section_title
;
Structure prediction by ZEFSAII (Michael W. Deem and Ramdas Pophale) SiO2 
 PCOD8120582
Probable space group: P 2/C
;
_chemical_formula_sum "Si O2"
_cell_formula_units_Z 20
_cell_length_a 6.786552
_cell_length_b 9.721897
_cell_length_c 17.839396
_cell_angle_alpha 90.000000
_cell_angle_beta 133.945726
_cell_angle_gamma 90.000000
_cell_volume 847.444628
_symmetry_space_group_name_H-M "P 2/C"
_symmetry_group_IT_number 13
_symmetry_cell_setting 'monoclinic'
loop_
_space_group_symop_operation_xyz
x,y,z
-x,y,1/2-z
-x,-y,-z
x,-y,1/2+z
loop_
_atom_site_type_symbol
_atom_site_label
_atom_site_fract_x
_atom_site_fract_y
_atom_site_fract_z
Si Si1 0.500000 0.517284 0.750000
Si Si2 0.465908 0.278857 0.626150
Si Si3 0.500000 0.958475 0.250000
Si Si4 0.884271 0.353050 0.451110
Si Si5 0.062047 0.967728 0.851714
Si Si6 0.573766 0.791537 0.997174
O O1 0.554573 0.416287 0.693912
O O2 0.252522 0.622912 0.666621
O O3 0.546583 0.139857 0.690583
O O4 0.616127 0.290939 0.586106
O O5 0.143869 0.253388 0.523416
O O6 0.772227 0.054979 0.320507
O O7 0.655424 0.304956 0.449847
O O8 0.000000 0.500000 0.500000
O O9 0.000000 0.013445 0.750000
O O10 0.255287 0.833167 0.901043
O O11 0.224413 0.079149 0.944063
#
# Coordination Sequence:
#
# PCOD8120582 Si02
#       6
#     2   4   2   4   4   4
#     4   9  22  40  65  94 128 177 232 279 354 404
#     4  10  21  40  67  96 130 181 230 290 344 420
#     4  11  20  40  67  96 136 183 234 279 352 428
#     4  10  22  42  64  96 134 178 235 288 346 413
#     4  11  24  40  65 102 136 183 232 285 355 422
#     4  11  24  41  66  98 141 178 233 291 347 422
#
# _framework density 23.600360999999999
#
# number of rings (size 3 to 8) (size 9 to 14) (size 15 to 20)
#    0.000    1.600    4.000    0.000    0.000    7.200 
#    0.000    4.000    0.000    0.000    0.000    0.000 
#    0.000    0.000    0.000    0.000    0.000    0.000 
#
# Total GULP energy -247772.745570 kJ/mol
# GULP energy per Si atom -12388.637279 kJ/mol
# Density = 2.354665 g / cm^3
# Si number density = 23.600361 Si / 1000 Ang^3
#
#
#
# Elastic Constant Matrix: (Units=GPa)
#
#
# Indices 1 2 3 4 5 6 
#
# 1 136.1081 40.0096 42.7438 0.0000 11.7856 0.0000
# 2 40.0096 63.6050 28.8959 0.0000 2.5997 0.0000
# 3 42.7438 28.8959 134.1933 0.0000 7.5185 0.0000
# 4 0.0000 0.0000 0.0000 20.4268 0.0000 0.4173
# 5 11.7856 2.5997 7.5185 0.0000 34.5188 0.0000
# 6 0.0000 0.0000 0.0000 0.4173 0.0000 35.1530
#
#
#
# Elastic Compliance Matrix: (Units=1/GPa)
#
#
# Indices 1 2 3 4 5 6 
#
# 1 0.009648 -0.005137 -0.001826 0.000000 -0.002509 0.000000
# 2 -0.005137 0.020170 -0.002754 0.000000 0.000834 0.000000
# 3 -0.001826 -0.002754 0.008686 0.000000 -0.001061 0.000000
# 4 0.000000 0.000000 0.000000 0.048967 0.000000 -0.000581
# 5 -0.002509 0.000834 -0.001061 0.000000 0.029995 0.000000
# 6 0.000000 0.000000 0.000000 -0.000581 0.000000 0.028454
#
#
# Mechanical properties :
#
#
# Convention : Reuss Voigt Hill
#
# Bulk Modulus (GPa) = 52.43727 61.91167 57.17447
# Shear Modulus (GPa) = 29.11882 32.83688 30.97785
#
# Velocity S-wave (km/s) = 3.51640 3.73416 3.62691
# Velocity P-wave (km/s) = 6.22526 6.69942 6.46669
#
# Compressibility (1/GPa) = 0.01907041
#
# Stress axis : x y z
#
# Youngs Moduli (GPa) = 103.64984 49.57846 115.12599
#
# Poissons Ratio (x) = 0.25466 0.21027
# Poissons Ratio (y) = 0.53240 0.31704
# Poissons Ratio (z) = 0.18931 0.13653
#
# Static dielectric constant tensor:
#      x y z
#    x 4.700710 0.000000 1.357090 
#    y 0.000000 4.032140 0.000000 
#    z 1.357090 0.000000 6.906510 
# 
# 
# High freq. dielectric constant tensor:
#      x y z
#    x 1.920480 0.000000 0.003740 
#    y 0.000000 1.914570 0.000000 
#    z 0.003740 0.000000 1.957000 
# 
# From -- ./inp_files/61008.got.cif
#   From: 2010.06.25/outbox.cif.g09.slc.cpg/sg13_31_cif.got.tgz:61008.got - 2010.06.28 04:50:58.
