data_PCOD8120950
_publ_section_title
;
Structure prediction by ZEFSAII (Michael W. Deem and Ramdas Pophale) SiO2 
 PCOD8120950
Probable space group: P 2/C
;
_chemical_formula_sum "Si O2"
_cell_formula_units_Z 32
_cell_length_a 11.781562
_cell_length_b 6.942575
_cell_length_c 18.720440
_cell_angle_alpha 90.000000
_cell_angle_beta 88.891253
_cell_angle_gamma 90.000000
_cell_volume 1530.940050
_symmetry_space_group_name_H-M "P 2/C"
_symmetry_group_IT_number 13
_symmetry_cell_setting 'monoclinic'
loop_
_space_group_symop_operation_xyz
x,y,z
-x,y,1/2-z
-x,-y,-z
x,-y,1/2+z
loop_
_atom_site_type_symbol
_atom_site_label
_atom_site_fract_x
_atom_site_fract_y
_atom_site_fract_z
Si Si1 0.471906 0.272022 0.827269
Si Si2 0.640714 0.637106 0.633544
Si Si3 0.865657 0.785669 0.460605
Si Si4 0.275278 0.015398 0.805445
Si Si5 0.320038 0.931233 0.140455
Si Si6 0.455969 0.184268 0.044731
Si Si7 0.106047 0.907058 0.424049
Si Si8 0.748200 0.414423 0.517490
O O1 0.500000 0.184296 0.750000
O O2 0.441594 0.495887 0.821309
O O3 0.364928 0.140363 0.851904
O O4 0.585757 0.239352 0.872291
O O5 0.573448 0.722044 0.567190
O O6 0.740078 0.513016 0.595620
O O7 0.692764 0.791379 0.686914
O O8 0.778674 0.907038 0.414738
O O9 0.815695 0.568009 0.466243
O O10 0.984282 0.803947 0.416588
O O11 0.889006 0.882971 0.537810
O O12 0.270548 0.063634 0.721490
O O13 0.154864 0.063960 0.843502
O O14 0.385308 0.126329 0.117071
O O15 0.378744 0.342548 0.004107
O O16 0.500000 0.000000 0.000000
O O17 0.176646 0.774265 0.477053
#
# Coordination Sequence:
#
# PCOD8120950 Si02
#       8
#     4   4   4   4   4   4   4   4
#     4  10  22  37  60  90 126 165 205 245 313 386
#     4  12  22  36  63  90 129 169 200 251 320 380
#     4  11  24  43  67  92 120 170 217 270 319 371
#     4  11  23  42  62  92 129 167 210 260 319 387
#     4  11  23  42  63  93 131 168 208 261 321 385
#     4  12  23  37  62  96 140 167 206 258 320 386
#     4  11  23  44  67  90 124 163 221 270 316 377
#     4  12  22  40  65  97 124 167 221 264 319 385
#
# _framework density 20.902190000000001
#
# number of rings (size 3 to 8) (size 9 to 14) (size 15 to 20)
#    0.000    0.750    5.000    3.750    1.750    0.500 
#    0.000    0.000    0.000    0.000    0.000    0.000 
#    0.000    0.000    0.000    0.000    0.000    0.000 
#
# Total GULP energy -396552.665591 kJ/mol
# GULP energy per Si atom -12392.270800 kJ/mol
# Density = 2.085462 g / cm^3
# Si number density = 20.902190 Si / 1000 Ang^3
#
#
#
# Elastic Constant Matrix: (Units=GPa)
#
#
# Indices 1 2 3 4 5 6 
#
# 1 92.0688 21.0701 23.2188 0.0000 -13.7077 0.0000
# 2 21.0701 101.0744 16.5010 0.0000 -12.2560 0.0000
# 3 23.2188 16.5010 69.4072 0.0000 -19.8489 0.0000
# 4 0.0000 0.0000 0.0000 30.5380 0.0000 -6.1727
# 5 -13.7077 -12.2560 -19.8489 0.0000 31.1169 0.0000
# 6 0.0000 0.0000 0.0000 -6.1727 0.0000 32.5611
#
#
#
# Elastic Compliance Matrix: (Units=1/GPa)
#
#
# Indices 1 2 3 4 5 6 
#
# 1 0.012433 -0.001763 -0.002902 0.000000 0.002932 0.000000
# 2 -0.001763 0.010785 -0.001201 0.000000 0.002706 0.000000
# 3 -0.002902 -0.001201 0.018546 0.000000 0.010079 0.000000
# 4 0.000000 0.000000 0.000000 0.034051 0.000000 0.006455
# 5 0.002932 0.002706 0.010079 0.000000 0.040923 0.000000
# 6 0.000000 0.000000 0.000000 0.006455 0.000000 0.031935
#
#
# Mechanical properties :
#
#
# Convention : Reuss Voigt Hill
#
# Bulk Modulus (GPa) = 33.29502 42.68115 37.98809
# Shear Modulus (GPa) = 29.33999 32.29388 30.81694
#
# Velocity S-wave (km/s) = 3.75064 3.93491 3.84388
# Velocity P-wave (km/s) = 5.89236 6.41159 6.15745
#
# Compressibility (1/GPa) = 0.03003452
#
# Stress axis : x y z
#
# Youngs Moduli (GPa) = 80.43028 92.71933 53.91905
#
# Poissons Ratio (x) = 0.16343 0.15646
# Poissons Ratio (y) = 0.14177 0.06474
# Poissons Ratio (z) = 0.23339 0.11133
#
# Static dielectric constant tensor:
#      x y z
#    x 3.864950 0.000000 -0.194490 
#    y 0.000000 3.903470 0.000000 
#    z -0.194490 0.000000 3.538560 
# 
# 
# High freq. dielectric constant tensor:
#      x y z
#    x 1.813820 0.000000 -0.017540 
#    y 0.000000 1.825350 0.000000 
#    z -0.017540 0.000000 1.803560 
# 
# From -- ./inp_files/77511.got.cif
#   From: 2010.06.25/outbox.cif.g09.slc.cpg/sg13_39_cif.got.tgz:77511.got - 2010.06.28 04:50:58.
