data_PCOD8120878
_publ_section_title
;
Structure prediction by ZEFSAII (Michael W. Deem and Ramdas Pophale) SiO2 
 PCOD8120878
Probable space group: P 2/C
;
_chemical_formula_sum "Si O2"
_cell_formula_units_Z 26
_cell_length_a 11.691793
_cell_length_b 14.187930
_cell_length_c 9.277208
_cell_angle_alpha 90.000000
_cell_angle_beta 126.205974
_cell_angle_gamma 90.000000
_cell_volume 1241.756607
_symmetry_space_group_name_H-M "P 2/C"
_symmetry_group_IT_number 13
_symmetry_cell_setting 'monoclinic'
loop_
_space_group_symop_operation_xyz
x,y,z
-x,y,1/2-z
-x,-y,-z
x,-y,1/2+z
loop_
_atom_site_type_symbol
_atom_site_label
_atom_site_fract_x
_atom_site_fract_y
_atom_site_fract_z
Si Si1 0.086037 0.932542 0.172454
Si Si2 0.386111 0.395946 0.775315
Si Si3 0.500000 0.029416 0.750000
Si Si4 0.323001 0.072616 0.357891
Si Si5 0.866182 0.743038 0.454288
Si Si6 0.821384 0.260958 0.256744
Si Si7 0.416073 0.603349 0.814466
O O1 0.151689 0.842279 0.139910
O O2 0.000000 0.900408 0.250000
O O3 0.217781 0.990904 0.330633
O O4 0.000000 0.000000 0.000000
O O5 0.500000 0.348617 0.750000
O O6 0.242377 0.335379 0.685966
O O7 0.353863 0.504225 0.704466
O O8 0.456997 0.407675 0.980764
O O9 0.587418 0.960549 0.711774
O O10 0.411349 0.095454 0.571612
O O11 0.239425 0.162244 0.231806
O O12 0.837198 0.755188 0.599908
O O13 0.030383 0.712265 0.556118
O O14 0.714604 0.343638 0.213048
O O15 0.500000 0.658499 0.750000
#
# Coordination Sequence:
#
# PCOD8120878 Si02
#       7
#     4   4   2   4   4   4   4
#     4  12  24  43  69  93 132 182 221 272 331 399
#     4  10  21  45  69  96 129 176 222 270 339 408
#     4  10  24  40  60  92 126 178 216 278 320 390
#     4  11  23  41  62  91 133 167 222 266 329 383
#     4  11  24  41  69  98 131 179 227 272 336 406
#     4  11  23  40  67 100 134 171 221 279 335 397
#     4  10  23  41  70  98 132 171 219 279 338 397
#
# _framework density 20.938081
#
# number of rings (size 3 to 8) (size 9 to 14) (size 15 to 20)
#    0.000    1.231    3.077    2.769    1.077    5.538 
#    1.385    0.000    3.385    0.000    0.000    0.000 
#    0.000    0.000    0.000    0.000    0.000    0.000 
#
# Total GULP energy -322217.552444 kJ/mol
# GULP energy per Si atom -12392.982786 kJ/mol
# Density = 2.089042 g / cm^3
# Si number density = 20.938081 Si / 1000 Ang^3
#
#
#
# Elastic Constant Matrix: (Units=GPa)
#
#
# Indices 1 2 3 4 5 6 
#
# 1 120.3156 55.7434 44.5156 0.0000 10.8338 0.0000
# 2 55.7434 112.7470 38.5349 0.0000 19.3518 0.0000
# 3 44.5156 38.5349 87.4323 0.0000 9.5261 0.0000
# 4 0.0000 0.0000 0.0000 57.2770 0.0000 49.0123
# 5 10.8338 19.3518 9.5261 0.0000 40.9458 0.0000
# 6 0.0000 0.0000 0.0000 49.0123 0.0000 92.4633
#
#
#
# Elastic Compliance Matrix: (Units=1/GPa)
#
#
# Indices 1 2 3 4 5 6 
#
# 1 0.011902 -0.004476 -0.004078 0.000000 -0.000085 0.000000
# 2 -0.004476 0.012793 -0.002903 0.000000 -0.004187 0.000000
# 3 -0.004078 -0.002903 0.014904 0.000000 -0.001016 0.000000
# 4 0.000000 0.000000 0.000000 0.031952 0.000000 -0.016937
# 5 -0.000085 -0.004187 -0.001016 0.000000 0.026660 0.000000
# 6 0.000000 0.000000 0.000000 -0.016937 0.000000 0.019793
#
#
# Mechanical properties :
#
#
# Convention : Reuss Voigt Hill
#
# Bulk Modulus (GPa) = 59.93531 66.45362 63.19446
# Shear Modulus (GPa) = 34.13444 50.25063 42.19253
#
# Velocity S-wave (km/s) = 4.04202 4.90426 4.49387
# Velocity P-wave (km/s) = 7.10430 7.99225 7.56132
#
# Compressibility (1/GPa) = 0.01668466
#
# Stress axis : x y z
#
# Youngs Moduli (GPa) = 84.02241 78.16556 67.09659
#
# Poissons Ratio (x) = 0.34987 0.27359
# Poissons Ratio (y) = 0.37609 0.19481
# Poissons Ratio (z) = 0.34261 0.22695
#
# Static dielectric constant tensor:
#      x y z
#    x 3.919870 0.000000 0.106980 
#    y 0.000000 3.698260 0.000000 
#    z 0.106980 0.000000 3.914610 
# 
# 
# High freq. dielectric constant tensor:
#      x y z
#    x 1.835410 0.000000 -0.002250 
#    y 0.000000 1.803400 0.000000 
#    z -0.002250 0.000000 1.823580 
# 
# From -- ./inp_files/16618.got.cif
#   From: 2010.06.25/outbox.cif.g09.slc.cpg/sg13_9_cif.got.tgz:16618.got - 2010.06.28 04:50:58.
