data_PCOD8120352
_publ_section_title
;
Structure prediction by ZEFSAII (Michael W. Deem and Ramdas Pophale) SiO2 
 PCOD8120352
Probable space group: P 2/C
;
_chemical_formula_sum "Si O2"
_cell_formula_units_Z 32
_cell_length_a 7.927134
_cell_length_b 6.422615
_cell_length_c 29.898275
_cell_angle_alpha 90.000000
_cell_angle_beta 85.480986
_cell_angle_gamma 90.000000
_cell_volume 1517.476595
_symmetry_space_group_name_H-M "P 2/C"
_symmetry_group_IT_number 13
_symmetry_cell_setting 'monoclinic'
loop_
_space_group_symop_operation_xyz
x,y,z
-x,y,1/2-z
-x,-y,-z
x,-y,1/2+z
loop_
_atom_site_type_symbol
_atom_site_label
_atom_site_fract_x
_atom_site_fract_y
_atom_site_fract_z
Si Si1 0.290382 0.032810 0.822180
Si Si2 0.718288 0.679172 0.094918
Si Si3 0.378434 0.853871 0.660081
Si Si4 0.175390 0.120883 0.730161
Si Si5 0.092900 0.291336 0.380568
Si Si6 0.192741 0.450839 0.660271
Si Si7 0.025558 0.950105 0.050646
Si Si8 0.638898 0.841126 0.412882
O O1 0.452711 0.888225 0.816144
O O2 0.143622 0.879589 0.842493
O O3 0.311856 0.225339 0.855465
O O4 0.283708 0.131210 0.773125
O O5 0.754872 0.430268 0.100313
O O6 0.540937 0.725423 0.070759
O O7 0.881566 0.783235 0.067807
O O8 0.345711 0.610655 0.660243
O O9 0.230214 0.963300 0.690687
O O10 0.400479 0.933417 0.608259
O O11 0.154455 0.352442 0.709731
O O12 0.000000 0.027912 0.750000
O O13 0.994541 0.164811 0.421234
O O14 0.974147 0.454045 0.357970
O O15 0.259750 0.270740 0.627958
O O16 0.220759 0.864145 0.050577
O O17 0.000000 0.000000 0.000000
#
# Coordination Sequence:
#
# PCOD8120352 Si02
#       8
#     4   4   4   4   4   4   4   4
#     4  10  22  39  60  86 125 160 211 262 315 366
#     4  10  22  41  65  93 124 170 211 258 318 384
#     4  10  21  39  60  85 118 168 207 258 310 377
#     4  11  23  35  54  86 123 157 208 262 306 362
#     4  11  21  40  68  90 125 168 215 260 324 397
#     4  11  21  37  64  88 120 166 214 253 315 375
#     4  11  24  42  66  96 129 164 209 271 331 389
#     4  10  21  41  64  90 129 165 209 258 318 385
#
# _framework density 21.087637999999998
#
# number of rings (size 3 to 8) (size 9 to 14) (size 15 to 20)
#    0.000    1.500    2.500    2.625    3.500    3.500 
#    0.000    5.625    0.000    0.000    0.000    0.000 
#    0.000    0.000    0.000    0.000    0.000    0.000 
#
# Total GULP energy -396493.196343 kJ/mol
# GULP energy per Si atom -12390.412386 kJ/mol
# Density = 2.103964 g / cm^3
# Si number density = 21.087638 Si / 1000 Ang^3
#
#
#
# Elastic Constant Matrix: (Units=GPa)
#
#
# Indices 1 2 3 4 5 6 
#
# 1 118.2639 10.6302 27.7667 0.0000 26.7481 0.0000
# 2 10.6302 70.9665 29.4175 0.0000 10.1459 0.0000
# 3 27.7667 29.4175 83.1968 0.0000 18.1807 0.0000
# 4 0.0000 0.0000 0.0000 12.1226 0.0000 6.2645
# 5 26.7481 10.1459 18.1807 0.0000 25.0816 0.0000
# 6 0.0000 0.0000 0.0000 6.2645 0.0000 36.6652
#
#
#
# Elastic Compliance Matrix: (Units=1/GPa)
#
#
# Indices 1 2 3 4 5 6 
#
# 1 0.011286 0.000533 -0.001518 0.000000 -0.011151 0.000000
# 2 0.000533 0.016717 -0.005331 0.000000 -0.003466 0.000000
# 3 -0.001518 -0.005331 0.016144 0.000000 -0.007926 0.000000
# 4 0.000000 0.000000 0.000000 0.090479 0.000000 -0.015459
# 5 -0.011151 -0.003466 -0.007926 0.000000 0.058909 0.000000
# 6 0.000000 0.000000 0.000000 -0.015459 0.000000 0.029915
#
#
# Mechanical properties :
#
#
# Convention : Reuss Voigt Hill
#
# Bulk Modulus (GPa) = 31.73250 45.33956 38.53603
# Shear Modulus (GPa) = 20.27669 28.41473 24.34571
#
# Velocity S-wave (km/s) = 3.10424 3.67476 3.40148
# Velocity P-wave (km/s) = 5.28479 6.28906 5.80867
#
# Compressibility (1/GPa) = 0.03151343
#
# Stress axis : x y z
#
# Youngs Moduli (GPa) = 88.60244 59.81983 61.94396
#
# Poissons Ratio (x) = -0.03189 0.09406
# Poissons Ratio (y) = -0.04723 0.33025
# Poissons Ratio (z) = 0.13454 0.31892
#
# Static dielectric constant tensor:
#      x y z
#    x 4.798350 0.000000 0.750620 
#    y 0.000000 3.951070 0.000000 
#    z 0.750620 0.000000 4.571260 
# 
# 
# High freq. dielectric constant tensor:
#      x y z
#    x 1.842980 0.000000 0.003940 
#    y 0.000000 1.825790 0.000000 
#    z 0.003940 0.000000 1.798610 
# 
# From -- ./inp_files/95658.got.cif
#   From: 2010.06.25/outbox.cif.g09.slc.cpg/sg13_48_cif.got.tgz:95658.got - 2010.06.28 04:50:58.
