data_PCOD8120301
_publ_section_title
;
Structure prediction by ZEFSAII (Michael W. Deem and Ramdas Pophale) SiO2 
 PCOD8120301
Probable space group: P 2/C
;
_chemical_formula_sum "Si O2"
_cell_formula_units_Z 20
_cell_length_a 22.415640
_cell_length_b 5.689697
_cell_length_c 13.177977
_cell_angle_alpha 90.000000
_cell_angle_beta 31.751415
_cell_angle_gamma 90.000000
_cell_volume 884.440649
_symmetry_space_group_name_H-M "P 2/C"
_symmetry_group_IT_number 13
_symmetry_cell_setting 'monoclinic'
loop_
_space_group_symop_operation_xyz
x,y,z
-x,y,1/2-z
-x,-y,-z
x,-y,1/2+z
loop_
_atom_site_type_symbol
_atom_site_label
_atom_site_fract_x
_atom_site_fract_y
_atom_site_fract_z
Si Si1 0.250458 0.063173 0.742267
Si Si2 0.281175 0.758115 0.517071
Si Si3 0.885869 0.625787 0.197454
Si Si4 0.435395 0.252470 0.607716
Si Si5 0.118270 0.049837 0.618013
O O1 0.139603 0.175293 0.849368
O O2 0.334519 0.253842 0.671046
O O3 0.318777 0.914614 0.559239
O O4 0.201712 0.895368 0.902385
O O5 0.231883 0.517550 0.632663
O O6 0.390177 0.732146 0.288257
O O7 0.175125 0.861912 0.609313
O O8 0.904635 0.715032 0.285010
O O9 0.000000 0.500000 0.000000
O O10 0.500000 0.500000 0.500000
O O11 0.500000 0.000000 0.500000
O O12 0.000000 0.944090 0.750000
#
# Coordination Sequence:
#
# PCOD8120301 Si02
#       5
#     4   4   4   4   4
#     4  10  24  44  68  98 143 183 231 303 357 434
#     4  10  24  43  68  99 141 181 237 296 360 436
#     4  11  23  40  70 106 139 187 235 286 371 442
#     4  11  28  49  75 104 140 189 251 305 366 420
#     4  10  21  38  64  98 144 181 231 281 357 428
#
# _framework density 22.613161000000002
#
# number of rings (size 3 to 8) (size 9 to 14) (size 15 to 20)
#    0.000    1.600    0.000    2.400   11.200    9.600 
#    0.000    0.000    0.000    0.000    0.000    0.000 
#    0.000    0.000    0.000    0.000    0.000    0.000 
#
# Total GULP energy -247866.424648 kJ/mol
# GULP energy per Si atom -12393.321232 kJ/mol
# Density = 2.256169 g / cm^3
# Si number density = 22.613161 Si / 1000 Ang^3
#
#
#
# Elastic Constant Matrix: (Units=GPa)
#
#
# Indices 1 2 3 4 5 6 
#
# 1 109.4560 31.2090 56.3591 0.0000 23.3417 0.0000
# 2 31.2090 107.3629 67.6004 0.0000 12.6747 0.0000
# 3 56.3591 67.6004 173.2892 0.0000 26.0978 0.0000
# 4 0.0000 0.0000 0.0000 48.3792 0.0000 -2.3305
# 5 23.3417 12.6747 26.0978 0.0000 39.6984 0.0000
# 6 0.0000 0.0000 0.0000 -2.3305 0.0000 18.4506
#
#
#
# Elastic Compliance Matrix: (Units=1/GPa)
#
#
# Indices 1 2 3 4 5 6 
#
# 1 0.011887 -0.001204 -0.002665 0.000000 -0.004852 0.000000
# 2 -0.001204 0.012495 -0.004427 0.000000 -0.000371 0.000000
# 3 -0.002665 -0.004427 0.008785 0.000000 -0.002795 0.000000
# 4 0.000000 0.000000 0.000000 0.020797 0.000000 0.002627
# 5 -0.004852 -0.000371 -0.002795 0.000000 0.029999 0.000000
# 6 0.000000 0.000000 0.000000 0.002627 0.000000 0.054530
#
#
# Mechanical properties :
#
#
# Convention : Reuss Voigt Hill
#
# Bulk Modulus (GPa) = 60.33368 77.82721 69.08045
# Shear Modulus (GPa) = 31.13103 36.96830 34.04966
#
# Velocity S-wave (km/s) = 3.71439 4.04767 3.88460
# Velocity P-wave (km/s) = 6.71820 7.50575 7.12287
#
# Compressibility (1/GPa) = 0.01657449
#
# Stress axis : x y z
#
# Youngs Moduli (GPa) = 84.12823 80.02895 113.82454
#
# Poissons Ratio (x) = 0.09637 0.30338
# Poissons Ratio (y) = 0.10131 0.50390
# Poissons Ratio (z) = 0.22423 0.35428
#
# Static dielectric constant tensor:
#      x y z
#    x 4.270000 0.000000 0.267420 
#    y 0.000000 3.925960 0.000000 
#    z 0.267420 0.000000 4.166240 
# 
# 
# High freq. dielectric constant tensor:
#      x y z
#    x 1.905020 0.000000 0.016600 
#    y 0.000000 1.875230 0.000000 
#    z 0.016600 0.000000 1.901160 
# 
# From -- ./inp_files/39725.got.cif
#   From: 2010.06.25/outbox.cif.g09.slc.cpg/sg13_20_cif.got.tgz:39725.got - 2010.06.28 04:50:58.
