data_PCOD8120180
_publ_section_title
;
Structure prediction by ZEFSAII (Michael W. Deem and Ramdas Pophale) SiO2 
 PCOD8120180
Probable space group: P 2/C
;
_chemical_formula_sum "Si O2"
_cell_formula_units_Z 32
_cell_length_a 26.972066
_cell_length_b 9.951227
_cell_length_c 21.606389
_cell_angle_alpha 90.000000
_cell_angle_beta 161.834399
_cell_angle_gamma 90.000000
_cell_volume 1808.005427
_symmetry_space_group_name_H-M "P 2/C"
_symmetry_group_IT_number 13
_symmetry_cell_setting 'monoclinic'
loop_
_space_group_symop_operation_xyz
x,y,z
-x,y,1/2-z
-x,-y,-z
x,-y,1/2+z
loop_
_atom_site_type_symbol
_atom_site_label
_atom_site_fract_x
_atom_site_fract_y
_atom_site_fract_z
Si Si1 0.849476 0.463258 0.780259
Si Si2 0.524301 0.158245 0.463373
Si Si3 0.914783 0.650296 0.744930
Si Si4 0.245490 0.650301 0.075636
Si Si5 0.853827 0.158245 0.792900
Si Si6 0.675998 0.911956 0.267952
Si Si7 0.992067 0.088050 0.400110
Si Si8 0.487915 0.536746 0.557133
O O1 0.848408 0.546946 0.716155
O O2 0.858861 0.307643 0.771358
O O3 0.690539 0.492453 0.631081
O O4 0.000000 0.500000 0.000000
O O5 0.681020 0.119802 0.612047
O O6 0.556414 0.149551 0.575023
O O7 0.466117 0.307646 0.378614
O O8 0.391821 0.051003 0.285159
O O9 0.809987 0.632205 0.559986
O O10 0.893874 0.802356 0.744640
O O11 0.101356 0.622108 0.952718
O O12 0.307632 0.802362 0.158398
O O13 0.387082 0.546963 0.254837
O O14 0.980810 0.149538 0.999417
O O15 0.894833 0.051002 0.788172
O O16 0.844193 0.948075 0.438375
O O17 0.500000 0.500000 0.500000
#
# Coordination Sequence:
#
# PCOD8120180 Si02
#       8
#     4   4   4   4   4   4   4   4
#     4  11  21  35  56  82 113 145 184 229 276 326
#     4   9  18  32  51  78 107 135 173 223 271 315
#     4  10  21  38  57  79 111 147 183 226 277 332
#     4  10  21  38  57  79 111 147 183 226 277 332
#     4   9  18  32  51  78 107 135 173 223 271 315
#     4   9  17  32  52  77 106 137 175 219 268 322
#     4   9  17  32  52  77 106 137 175 219 268 322
#     4  11  21  35  56  82 113 145 184 229 276 326
#
# _framework density 17.699062000000001
#
# number of rings (size 3 to 8) (size 9 to 14) (size 15 to 20)
#    0.000    2.250    2.500    0.750    0.000    3.500 
#    0.000    1.250    0.000    4.500    0.000    0.000 
#    0.000    0.000    0.000    0.000    0.000    0.000 
#
# Total GULP energy -396839.199442 kJ/mol
# GULP energy per Si atom -12401.224983 kJ/mol
# Density = 1.765878 g / cm^3
# Si number density = 17.699062 Si / 1000 Ang^3
#
#
#
# Elastic Constant Matrix: (Units=GPa)
#
#
# Indices 1 2 3 4 5 6 
#
# 1 91.5042 69.7992 43.8230 0.0000 4.1417 0.0000
# 2 69.7992 140.7365 67.7331 0.0000 14.1208 0.0000
# 3 43.8230 67.7331 90.1675 0.0000 4.9746 0.0000
# 4 0.0000 0.0000 0.0000 32.6730 0.0000 5.9636
# 5 4.1417 14.1208 4.9746 0.0000 17.8372 0.0000
# 6 0.0000 0.0000 0.0000 5.9636 0.0000 33.5422
#
#
#
# Elastic Compliance Matrix: (Units=1/GPa)
#
#
# Indices 1 2 3 4 5 6 
#
# 1 0.018290 -0.007835 -0.003160 0.000000 0.002837 0.000000
# 2 -0.007835 0.015301 -0.007230 0.000000 -0.008278 0.000000
# 3 -0.003160 -0.007230 0.017978 0.000000 0.001443 0.000000
# 4 0.000000 0.000000 0.000000 0.031633 0.000000 -0.005624
# 5 0.002837 -0.008278 0.001443 0.000000 0.061555 0.000000
# 6 0.000000 0.000000 0.000000 -0.005624 0.000000 0.030813
#
#
# Mechanical properties :
#
#
# Convention : Reuss Voigt Hill
#
# Bulk Modulus (GPa) = 66.14032 76.12431 71.13232
# Shear Modulus (GPa) = 23.03532 26.21400 24.62466
#
# Velocity S-wave (km/s) = 3.61154 3.85268 3.73406
# Velocity P-wave (km/s) = 7.40551 7.93061 7.67255
#
# Compressibility (1/GPa) = 0.01511937
#
# Stress axis : x y z
#
# Youngs Moduli (GPa) = 54.67525 65.35510 55.62452
#
# Poissons Ratio (x) = 0.51203 0.17580
# Poissons Ratio (y) = 0.42835 0.40214
# Poissons Ratio (z) = 0.17280 0.47249
#
# Static dielectric constant tensor:
#      x y z
#    x 3.221220 0.000000 0.140590 
#    y 0.000000 3.472870 0.000000 
#    z 0.140590 0.000000 3.200620 
# 
# 
# High freq. dielectric constant tensor:
#      x y z
#    x 1.671940 0.000000 0.015800 
#    y 0.000000 1.695390 0.000000 
#    z 0.015800 0.000000 1.669630 
# 
# From -- ./inp_files/82522.got.cif
#   From: 2010.06.25/outbox.cif.g09.slc.cpg/sg13_42_cif.got.tgz:82522.got - 2010.06.28 04:50:58.
