data_PCOD8120944
_publ_section_title
;
Structure prediction by ZEFSAII (Michael W. Deem and Ramdas Pophale) SiO2 
 PCOD8120944
Probable space group: P 2/C
;
_chemical_formula_sum "Si O2"
_cell_formula_units_Z 26
_cell_length_a 14.676505
_cell_length_b 12.168206
_cell_length_c 9.038775
_cell_angle_alpha 90.000000
_cell_angle_beta 124.783077
_cell_angle_gamma 90.000000
_cell_volume 1325.775471
_symmetry_space_group_name_H-M "P 2/C"
_symmetry_group_IT_number 13
_symmetry_cell_setting 'monoclinic'
loop_
_space_group_symop_operation_xyz
x,y,z
-x,y,1/2-z
-x,-y,-z
x,-y,1/2+z
loop_
_atom_site_type_symbol
_atom_site_label
_atom_site_fract_x
_atom_site_fract_y
_atom_site_fract_z
Si Si1 0.619164 0.368724 0.544065
Si Si2 0.075520 0.549261 0.192910
Si Si3 0.000000 0.020058 0.750000
Si Si4 0.181505 0.327245 0.310597
Si Si5 0.631403 0.596209 0.719214
Si Si6 0.030535 0.148870 0.042597
Si Si7 0.196222 0.742633 0.148524
O O1 0.638689 0.470003 0.674987
O O2 0.487883 0.347805 0.416861
O O3 0.663985 0.400357 0.422294
O O4 0.679871 0.256163 0.662737
O O5 0.143742 0.447890 0.326321
O O6 0.158336 0.632027 0.194608
O O7 0.000000 0.605862 0.250000
O O8 0.000000 0.500000 0.000000
O O9 0.926859 0.100253 0.575530
O O10 0.067323 0.939384 0.701890
O O11 0.284664 0.328395 0.295701
O O12 0.081410 0.266459 0.129602
O O13 0.210963 0.262210 0.486191
O O14 0.894732 0.161987 0.903611
#
# Coordination Sequence:
#
# PCOD8120944 Si02
#       7
#     4   4   2   4   4   4   4
#     4  10  22  37  53  81 116 162 198 231 273 326
#     4  12  23  33  47  79 125 153 184 218 273 335
#     4  10  24  44  60  82 116 146 188 244 298 350
#     4  12  22  37  55  85 118 156 189 231 276 344
#     4  10  22  37  54  78 120 159 198 234 271 327
#     4  11  23  41  62  87 115 148 187 238 297 347
#     4  12  23  35  57  85 116 156 192 230 274 349
#
# _framework density 19.611162
#
# number of rings (size 3 to 8) (size 9 to 14) (size 15 to 20)
#    0.000    0.923    6.154    0.923    5.385    1.846 
#    0.000    0.000    0.000    0.000    0.000    6.462 
#    0.000    0.000    0.000    0.000    0.000    0.000 
#
# Total GULP energy -322119.832904 kJ/mol
# GULP energy per Si atom -12389.224342 kJ/mol
# Density = 1.956653 g / cm^3
# Si number density = 19.611162 Si / 1000 Ang^3
#
#
#
# Elastic Constant Matrix: (Units=GPa)
#
#
# Indices 1 2 3 4 5 6 
#
# 1 99.9291 16.2801 36.4065 0.0000 -11.6445 0.0000
# 2 16.2801 61.4184 19.0007 0.0000 -2.2911 0.0000
# 3 36.4065 19.0007 104.4990 0.0000 -14.5942 0.0000
# 4 0.0000 0.0000 0.0000 27.2444 0.0000 -6.7333
# 5 -11.6445 -2.2911 -14.5942 0.0000 38.0983 0.0000
# 6 0.0000 0.0000 0.0000 -6.7333 0.0000 9.6091
#
#
#
# Elastic Compliance Matrix: (Units=1/GPa)
#
#
# Indices 1 2 3 4 5 6 
#
# 1 0.011846 -0.001988 -0.003462 0.000000 0.002175 0.000000
# 2 -0.001988 0.017587 -0.002580 0.000000 -0.000538 0.000000
# 3 -0.003462 -0.002580 0.011701 0.000000 0.003269 0.000000
# 4 0.000000 0.000000 0.000000 0.044393 0.000000 0.031107
# 5 0.002175 -0.000538 0.003269 0.000000 0.028133 0.000000
# 6 0.000000 0.000000 0.000000 0.031107 0.000000 0.125866
#
#
# Mechanical properties :
#
#
# Convention : Reuss Voigt Hill
#
# Bulk Modulus (GPa) = 39.88227 45.46900 42.67563
# Shear Modulus (GPa) = 18.94353 27.93431 23.43892
#
# Velocity S-wave (km/s) = 3.11136 3.77823 3.46089
# Velocity P-wave (km/s) = 5.76958 6.50146 6.14642
#
# Compressibility (1/GPa) = 0.02507380
#
# Stress axis : x y z
#
# Youngs Moduli (GPa) = 84.41980 56.86056 85.46096
#
# Poissons Ratio (x) = 0.11303 0.29584
# Poissons Ratio (y) = 0.16781 0.22053
# Poissons Ratio (z) = 0.29224 0.14672
#
# Static dielectric constant tensor:
#      x y z
#    x 3.604200 0.000000 -0.078750 
#    y 0.000000 3.735270 0.000000 
#    z -0.078750 0.000000 3.649980 
# 
# 
# High freq. dielectric constant tensor:
#      x y z
#    x 1.756680 0.000000 -0.020300 
#    y 0.000000 1.718280 0.000000 
#    z -0.020300 0.000000 1.784300 
# 
# From -- ./inp_files/18705.got.cif
#   From: 2010.06.25/outbox.cif.g09.slc.cpg/sg13_10_cif.got.tgz:18705.got - 2010.06.28 04:50:58.
