data_PCOD8120800
_publ_section_title
;
Structure prediction by ZEFSAII (Michael W. Deem and Ramdas Pophale) SiO2 
 PCOD8120800
Probable space group: P 2/C
;
_chemical_formula_sum "Si O2"
_cell_formula_units_Z 28
_cell_length_a 18.419606
_cell_length_b 13.295921
_cell_length_c 9.564909
_cell_angle_alpha 90.000000
_cell_angle_beta 39.336895
_cell_angle_gamma 90.000000
_cell_volume 1484.861686
_symmetry_space_group_name_H-M "P 2/C"
_symmetry_group_IT_number 13
_symmetry_cell_setting 'monoclinic'
loop_
_space_group_symop_operation_xyz
x,y,z
-x,y,1/2-z
-x,-y,-z
x,-y,1/2+z
loop_
_atom_site_type_symbol
_atom_site_label
_atom_site_fract_x
_atom_site_fract_y
_atom_site_fract_z
Si Si1 0.627902 0.571111 0.617728
Si Si2 0.677482 0.600789 0.852146
Si Si3 0.635586 0.208533 0.027670
Si Si4 0.310608 0.155188 0.856908
Si Si5 0.000000 0.124688 0.750000
Si Si6 0.500000 0.250542 0.750000
Si Si7 0.241917 0.069874 0.441629
Si Si8 0.182701 0.783198 0.807412
O O1 0.500000 0.559892 0.750000
O O2 0.642387 0.547478 0.759754
O O3 0.701788 0.488003 0.426303
O O4 0.673536 0.683778 0.530563
O O5 0.792009 0.668927 0.681552
O O6 0.576195 0.676538 0.042686
O O7 0.500000 0.189579 0.250000
O O8 0.705685 0.121875 0.000442
O O9 0.678448 0.212816 0.804960
O O10 0.428309 0.175700 0.760888
O O11 0.298682 0.037991 0.840698
O O12 0.205407 0.198369 0.108132
O O13 0.102765 0.058302 0.664320
O O14 0.051594 0.193823 0.547195
O O15 0.266563 0.138552 0.267551
#
# Coordination Sequence:
#
# PCOD8120800 Si02
#       8
#     4   4   4   4   2   2   4   4
#     4  11  21  33  56  82 116 157 193 237 287 346
#     4  11  21  36  56  84 116 155 197 235 298 350
#     4  11  24  38  57  90 130 156 195 241 289 353
#     4  11  23  35  60  89 116 163 203 234 287 354
#     4   8  20  42  68  76 114 160 194 254 306 342
#     4  10  22  36  54  84 132 156 190 236 286 366
#     4  10  21  43  60  86 117 160 201 240 305 347
#     4   9  21  41  59  84 113 150 201 245 299 350
#
# _framework density 18.856974000000001
#
# number of rings (size 3 to 8) (size 9 to 14) (size 15 to 20)
#    0.857    0.857    2.143    3.000    7.000    1.143 
#    0.000    0.000    0.000    3.429    0.000    0.000 
#    0.000    0.000    0.000    0.000    0.000    0.000 
#
# Total GULP energy -347012.881900 kJ/mol
# GULP energy per Si atom -12393.317211 kJ/mol
# Density = 1.881406 g / cm^3
# Si number density = 18.856974 Si / 1000 Ang^3
#
#
#
# Elastic Constant Matrix: (Units=GPa)
#
#
# Indices 1 2 3 4 5 6 
#
# 1 71.3457 31.4899 32.9976 0.0000 10.1174 0.0000
# 2 31.4899 91.6716 16.1987 0.0000 0.9597 0.0000
# 3 32.9976 16.1987 98.2711 0.0000 18.5431 0.0000
# 4 0.0000 0.0000 0.0000 26.2837 0.0000 8.0735
# 5 10.1174 0.9597 18.5431 0.0000 33.3971 0.0000
# 6 0.0000 0.0000 0.0000 8.0735 0.0000 11.9319
#
#
#
# Elastic Compliance Matrix: (Units=1/GPa)
#
#
# Indices 1 2 3 4 5 6 
#
# 1 0.019245 -0.005702 -0.004974 0.000000 -0.002904 0.000000
# 2 -0.005702 0.012943 -0.000530 0.000000 0.001650 0.000000
# 3 -0.004974 -0.000530 0.013009 0.000000 -0.005701 0.000000
# 4 0.000000 0.000000 0.000000 0.048029 0.000000 -0.032497
# 5 -0.002904 0.001650 -0.005701 0.000000 0.033941 0.000000
# 6 0.000000 0.000000 0.000000 -0.032497 0.000000 0.105797
#
#
# Mechanical properties :
#
#
# Convention : Reuss Voigt Hill
#
# Bulk Modulus (GPa) = 43.88727 46.96231 45.42479
# Shear Modulus (GPa) = 19.01341 26.36269 22.68805
#
# Velocity S-wave (km/s) = 3.17881 3.74309 3.47243
# Velocity P-wave (km/s) = 6.06609 6.60602 6.34180
#
# Compressibility (1/GPa) = 0.02278565
#
# Stress axis : x y z
#
# Youngs Moduli (GPa) = 51.96084 77.25903 76.86752
#
# Poissons Ratio (x) = 0.44049 0.38236
# Poissons Ratio (y) = 0.29626 0.04077
# Poissons Ratio (z) = 0.25847 0.04098
#
# Static dielectric constant tensor:
#      x y z
#    x 3.300490 0.000000 0.144390 
#    y 0.000000 3.528320 0.000000 
#    z 0.144390 0.000000 3.461910 
# 
# 
# High freq. dielectric constant tensor:
#      x y z
#    x 1.711360 0.000000 0.023410 
#    y 0.000000 1.735580 0.000000 
#    z 0.023410 0.000000 1.728070 
# 
# From -- ./inp_files/23335.got.cif
#   From: 2010.06.25/outbox.cif.g09.slc.cpg/sg13_12_cif.got.tgz:23335.got - 2010.06.28 04:50:58.
