data_PCOD8120527
_publ_section_title
;
Structure prediction by ZEFSAII (Michael W. Deem and Ramdas Pophale) SiO2 
 PCOD8120527
Probable space group: P 2/C
;
_chemical_formula_sum "Si O2"
_cell_formula_units_Z 24
_cell_length_a 8.653032
_cell_length_b 12.102245
_cell_length_c 22.418392
_cell_angle_alpha 90.000000
_cell_angle_beta 30.454586
_cell_angle_gamma 90.000000
_cell_volume 1189.933424
_symmetry_space_group_name_H-M "P 2/C"
_symmetry_group_IT_number 13
_symmetry_cell_setting 'monoclinic'
loop_
_space_group_symop_operation_xyz
x,y,z
-x,y,1/2-z
-x,-y,-z
x,-y,1/2+z
loop_
_atom_site_type_symbol
_atom_site_label
_atom_site_fract_x
_atom_site_fract_y
_atom_site_fract_z
Si Si1 0.816471 0.161687 0.677287
Si Si2 0.450328 0.779705 0.922127
Si Si3 0.227211 0.262653 0.059431
Si Si4 0.717951 0.344155 0.804205
Si Si5 0.780113 0.582947 0.766991
Si Si6 0.253831 0.087333 0.279869
O O1 0.500000 0.180802 0.750000
O O2 0.840151 0.250501 0.720835
O O3 0.097754 0.184038 0.539134
O O4 0.838701 0.039982 0.697542
O O5 0.584022 0.770570 0.944358
O O6 0.487630 0.660905 0.877669
O O7 0.632934 0.870059 0.822292
O O8 0.986406 0.363218 0.146475
O O9 0.045850 0.153397 0.099748
O O10 0.438145 0.299602 0.935246
O O11 0.647396 0.461371 0.794295
O O12 0.000000 0.378352 0.750000
O O13 0.000000 0.582591 0.750000
O O14 0.500000 0.101826 0.250000
#
# Coordination Sequence:
#
# PCOD8120527 Si02
#       6
#     4   4   4   4   4   4
#     4  11  26  40  58  86 124 160 197 246 297 349
#     4  10  21  42  62  88 121 151 200 248 294 347
#     4  10  21  40  63  91 120 152 199 247 293 351
#     4  11  22  37  63  93 117 155 203 240 294 352
#     4   8  19  36  63  87 117 156 188 244 298 348
#     4  10  24  41  63  84 116 166 196 239 303 356
#
# _framework density 20.169194999999998
#
# number of rings (size 3 to 8) (size 9 to 14) (size 15 to 20)
#    0.000    2.000    1.667    1.500    7.000    5.333 
#    0.000    4.167    0.000    0.000    0.000    0.000 
#    0.000    0.000    0.000    0.000    0.000    0.000 
#
# Total GULP energy -297487.807837 kJ/mol
# GULP energy per Si atom -12395.325327 kJ/mol
# Density = 2.012329 g / cm^3
# Si number density = 20.169195 Si / 1000 Ang^3
#
#
#
# Elastic Constant Matrix: (Units=GPa)
#
#
# Indices 1 2 3 4 5 6 
#
# 1 22.2920 21.1569 9.5249 0.0000 -4.9682 0.0000
# 2 21.1569 163.4128 59.6578 0.0000 -5.4498 0.0000
# 3 9.5249 59.6578 133.7683 0.0000 -9.1902 0.0000
# 4 0.0000 0.0000 0.0000 23.1961 0.0000 -10.6360
# 5 -4.9682 -5.4498 -9.1902 0.0000 27.1993 0.0000
# 6 0.0000 0.0000 0.0000 -10.6360 0.0000 6.5311
#
#
#
# Elastic Compliance Matrix: (Units=1/GPa)
#
#
# Indices 1 2 3 4 5 6 
#
# 1 0.052976 -0.006466 -0.000320 0.000000 0.008273 0.000000
# 2 -0.006466 0.008102 -0.003197 0.000000 -0.000638 0.000000
# 3 -0.000320 -0.003197 0.009087 0.000000 0.002371 0.000000
# 4 0.000000 0.000000 0.000000 0.170208 0.000000 0.277187
# 5 0.008273 -0.000638 0.002371 0.000000 0.038950 0.000000
# 6 0.000000 0.000000 0.000000 0.277187 0.000000 0.604517
#
#
# Mechanical properties :
#
#
# Convention : Reuss Voigt Hill
#
# Bulk Modulus (GPa) = 19.92038 55.57246 37.74642
# Shear Modulus (GPa) = 5.43159 26.66087 16.04623
#
# Velocity S-wave (km/s) = 1.64282 3.63968 2.82366
# Velocity P-wave (km/s) = 3.67377 6.72875 5.42091
#
# Compressibility (1/GPa) = 0.05019984
#
# Stress axis : x y z
#
# Youngs Moduli (GPa) = 18.87634 123.41908 110.04632
#
# Poissons Ratio (x) = 0.79803 0.03522
# Poissons Ratio (y) = 0.12206 0.35181
# Poissons Ratio (z) = 0.00604 0.39456
#
# Static dielectric constant tensor:
#      x y z
#    x 3.418080 0.000000 -0.029700 
#    y 0.000000 4.033640 0.000000 
#    z -0.029700 0.000000 3.775230 
# 
# 
# High freq. dielectric constant tensor:
#      x y z
#    x 1.756290 0.000000 -0.001530 
#    y 0.000000 1.805830 0.000000 
#    z -0.001530 0.000000 1.797700 
# 
# From -- ./inp_files/29326.got.cif
#   From: 2010.06.25/outbox.cif.g09.slc.cpg/sg13_15_cif.got.tgz:29326.got - 2010.06.28 04:50:58.
