data_PCOD8120679
_publ_section_title
;
Structure prediction by ZEFSAII (Michael W. Deem and Ramdas Pophale) SiO2 
 PCOD8120679
Probable space group: P 2/C
;
_chemical_formula_sum "Si O2"
_cell_formula_units_Z 20
_cell_length_a 12.138455
_cell_length_b 16.733040
_cell_length_c 14.698714
_cell_angle_alpha 90.000000
_cell_angle_beta 18.063814
_cell_angle_gamma 90.000000
_cell_volume 925.733185
_symmetry_space_group_name_H-M "P 2/C"
_symmetry_group_IT_number 13
_symmetry_cell_setting 'monoclinic'
loop_
_space_group_symop_operation_xyz
x,y,z
-x,y,1/2-z
-x,-y,-z
x,-y,1/2+z
loop_
_atom_site_type_symbol
_atom_site_label
_atom_site_fract_x
_atom_site_fract_y
_atom_site_fract_z
Si Si1 0.764474 0.942825 0.348865
Si Si2 0.894915 0.452911 0.930658
Si Si3 0.101491 0.624700 0.772105
Si Si4 0.730446 0.163593 0.151263
Si Si5 0.157233 0.680513 0.346742
O O1 0.535895 0.865968 0.560792
O O2 0.000000 0.979352 0.250000
O O3 0.500000 0.000000 0.500000
O O4 0.053659 0.914482 0.049109
O O5 0.000000 0.416370 0.750000
O O6 0.152577 0.529172 0.745717
O O7 0.898418 0.383300 0.002572
O O8 0.500000 0.488955 0.250000
O O9 0.472364 0.671201 0.497782
O O10 0.000000 0.646672 0.750000
O O11 0.812577 0.657092 0.070609
O O12 0.500000 0.200144 0.250000
O O13 0.006904 0.230432 0.964760
#
# Coordination Sequence:
#
# PCOD8120679 Si02
#       5
#     4   4   4   4   4
#     4  10  21  41  66  93 125 160 196 242 299 368
#     4  11  22  37  58  85 113 151 206 260 307 362
#     4  11  23  39  54  78 117 162 206 252 300 356
#     4  10  22  39  62  92 122 150 191 247 304 355
#     4  12  22  38  61  84 115 157 199 249 308 363
#
# _framework density 21.604496999999999
#
# number of rings (size 3 to 8) (size 9 to 14) (size 15 to 20)
#    0.000    1.200    0.000    7.800    0.000    2.400 
#    0.000    6.000    0.000    0.000    0.000    0.000 
#    0.000    0.000    0.000    0.000    0.000    0.000 
#
# Total GULP energy -247880.696305 kJ/mol
# GULP energy per Si atom -12394.034815 kJ/mol
# Density = 2.155532 g / cm^3
# Si number density = 21.604497 Si / 1000 Ang^3
#
#
#
# Elastic Constant Matrix: (Units=GPa)
#
#
# Indices 1 2 3 4 5 6 
#
# 1 100.1705 38.9877 14.2193 0.0000 3.5205 0.0000
# 2 38.9877 69.7094 9.8165 0.0000 -14.1306 0.0000
# 3 14.2193 9.8165 91.3762 0.0000 3.3299 0.0000
# 4 0.0000 0.0000 0.0000 -55.2604 0.0000 24.4410
# 5 3.5205 -14.1306 3.3299 0.0000 40.9905 0.0000
# 6 0.0000 0.0000 0.0000 24.4410 0.0000 8.9945
#
#
#
# Elastic Compliance Matrix: (Units=1/GPa)
#
#
# Indices 1 2 3 4 5 6 
#
# 1 0.013446 -0.008155 -0.001075 0.000000 -0.003879 0.000000
# 2 -0.008155 0.020690 -0.001243 0.000000 0.007934 0.000000
# 3 -0.001075 -0.001243 0.011290 0.000000 -0.001253 0.000000
# 4 0.000000 0.000000 0.000000 -0.008219 0.000000 0.022333
# 5 -0.003879 0.007934 -0.001253 0.000000 0.027566 0.000000
# 6 0.000000 0.000000 0.000000 0.022333 0.000000 0.050494
#
#
# Mechanical properties :
#
#
# Convention : Reuss Voigt Hill
#
# Bulk Modulus (GPa) = 40.84931 43.03369 41.94150
# Shear Modulus (GPa) = 34.63272 12.16042 23.39657
#
# Velocity S-wave (km/s) = 4.00813 2.37505 3.29439
# Velocity P-wave (km/s) = 6.35366 5.24245 5.82461
#
# Compressibility (1/GPa) = 0.02448022
#
# Stress axis : x y z
#
# Youngs Moduli (GPa) = 74.37186 48.33366 88.57222
#
# Poissons Ratio (x) = 0.39416 0.09521
# Poissons Ratio (y) = 0.60651 0.11007
# Poissons Ratio (z) = 0.07994 0.06007
#
# Static dielectric constant tensor:
#      x y z
#    x 3.971190 0.000000 0.084190 
#    y 0.000000 3.410270 0.000000 
#    z 0.084190 0.000000 4.136150 
# 
# 
# High freq. dielectric constant tensor:
#      x y z
#    x 1.849210 0.000000 0.012060 
#    y 0.000000 1.812820 0.000000 
#    z 0.012060 0.000000 1.871780 
# 
# From -- ./inp_files/26310.got.cif
#   From: 2010.06.25/outbox.cif.g09.slc.cpg/sg13_14_cif.got.tgz:26310.got - 2010.06.28 04:50:58.
