data_PCOD8120004
_publ_section_title
;
Structure prediction by ZEFSAII (Michael W. Deem and Ramdas Pophale) SiO2 
 PCOD8120004
Probable space group: P 2/C
;
_chemical_formula_sum "Si O2"
_cell_formula_units_Z 24
_cell_length_a 11.464564
_cell_length_b 6.608158
_cell_length_c 15.495589
_cell_angle_alpha 90.000000
_cell_angle_beta 78.510665
_cell_angle_gamma 90.000000
_cell_volume 1150.416749
_symmetry_space_group_name_H-M "P 2/C"
_symmetry_group_IT_number 13
_symmetry_cell_setting 'monoclinic'
loop_
_space_group_symop_operation_xyz
x,y,z
-x,y,1/2-z
-x,-y,-z
x,-y,1/2+z
loop_
_atom_site_type_symbol
_atom_site_label
_atom_site_fract_x
_atom_site_fract_y
_atom_site_fract_z
Si Si1 0.378135 0.956615 0.797414
Si Si2 0.287759 0.099707 0.635815
Si Si3 0.936246 0.822575 0.846923
Si Si4 0.160303 0.845407 0.924275
Si Si5 0.668551 0.139608 0.525856
Si Si6 0.216748 0.520417 0.048511
O O1 0.500000 0.841907 0.750000
O O2 0.339348 0.100867 0.724440
O O3 0.268632 0.807596 0.838054
O O4 0.410945 0.094657 0.877500
O O5 0.281765 0.331534 0.606240
O O6 0.156304 0.001976 0.656346
O O7 0.373668 0.973457 0.556311
O O8 0.876813 0.616470 0.887832
O O9 0.000000 0.759992 0.750000
O O10 0.035767 0.899204 0.899504
O O11 0.149958 0.644825 0.983544
O O12 0.198556 0.040458 0.976444
O O13 0.680839 0.378986 0.509168
#
# Coordination Sequence:
#
# PCOD8120004 Si02
#       6
#     4   4   4   4   4   4
#     4  10  21  42  66  83 117 164 204 251 298 347
#     4  10  21  39  60  88 120 156 198 243 304 353
#     4  11  20  35  59  92 123 155 193 244 291 364
#     4   9  20  38  58  87 123 155 195 239 296 358
#     4   8  20  39  58  87 125 148 199 244 294 355
#     4  10  21  36  59  88 122 159 191 242 305 361
#
# _framework density 20.862006999999998
#
# number of rings (size 3 to 8) (size 9 to 14) (size 15 to 20)
#    1.000    1.333    1.667    0.500    0.000   10.000 
#    0.000    1.667    0.000    0.000    0.000    0.000 
#    0.000    0.000    0.000    0.000    0.000    0.000 
#
# Total GULP energy -297336.169564 kJ/mol
# GULP energy per Si atom -12389.007065 kJ/mol
# Density = 2.081452 g / cm^3
# Si number density = 20.862007 Si / 1000 Ang^3
#
#
#
# Elastic Constant Matrix: (Units=GPa)
#
#
# Indices 1 2 3 4 5 6 
#
# 1 34.0033 3.1906 12.5238 0.0000 -15.9936 0.0000
# 2 3.1906 101.7297 25.8822 0.0000 -2.8138 0.0000
# 3 12.5238 25.8822 130.3362 0.0000 -3.6712 0.0000
# 4 0.0000 0.0000 0.0000 25.3879 0.0000 -2.1319
# 5 -15.9936 -2.8138 -3.6712 0.0000 28.8883 0.0000
# 6 0.0000 0.0000 0.0000 -2.1319 0.0000 8.4435
#
#
#
# Elastic Compliance Matrix: (Units=1/GPa)
#
#
# Indices 1 2 3 4 5 6 
#
# 1 0.041153 0.000183 -0.003360 0.000000 0.022375 0.000000
# 2 0.000183 0.010370 -0.002053 0.000000 0.000851 0.000000
# 3 -0.003360 -0.002053 0.008375 0.000000 -0.000996 0.000000
# 4 0.000000 0.000000 0.000000 0.040242 0.000000 0.010161
# 5 0.022375 0.000851 -0.000996 0.000000 0.046960 0.000000
# 6 0.000000 0.000000 0.000000 0.010161 0.000000 0.121000
#
#
# Mechanical properties :
#
#
# Convention : Reuss Voigt Hill
#
# Bulk Modulus (GPa) = 20.22740 38.80694 29.51717
# Shear Modulus (GPa) = 16.94685 27.50878 22.22781
#
# Velocity S-wave (km/s) = 2.85323 3.63520 3.26769
# Velocity P-wave (km/s) = 4.53558 6.02177 5.33072
#
# Compressibility (1/GPa) = 0.04943790
#
# Stress axis : x y z
#
# Youngs Moduli (GPa) = 24.29930 96.43148 119.40324
#
# Poissons Ratio (x) = -0.01766 0.40125
# Poissons Ratio (y) = -0.00445 0.24513
# Poissons Ratio (z) = 0.08166 0.19797
#
# Static dielectric constant tensor:
#      x y z
#    x 3.521960 0.000000 -0.089970 
#    y 0.000000 3.362300 0.000000 
#    z -0.089970 0.000000 4.158730 
# 
# 
# High freq. dielectric constant tensor:
#      x y z
#    x 1.801890 0.000000 -0.004130 
#    y 0.000000 1.780040 0.000000 
#    z -0.004130 0.000000 1.844820 
# 
# From -- ./inp_files/65358.got.cif
#   From: 2010.06.25/outbox.cif.g09.slc.cpg/sg13_33_cif.got.tgz:65358.got - 2010.06.28 04:50:58.
