data_PCOD8120150
_publ_section_title
;
Structure prediction by ZEFSAII (Michael W. Deem and Ramdas Pophale) SiO2 
 PCOD8120150
Probable space group: P 2/C
;
_chemical_formula_sum "Si O2"
_cell_formula_units_Z 32
_cell_length_a 9.614727
_cell_length_b 11.389329
_cell_length_c 19.952751
_cell_angle_alpha 90.000000
_cell_angle_beta 45.364840
_cell_angle_gamma 90.000000
_cell_volume 1554.786586
_symmetry_space_group_name_H-M "P 2/C"
_symmetry_group_IT_number 13
_symmetry_cell_setting 'monoclinic'
loop_
_space_group_symop_operation_xyz
x,y,z
-x,y,1/2-z
-x,-y,-z
x,-y,1/2+z
loop_
_atom_site_type_symbol
_atom_site_label
_atom_site_fract_x
_atom_site_fract_y
_atom_site_fract_z
Si Si1 0.667474 0.951201 0.895451
Si Si2 0.281289 0.369701 0.164408
Si Si3 0.103589 0.682152 0.937878
Si Si4 0.236199 0.436599 0.874261
Si Si5 0.368453 0.777184 0.954474
Si Si6 0.211874 0.199280 0.655565
Si Si7 0.614941 0.609215 0.316212
Si Si8 0.055432 0.247631 0.142718
O O1 0.541299 0.873290 0.886305
O O2 0.839671 0.876059 0.873595
O O3 0.766143 0.064186 0.827378
O O4 0.500000 0.000000 0.000000
O O5 0.513253 0.345309 0.085822
O O6 0.257541 0.503096 0.195482
O O7 0.200482 0.354328 0.115556
O O8 0.153400 0.272537 0.250026
O O9 0.228279 0.577191 0.860685
O O10 0.231779 0.777474 0.935105
O O11 0.979144 0.753059 0.925154
O O12 0.971600 0.616399 0.036914
O O13 0.300636 0.367087 0.786245
O O14 0.385696 0.418216 0.885280
O O15 0.242609 0.791337 0.065049
O O16 0.369936 0.277810 0.641186
O O17 0.000000 0.245161 0.750000
#
# Coordination Sequence:
#
# PCOD8120150 Si02
#       8
#     4   4   4   4   4   4   4   4
#     4   9  22  44  65  93 120 166 222 268 313 374
#     4  10  21  37  63  96 126 159 220 258 318 379
#     4  11  21  39  62  96 130 167 201 271 327 381
#     4  10  23  36  59  94 138 164 208 252 334 393
#     4  10  22  41  65  96 122 164 218 266 315 383
#     4  11  25  40  67  88 130 170 216 262 319 379
#     4  11  22  40  60  92 132 175 205 261 315 400
#     4  10  22  37  68  93 125 163 212 275 317 373
#
# _framework density 20.581603000000001
#
# number of rings (size 3 to 8) (size 9 to 14) (size 15 to 20)
#    0.000    1.750    2.500    0.750   10.500    3.000 
#    0.000    2.500    5.500    0.000    0.000    0.000 
#    0.000    0.000    0.000    0.000    0.000    0.000 
#
# Total GULP energy -396518.172145 kJ/mol
# GULP energy per Si atom -12391.192880 kJ/mol
# Density = 2.053476 g / cm^3
# Si number density = 20.581603 Si / 1000 Ang^3
#
#
#
# Elastic Constant Matrix: (Units=GPa)
#
#
# Indices 1 2 3 4 5 6 
#
# 1 151.0425 63.1940 22.5476 0.0000 10.1230 0.0000
# 2 63.1940 117.0772 17.7092 0.0000 3.6521 0.0000
# 3 22.5476 17.7092 50.2658 0.0000 -4.4206 0.0000
# 4 0.0000 0.0000 0.0000 22.7874 0.0000 -4.7851
# 5 10.1230 3.6521 -4.4206 0.0000 31.2594 0.0000
# 6 0.0000 0.0000 0.0000 -4.7851 0.0000 28.3595
#
#
#
# Elastic Compliance Matrix: (Units=1/GPa)
#
#
# Indices 1 2 3 4 5 6 
#
# 1 0.009055 -0.004382 -0.002765 0.000000 -0.002812 0.000000
# 2 -0.004382 0.011215 -0.002001 0.000000 -0.000174 0.000000
# 3 -0.002765 -0.002001 0.022215 0.000000 0.004271 0.000000
# 4 0.000000 0.000000 0.000000 0.045496 0.000000 0.007677
# 5 -0.002812 -0.000174 0.004271 0.000000 0.033525 0.000000
# 6 0.000000 0.000000 0.000000 0.007677 0.000000 0.036557
#
#
# Mechanical properties :
#
#
# Convention : Reuss Voigt Hill
#
# Bulk Modulus (GPa) = 41.34094 58.36522 49.85308
# Shear Modulus (GPa) = 27.11178 30.81023 28.96101
#
# Velocity S-wave (km/s) = 3.63338 3.87328 3.75524
# Velocity P-wave (km/s) = 6.14263 6.95863 6.56332
#
# Compressibility (1/GPa) = 0.02418910
#
# Stress axis : x y z
#
# Youngs Moduli (GPa) = 110.43491 89.17024 45.01417
#
# Poissons Ratio (x) = 0.39071 0.12448
# Poissons Ratio (y) = 0.48388 0.09007
# Poissons Ratio (z) = 0.30540 0.17842
#
# Static dielectric constant tensor:
#      x y z
#    x 3.782180 0.000000 -0.170910 
#    y 0.000000 3.916930 0.000000 
#    z -0.170910 0.000000 3.653310 
# 
# 
# High freq. dielectric constant tensor:
#      x y z
#    x 1.804630 0.000000 -0.017190 
#    y 0.000000 1.786950 0.000000 
#    z -0.017190 0.000000 1.802280 
# 
# From -- ./inp_files/76413.got.cif
#   From: 2010.06.25/outbox.cif.g09.slc.cpg/sg13_39_cif.got.tgz:76413.got - 2010.06.28 04:50:58.
