data_PCOD8120012
_publ_section_title
;
Structure prediction by ZEFSAII (Michael W. Deem and Ramdas Pophale) SiO2 
 PCOD8120012
Probable space group: P 2/C
;
_chemical_formula_sum "Si O2"
_cell_formula_units_Z 28
_cell_length_a 25.540483
_cell_length_b 10.948535
_cell_length_c 25.979784
_cell_angle_alpha 90.000000
_cell_angle_beta 11.095211
_cell_angle_gamma 90.000000
_cell_volume 1398.028029
_symmetry_space_group_name_H-M "P 2/C"
_symmetry_group_IT_number 13
_symmetry_cell_setting 'monoclinic'
loop_
_space_group_symop_operation_xyz
x,y,z
-x,y,1/2-z
-x,-y,-z
x,-y,1/2+z
loop_
_atom_site_type_symbol
_atom_site_label
_atom_site_fract_x
_atom_site_fract_y
_atom_site_fract_z
Si Si1 0.719345 0.961347 0.496637
Si Si2 0.187018 0.196549 0.363659
Si Si3 0.715430 0.471367 0.249181
Si Si4 0.077518 0.172841 0.354739
Si Si5 0.714925 0.751369 0.001496
Si Si6 0.737238 0.086840 0.863901
Si Si7 0.463334 0.309440 0.640425
O O1 0.690620 0.893426 0.469718
O O2 0.000000 0.920834 0.250000
O O3 0.702495 0.105236 0.502234
O O4 0.500000 0.917522 0.750000
O O5 0.297136 0.333996 0.259502
O O6 0.037741 0.160805 0.454362
O O7 0.963395 0.180720 0.624342
O O8 0.443710 0.106139 0.121177
O O9 0.500000 0.500000 0.500000
O O10 0.658706 0.558654 0.255205
O O11 0.000000 0.500000 0.000000
O O12 0.791392 0.216959 0.606468
O O13 0.151234 0.047329 0.255968
O O14 0.328843 0.265926 0.104580
O O15 0.000000 0.709065 0.750000
O O16 0.500000 0.707559 0.250000
O O17 0.644766 0.681400 0.016698
#
# Coordination Sequence:
#
# PCOD8120012 Si02
#       7
#     4   4   4   4   4   4   4
#     4  10  21  37  60  87 122 158 203 257 313 377
#     4  12  24  40  60  90 133 175 213 248 305 384
#     4  12  23  43  64  88 124 172 222 258 299 373
#     4  12  23  38  61  94 132 169 201 251 327 375
#     4  10  21  36  60  91 124 153 201 259 323 375
#     4  12  24  39  61  93 132 165 204 262 321 385
#     4  12  22  39  66  91 128 165 207 267 314 367
#
# _framework density 20.028210999999999
#
# number of rings (size 3 to 8) (size 9 to 14) (size 15 to 20)
#    0.000    0.571    4.286    5.143    4.000    0.000 
#    0.000    0.000    0.000    3.429    0.000    0.000 
#    0.000    0.000    0.000    0.000    0.000    0.000 
#
# Total GULP energy -347314.410908 kJ/mol
# GULP energy per Si atom -12404.086104 kJ/mol
# Density = 1.998263 g / cm^3
# Si number density = 20.028211 Si / 1000 Ang^3
#
#
#
# Elastic Constant Matrix: (Units=GPa)
#
#
# Indices 1 2 3 4 5 6 
#
# 1 145.7644 47.1637 63.1423 0.0000 1.9081 0.0000
# 2 47.1637 56.8902 26.5376 0.0000 4.8791 0.0000
# 3 63.1423 26.5376 154.5282 0.0000 -1.8893 0.0000
# 4 0.0000 0.0000 0.0000 30.2878 0.0000 -1.8374
# 5 1.9081 4.8791 -1.8893 0.0000 41.2146 0.0000
# 6 0.0000 0.0000 0.0000 -1.8374 0.0000 25.9489
#
#
#
# Elastic Compliance Matrix: (Units=1/GPa)
#
#
# Indices 1 2 3 4 5 6 
#
# 1 0.010556 -0.007350 -0.003048 0.000000 0.000242 0.000000
# 2 -0.007350 0.024469 -0.001231 0.000000 -0.002613 0.000000
# 3 -0.003048 -0.001231 0.007936 0.000000 0.000651 0.000000
# 4 0.000000 0.000000 0.000000 0.033159 0.000000 0.002348
# 5 0.000242 -0.002613 0.000651 0.000000 0.024591 0.000000
# 6 0.000000 0.000000 0.000000 0.002348 0.000000 0.038703
#
#
# Mechanical properties :
#
#
# Convention : Reuss Voigt Hill
#
# Bulk Modulus (GPa) = 50.75243 70.09669 60.42456
# Shear Modulus (GPa) = 29.54379 34.17954 31.86166
#
# Velocity S-wave (km/s) = 3.84488 4.13555 3.99286
# Velocity P-wave (km/s) = 6.71612 7.60780 7.17582
#
# Compressibility (1/GPa) = 0.01970349
#
# Stress axis : x y z
#
# Youngs Moduli (GPa) = 94.73539 40.86756 126.00634
#
# Poissons Ratio (x) = 0.30037 0.38407
# Poissons Ratio (y) = 0.69630 0.15510
# Poissons Ratio (z) = 0.28876 0.05030
#
# Static dielectric constant tensor:
#      x y z
#    x 3.585280 0.000000 0.040650 
#    y 0.000000 3.549270 0.000000 
#    z 0.040650 0.000000 3.941740 
# 
# 
# High freq. dielectric constant tensor:
#      x y z
#    x 1.784960 0.000000 -0.000230 
#    y 0.000000 1.748500 0.000000 
#    z -0.000230 0.000000 1.809010 
# 
# From -- ./inp_files/94140.got.cif
#   From: 2010.06.25/outbox.cif.g09.slc.cpg/sg13_48_cif.got.tgz:94140.got - 2010.06.28 04:50:58.
