data_PCOD8120853
_publ_section_title
;
Structure prediction by ZEFSAII (Michael W. Deem and Ramdas Pophale) SiO2 
 PCOD8120853
Probable space group: P 2/C
;
_chemical_formula_sum "Si O2"
_cell_formula_units_Z 20
_cell_length_a 30.232227
_cell_length_b 4.885373
_cell_length_c 12.996001
_cell_angle_alpha 90.000000
_cell_angle_beta 151.610110
_cell_angle_gamma 90.000000
_cell_volume 912.640625
_symmetry_space_group_name_H-M "P 2/C"
_symmetry_group_IT_number 13
_symmetry_cell_setting 'monoclinic'
loop_
_space_group_symop_operation_xyz
x,y,z
-x,y,1/2-z
-x,-y,-z
x,-y,1/2+z
loop_
_atom_site_type_symbol
_atom_site_label
_atom_site_fract_x
_atom_site_fract_y
_atom_site_fract_z
Si Si1 0.679926 0.534652 0.876154
Si Si2 0.574605 0.722309 0.473230
Si Si3 0.885720 0.235076 0.809705
Si Si4 0.024113 0.742975 0.415918
Si Si5 0.602116 0.032655 0.825840
O O1 0.644315 0.547568 0.684985
O O2 0.667728 0.223374 0.887776
O O3 0.619842 0.719808 0.831380
O O4 0.783998 0.642722 0.090316
O O5 0.508982 0.906293 0.415317
O O6 0.629852 0.914655 0.503550
O O7 0.500000 0.542623 0.250000
O O8 0.930591 0.199442 0.789113
O O9 0.946299 0.431455 0.006463
O O10 0.890219 0.938989 0.873618
O O11 0.000000 0.800454 0.250000
#
# Coordination Sequence:
#
# PCOD8120853 Si02
#       5
#     4   4   4   4   4
#     4  12  20  39  57  89 118 146 195 245 270 335
#     4   8  22  39  58  84 116 163 193 225 285 340
#     4  10  23  35  63  90 110 149 195 230 287 345
#     4  10  21  44  60  81 119 151 181 236 296 347
#     4   9  23  36  59  80 119 157 193 228 288 324
#
# _framework density 21.914432999999999
#
# number of rings (size 3 to 8) (size 9 to 14) (size 15 to 20)
#    1.200    0.800    0.000    3.000    0.000    8.000 
#    0.000    0.000    0.000    0.000    0.000    0.000 
#    0.000    0.000    0.000    0.000    0.000    0.000 
#
# Total GULP energy -247822.074255 kJ/mol
# GULP energy per Si atom -12391.103713 kJ/mol
# Density = 2.186456 g / cm^3
# Si number density = 21.914433 Si / 1000 Ang^3
#
#
#
# Elastic Constant Matrix: (Units=GPa)
#
#
# Indices 1 2 3 4 5 6 
#
# 1 76.0621 8.4083 43.4142 0.0000 -19.8089 0.0000
# 2 8.4083 57.6426 -6.4769 0.0000 -7.5235 0.0000
# 3 43.4142 -6.4769 84.0230 0.0000 -8.5881 0.0000
# 4 0.0000 0.0000 0.0000 37.4670 0.0000 9.8541
# 5 -19.8089 -7.5235 -8.5881 0.0000 34.0460 0.0000
# 6 0.0000 0.0000 0.0000 9.8541 0.0000 24.0135
#
#
#
# Elastic Compliance Matrix: (Units=1/GPa)
#
#
# Indices 1 2 3 4 5 6 
#
# 1 0.022047 -0.003184 -0.010673 0.000000 0.009432 0.000000
# 2 -0.003184 0.018601 0.003398 0.000000 0.003115 0.000000
# 3 -0.010673 0.003398 0.017573 0.000000 -0.001026 0.000000
# 4 0.000000 0.000000 0.000000 0.029919 0.000000 -0.012278
# 5 0.009432 0.003115 -0.001026 0.000000 0.035289 0.000000
# 6 0.000000 0.000000 0.000000 -0.012278 0.000000 0.046682
#
#
# Mechanical properties :
#
#
# Convention : Reuss Voigt Hill
#
# Bulk Modulus (GPa) = 26.80832 34.26879 30.53856
# Shear Modulus (GPa) = 24.57418 30.59744 27.58581
#
# Velocity S-wave (km/s) = 3.35232 3.74066 3.55180
# Velocity P-wave (km/s) = 5.21956 5.85903 5.54851
#
# Compressibility (1/GPa) = 0.03730185
#
# Stress axis : x y z
#
# Youngs Moduli (GPa) = 45.35671 53.76036 56.90460
#
# Poissons Ratio (x) = 0.17119 0.60735
# Poissons Ratio (y) = 0.14443 -0.19333
# Poissons Ratio (z) = 0.48410 -0.18265
#
# Static dielectric constant tensor:
#      x y z
#    x 3.941230 0.000000 -0.053770 
#    y 0.000000 3.760490 0.000000 
#    z -0.053770 0.000000 3.596590 
# 
# 
# High freq. dielectric constant tensor:
#      x y z
#    x 1.867310 0.000000 -0.009710 
#    y 0.000000 1.852810 0.000000 
#    z -0.009710 0.000000 1.839390 
# 
# From -- ./inp_files/35297.got.cif
#   From: 2010.06.25/outbox.cif.g09.slc.cpg/sg13_18_cif.got.tgz:35297.got - 2010.06.28 04:50:58.
