data_PCOD8120755
_publ_section_title
;
Structure prediction by ZEFSAII (Michael W. Deem and Ramdas Pophale) SiO2 
 PCOD8120755
Probable space group: P 2/C
;
_chemical_formula_sum "Si O2"
_cell_formula_units_Z 28
_cell_length_a 11.391506
_cell_length_b 11.620082
_cell_length_c 23.550835
_cell_angle_alpha 90.000000
_cell_angle_beta 27.761435
_cell_angle_gamma 90.000000
_cell_volume 1452.071043
_symmetry_space_group_name_H-M "P 2/C"
_symmetry_group_IT_number 13
_symmetry_cell_setting 'monoclinic'
loop_
_space_group_symop_operation_xyz
x,y,z
-x,y,1/2-z
-x,-y,-z
x,-y,1/2+z
loop_
_atom_site_type_symbol
_atom_site_label
_atom_site_fract_x
_atom_site_fract_y
_atom_site_fract_z
Si Si1 0.316859 0.333327 0.954040
Si Si2 0.668520 0.550867 0.477855
Si Si3 0.944292 0.166695 0.357714
Si Si4 0.881745 0.092995 0.863547
Si Si5 0.224663 0.423767 0.877792
Si Si6 0.126243 0.310413 0.799952
Si Si7 0.607305 0.223676 0.401172
O O1 0.285436 0.329935 0.899905
O O2 0.607252 0.310753 0.846154
O O3 0.254650 0.457603 0.007748
O O4 0.127611 0.233011 0.054323
O O5 0.500000 0.500000 0.500000
O O6 0.503994 0.655734 0.573739
O O7 0.934063 0.609597 0.345093
O O8 0.798738 0.239137 0.371523
O O9 0.243346 0.172003 0.216753
O O10 0.873278 0.033755 0.393275
O O11 0.000000 0.091592 0.750000
O O12 0.038181 0.177759 0.837695
O O13 0.594963 0.135027 0.987036
O O14 0.500000 0.487958 0.750000
O O15 0.131496 0.358894 0.861588
O O16 0.000000 0.500000 0.000000
#
# Coordination Sequence:
#
# PCOD8120755 Si02
#       7
#     4   4   4   4   4   4   4
#     4  11  23  38  64  88 122 167 202 252 316 370
#     4  11  22  35  56  89 126 153 193 252 309 372
#     4  11  22  36  57  85 120 162 204 250 300 371
#     4  11  22  38  61  84 122 163 202 250 309 372
#     4  10  21  42  66  90 121 165 213 258 309 374
#     4  10  24  39  60  90 120 162 209 254 306 370
#     4  10  22  35  53  86 123 156 200 241 304 371
#
# _framework density 19.282803000000001
#
# number of rings (size 3 to 8) (size 9 to 14) (size 15 to 20)
#    0.000    1.429    4.286    1.286    6.000    0.000 
#    0.000    0.714    0.000    0.000    0.000    0.000 
#    0.000    0.000    0.000    0.000    0.000    0.000 
#
# Total GULP energy -346946.567397 kJ/mol
# GULP energy per Si atom -12390.948836 kJ/mol
# Density = 1.923891 g / cm^3
# Si number density = 19.282803 Si / 1000 Ang^3
#
#
#
# Elastic Constant Matrix: (Units=GPa)
#
#
# Indices 1 2 3 4 5 6 
#
# 1 55.7392 29.2369 23.4779 0.0000 -1.8177 0.0000
# 2 29.2369 124.6746 47.6309 0.0000 0.8813 0.0000
# 3 23.4779 47.6309 147.7399 0.0000 -7.0630 0.0000
# 4 0.0000 0.0000 0.0000 23.0508 0.0000 -0.1903
# 5 -1.8177 0.8813 -7.0630 0.0000 25.7289 0.0000
# 6 0.0000 0.0000 0.0000 -0.1903 0.0000 14.2609
#
#
#
# Elastic Compliance Matrix: (Units=1/GPa)
#
#
# Indices 1 2 3 4 5 6 
#
# 1 0.020989 -0.004192 -0.001932 0.000000 0.001096 0.000000
# 2 -0.004192 0.010018 -0.002629 0.000000 -0.001361 0.000000
# 3 -0.001932 -0.002629 0.008026 0.000000 0.002157 0.000000
# 4 0.000000 0.000000 0.000000 0.043387 0.000000 0.000579
# 5 0.001096 -0.001361 0.002157 0.000000 0.039583 0.000000
# 6 0.000000 0.000000 0.000000 0.000579 0.000000 0.070130
#
#
# Mechanical properties :
#
#
# Convention : Reuss Voigt Hill
#
# Bulk Modulus (GPa) = 46.44958 58.76057 52.60507
# Shear Modulus (GPa) = 23.06139 27.79532 25.42836
#
# Velocity S-wave (km/s) = 3.46201 3.80077 3.63534
# Velocity P-wave (km/s) = 6.33416 7.05694 6.70529
#
# Compressibility (1/GPa) = 0.02152872
#
# Stress axis : x y z
#
# Youngs Moduli (GPa) = 47.64454 99.82293 124.59233
#
# Poissons Ratio (x) = 0.41844 0.24066
# Poissons Ratio (y) = 0.19972 0.32751
# Poissons Ratio (z) = 0.09203 0.26240
#
# Static dielectric constant tensor:
#      x y z
#    x 3.445920 0.000000 -0.232930 
#    y 0.000000 3.532360 0.000000 
#    z -0.232930 0.000000 4.005300 
# 
# 
# High freq. dielectric constant tensor:
#      x y z
#    x 1.723760 0.000000 -0.016440 
#    y 0.000000 1.742540 0.000000 
#    z -0.016440 0.000000 1.772700 
# 
# From -- ./inp_files/33277.got.cif
#   From: 2010.06.25/outbox.cif.g09.slc.cpg/sg13_17_cif.got.tgz:33277.got - 2010.06.28 04:50:58.
