data_PCOD8120008
_publ_section_title
;
Structure prediction by ZEFSAII (Michael W. Deem and Ramdas Pophale) SiO2 
 PCOD8120008
Probable space group: P 2/C
;
_chemical_formula_sum "Si O2"
_cell_formula_units_Z 32
_cell_length_a 7.631201
_cell_length_b 17.015766
_cell_length_c 20.924219
_cell_angle_alpha 90.000000
_cell_angle_beta 145.886272
_cell_angle_gamma 90.000000
_cell_volume 1523.809253
_symmetry_space_group_name_H-M "P 2/C"
_symmetry_group_IT_number 13
_symmetry_cell_setting 'monoclinic'
loop_
_space_group_symop_operation_xyz
x,y,z
-x,y,1/2-z
-x,-y,-z
x,-y,1/2+z
loop_
_atom_site_type_symbol
_atom_site_label
_atom_site_fract_x
_atom_site_fract_y
_atom_site_fract_z
Si Si1 0.775465 0.893064 0.740495
Si Si2 0.770212 0.225100 0.063554
Si Si3 0.369903 0.192334 0.621293
Si Si4 0.538613 0.636877 0.190863
Si Si5 0.748361 0.158104 0.503895
Si Si6 0.915018 0.471868 0.658500
Si Si7 0.876794 0.935792 0.285318
Si Si8 0.252032 0.401397 0.478554
O O1 0.425505 0.877930 0.610300
O O2 0.000000 0.908200 0.750000
O O3 0.908542 0.819293 0.820504
O O4 0.781419 0.976349 0.779197
O O5 0.491511 0.215740 0.031332
O O6 0.676161 0.187001 0.968171
O O7 0.841291 0.317458 0.079301
O O8 0.569679 0.269452 0.697995
O O9 0.569924 0.117549 0.703331
O O10 0.050270 0.201100 0.565426
O O11 0.500000 0.603875 0.250000
O O12 0.264221 0.605828 0.059668
O O13 0.867138 0.603714 0.269189
O O14 0.847965 0.090677 0.583753
O O15 0.579435 0.431725 0.549846
O O16 0.985452 0.531910 0.620405
O O17 0.000000 0.519346 0.750000
O O18 0.000000 0.928764 0.250000
#
# Coordination Sequence:
#
# PCOD8120008 Si02
#       8
#     4   4   4   4   4   4   4   4
#     4   9  23  40  62  89 121 168 212 251 317 377
#     4  10  22  42  65  88 125 166 206 257 313 368
#     4  11  24  39  63  98 118 161 215 255 316 371
#     4  10  21  36  60  89 127 152 199 255 300 372
#     4  11  23  41  62  90 125 163 208 261 311 373
#     4   9  19  36  61  92 121 154 199 249 300 371
#     4  11  22  38  64  88 123 164 206 262 315 367
#     4   9  20  37  62  90 115 161 203 242 311 370
#
# _framework density 21.000005000000002
#
# number of rings (size 3 to 8) (size 9 to 14) (size 15 to 20)
#    0.000    2.000    1.250    1.125    5.250    5.000 
#    2.250    0.000    5.500    0.000    0.000    0.000 
#    0.000    0.000    0.000    0.000    0.000    0.000 
#
# Total GULP energy -396505.886031 kJ/mol
# GULP energy per Si atom -12390.808938 kJ/mol
# Density = 2.095221 g / cm^3
# Si number density = 21.000005 Si / 1000 Ang^3
#
#
#
# Elastic Constant Matrix: (Units=GPa)
#
#
# Indices 1 2 3 4 5 6 
#
# 1 78.3724 30.0304 28.5057 0.0000 -10.3468 0.0000
# 2 30.0304 145.8447 75.4706 0.0000 -14.2904 0.0000
# 3 28.5057 75.4706 123.7632 0.0000 -12.6576 0.0000
# 4 0.0000 0.0000 0.0000 23.9866 0.0000 -10.5147
# 5 -10.3468 -14.2904 -12.6576 0.0000 28.3902 0.0000
# 6 0.0000 0.0000 0.0000 -10.5147 0.0000 10.2476
#
#
#
# Elastic Compliance Matrix: (Units=1/GPa)
#
#
# Indices 1 2 3 4 5 6 
#
# 1 0.014583 -0.001610 -0.002008 0.000000 0.003609 0.000000
# 2 -0.001610 0.010358 -0.005734 0.000000 0.002071 0.000000
# 3 -0.002008 -0.005734 0.012226 0.000000 0.001833 0.000000
# 4 0.000000 0.000000 0.000000 0.075770 0.000000 0.077744
# 5 0.003609 0.002071 0.001833 0.000000 0.038398 0.000000
# 6 0.000000 0.000000 0.000000 0.077744 0.000000 0.177354
#
#
# Mechanical properties :
#
#
# Convention : Reuss Voigt Hill
#
# Bulk Modulus (GPa) = 54.15879 68.44376 61.30128
# Shear Modulus (GPa) = 14.14234 26.78977 20.46606
#
# Velocity S-wave (km/s) = 2.59790 3.57557 3.12520
# Velocity P-wave (km/s) = 5.90293 7.05048 6.50207
#
# Compressibility (1/GPa) = 0.01846422
#
# Stress axis : x y z
#
# Youngs Moduli (GPa) = 68.57119 96.54301 81.79076
#
# Poissons Ratio (x) = 0.15545 0.16423
# Poissons Ratio (y) = 0.11041 0.46897
# Poissons Ratio (z) = 0.13769 0.55355
#
# Static dielectric constant tensor:
#      x y z
#    x 4.238120 0.000000 -0.798610 
#    y 0.000000 3.835090 0.000000 
#    z -0.798610 0.000000 4.684470 
# 
# 
# High freq. dielectric constant tensor:
#      x y z
#    x 1.810140 0.000000 -0.021940 
#    y 0.000000 1.818450 0.000000 
#    z -0.021940 0.000000 1.828940 
# 
# From -- ./inp_files/85363.got.cif
#   From: 2010.06.25/outbox.cif.g09.slc.cpg/sg13_43_cif.got.tgz:85363.got - 2010.06.28 04:50:58.
