data_PCOD8120271
_publ_section_title
;
Structure prediction by ZEFSAII (Michael W. Deem and Ramdas Pophale) SiO2 
 PCOD8120271
Probable space group: P 2/C
;
_chemical_formula_sum "Si O2"
_cell_formula_units_Z 20
_cell_length_a 7.319040
_cell_length_b 21.933789
_cell_length_c 5.452670
_cell_angle_alpha 90.000000
_cell_angle_beta 54.307418
_cell_angle_gamma 90.000000
_cell_volume 710.915684
_symmetry_space_group_name_H-M "P 2/C"
_symmetry_group_IT_number 13
_symmetry_cell_setting 'monoclinic'
loop_
_space_group_symop_operation_xyz
x,y,z
-x,y,1/2-z
-x,-y,-z
x,-y,1/2+z
loop_
_atom_site_type_symbol
_atom_site_label
_atom_site_fract_x
_atom_site_fract_y
_atom_site_fract_z
Si Si1 0.250018 0.475762 0.413564
Si Si2 0.743313 0.213416 0.307589
Si Si3 0.253053 0.975730 0.096419
Si Si4 0.133056 0.344311 0.395060
Si Si5 0.243066 0.163570 0.700032
O O1 0.500000 0.504002 0.250000
O O2 0.133553 0.485750 0.776793
O O3 0.277637 0.404654 0.330441
O O4 0.715231 0.285570 0.284658
O O5 0.498132 0.185321 0.499055
O O6 0.863654 0.198569 0.476995
O O7 0.871346 0.181091 0.975340
O O8 0.242306 0.908887 0.222174
O O9 0.000000 0.000673 0.250000
O O10 0.363800 0.018930 0.229361
O O11 0.000000 0.358480 0.250000
O O12 0.000000 0.329358 0.750000
#
# Coordination Sequence:
#
# PCOD8120271 Si02
#       5
#     4   4   4   4   4
#     4  10  23  44  69 101 134 179 223 267 330 396
#     4  10  23  41  60  93 127 169 221 268 323 387
#     4  10  21  38  62  94 129 165 209 268 332 394
#     4  12  26  43  67 101 135 176 221 279 337 387
#     4  10  21  41  65  91 124 178 212 268 329 385
#
# _framework density 28.132732000000001
#
# number of rings (size 3 to 8) (size 9 to 14) (size 15 to 20)
#    0.000    1.600    0.000    3.600    2.800    4.800 
#    7.200   12.000    0.000    0.000    0.000    0.000 
#    0.000    0.000    0.000    0.000    0.000    0.000 
#
# Total GULP energy -248064.902162 kJ/mol
# GULP energy per Si atom -12403.245108 kJ/mol
# Density = 2.806870 g / cm^3
# Si number density = 28.132732 Si / 1000 Ang^3
#
#
#
# Elastic Constant Matrix: (Units=GPa)
#
#
# Indices 1 2 3 4 5 6 
#
# 1 157.9951 33.0260 94.8520 0.0000 52.6341 0.0000
# 2 33.0260 207.9720 69.6122 0.0000 34.5667 0.0000
# 3 94.8520 69.6122 268.3442 0.0000 48.9521 0.0000
# 4 0.0000 0.0000 0.0000 57.1105 0.0000 12.6147
# 5 52.6341 34.5667 48.9521 0.0000 56.1272 0.0000
# 6 0.0000 0.0000 0.0000 12.6147 0.0000 35.2242
#
#
#
# Elastic Compliance Matrix: (Units=1/GPa)
#
#
# Indices 1 2 3 4 5 6 
#
# 1 0.010239 0.000453 -0.002300 0.000000 -0.007874 0.000000
# 2 0.000453 0.005582 -0.001075 0.000000 -0.002925 0.000000
# 3 -0.002300 -0.001075 0.005118 0.000000 -0.001645 0.000000
# 4 0.000000 0.000000 0.000000 0.019014 0.000000 -0.006809
# 5 -0.007874 -0.002925 -0.001645 0.000000 0.028438 0.000000
# 6 0.000000 0.000000 0.000000 -0.006809 0.000000 0.030828
#
#
# Mechanical properties :
#
#
# Convention : Reuss Voigt Hill
#
# Bulk Modulus (GPa) = 66.24342 114.36576 90.30459
# Shear Modulus (GPa) = 45.41528 58.81379 52.11453
#
# Velocity S-wave (km/s) = 4.02222 4.57725 4.30868
# Velocity P-wave (km/s) = 6.72078 8.28706 7.54468
#
# Compressibility (1/GPa) = 0.01509584
#
# Stress axis : x y z
#
# Youngs Moduli (GPa) = 97.66807 179.13683 195.37012
#
# Poissons Ratio (x) = -0.08110 0.44937
# Poissons Ratio (y) = -0.04422 0.20993
# Poissons Ratio (z) = 0.22465 0.19248
#
# Static dielectric constant tensor:
#      x y z
#    x 6.077320 0.000000 1.998420 
#    y 0.000000 4.806510 0.000000 
#    z 1.998420 0.000000 10.035180 
# 
# 
# High freq. dielectric constant tensor:
#      x y z
#    x 2.219260 0.000000 0.003500 
#    y 0.000000 2.107390 0.000000 
#    z 0.003500 0.000000 2.207010 
# 
# From -- ./inp_files/2029.got.cif
#   From: 2010.06.25/outbox.cif.g09.slc.cpg/sg13_2_cif.got.tgz:2029.got - 2010.06.28 04:50:58.
