data_PCOD8120667
_publ_section_title
;
Structure prediction by ZEFSAII (Michael W. Deem and Ramdas Pophale) SiO2 
 PCOD8120667
Probable space group: P 2/C
;
_chemical_formula_sum "Si O2"
_cell_formula_units_Z 32
_cell_length_a 21.442385
_cell_length_b 8.719450
_cell_length_c 14.401882
_cell_angle_alpha 90.000000
_cell_angle_beta 147.510761
_cell_angle_gamma 90.000000
_cell_volume 1446.338319
_symmetry_space_group_name_H-M "P 2/C"
_symmetry_group_IT_number 13
_symmetry_cell_setting 'monoclinic'
loop_
_space_group_symop_operation_xyz
x,y,z
-x,y,1/2-z
-x,-y,-z
x,-y,1/2+z
loop_
_atom_site_type_symbol
_atom_site_label
_atom_site_fract_x
_atom_site_fract_y
_atom_site_fract_z
Si Si1 0.888435 0.090363 0.824735
Si Si2 0.490600 0.933951 0.635740
Si Si3 0.700375 0.521495 0.506428
Si Si4 0.302613 0.284994 0.833059
Si Si5 0.291546 0.148314 0.393846
Si Si6 0.890980 0.690095 0.168361
Si Si7 0.711851 0.166234 0.320947
Si Si8 0.386274 0.499232 0.794954
O O1 0.818558 0.192768 0.813258
O O2 0.936055 0.216222 0.813270
O O3 0.794656 0.970944 0.661803
O O4 0.000000 0.000000 0.000000
O O5 0.500000 0.857578 0.750000
O O6 0.410425 0.831971 0.468067
O O7 0.616677 0.952255 0.745351
O O8 0.427279 0.099238 0.570998
O O9 0.669026 0.398601 0.545376
O O10 0.725385 0.683246 0.586588
O O11 0.815144 0.459204 0.598154
O O12 0.601694 0.539059 0.300845
O O13 0.297910 0.377105 0.730387
O O14 0.250224 0.126914 0.235364
O O15 0.000000 0.623294 0.250000
O O16 0.824305 0.822178 0.026464
O O17 0.656501 0.331374 0.248894
O O18 0.500000 0.500000 0.000000
#
# Coordination Sequence:
#
# PCOD8120667 Si02
#       8
#     4   4   4   4   4   4   4   4
#     4  10  22  44  65  92 124 170 215 266 334 395
#     4  11  22  39  60  91 131 173 210 258 323 399
#     4  10  23  42  63  94 131 165 218 275 326 383
#     4  10  21  41  65  88 128 173 212 261 331 394
#     4  11  23  41  60  94 132 165 213 271 330 384
#     4  10  22  45  69  91 123 173 225 269 330 397
#     4  11  21  39  65  92 127 173 217 260 327 403
#     4  11  21  37  62  96 127 171 219 264 323 388
#
# _framework density 22.124838
#
# number of rings (size 3 to 8) (size 9 to 14) (size 15 to 20)
#    0.000    1.500    2.500    4.125    0.000    1.000 
#   15.750    1.875    0.000    0.000    0.000    0.000 
#    0.000    0.000    0.000    0.000    0.000    0.000 
#
# Total GULP energy -396539.644360 kJ/mol
# GULP energy per Si atom -12391.863886 kJ/mol
# Density = 2.207448 g / cm^3
# Si number density = 22.124838 Si / 1000 Ang^3
#
#
#
# Elastic Constant Matrix: (Units=GPa)
#
#
# Indices 1 2 3 4 5 6 
#
# 1 87.1869 27.9688 27.7668 0.0000 -2.6062 0.0000
# 2 27.9688 95.5453 25.5916 0.0000 0.2921 0.0000
# 3 27.7668 25.5916 86.2137 0.0000 -0.1663 0.0000
# 4 0.0000 0.0000 0.0000 21.5779 0.0000 0.9387
# 5 -2.6062 0.2921 -0.1663 0.0000 33.7984 0.0000
# 6 0.0000 0.0000 0.0000 0.9387 0.0000 31.8140
#
#
#
# Elastic Compliance Matrix: (Units=1/GPa)
#
#
# Indices 1 2 3 4 5 6 
#
# 1 0.013584 -0.003051 -0.003467 0.000000 0.001057 0.000000
# 2 -0.003051 0.012056 -0.002597 0.000000 -0.000352 0.000000
# 3 -0.003467 -0.002597 0.013486 0.000000 -0.000179 0.000000
# 4 0.000000 0.000000 0.000000 0.046403 0.000000 -0.001369
# 5 0.001057 -0.000352 -0.000179 0.000000 0.029671 0.000000
# 6 0.000000 0.000000 0.000000 -0.001369 0.000000 0.031473
#
#
# Mechanical properties :
#
#
# Convention : Reuss Voigt Hill
#
# Bulk Modulus (GPa) = 47.85542 47.95560 47.90551
# Shear Modulus (GPa) = 29.09188 29.94597 29.51892
#
# Velocity S-wave (km/s) = 3.63008 3.68299 3.65663
# Velocity P-wave (km/s) = 6.26472 6.30935 6.28707
#
# Compressibility (1/GPa) = 0.02089628
#
# Stress axis : x y z
#
# Youngs Moduli (GPa) = 73.61496 82.94653 74.14944
#
# Poissons Ratio (x) = 0.25307 0.25710
# Poissons Ratio (y) = 0.22460 0.19255
# Poissons Ratio (z) = 0.25525 0.21539
#
# Static dielectric constant tensor:
#      x y z
#    x 4.409480 0.000000 -0.379460 
#    y 0.000000 4.149070 0.000000 
#    z -0.379460 0.000000 3.912640 
# 
# 
# High freq. dielectric constant tensor:
#      x y z
#    x 1.872220 0.000000 -0.007070 
#    y 0.000000 1.871150 0.000000 
#    z -0.007070 0.000000 1.855060 
# 
# From -- ./inp_files/58838.got.cif
#   From: 2010.06.25/outbox.cif.g09.slc.cpg/sg13_30_cif.got.tgz:58838.got - 2010.06.28 04:50:58.
