data_PCOD8120577
_publ_section_title
;
Structure prediction by ZEFSAII (Michael W. Deem and Ramdas Pophale) SiO2 
 PCOD8120577
Probable space group: P 2/C
;
_chemical_formula_sum "Si O2"
_cell_formula_units_Z 32
_cell_length_a 15.774399
_cell_length_b 10.764344
_cell_length_c 8.877320
_cell_angle_alpha 90.000000
_cell_angle_beta 81.999847
_cell_angle_gamma 90.000000
_cell_volume 1492.708059
_symmetry_space_group_name_H-M "P 2/C"
_symmetry_group_IT_number 13
_symmetry_cell_setting 'monoclinic'
loop_
_space_group_symop_operation_xyz
x,y,z
-x,y,1/2-z
-x,-y,-z
x,-y,1/2+z
loop_
_atom_site_type_symbol
_atom_site_label
_atom_site_fract_x
_atom_site_fract_y
_atom_site_fract_z
Si Si1 0.106668 0.411831 0.604113
Si Si2 0.705544 0.957642 0.488078
Si Si3 0.402517 0.415084 0.227250
Si Si4 0.929819 0.654166 0.055206
Si Si5 0.638626 0.656694 0.093986
Si Si6 0.758253 0.282342 0.114602
Si Si7 0.797703 0.209620 0.426134
Si Si8 0.593513 0.091343 0.742736
O O1 0.080717 0.552832 0.574828
O O2 0.116733 0.393474 0.780575
O O3 0.196123 0.385951 0.498447
O O4 0.030333 0.321652 0.561853
O O5 0.765428 0.842354 0.514163
O O6 0.628259 0.908013 0.403334
O O7 0.765077 0.068873 0.410619
O O8 0.662281 0.003217 0.649931
O O9 0.500000 0.393452 0.250000
O O10 0.366916 0.551841 0.276032
O O11 0.340757 0.316244 0.325979
O O12 0.402059 0.397862 0.048030
O O13 0.886329 0.780313 0.999323
O O14 0.585210 0.773954 0.167563
O O15 0.734357 0.703610 0.039934
O O16 0.809235 0.267745 0.258116
O O17 0.500000 0.029895 0.750000
#
# Coordination Sequence:
#
# PCOD8120577 Si02
#       8
#     4   4   4   4   4   4   4   4
#     4  10  22  38  65 101 126 169 198 262 315 378
#     4  11  24  42  62  90 122 166 215 271 314 377
#     4  11  24  40  60  89 133 167 210 257 317 386
#     4  10  21  40  66  96 134 157 211 253 315 385
#     4  10  24  39  60  92 122 167 210 260 320 384
#     4  11  24  39  62  91 125 168 210 256 322 368
#     4  10  22  42  60  90 122 167 211 261 311 378
#     4  11  24  42  65  88 121 164 221 273 326 371
#
# _framework density 21.437546999999999
#
# number of rings (size 3 to 8) (size 9 to 14) (size 15 to 20)
#    0.000    1.500    1.250    2.625    7.000    4.000 
#    0.000    0.625    0.000    0.000    0.000    0.000 
#    0.000    0.000    0.000    0.000    0.000    0.000 
#
# Total GULP energy -396754.559559 kJ/mol
# GULP energy per Si atom -12398.579986 kJ/mol
# Density = 2.138875 g / cm^3
# Si number density = 21.437547 Si / 1000 Ang^3
#
#
#
# Elastic Constant Matrix: (Units=GPa)
#
#
# Indices 1 2 3 4 5 6 
#
# 1 78.4078 20.9937 20.8098 0.0000 14.7462 0.0000
# 2 20.9937 79.7598 20.8388 0.0000 10.1593 0.0000
# 3 20.8098 20.8388 59.9202 0.0000 15.9510 0.0000
# 4 0.0000 0.0000 0.0000 -5.2539 0.0000 30.6041
# 5 14.7462 10.1593 15.9510 0.0000 33.1589 0.0000
# 6 0.0000 0.0000 0.0000 30.6041 0.0000 10.2565
#
#
#
# Elastic Compliance Matrix: (Units=1/GPa)
#
#
# Indices 1 2 3 4 5 6 
#
# 1 0.015118 -0.002588 -0.003179 0.000000 -0.004401 0.000000
# 2 -0.002588 0.014375 -0.003709 0.000000 -0.001469 0.000000
# 3 -0.003179 -0.003709 0.021107 0.000000 -0.007603 0.000000
# 4 0.000000 0.000000 0.000000 -0.010355 0.000000 0.030898
# 5 -0.004401 -0.001469 -0.007603 0.000000 0.036223 0.000000
# 6 0.000000 0.000000 0.000000 0.030898 0.000000 0.005304
#
#
# Mechanical properties :
#
#
# Convention : Reuss Voigt Hill
#
# Bulk Modulus (GPa) = 31.59807 38.15251 34.87529
# Shear Modulus (GPa) = 44.93405 17.99533 31.46469
#
# Velocity S-wave (km/s) = 4.58322 2.90044 3.83526
# Velocity P-wave (km/s) = 6.54061 5.39003 5.99299
#
# Compressibility (1/GPa) = 0.03164750
#
# Stress axis : x y z
#
# Youngs Moduli (GPa) = 66.14543 69.56448 47.37795
#
# Poissons Ratio (x) = 0.18005 0.15060
# Poissons Ratio (y) = 0.17120 0.17575
# Poissons Ratio (z) = 0.21026 0.25805
#
# Static dielectric constant tensor:
#      x y z
#    x 3.823020 0.000000 -0.046960 
#    y 0.000000 3.716220 0.000000 
#    z -0.046960 0.000000 3.944530 
# 
# 
# High freq. dielectric constant tensor:
#      x y z
#    x 1.832610 0.000000 0.003600 
#    y 0.000000 1.823320 0.000000 
#    z 0.003600 0.000000 1.855940 
# 
# From -- ./inp_files/19053.got.cif
#   From: 2010.06.25/outbox.cif.g09.slc.cpg/sg13_10_cif.got.tgz:19053.got - 2010.06.28 04:50:58.
