data_PCOD8120260
_publ_section_title
;
Structure prediction by ZEFSAII (Michael W. Deem and Ramdas Pophale) SiO2 
 PCOD8120260
Probable space group: P 2/C
;
_chemical_formula_sum "Si O2"
_cell_formula_units_Z 28
_cell_length_a 28.762171
_cell_length_b 8.452080
_cell_length_c 9.905735
_cell_angle_alpha 90.000000
_cell_angle_beta 35.640812
_cell_angle_gamma 90.000000
_cell_volume 1403.196443
_symmetry_space_group_name_H-M "P 2/C"
_symmetry_group_IT_number 13
_symmetry_cell_setting 'monoclinic'
loop_
_space_group_symop_operation_xyz
x,y,z
-x,y,1/2-z
-x,-y,-z
x,-y,1/2+z
loop_
_atom_site_type_symbol
_atom_site_label
_atom_site_fract_x
_atom_site_fract_y
_atom_site_fract_z
Si Si1 0.789211 0.528984 0.898833
Si Si2 0.789101 0.822673 0.092566
Si Si3 0.834648 0.312664 0.031619
Si Si4 0.448433 0.924193 0.739515
Si Si5 0.056008 0.010276 0.741499
Si Si6 0.325178 0.717060 0.914239
Si Si7 0.690870 0.887054 0.815226
O O1 0.775229 0.681190 0.022465
O O2 0.834658 0.400530 0.886218
O O3 0.843836 0.567855 0.637901
O O4 0.701545 0.463402 0.056723
O O5 0.880939 0.867572 0.896763
O O6 0.752166 0.786728 0.326516
O O7 0.743566 0.969264 0.132936
O O8 0.904510 0.183530 0.866561
O O9 0.748665 0.231075 0.260824
O O10 0.500000 0.894002 0.750000
O O11 0.500000 0.000000 0.500000
O O12 0.406576 0.752151 0.806522
O O13 0.379660 0.054473 0.922501
O O14 0.000000 0.973033 0.750000
O O15 0.000000 0.000000 0.000000
O O16 0.346140 0.804756 0.726889
#
# Coordination Sequence:
#
# PCOD8120260 Si02
#       7
#     4   4   4   4   4   4   4
#     4  11  21  40  64  94 123 164 214 268 314 377
#     4  10  22  37  66  90 118 165 217 267 305 378
#     4  10  23  40  65  91 127 164 219 263 318 381
#     4  11  21  37  62  98 130 165 207 260 316 374
#     4  11  25  42  64  93 127 164 211 266 324 380
#     4  10  21  38  61  96 120 169 211 263 313 374
#     4   9  21  36  64  91 122 162 222 263 311 364
#
# _framework density 19.954439000000001
#
# number of rings (size 3 to 8) (size 9 to 14) (size 15 to 20)
#    0.000    1.714    2.857    0.857   12.000    0.000 
#    0.000    3.571    0.000    8.571    0.000    0.000 
#    0.000    0.000    0.000    0.000    0.000    0.000 
#
# Total GULP energy -347001.762794 kJ/mol
# GULP energy per Si atom -12392.920100 kJ/mol
# Density = 1.990902 g / cm^3
# Si number density = 19.954439 Si / 1000 Ang^3
#
#
#
# Elastic Constant Matrix: (Units=GPa)
#
#
# Indices 1 2 3 4 5 6 
#
# 1 121.1417 56.1572 68.2252 0.0000 -2.8831 0.0000
# 2 56.1572 107.7136 41.0790 0.0000 -4.4711 0.0000
# 3 68.2252 41.0790 126.4326 0.0000 -0.8381 0.0000
# 4 0.0000 0.0000 0.0000 31.4763 0.0000 2.2450
# 5 -2.8831 -4.4711 -0.8381 0.0000 32.0300 0.0000
# 6 0.0000 0.0000 0.0000 2.2450 0.0000 31.0073
#
#
#
# Elastic Compliance Matrix: (Units=1/GPa)
#
#
# Indices 1 2 3 4 5 6 
#
# 1 0.013878 -0.004981 -0.005868 0.000000 0.000400 0.000000
# 2 -0.004981 0.012447 -0.001348 0.000000 0.001254 0.000000
# 3 -0.005868 -0.001348 0.011511 0.000000 -0.000415 0.000000
# 4 0.000000 0.000000 0.000000 0.031935 0.000000 -0.002312
# 5 0.000400 0.001254 -0.000415 0.000000 0.031421 0.000000
# 6 0.000000 0.000000 0.000000 -0.002312 0.000000 0.032418
#
#
# Mechanical properties :
#
#
# Convention : Reuss Voigt Hill
#
# Bulk Modulus (GPa) = 74.39178 76.24563 75.31871
# Shear Modulus (GPa) = 30.77233 31.55781 31.16507
#
# Velocity S-wave (km/s) = 3.93126 3.98111 3.95626
# Velocity P-wave (km/s) = 7.61368 7.70877 7.66137
#
# Compressibility (1/GPa) = 0.01344235
#
# Stress axis : x y z
#
# Youngs Moduli (GPa) = 72.05661 80.34164 86.87391
#
# Poissons Ratio (x) = 0.40018 0.50976
# Poissons Ratio (y) = 0.35891 0.11710
# Poissons Ratio (z) = 0.42281 0.10830
#
# Static dielectric constant tensor:
#      x y z
#    x 3.950080 0.000000 0.319580 
#    y 0.000000 3.841710 0.000000 
#    z 0.319580 0.000000 4.060100 
# 
# 
# High freq. dielectric constant tensor:
#      x y z
#    x 1.785560 0.000000 0.016440 
#    y 0.000000 1.773540 0.000000 
#    z 0.016440 0.000000 1.772490 
# 
# From -- ./inp_files/24537.got.cif
#   From: 2010.06.25/outbox.cif.g09.slc.cpg/sg13_13_cif.got.tgz:24537.got - 2010.06.28 04:50:58.
