data_PCOD8120288
_publ_section_title
;
Structure prediction by ZEFSAII (Michael W. Deem and Ramdas Pophale) SiO2 
 PCOD8120288
Probable space group: P 2/C
;
_chemical_formula_sum "Si O2"
_cell_formula_units_Z 32
_cell_length_a 21.534178
_cell_length_b 7.903958
_cell_length_c 22.942481
_cell_angle_alpha 90.000000
_cell_angle_beta 20.992440
_cell_angle_gamma 90.000000
_cell_volume 1398.920885
_symmetry_space_group_name_H-M "P 2/C"
_symmetry_group_IT_number 13
_symmetry_cell_setting 'monoclinic'
loop_
_space_group_symop_operation_xyz
x,y,z
-x,y,1/2-z
-x,-y,-z
x,-y,1/2+z
loop_
_atom_site_type_symbol
_atom_site_label
_atom_site_fract_x
_atom_site_fract_y
_atom_site_fract_z
Si Si1 0.260602 0.894297 0.428482
Si Si2 0.548212 0.574150 0.291724
Si Si3 0.879199 0.091071 0.223940
Si Si4 0.095303 0.733855 0.913219
Si Si5 0.352334 0.790440 0.781995
Si Si6 0.187471 0.717654 0.604033
Si Si7 0.268774 0.382383 0.750437
Si Si8 0.412545 0.140956 0.535255
O O1 0.353135 0.717948 0.331433
O O2 0.225424 0.881314 0.528753
O O3 0.083632 0.927316 0.549843
O O4 0.374901 0.057117 0.309087
O O5 0.607614 0.386289 0.220044
O O6 0.341598 0.582117 0.462103
O O7 0.592132 0.603196 0.320355
O O8 0.833046 0.138716 0.197972
O O9 0.813467 0.228475 0.328112
O O10 0.772705 0.919895 0.327758
O O11 0.160406 0.779106 0.921334
O O12 0.169737 0.555967 0.824539
O O13 0.886274 0.746717 0.096653
O O14 0.474992 0.816586 0.619243
O O15 0.000000 0.638360 0.750000
O O16 0.378931 0.315521 0.599161
O O17 0.500000 0.000000 0.500000
#
# Coordination Sequence:
#
# PCOD8120288 Si02
#       8
#     4   4   4   4   4   4   4   4
#     4  11  23  46  69  92 132 176 226 279 321 387
#     4  11  23  42  70  97 127 172 219 268 336 390
#     4  11  22  39  67  93 132 176 219 269 329 395
#     4  10  21  38  63  98 136 173 211 262 336 404
#     4  11  25  40  67 104 135 176 215 271 332 402
#     4  10  24  44  68  93 122 176 227 277 333 380
#     4  10  22  37  60  99 137 168 210 265 331 404
#     4  12  23  36  58  97 139 174 212 258 332 402
#
# _framework density 22.874775
#
# number of rings (size 3 to 8) (size 9 to 14) (size 15 to 20)
#    0.000    1.250    2.500    3.375    1.750    2.000 
#    0.000    5.000    0.000    5.250    0.000    0.000 
#    0.000    0.000    0.000    0.000    0.000    0.000 
#
# Total GULP energy -396646.024520 kJ/mol
# GULP energy per Si atom -12395.188266 kJ/mol
# Density = 2.282271 g / cm^3
# Si number density = 22.874775 Si / 1000 Ang^3
#
#
#
# Elastic Constant Matrix: (Units=GPa)
#
#
# Indices 1 2 3 4 5 6 
#
# 1 72.7921 18.3498 31.7539 0.0000 -16.0238 0.0000
# 2 18.3498 97.9715 35.0034 0.0000 -4.0496 0.0000
# 3 31.7539 35.0034 108.2236 0.0000 -16.6927 0.0000
# 4 0.0000 0.0000 0.0000 25.8407 0.0000 -3.5528
# 5 -16.0238 -4.0496 -16.6927 0.0000 35.1012 0.0000
# 6 0.0000 0.0000 0.0000 -3.5528 0.0000 12.9876
#
#
#
# Elastic Compliance Matrix: (Units=1/GPa)
#
#
# Indices 1 2 3 4 5 6 
#
# 1 0.016999 -0.001677 -0.003538 0.000000 0.005884 0.000000
# 2 -0.001677 0.011713 -0.003460 0.000000 -0.001059 0.000000
# 3 -0.003538 -0.003460 0.011964 0.000000 0.003675 0.000000
# 4 0.000000 0.000000 0.000000 0.040211 0.000000 0.011000
# 5 0.005884 -0.001059 0.003675 0.000000 0.032801 0.000000
# 6 0.000000 0.000000 0.000000 0.011000 0.000000 0.080006
#
#
# Mechanical properties :
#
#
# Convention : Reuss Voigt Hill
#
# Bulk Modulus (GPa) = 42.86747 49.91126 46.38937
# Shear Modulus (GPa) = 22.84992 27.71124 25.28058
#
# Velocity S-wave (km/s) = 3.16399 3.48434 3.32802
# Velocity P-wave (km/s) = 5.66820 6.16881 5.92380
#
# Compressibility (1/GPa) = 0.02332771
#
# Stress axis : x y z
#
# Youngs Moduli (GPa) = 58.82704 85.37162 83.58294
#
# Poissons Ratio (x) = 0.14314 0.29570
# Poissons Ratio (y) = 0.09863 0.28920
# Poissons Ratio (z) = 0.20812 0.29539
#
# Static dielectric constant tensor:
#      x y z
#    x 4.221560 0.000000 -0.168030 
#    y 0.000000 4.071030 0.000000 
#    z -0.168030 0.000000 4.323450 
# 
# 
# High freq. dielectric constant tensor:
#      x y z
#    x 1.902330 0.000000 -0.008080 
#    y 0.000000 1.883020 0.000000 
#    z -0.008080 0.000000 1.918590 
# 
# From -- ./inp_files/88942.got.cif
#   From: 2010.06.25/outbox.cif.g09.slc.cpg/sg13_45_cif.got.tgz:88942.got - 2010.06.28 04:50:58.
