data_PCOD8120843
_publ_section_title
;
Structure prediction by ZEFSAII (Michael W. Deem and Ramdas Pophale) SiO2 
 PCOD8120843
Probable space group: P 2/C
;
_chemical_formula_sum "Si O2"
_cell_formula_units_Z 30
_cell_length_a 14.686546
_cell_length_b 11.763721
_cell_length_c 26.091680
_cell_angle_alpha 90.000000
_cell_angle_beta 17.492657
_cell_angle_gamma 90.000000
_cell_volume 1354.976197
_symmetry_space_group_name_H-M "P 2/C"
_symmetry_group_IT_number 13
_symmetry_cell_setting 'monoclinic'
loop_
_space_group_symop_operation_xyz
x,y,z
-x,y,1/2-z
-x,-y,-z
x,-y,1/2+z
loop_
_atom_site_type_symbol
_atom_site_label
_atom_site_fract_x
_atom_site_fract_y
_atom_site_fract_z
Si Si1 0.922606 0.400438 0.684589
Si Si2 0.740170 0.084849 0.458662
Si Si3 0.737998 0.780952 0.689321
Si Si4 0.497613 0.734642 0.020981
Si Si5 0.076527 0.236993 0.515940
Si Si6 0.617552 0.636124 0.846646
Si Si7 0.852605 0.994481 0.174419
Si Si8 0.000000 0.898811 0.250000
O O1 0.878372 0.323282 0.657009
O O2 0.262350 0.387883 0.525050
O O3 0.656552 0.369600 0.867159
O O4 0.840669 0.530280 0.717948
O O5 0.757776 0.200789 0.415060
O O6 0.408998 0.078011 0.659426
O O7 0.981848 0.078663 0.374369
O O8 0.783883 0.973607 0.401032
O O9 0.986670 0.747302 0.511586
O O10 0.784763 0.725827 0.719831
O O11 0.733041 0.918431 0.695697
O O12 0.421856 0.731127 0.840105
O O13 0.224010 0.823469 0.162820
O O14 0.638429 0.688470 0.892548
O O15 0.056886 0.103759 0.540667
#
# Coordination Sequence:
#
# PCOD8120843 Si02
#       8
#     4   4   4   4   4   4   4   2
#     4  11  23  45  68  91 128 173 225 277 334 388
#     4  12  25  37  64  98 139 177 215 261 323 395
#     4  10  23  41  67 100 131 176 219 269 338 399
#     4  12  23  42  66  94 134 175 218 267 327 398
#     4  10  21  43  70  94 134 175 217 276 337 393
#     4  11  25  44  68  94 129 174 226 277 335 393
#     4  12  22  42  66 101 135 175 217 268 326 407
#     4  12  22  40  60  96 134 180 210 254 320 396
#
# _framework density 22.140612000000001
#
# number of rings (size 3 to 8) (size 9 to 14) (size 15 to 20)
#    0.000    0.800    5.333    2.000    1.867    1.600 
#    0.000    0.000    0.000    0.000    0.000    0.000 
#    0.000    0.000    0.000    0.000    0.000    0.000 
#
# Total GULP energy -371745.603080 kJ/mol
# GULP energy per Si atom -12391.520103 kJ/mol
# Density = 2.209022 g / cm^3
# Si number density = 22.140612 Si / 1000 Ang^3
#
#
#
# Elastic Constant Matrix: (Units=GPa)
#
#
# Indices 1 2 3 4 5 6 
#
# 1 106.0783 46.0763 51.8821 0.0000 44.5538 0.0000
# 2 46.0763 121.1353 36.4682 0.0000 21.6975 0.0000
# 3 51.8821 36.4682 67.7261 0.0000 19.3314 0.0000
# 4 0.0000 0.0000 0.0000 91.4058 0.0000 2.9856
# 5 44.5538 21.6975 19.3314 0.0000 40.2010 0.0000
# 6 0.0000 0.0000 0.0000 2.9856 0.0000 21.6115
#
#
#
# Elastic Compliance Matrix: (Units=1/GPa)
#
#
# Indices 1 2 3 4 5 6 
#
# 1 0.024942 -0.002157 -0.012041 0.000000 -0.020689 0.000000
# 2 -0.002157 0.010409 -0.003514 0.000000 -0.001538 0.000000
# 3 -0.012041 -0.003514 0.024956 0.000000 0.003240 0.000000
# 4 0.000000 0.000000 0.000000 0.010990 0.000000 -0.001518
# 5 -0.020689 -0.001538 0.003240 0.000000 0.047076 0.000000
# 6 0.000000 0.000000 0.000000 -0.001518 0.000000 0.046481
#
#
# Mechanical properties :
#
#
# Convention : Reuss Voigt Hill
#
# Bulk Modulus (GPa) = 40.18383 62.64368 51.41375
# Shear Modulus (GPa) = 23.97254 41.34452 32.65853
#
# Velocity S-wave (km/s) = 3.29407 4.32599 3.84481
# Velocity P-wave (km/s) = 5.71460 7.30118 6.55606
#
# Compressibility (1/GPa) = 0.02488563
#
# Stress axis : x y z
#
# Youngs Moduli (GPa) = 40.09253 96.07184 40.07004
#
# Poissons Ratio (x) = 0.20720 0.48247
# Poissons Ratio (y) = 0.08647 0.14079
# Poissons Ratio (z) = 0.48274 0.33756
#
# Static dielectric constant tensor:
#      x y z
#    x 4.513900 0.000000 0.324820 
#    y 0.000000 3.878410 0.000000 
#    z 0.324820 0.000000 3.872490 
# 
# 
# High freq. dielectric constant tensor:
#      x y z
#    x 1.870980 0.000000 0.017860 
#    y 0.000000 1.868270 0.000000 
#    z 0.017860 0.000000 1.865510 
# 
# From -- ./inp_files/92937.got.cif
#   From: 2010.06.25/outbox.cif.g09.slc.cpg/sg13_47_cif.got.tgz:92937.got - 2010.06.28 04:50:58.
