data_PCOD8120669
_publ_section_title
;
Structure prediction by ZEFSAII (Michael W. Deem and Ramdas Pophale) SiO2 
 PCOD8120669
Probable space group: P 2/C
;
_chemical_formula_sum "Si O2"
_cell_formula_units_Z 12
_cell_length_a 7.991202
_cell_length_b 5.090919
_cell_length_c 12.179079
_cell_angle_alpha 90.000000
_cell_angle_beta 56.551622
_cell_angle_gamma 90.000000
_cell_volume 413.416749
_symmetry_space_group_name_H-M "P 2/C"
_symmetry_group_IT_number 13
_symmetry_cell_setting 'monoclinic'
loop_
_space_group_symop_operation_xyz
x,y,z
-x,y,1/2-z
-x,-y,-z
x,-y,1/2+z
loop_
_atom_site_type_symbol
_atom_site_label
_atom_site_fract_x
_atom_site_fract_y
_atom_site_fract_z
Si Si1 0.995082 0.818826 0.381828
Si Si2 0.631798 0.473797 0.793217
Si Si3 0.755598 0.323283 0.465056
O O1 0.220616 0.720484 0.331115
O O2 0.000000 0.838137 0.250000
O O3 0.833991 0.603763 0.479372
O O4 0.913274 0.102630 0.455611
O O5 0.500000 0.630850 0.750000
O O6 0.754398 0.669909 0.829796
O O7 0.478027 0.286744 0.917941
#
# Coordination Sequence:
#
# PCOD8120669 Si02
#       3
#     4   4   4
#     4  10  21  41  65  91 131 173 208 261 329 383
#     4  10  23  42  69 100 128 169 223 269 317 385
#     4  10  23  43  65  92 133 173 209 264 329 383
#
# _framework density 29.026401
#
# number of rings (size 3 to 8) (size 9 to 14) (size 15 to 20)
#    0.000    2.000    0.000    3.000    0.000   17.333 
#    0.000   23.333    0.000   16.000    0.000    0.000 
#    0.000    0.000    0.000    0.000    0.000    0.000 
#
# Total GULP energy -148726.107233 kJ/mol
# GULP energy per Si atom -12393.842269 kJ/mol
# Density = 2.896034 g / cm^3
# Si number density = 29.026401 Si / 1000 Ang^3
#
#
#
# Elastic Constant Matrix: (Units=GPa)
#
#
# Indices 1 2 3 4 5 6 
#
# 1 162.6530 56.2563 13.7844 0.0000 -20.0476 0.0000
# 2 56.2563 177.3095 61.3246 0.0000 -29.4643 0.0000
# 3 13.7844 61.3246 138.1681 0.0000 -45.9185 0.0000
# 4 0.0000 0.0000 0.0000 27.9515 0.0000 17.8829
# 5 -20.0476 -29.4643 -45.9185 0.0000 46.8063 0.0000
# 6 0.0000 0.0000 0.0000 17.8829 0.0000 38.3730
#
#
#
# Elastic Compliance Matrix: (Units=1/GPa)
#
#
# Indices 1 2 3 4 5 6 
#
# 1 0.007166 -0.002220 0.001226 0.000000 0.002874 0.000000
# 2 -0.002220 0.007468 -0.002740 0.000000 0.001062 0.000000
# 3 0.001226 -0.002740 0.011770 0.000000 0.010347 0.000000
# 4 0.000000 0.000000 0.000000 0.050975 0.000000 -0.023756
# 5 0.002874 0.001062 0.010347 0.000000 0.033415 0.000000
# 6 0.000000 0.000000 0.000000 -0.023756 0.000000 0.037131
#
#
# Mechanical properties :
#
#
# Convention : Reuss Voigt Hill
#
# Bulk Modulus (GPa) = 52.81073 82.31791 67.56432
# Shear Modulus (GPa) = 30.92020 45.74386 38.33203
#
# Velocity S-wave (km/s) = 3.26735 3.97412 3.63794
# Velocity P-wave (km/s) = 5.69804 7.03416 6.40105
#
# Compressibility (1/GPa) = 0.01893555
#
# Stress axis : x y z
#
# Youngs Moduli (GPa) = 139.54273 133.89601 84.96027
#
# Poissons Ratio (x) = 0.29724 -0.10413
# Poissons Ratio (y) = 0.30978 0.23282
# Poissons Ratio (z) = -0.17102 0.36692
#
# Static dielectric constant tensor:
#      x y z
#    x 5.893010 0.000000 -0.044870 
#    y 0.000000 4.932290 0.000000 
#    z -0.044870 0.000000 5.927840 
# 
# 
# High freq. dielectric constant tensor:
#      x y z
#    x 2.217330 0.000000 0.019480 
#    y 0.000000 2.115870 0.000000 
#    z 0.019480 0.000000 2.226530 
# 
# From -- ./inp_files/44670.got.cif
#   From: 2010.06.25/outbox.cif.g09.slc.cpg/sg13_23_cif.got.tgz:44670.got - 2010.06.28 04:50:58.
