data_PCOD8120516
_publ_section_title
;
Structure prediction by ZEFSAII (Michael W. Deem and Ramdas Pophale) SiO2 
 PCOD8120516
Probable space group: P 2/C
;
_chemical_formula_sum "Si O2"
_cell_formula_units_Z 20
_cell_length_a 8.043505
_cell_length_b 9.562415
_cell_length_c 24.304496
_cell_angle_alpha 90.000000
_cell_angle_beta 31.217286
_cell_angle_gamma 90.000000
_cell_volume 968.876055
_symmetry_space_group_name_H-M "P 2/C"
_symmetry_group_IT_number 13
_symmetry_cell_setting 'monoclinic'
loop_
_space_group_symop_operation_xyz
x,y,z
-x,y,1/2-z
-x,-y,-z
x,-y,1/2+z
loop_
_atom_site_type_symbol
_atom_site_label
_atom_site_fract_x
_atom_site_fract_y
_atom_site_fract_z
Si Si1 0.275444 0.660415 0.762635
Si Si2 0.083028 0.932232 0.662894
Si Si3 0.207199 0.438019 0.637248
Si Si4 0.229116 0.185818 0.554634
Si Si5 0.757920 0.404658 0.033784
O O1 0.500000 0.629455 0.750000
O O2 0.486135 0.660953 0.648531
O O3 0.122044 0.812310 0.807825
O O4 0.003449 0.541457 0.840977
O O5 0.452590 0.887815 0.557709
O O6 0.000000 0.963407 0.750000
O O7 0.008277 0.065524 0.644412
O O8 0.293420 0.291869 0.585747
O O9 0.559920 0.502986 0.546353
O O10 0.000000 0.408018 0.750000
O O11 0.071884 0.275820 0.548033
O O12 0.000000 0.500000 0.000000
#
# Coordination Sequence:
#
# PCOD8120516 Si02
#       5
#     4   4   4   4   4
#     4  11  22  40  63  91 131 173 212 275 337 384
#     4  11  22  42  62  92 131 174 219 259 330 401
#     4  10  21  40  62  95 127 165 216 270 330 389
#     4  11  22  38  67  93 124 173 216 265 327 392
#     4  11  22  38  66  99 127 163 226 274 328 391
#
# _framework density 20.642475999999998
#
# number of rings (size 3 to 8) (size 9 to 14) (size 15 to 20)
#    0.000    1.200    4.000    3.000    2.800    0.000 
#    0.000    8.000    0.000    0.000    0.000    0.000 
#    0.000    0.000    0.000    0.000    0.000    0.000 
#
# Total GULP energy -247871.519298 kJ/mol
# GULP energy per Si atom -12393.575965 kJ/mol
# Density = 2.059549 g / cm^3
# Si number density = 20.642476 Si / 1000 Ang^3
#
#
#
# Elastic Constant Matrix: (Units=GPa)
#
#
# Indices 1 2 3 4 5 6 
#
# 1 109.6512 51.2990 19.6758 0.0000 -9.7039 0.0000
# 2 51.2990 142.4943 47.0427 0.0000 14.1925 0.0000
# 3 19.6758 47.0427 82.4184 0.0000 12.0898 0.0000
# 4 0.0000 0.0000 0.0000 76.7068 0.0000 10.8380
# 5 -9.7039 14.1925 12.0898 0.0000 27.2120 0.0000
# 6 0.0000 0.0000 0.0000 10.8380 0.0000 38.7548
#
#
#
# Elastic Compliance Matrix: (Units=1/GPa)
#
#
# Indices 1 2 3 4 5 6 
#
# 1 0.012207 -0.004695 -0.001318 0.000000 0.007387 0.000000
# 2 -0.004695 0.010612 -0.004149 0.000000 -0.005366 0.000000
# 3 -0.001318 -0.004149 0.015583 0.000000 -0.005229 0.000000
# 4 0.000000 0.000000 0.000000 0.013573 0.000000 -0.003796
# 5 0.007387 -0.005366 -0.005229 0.000000 0.044505 0.000000
# 6 0.000000 0.000000 0.000000 -0.003796 0.000000 0.026865
#
#
# Mechanical properties :
#
#
# Convention : Reuss Voigt Hill
#
# Bulk Modulus (GPa) = 55.31712 63.39988 59.35850
# Shear Modulus (GPa) = 33.40122 42.97114 38.18618
#
# Velocity S-wave (km/s) = 4.02690 4.56750 4.30569
# Velocity P-wave (km/s) = 6.96255 7.65481 7.31687
#
# Compressibility (1/GPa) = 0.01807758
#
# Stress axis : x y z
#
# Youngs Moduli (GPa) = 81.92270 94.22919 64.17150
#
# Poissons Ratio (x) = 0.44242 0.08457
# Poissons Ratio (y) = 0.38464 0.26627
# Poissons Ratio (z) = 0.10796 0.39099
#
# Static dielectric constant tensor:
#      x y z
#    x 3.109390 0.000000 0.272300 
#    y 0.000000 3.937030 0.000000 
#    z 0.272300 0.000000 3.967010 
# 
# 
# High freq. dielectric constant tensor:
#      x y z
#    x 1.790770 0.000000 0.030410 
#    y 0.000000 1.815490 0.000000 
#    z 0.030410 0.000000 1.822480 
# 
# From -- ./inp_files/63575.got.cif
#   From: 2010.06.25/outbox.cif.g09.slc.cpg/sg13_32_cif.got.tgz:63575.got - 2010.06.28 04:50:58.
