data_PCOD8120076
_publ_section_title
;
Structure prediction by ZEFSAII (Michael W. Deem and Ramdas Pophale) SiO2 
 PCOD8120076
Probable space group: P 2/C
;
_chemical_formula_sum "Si O2"
_cell_formula_units_Z 22
_cell_length_a 12.302276
_cell_length_b 12.415784
_cell_length_c 9.110577
_cell_angle_alpha 90.000000
_cell_angle_beta 50.086105
_cell_angle_gamma 90.000000
_cell_volume 1067.348588
_symmetry_space_group_name_H-M "P 2/C"
_symmetry_group_IT_number 13
_symmetry_cell_setting 'monoclinic'
loop_
_space_group_symop_operation_xyz
x,y,z
-x,y,1/2-z
-x,-y,-z
x,-y,1/2+z
loop_
_atom_site_type_symbol
_atom_site_label
_atom_site_fract_x
_atom_site_fract_y
_atom_site_fract_z
Si Si1 0.689242 0.180520 0.217417
Si Si2 0.816989 0.582216 0.276774
Si Si3 0.000000 0.003149 0.250000
Si Si4 0.381662 0.774220 0.053465
Si Si5 0.874679 0.377767 0.060776
Si Si6 0.194158 0.945246 0.334726
O O1 0.550828 0.223224 0.423937
O O2 0.817942 0.259375 0.145226
O O3 0.733935 0.062613 0.231058
O O4 0.661677 0.181888 0.068331
O O5 0.679197 0.655056 0.359974
O O6 0.798644 0.459581 0.239722
O O7 0.835395 0.580354 0.434263
O O8 0.955114 0.628920 0.072053
O O9 0.894661 0.075246 0.439500
O O10 0.909182 0.928834 0.216855
O O11 0.316520 0.856565 0.227864
#
# Coordination Sequence:
#
# PCOD8120076 Si02
#       6
#     4   4   2   4   4   4
#     4  10  21  37  59  83 117 156 188 229 285 345
#     4   9  19  36  57  81 108 145 191 238 282 330
#     4  10  24  34  62  86 114 150 192 240 280 328
#     4  10  21  37  59  83 117 156 188 229 285 345
#     4   9  19  36  57  81 108 145 191 238 282 330
#     4  11  21  40  56  90 116 150 190 236 282 338
#
# _framework density 20.611823000000001
#
# number of rings (size 3 to 8) (size 9 to 14) (size 15 to 20)
#    0.000    2.182    1.818    0.545    5.091    0.727 
#    3.273    0.000    0.000    0.000    0.000    0.000 
#    0.000    0.000    0.000    0.000    0.000    0.000 
#
# Total GULP energy -272770.660600 kJ/mol
# GULP energy per Si atom -12398.666391 kJ/mol
# Density = 2.056491 g / cm^3
# Si number density = 20.611823 Si / 1000 Ang^3
#
#
#
# Elastic Constant Matrix: (Units=GPa)
#
#
# Indices 1 2 3 4 5 6 
#
# 1 43.1574 9.7382 18.0659 0.0000 -10.3493 0.0000
# 2 9.7382 65.4447 20.4046 0.0000 -7.5554 0.0000
# 3 18.0659 20.4046 116.6409 0.0000 -14.7192 0.0000
# 4 0.0000 0.0000 0.0000 33.7163 0.0000 -0.2989
# 5 -10.3493 -7.5554 -14.7192 0.0000 29.5431 0.0000
# 6 0.0000 0.0000 0.0000 -0.2989 0.0000 16.5768
#
#
#
# Elastic Compliance Matrix: (Units=1/GPa)
#
#
# Indices 1 2 3 4 5 6 
#
# 1 0.026613 -0.002237 -0.002802 0.000000 0.007354 0.000000
# 2 -0.002237 0.016587 -0.002261 0.000000 0.002332 0.000000
# 3 -0.002802 -0.002261 0.009824 0.000000 0.003334 0.000000
# 4 0.000000 0.000000 0.000000 0.029664 0.000000 0.000535
# 5 0.007354 0.002332 0.003334 0.000000 0.038683 0.000000
# 6 0.000000 0.000000 0.000000 0.000535 0.000000 0.060335
#
#
# Mechanical properties :
#
#
# Convention : Reuss Voigt Hill
#
# Bulk Modulus (GPa) = 26.02661 35.74006 30.88333
# Shear Modulus (GPa) = 23.91045 27.76951 25.83998
#
# Velocity S-wave (km/s) = 3.40962 3.67449 3.54453
# Velocity P-wave (km/s) = 5.30614 5.94808 5.63626
#
# Compressibility (1/GPa) = 0.03842221
#
# Stress axis : x y z
#
# Youngs Moduli (GPa) = 37.57630 60.28792 101.79488
#
# Poissons Ratio (x) = 0.13487 0.28528
# Poissons Ratio (y) = 0.08406 0.23015
# Poissons Ratio (z) = 0.10531 0.13630
#
# Static dielectric constant tensor:
#      x y z
#    x 3.576040 0.000000 -0.208520 
#    y 0.000000 3.481830 0.000000 
#    z -0.208520 0.000000 4.014670 
# 
# 
# High freq. dielectric constant tensor:
#      x y z
#    x 1.782010 0.000000 -0.013630 
#    y 0.000000 1.792140 0.000000 
#    z -0.013630 0.000000 1.818040 
# 
# From -- ./inp_files/12471.got.cif
#   From: 2010.06.25/outbox.cif.g09.slc.cpg/sg13_7_cif.got.tgz:12471.got - 2010.06.28 04:50:58.
