data_PCOD8120866
_publ_section_title
;
Structure prediction by ZEFSAII (Michael W. Deem and Ramdas Pophale) SiO2 
 PCOD8120866
Probable space group: P 2/C
;
_chemical_formula_sum "Si O2"
_cell_formula_units_Z 22
_cell_length_a 12.767136
_cell_length_b 6.400380
_cell_length_c 12.096977
_cell_angle_alpha 90.000000
_cell_angle_beta 95.384192
_cell_angle_gamma 90.000000
_cell_volume 984.137329
_symmetry_space_group_name_H-M "P 2/C"
_symmetry_group_IT_number 13
_symmetry_cell_setting 'monoclinic'
loop_
_space_group_symop_operation_xyz
x,y,z
-x,y,1/2-z
-x,-y,-z
x,-y,1/2+z
loop_
_atom_site_type_symbol
_atom_site_label
_atom_site_fract_x
_atom_site_fract_y
_atom_site_fract_z
Si Si1 0.409986 0.625719 0.551194
Si Si2 0.056082 0.310668 0.064915
Si Si3 0.859204 0.076500 0.050224
Si Si4 0.500000 0.088890 0.250000
Si Si5 0.223587 0.389066 0.642478
Si Si6 0.308798 0.867172 0.342100
O O1 0.500000 0.500000 0.500000
O O2 0.465366 0.772756 0.644615
O O3 0.333429 0.463758 0.602840
O O4 0.347231 0.765733 0.458871
O O5 0.144619 0.413854 0.152356
O O6 0.963769 0.178295 0.116991
O O7 0.000000 0.500000 0.000000
O O8 0.114600 0.159811 0.983901
O O9 0.766932 0.061859 0.132449
O O10 0.824232 0.210571 0.940773
O O11 0.403891 0.943581 0.276095
O O12 0.241876 0.299924 0.766204
#
# Coordination Sequence:
#
# PCOD8120866 Si02
#       6
#     4   4   4   2   4   4
#     4  12  24  44  68  98 139 182 228 288 349 409
#     4   9  20  43  71  96 136 177 228 288 334 413
#     4  10  21  44  69  99 139 179 225 289 342 404
#     4  12  26  44  70 104 138 178 238 288 344 428
#     4  11  23  42  70 101 136 178 232 279 342 422
#     4  12  24  42  70 103 138 182 227 287 351 406
#
# _framework density 22.354603999999998
#
# number of rings (size 3 to 8) (size 9 to 14) (size 15 to 20)
#    0.000    1.091    1.818    4.909    0.000    0.000 
#    0.000   10.000    0.000    0.000    0.000    0.000 
#    0.000    0.000    0.000    0.000    0.000    0.000 
#
# Total GULP energy -272814.795799 kJ/mol
# GULP energy per Si atom -12400.672536 kJ/mol
# Density = 2.230372 g / cm^3
# Si number density = 22.354604 Si / 1000 Ang^3
#
#
#
# Elastic Constant Matrix: (Units=GPa)
#
#
# Indices 1 2 3 4 5 6 
#
# 1 151.7176 52.6487 47.3109 0.0000 2.0380 0.0000
# 2 52.6487 113.8817 43.5946 0.0000 11.9077 0.0000
# 3 47.3109 43.5946 115.4256 0.0000 16.7299 0.0000
# 4 0.0000 0.0000 0.0000 24.0972 0.0000 -5.3588
# 5 2.0380 11.9077 16.7299 0.0000 31.8005 0.0000
# 6 0.0000 0.0000 0.0000 -5.3588 0.0000 55.9926
#
#
#
# Elastic Compliance Matrix: (Units=1/GPa)
#
#
# Indices 1 2 3 4 5 6 
#
# 1 0.008452 -0.003131 -0.002569 0.000000 0.001982 0.000000
# 2 -0.003131 0.011539 -0.002682 0.000000 -0.002709 0.000000
# 3 -0.002569 -0.002682 0.011432 0.000000 -0.004845 0.000000
# 4 0.000000 0.000000 0.000000 0.042401 0.000000 0.004058
# 5 0.001982 -0.002709 -0.004845 0.000000 0.034882 0.000000
# 6 0.000000 0.000000 0.000000 0.004058 0.000000 0.018248
#
#
# Mechanical properties :
#
#
# Convention : Reuss Voigt Hill
#
# Bulk Modulus (GPa) = 68.22179 74.23702 71.22941
# Shear Modulus (GPa) = 33.64628 38.20945 35.92787
#
# Velocity S-wave (km/s) = 3.88379 4.13878 4.01331
# Velocity P-wave (km/s) = 7.12012 7.49135 7.30809
#
# Compressibility (1/GPa) = 0.01465807
#
# Stress axis : x y z
#
# Youngs Moduli (GPa) = 118.31006 86.66558 87.47546
#
# Poissons Ratio (x) = 0.27139 0.22473
# Poissons Ratio (y) = 0.37048 0.23459
# Poissons Ratio (z) = 0.30395 0.23242
#
# Static dielectric constant tensor:
#      x y z
#    x 4.721660 0.000000 0.254530 
#    y 0.000000 4.293300 0.000000 
#    z 0.254530 0.000000 3.758950 
# 
# 
# High freq. dielectric constant tensor:
#      x y z
#    x 1.911880 0.000000 0.008420 
#    y 0.000000 1.895460 0.000000 
#    z 0.008420 0.000000 1.860150 
# 
# From -- ./inp_files/35429.got.cif
#   From: 2010.06.25/outbox.cif.g09.slc.cpg/sg13_18_cif.got.tgz:35429.got - 2010.06.28 04:50:58.
