data_PCOD8120578
_publ_section_title
;
Structure prediction by ZEFSAII (Michael W. Deem and Ramdas Pophale) SiO2 
 PCOD8120578
Probable space group: P 2/C
;
_chemical_formula_sum "Si O2"
_cell_formula_units_Z 22
_cell_length_a 9.691582
_cell_length_b 6.823216
_cell_length_c 26.069476
_cell_angle_alpha 90.000000
_cell_angle_beta 147.033293
_cell_angle_gamma 90.000000
_cell_volume 938.071666
_symmetry_space_group_name_H-M "P 2/C"
_symmetry_group_IT_number 13
_symmetry_cell_setting 'monoclinic'
loop_
_space_group_symop_operation_xyz
x,y,z
-x,y,1/2-z
-x,-y,-z
x,-y,1/2+z
loop_
_atom_site_type_symbol
_atom_site_label
_atom_site_fract_x
_atom_site_fract_y
_atom_site_fract_z
Si Si1 0.539278 0.616373 0.589369
Si Si2 0.372600 0.200780 0.775986
Si Si3 0.160830 0.634164 0.386578
Si Si4 0.718444 0.963932 0.146661
Si Si5 0.722654 0.473995 0.389665
Si Si6 0.500000 0.156829 0.250000
O O1 0.301011 0.547596 0.480198
O O2 0.797014 0.516449 0.648001
O O3 0.547059 0.848437 0.585117
O O4 0.487422 0.565284 0.631995
O O5 0.624804 0.318702 0.834775
O O6 0.131159 0.339269 0.689156
O O7 0.400652 0.170113 0.845705
O O8 0.351365 0.986753 0.742802
O O9 0.276101 0.842162 0.404327
O O10 0.000000 0.030440 0.250000
O O11 0.705379 0.294860 0.343574
O O12 0.000000 0.500000 0.500000
#
# Coordination Sequence:
#
# PCOD8120578 Si02
#       6
#     4   4   4   4   4   2
#     4  11  23  43  69 104 136 181 229 291 365 424
#     4  11  25  47  71 103 142 191 244 293 361 426
#     4  10  24  42  70 102 139 178 228 300 357 428
#     4  10  21  40  67 101 137 176 225 290 353 429
#     4  12  29  48  72 105 145 191 247 303 358 439
#     4  12  28  50  74 100 144 204 242 304 358 434
#
# _framework density 23.452363999999999
#
# number of rings (size 3 to 8) (size 9 to 14) (size 15 to 20)
#    0.000    1.091    3.636    1.091    7.636    2.182 
#    6.545    0.000    0.000    0.000    0.000    0.000 
#    0.000    0.000    0.000    0.000    0.000    0.000 
#
# Total GULP energy -272789.451975 kJ/mol
# GULP energy per Si atom -12399.520544 kJ/mol
# Density = 2.339899 g / cm^3
# Si number density = 23.452364 Si / 1000 Ang^3
#
#
#
# Elastic Constant Matrix: (Units=GPa)
#
#
# Indices 1 2 3 4 5 6 
#
# 1 72.8244 19.5559 26.2529 0.0000 4.8308 0.0000
# 2 19.5559 118.2264 46.9262 0.0000 13.2977 0.0000
# 3 26.2529 46.9262 107.9458 0.0000 7.0425 0.0000
# 4 0.0000 0.0000 0.0000 33.8234 0.0000 -0.5988
# 5 4.8308 13.2977 7.0425 0.0000 33.1869 0.0000
# 6 0.0000 0.0000 0.0000 -0.5988 0.0000 35.6228
#
#
#
# Elastic Compliance Matrix: (Units=1/GPa)
#
#
# Indices 1 2 3 4 5 6 
#
# 1 0.015244 -0.001155 -0.003134 0.000000 -0.001091 0.000000
# 2 -0.001155 0.010656 -0.004141 0.000000 -0.003223 0.000000
# 3 -0.003134 -0.004141 0.011852 0.000000 -0.000400 0.000000
# 4 0.000000 0.000000 0.000000 0.029574 0.000000 0.000497
# 5 -0.001091 -0.003223 -0.000400 0.000000 0.031667 0.000000
# 6 0.000000 0.000000 0.000000 0.000497 0.000000 0.028080
#
#
# Mechanical properties :
#
#
# Convention : Reuss Voigt Hill
#
# Bulk Modulus (GPa) = 47.86551 53.82962 50.84756
# Shear Modulus (GPa) = 33.13502 34.27739 33.70620
#
# Velocity S-wave (km/s) = 3.76289 3.82720 3.79518
# Velocity P-wave (km/s) = 6.27161 6.52170 6.39788
#
# Compressibility (1/GPa) = 0.02089187
#
# Stress axis : x y z
#
# Youngs Moduli (GPa) = 65.59949 93.84819 84.37077
#
# Poissons Ratio (x) = 0.10837 0.26444
# Poissons Ratio (y) = 0.07575 0.34939
# Poissons Ratio (z) = 0.20560 0.38863
#
# Static dielectric constant tensor:
#      x y z
#    x 4.283030 0.000000 -0.217820 
#    y 0.000000 4.200470 0.000000 
#    z -0.217820 0.000000 3.932660 
# 
# 
# High freq. dielectric constant tensor:
#      x y z
#    x 1.932730 0.000000 -0.019840 
#    y 0.000000 1.935200 0.000000 
#    z -0.019840 0.000000 1.913860 
# 
# From -- ./inp_files/96486.got.cif
#   From: 2010.06.25/outbox.cif.g09.slc.cpg/sg13_49_cif.got.tgz:96486.got - 2010.06.28 04:50:58.
