data_PCOD8120204
_publ_section_title
;
Structure prediction by ZEFSAII (Michael W. Deem and Ramdas Pophale) SiO2 
 PCOD8120204
Probable space group: P 2/C
;
_chemical_formula_sum "Si O2"
_cell_formula_units_Z 20
_cell_length_a 9.020963
_cell_length_b 6.649824
_cell_length_c 16.369327
_cell_angle_alpha 90.000000
_cell_angle_beta 86.755652
_cell_angle_gamma 90.000000
_cell_volume 980.386352
_symmetry_space_group_name_H-M "P 2/C"
_symmetry_group_IT_number 13
_symmetry_cell_setting 'monoclinic'
loop_
_space_group_symop_operation_xyz
x,y,z
-x,y,1/2-z
-x,-y,-z
x,-y,1/2+z
loop_
_atom_site_type_symbol
_atom_site_label
_atom_site_fract_x
_atom_site_fract_y
_atom_site_fract_z
Si Si1 0.364427 0.421675 0.450703
Si Si2 0.840540 0.430982 0.277631
Si Si3 0.635830 0.865991 0.694566
Si Si4 0.187068 0.251543 0.857551
Si Si5 0.901625 0.619364 0.439870
O O1 0.500000 0.500000 0.500000
O O2 0.421752 0.275065 0.377509
O O3 0.282914 0.617879 0.417796
O O4 0.243477 0.294140 0.508687
O O5 0.720235 0.266646 0.258463
O O6 0.814692 0.638902 0.229728
O O7 0.833009 0.470881 0.374028
O O8 0.000000 0.338662 0.250000
O O9 0.500000 0.962502 0.750000
O O10 0.740439 0.035089 0.653838
O O11 0.015631 0.221120 0.894456
O O12 0.000000 0.500000 0.500000
#
# Coordination Sequence:
#
# PCOD8120204 Si02
#       5
#     4   4   4   4   4
#     4  10  21  38  59  84 115 150 189 237 289 338
#     4   9  19  38  60  81 110 150 193 235 282 338
#     4  11  23  37  57  85 117 153 192 234 285 345
#     4   9  21  38  56  83 114 151 193 231 282 343
#     4   9  18  37  60  81 112 148 187 237 286 335
#
# _framework density 20.400117999999999
#
# number of rings (size 3 to 8) (size 9 to 14) (size 15 to 20)
#    0.000    2.400    0.000    2.400    0.000    8.800 
#    0.000    4.000    0.000    0.000    0.000    0.000 
#    0.000    0.000    0.000    0.000    0.000    0.000 
#
# Total GULP energy -247863.230750 kJ/mol
# GULP energy per Si atom -12393.161538 kJ/mol
# Density = 2.035369 g / cm^3
# Si number density = 20.400118 Si / 1000 Ang^3
#
#
#
# Elastic Constant Matrix: (Units=GPa)
#
#
# Indices 1 2 3 4 5 6 
#
# 1 123.6456 41.6096 58.1629 0.0000 -9.5905 0.0000
# 2 41.6096 79.5622 35.2185 0.0000 -3.1556 0.0000
# 3 58.1629 35.2185 126.1313 0.0000 7.3711 0.0000
# 4 0.0000 0.0000 0.0000 4.5776 0.0000 -7.9025
# 5 -9.5905 -3.1556 7.3711 0.0000 46.8809 0.0000
# 6 0.0000 0.0000 0.0000 -7.9025 0.0000 25.3863
#
#
#
# Elastic Compliance Matrix: (Units=1/GPa)
#
#
# Indices 1 2 3 4 5 6 
#
# 1 0.011775 -0.004072 -0.004459 0.000000 0.002836 0.000000
# 2 -0.004072 0.015871 -0.002591 0.000000 0.000643 0.000000
# 3 -0.004459 -0.002591 0.010871 0.000000 -0.002796 0.000000
# 4 0.000000 0.000000 0.000000 0.472224 0.000000 0.147000
# 5 0.002836 0.000643 -0.002796 0.000000 0.022394 0.000000
# 6 0.000000 0.000000 0.000000 0.147000 0.000000 0.085151
#
#
# Mechanical properties :
#
#
# Convention : Reuss Voigt Hill
#
# Bulk Modulus (GPa) = 61.45029 66.59124 64.02077
# Shear Modulus (GPa) = 7.74048 28.32550 18.03299
#
# Velocity S-wave (km/s) = 1.95002 3.73030 2.97638
# Velocity P-wave (km/s) = 5.93784 7.16009 6.57742
#
# Compressibility (1/GPa) = 0.01627332
#
# Stress axis : x y z
#
# Youngs Moduli (GPa) = 84.92341 63.00812 91.98626
#
# Poissons Ratio (x) = 0.25658 0.41013
# Poissons Ratio (y) = 0.34582 0.23836
# Poissons Ratio (z) = 0.37864 0.16327
#
# Static dielectric constant tensor:
#      x y z
#    x 4.076720 0.000000 -0.135660 
#    y 0.000000 3.174630 0.000000 
#    z -0.135660 0.000000 4.077660 
# 
# 
# High freq. dielectric constant tensor:
#      x y z
#    x 1.812580 0.000000 0.001030 
#    y 0.000000 1.749970 0.000000 
#    z 0.001030 0.000000 1.818750 
# 
# From -- ./inp_files/62390.got.cif
#   From: 2010.06.25/outbox.cif.g09.slc.cpg/sg13_32_cif.got.tgz:62390.got - 2010.06.28 04:50:58.
