data_PCOD8120112
_publ_section_title
;
Structure prediction by ZEFSAII (Michael W. Deem and Ramdas Pophale) SiO2 
 PCOD8120112
Probable space group: P 2/C
;
_chemical_formula_sum "Si O2"
_cell_formula_units_Z 16
_cell_length_a 7.955767
_cell_length_b 18.286859
_cell_length_c 7.727314
_cell_angle_alpha 90.000000
_cell_angle_beta 143.239617
_cell_angle_gamma 90.000000
_cell_volume 672.809269
_symmetry_space_group_name_H-M "P 2/C"
_symmetry_group_IT_number 13
_symmetry_cell_setting 'monoclinic'
loop_
_space_group_symop_operation_xyz
x,y,z
-x,y,1/2-z
-x,-y,-z
x,-y,1/2+z
loop_
_atom_site_type_symbol
_atom_site_label
_atom_site_fract_x
_atom_site_fract_y
_atom_site_fract_z
Si Si1 0.692394 0.179807 0.061925
Si Si2 0.198581 0.942013 0.567185
Si Si3 0.073094 0.418382 0.613006
Si Si4 0.421991 0.667403 0.886269
O O1 0.712742 0.122908 0.234122
O O2 0.539164 0.252982 0.000099
O O3 0.000000 0.198751 0.250000
O O4 0.500000 0.146177 0.750000
O O5 0.500000 0.975831 0.750000
O O6 0.000000 0.000000 0.500000
O O7 0.000000 0.911043 0.250000
O O8 0.000000 0.407542 0.750000
O O9 0.000000 0.500000 0.500000
O O10 0.892869 0.361904 0.350141
O O11 0.394134 0.392856 0.856549
O O12 0.500000 0.672043 0.750000
#
# Coordination Sequence:
#
# PCOD8120112 Si02
#       4
#     4   4   4   4
#     4  12  26  45  70 104 139 179 232 291 349 418
#     4  12  27  49  76 106 144 190 236 293 356 426
#     4  10  21  37  60  90 125 167 218 274 335 404
#     4  10  22  41  63  90 128 174 220 272 339 408
#
# _framework density 23.780888000000001
#
# number of rings (size 3 to 8) (size 9 to 14) (size 15 to 20)
#    0.000    1.000    0.000    6.000    0.000    8.000 
#    0.000    0.000    0.000    0.000    0.000    0.000 
#    0.000    0.000    0.000    0.000    0.000    0.000 
#
# Total GULP energy -198347.353097 kJ/mol
# GULP energy per Si atom -12396.709569 kJ/mol
# Density = 2.372676 g / cm^3
# Si number density = 23.780888 Si / 1000 Ang^3
#
#
#
# Elastic Constant Matrix: (Units=GPa)
#
#
# Indices 1 2 3 4 5 6 
#
# 1 81.9662 47.9957 62.6638 0.0000 9.9748 0.0000
# 2 47.9957 149.2544 63.5591 0.0000 -13.5500 0.0000
# 3 62.6638 63.5591 207.2721 0.0000 -9.0393 0.0000
# 4 0.0000 0.0000 0.0000 43.2470 0.0000 -6.4829
# 5 9.9748 -13.5500 -9.0393 0.0000 42.5847 0.0000
# 6 0.0000 0.0000 0.0000 -6.4829 0.0000 -3.5772
#
#
#
# Elastic Compliance Matrix: (Units=1/GPa)
#
#
# Indices 1 2 3 4 5 6 
#
# 1 0.019563 -0.004933 -0.004714 0.000000 -0.007152 0.000000
# 2 -0.004933 0.009117 -0.001138 0.000000 0.003815 0.000000
# 3 -0.004714 -0.001138 0.006693 0.000000 0.002163 0.000000
# 4 0.000000 0.000000 0.000000 0.018183 0.000000 -0.032953
# 5 -0.007152 0.003815 0.002163 0.000000 0.026831 0.000000
# 6 0.000000 0.000000 0.000000 -0.032953 0.000000 -0.219828
#
#
# Mechanical properties :
#
#
# Convention : Reuss Voigt Hill
#
# Bulk Modulus (GPa) = 72.44398 87.43664 79.94031
# Shear Modulus (GPa) = -44.14162 34.06919 -5.03622
#
# Velocity S-wave (km/s) = -4.31302 3.78911 -1.45683
# Velocity P-wave (km/s) = 2.39300 7.48269 5.55505
#
# Compressibility (1/GPa) = 0.01380377
#
# Stress axis : x y z
#
# Youngs Moduli (GPa) = 51.11818 109.68318 149.41188
#
# Poissons Ratio (x) = 0.54104 0.70426
# Poissons Ratio (y) = 0.25215 0.17004
# Poissons Ratio (z) = 0.24095 0.12483
#
# Static dielectric constant tensor:
#      x y z
#    x 4.424790 0.000000 0.136950 
#    y 0.000000 4.000680 0.000000 
#    z 0.136950 0.000000 4.974260 
# 
# 
# High freq. dielectric constant tensor:
#      x y z
#    x 1.944190 0.000000 -0.003020 
#    y 0.000000 1.937390 0.000000 
#    z -0.003020 0.000000 1.972650 
# 
# From -- ./inp_files/12930.got.cif
#   From: 2010.06.25/outbox.cif.g09.slc.cpg/sg13_7_cif.got.tgz:12930.got - 2010.06.28 04:50:58.
