data_PCOD8120927
_publ_section_title
;
Structure prediction by ZEFSAII (Michael W. Deem and Ramdas Pophale) SiO2 
 PCOD8120927
Probable space group: P 2/C
;
_chemical_formula_sum "Si O2"
_cell_formula_units_Z 20
_cell_length_a 11.578182
_cell_length_b 11.784246
_cell_length_c 8.028265
_cell_angle_alpha 90.000000
_cell_angle_beta 126.593969
_cell_angle_gamma 90.000000
_cell_volume 879.457051
_symmetry_space_group_name_H-M "P 2/C"
_symmetry_group_IT_number 13
_symmetry_cell_setting 'monoclinic'
loop_
_space_group_symop_operation_xyz
x,y,z
-x,y,1/2-z
-x,-y,-z
x,-y,1/2+z
loop_
_atom_site_type_symbol
_atom_site_label
_atom_site_fract_x
_atom_site_fract_y
_atom_site_fract_z
Si Si1 0.733656 0.165392 0.152361
Si Si2 0.451287 0.249144 0.017623
Si Si3 0.195137 0.411479 0.791863
Si Si4 0.352967 0.050463 0.726809
Si Si5 0.895283 0.362702 0.413753
O O1 0.596119 0.251574 0.030577
O O2 0.872119 0.236872 0.323405
O O3 0.707059 0.070117 0.269585
O O4 0.760601 0.111248 0.994110
O O5 0.500000 0.257911 0.250000
O O6 0.347081 0.353519 0.873831
O O7 0.374341 0.128283 0.910167
O O8 0.195515 0.548342 0.778541
O O9 0.067538 0.378077 0.552807
O O10 0.160422 0.370489 0.946433
O O11 0.500000 0.034509 0.750000
#
# Coordination Sequence:
#
# PCOD8120927 Si02
#       5
#     4   4   4   4   4
#     4  11  21  39  64  92 121 163 199 250 297 360
#     4  11  20  38  63  89 123 158 200 250 295 354
#     4  10  23  42  63  89 120 163 200 249 304 363
#     4  10  22  36  63  90 126 161 200 242 310 358
#     4  10  23  42  65  86 124 160 202 246 310 355
#
# _framework density 22.741302999999998
#
# number of rings (size 3 to 8) (size 9 to 14) (size 15 to 20)
#    0.000    1.600    2.000    4.200    2.800    0.800 
#    0.000    1.000    0.000    0.000    0.000    0.000 
#    0.000    0.000    0.000    0.000    0.000    0.000 
#
# Total GULP energy -247903.054658 kJ/mol
# GULP energy per Si atom -12395.152733 kJ/mol
# Density = 2.268954 g / cm^3
# Si number density = 22.741303 Si / 1000 Ang^3
#
#
#
# Elastic Constant Matrix: (Units=GPa)
#
#
# Indices 1 2 3 4 5 6 
#
# 1 31.1821 20.3918 29.7883 0.0000 4.4083 0.0000
# 2 20.3918 133.6940 83.9989 0.0000 6.2215 0.0000
# 3 29.7883 83.9989 118.7444 0.0000 -3.2780 0.0000
# 4 0.0000 0.0000 0.0000 44.2380 0.0000 5.8087
# 5 4.4083 6.2215 -3.2780 0.0000 20.4189 0.0000
# 6 0.0000 0.0000 0.0000 5.8087 0.0000 23.8663
#
#
#
# Elastic Compliance Matrix: (Units=1/GPa)
#
#
# Indices 1 2 3 4 5 6 
#
# 1 0.044951 0.001830 -0.012912 0.000000 -0.012335 0.000000
# 2 0.001830 0.014222 -0.010697 0.000000 -0.006446 0.000000
# 3 -0.012912 -0.010697 0.019481 0.000000 0.009174 0.000000
# 4 0.000000 0.000000 0.000000 0.023351 0.000000 -0.005683
# 5 -0.012335 -0.006446 0.009174 0.000000 0.055074 0.000000
# 6 0.000000 0.000000 0.000000 -0.005683 0.000000 0.043283
#
#
# Mechanical properties :
#
#
# Convention : Reuss Voigt Hill
#
# Bulk Modulus (GPa) = 28.49321 61.33095 44.91208
# Shear Modulus (GPa) = 19.56038 27.66739 23.61388
#
# Velocity S-wave (km/s) = 2.93597 3.49178 3.22587
# Velocity P-wave (km/s) = 4.90405 6.57908 5.80233
#
# Compressibility (1/GPa) = 0.03509608
#
# Stress axis : x y z
#
# Youngs Moduli (GPa) = 22.24635 70.31550 51.33237
#
# Poissons Ratio (x) = -0.12868 0.66278
# Poissons Ratio (y) = -0.04071 0.54912
# Poissons Ratio (z) = 0.28723 0.75218
#
# Static dielectric constant tensor:
#      x y z
#    x 3.790940 0.000000 -0.017950 
#    y 0.000000 4.151160 0.000000 
#    z -0.017950 0.000000 4.404980 
# 
# 
# High freq. dielectric constant tensor:
#      x y z
#    x 1.859730 0.000000 -0.015530 
#    y 0.000000 1.897090 0.000000 
#    z -0.015530 0.000000 1.905310 
# 
# From -- ./inp_files/16018.got.cif
#   From: 2010.06.25/outbox.cif.g09.slc.cpg/sg13_9_cif.got.tgz:16018.got - 2010.06.28 04:50:58.
