data_PCOD8120305
_publ_section_title
;
Structure prediction by ZEFSAII (Michael W. Deem and Ramdas Pophale) SiO2 
 PCOD8120305
Probable space group: P 2/C
;
_chemical_formula_sum "Si O2"
_cell_formula_units_Z 32
_cell_length_a 15.954570
_cell_length_b 11.904448
_cell_length_c 19.022570
_cell_angle_alpha 90.000000
_cell_angle_beta 153.499834
_cell_angle_gamma 90.000000
_cell_volume 1612.105717
_symmetry_space_group_name_H-M "P 2/C"
_symmetry_group_IT_number 13
_symmetry_cell_setting 'monoclinic'
loop_
_space_group_symop_operation_xyz
x,y,z
-x,y,1/2-z
-x,-y,-z
x,-y,1/2+z
loop_
_atom_site_type_symbol
_atom_site_label
_atom_site_fract_x
_atom_site_fract_y
_atom_site_fract_z
Si Si1 0.025587 0.663202 0.124173
Si Si2 0.477878 0.886757 0.941298
Si Si3 0.310265 0.464837 0.937831
Si Si4 0.105538 0.891493 0.257799
Si Si5 0.639040 0.653821 0.625975
Si Si6 0.949821 0.315778 0.017598
Si Si7 0.082103 0.927123 0.622215
Si Si8 0.278541 0.498105 0.572827
O O1 0.151167 0.586969 0.268803
O O2 0.013125 0.788996 0.145379
O O3 0.108453 0.666891 0.107492
O O4 0.819782 0.606123 0.964990
O O5 0.416446 0.779056 0.942130
O O6 0.294642 0.898580 0.753456
O O7 0.679653 0.862359 0.057817
O O8 0.500000 0.000000 0.000000
O O9 0.382579 0.581757 0.960325
O O10 0.490397 0.382493 0.074936
O O11 0.229372 0.491779 0.953537
O O12 0.000000 0.914369 0.250000
O O13 0.091878 0.004730 0.202207
O O14 0.843350 0.636351 0.812743
O O15 0.953564 0.182835 0.038238
O O16 0.801644 0.381201 0.955607
O O17 0.000000 0.000000 0.500000
O O18 0.500000 0.502678 0.750000
#
# Coordination Sequence:
#
# PCOD8120305 Si02
#       8
#     4   4   4   4   4   4   4   4
#     4  12  23  41  68  90 131 170 215 258 326 390
#     4   9  20  38  64  93 123 166 211 257 316 380
#     4  11  23  39  64  94 126 164 211 266 316 387
#     4  11  22  41  64  99 128 163 214 269 320 375
#     4  10  21  38  65  91 125 165 220 254 324 389
#     4  11  24  43  65  90 126 176 212 264 322 388
#     4  10  21  45  67  91 124 169 217 265 316 386
#     4  12  27  42  59  95 135 164 213 267 324 378
#
# _framework density 19.849816000000001
#
# number of rings (size 3 to 8) (size 9 to 14) (size 15 to 20)
#    0.000    1.250    3.750    2.250    3.500    0.000 
#    6.750    0.625    0.000    0.000    0.000    0.000 
#    0.000    0.000    0.000    0.000    0.000    0.000 
#
# Total GULP energy -396574.048335 kJ/mol
# GULP energy per Si atom -12392.939010 kJ/mol
# Density = 1.980464 g / cm^3
# Si number density = 19.849816 Si / 1000 Ang^3
#
#
#
# Elastic Constant Matrix: (Units=GPa)
#
#
# Indices 1 2 3 4 5 6 
#
# 1 110.1514 50.5515 40.6200 0.0000 -4.8393 0.0000
# 2 50.5515 136.5863 55.5395 0.0000 2.5521 0.0000
# 3 40.6200 55.5395 107.4778 0.0000 14.8912 0.0000
# 4 0.0000 0.0000 0.0000 30.2798 0.0000 -3.0794
# 5 -4.8393 2.5521 14.8912 0.0000 35.6508 0.0000
# 6 0.0000 0.0000 0.0000 -3.0794 0.0000 26.2665
#
#
#
# Elastic Compliance Matrix: (Units=1/GPa)
#
#
# Indices 1 2 3 4 5 6 
#
# 1 0.011871 -0.003099 -0.003332 0.000000 0.003225 0.000000
# 2 -0.003099 0.010146 -0.004153 0.000000 0.000588 0.000000
# 3 -0.003332 -0.004153 0.013513 0.000000 -0.005799 0.000000
# 4 0.000000 0.000000 0.000000 0.033424 0.000000 0.003919
# 5 0.003225 0.000588 -0.005799 0.000000 0.030868 0.000000
# 6 0.000000 0.000000 0.000000 0.003919 0.000000 0.038531
#
#
# Mechanical properties :
#
#
# Convention : Reuss Voigt Hill
#
# Bulk Modulus (GPa) = 69.62789 71.95971 70.79380
# Shear Modulus (GPa) = 30.43055 32.27306 31.35180
#
# Velocity S-wave (km/s) = 3.91965 4.03657 3.97854
# Velocity P-wave (km/s) = 7.45911 7.61945 7.53971
#
# Compressibility (1/GPa) = 0.01436206
#
# Stress axis : x y z
#
# Youngs Moduli (GPa) = 84.23899 98.55935 74.00139
#
# Poissons Ratio (x) = 0.30543 0.24657
# Poissons Ratio (y) = 0.26105 0.30735
# Poissons Ratio (z) = 0.28068 0.40935
#
# Static dielectric constant tensor:
#      x y z
#    x 3.512600 0.000000 0.207810 
#    y 0.000000 4.028990 0.000000 
#    z 0.207810 0.000000 3.907790 
# 
# 
# High freq. dielectric constant tensor:
#      x y z
#    x 1.747550 0.000000 0.010730 
#    y 0.000000 1.794010 0.000000 
#    z 0.010730 0.000000 1.784930 
# 
# From -- ./inp_files/68670.got.cif
#   From: 2010.06.25/outbox.cif.g09.slc.cpg/sg13_35_cif.got.tgz:68670.got - 2010.06.28 04:50:58.
