data_PCOD8120463
_publ_section_title
;
Structure prediction by ZEFSAII (Michael W. Deem and Ramdas Pophale) SiO2 
 PCOD8120463
Probable space group: P 2/C
;
_chemical_formula_sum "Si O2"
_cell_formula_units_Z 26
_cell_length_a 12.957708
_cell_length_b 14.720386
_cell_length_c 8.884015
_cell_angle_alpha 90.000000
_cell_angle_beta 134.165307
_cell_angle_gamma 90.000000
_cell_volume 1215.562371
_symmetry_space_group_name_H-M "P 2/C"
_symmetry_group_IT_number 13
_symmetry_cell_setting 'monoclinic'
loop_
_space_group_symop_operation_xyz
x,y,z
-x,y,1/2-z
-x,-y,-z
x,-y,1/2+z
loop_
_atom_site_type_symbol
_atom_site_label
_atom_site_fract_x
_atom_site_fract_y
_atom_site_fract_z
Si Si1 0.614331 0.757208 0.495843
Si Si2 0.831569 0.518180 0.562466
Si Si3 0.358948 0.562495 0.856680
Si Si4 0.480358 0.096364 0.052123
Si Si5 0.000000 0.007419 0.750000
Si Si6 0.844704 0.115084 0.851945
Si Si7 0.144002 0.288939 0.472194
O O1 0.586761 0.663612 0.555014
O O2 0.600713 0.836814 0.605124
O O3 0.766580 0.763703 0.566431
O O4 0.500000 0.770891 0.250000
O O5 0.767520 0.532937 0.660860
O O6 0.729721 0.439678 0.389711
O O7 0.795576 0.610568 0.424953
O O8 0.000000 0.489866 0.750000
O O9 0.500000 0.500000 0.000000
O O10 0.500000 0.093083 0.250000
O O11 0.323751 0.127185 0.842294
O O12 0.500000 0.000000 0.000000
O O13 0.913178 0.073387 0.772233
O O14 0.888497 0.945368 0.542254
O O15 0.890746 0.220254 0.925957
O O16 0.000000 0.322069 0.250000
#
# Coordination Sequence:
#
# PCOD8120463 Si02
#       7
#     4   4   4   4   2   4   4
#     4  11  23  43  67  96 128 173 224 269 332 399
#     4  10  22  41  66  94 132 175 220 267 342 404
#     4  11  22  39  67  97 130 171 219 281 335 395
#     4  12  27  42  65  94 134 174 217 268 329 390
#     4  10  24  38  68  98 128 170 228 268 334 390
#     4  11  22  42  64  93 130 172 216 274 323 394
#     4  10  21  39  68  93 126 172 218 269 330 401
#
# _framework density 21.389275999999999
#
# number of rings (size 3 to 8) (size 9 to 14) (size 15 to 20)
#    0.000    1.231    2.308    4.154    2.154    2.462 
#    0.000    0.000    1.692    0.000    0.000    0.000 
#    0.000    0.000    0.000    0.000    0.000    0.000 
#
# Total GULP energy -322191.932240 kJ/mol
# GULP energy per Si atom -12391.997394 kJ/mol
# Density = 2.134059 g / cm^3
# Si number density = 21.389276 Si / 1000 Ang^3
#
#
#
# Elastic Constant Matrix: (Units=GPa)
#
#
# Indices 1 2 3 4 5 6 
#
# 1 78.7813 26.0925 17.6938 0.0000 4.5360 0.0000
# 2 26.0925 78.2145 12.6750 0.0000 -16.8838 0.0000
# 3 17.6938 12.6750 93.5783 0.0000 -5.2733 0.0000
# 4 0.0000 0.0000 0.0000 29.1935 0.0000 -4.3953
# 5 4.5360 -16.8838 -5.2733 0.0000 38.8918 0.0000
# 6 0.0000 0.0000 0.0000 -4.3953 0.0000 39.8008
#
#
#
# Elastic Compliance Matrix: (Units=1/GPa)
#
#
# Indices 1 2 3 4 5 6 
#
# 1 0.015400 -0.005746 -0.002394 0.000000 -0.004615 0.000000
# 2 -0.005746 0.016486 -0.000711 0.000000 0.007731 0.000000
# 3 -0.002394 -0.000711 0.011320 0.000000 0.001505 0.000000
# 4 0.000000 0.000000 0.000000 0.034833 0.000000 0.003847
# 5 -0.004615 0.007731 0.001505 0.000000 0.029811 0.000000
# 6 0.000000 0.000000 0.000000 0.003847 0.000000 0.025550
#
#
# Mechanical properties :
#
#
# Convention : Reuss Voigt Hill
#
# Bulk Modulus (GPa) = 39.20760 40.38852 39.79806
# Shear Modulus (GPa) = 31.32792 34.51806 32.92299
#
# Velocity S-wave (km/s) = 3.83123 4.02157 3.92756
# Velocity P-wave (km/s) = 6.15966 6.36299 6.26215
#
# Compressibility (1/GPa) = 0.02550526
#
# Stress axis : x y z
#
# Youngs Moduli (GPa) = 64.93661 60.65708 88.33961
#
# Poissons Ratio (x) = 0.34851 0.21145
# Poissons Ratio (y) = 0.37310 0.06281
# Poissons Ratio (z) = 0.15543 0.04313
#
# Static dielectric constant tensor:
#      x y z
#    x 3.724150 0.000000 -0.062600 
#    y 0.000000 3.860850 0.000000 
#    z -0.062600 0.000000 3.757780 
# 
# 
# High freq. dielectric constant tensor:
#      x y z
#    x 1.844340 0.000000 0.010760 
#    y 0.000000 1.844280 0.000000 
#    z 0.010760 0.000000 1.841450 
# 
# From -- ./inp_files/19922.got.cif
#   From: 2010.06.25/outbox.cif.g09.slc.cpg/sg13_10_cif.got.tgz:19922.got - 2010.06.28 04:50:58.
