data_PCOD8120970
_publ_section_title
;
Structure prediction by ZEFSAII (Michael W. Deem and Ramdas Pophale) SiO2 
 PCOD8120970
Probable space group: P 2/C
;
_chemical_formula_sum "Si O2"
_cell_formula_units_Z 28
_cell_length_a 8.773182
_cell_length_b 11.412135
_cell_length_c 14.893800
_cell_angle_alpha 90.000000
_cell_angle_beta 61.028295
_cell_angle_gamma 90.000000
_cell_volume 1304.570731
_symmetry_space_group_name_H-M "P 2/C"
_symmetry_group_IT_number 13
_symmetry_cell_setting 'monoclinic'
loop_
_space_group_symop_operation_xyz
x,y,z
-x,y,1/2-z
-x,-y,-z
x,-y,1/2+z
loop_
_atom_site_type_symbol
_atom_site_label
_atom_site_fract_x
_atom_site_fract_y
_atom_site_fract_z
Si Si1 0.867124 0.055773 0.216116
Si Si2 0.829235 0.422016 0.353433
Si Si3 0.871998 0.589236 0.488259
Si Si4 0.512505 0.667200 0.641908
Si Si5 0.923801 0.765109 0.967212
Si Si6 0.663013 0.098691 0.654730
Si Si7 0.516328 0.085565 0.408854
O O1 0.712451 0.110848 0.319447
O O2 0.000000 0.006935 0.250000
O O3 0.950029 0.151877 0.126379
O O4 0.811959 0.937316 0.181950
O O5 0.848036 0.554004 0.389778
O O6 0.657126 0.406212 0.341835
O O7 0.830255 0.333920 0.436144
O O8 0.000000 0.390443 0.250000
O O9 0.679601 0.583045 0.586391
O O10 0.000000 0.500000 0.500000
O O11 0.960985 0.715944 0.482025
O O12 0.500000 0.705345 0.750000
O O13 0.551575 0.780178 0.565266
O O14 0.750462 0.828497 0.051428
O O15 0.500000 0.165927 0.750000
O O16 0.589953 0.976195 0.639112
O O17 0.500000 0.000000 0.500000
#
# Coordination Sequence:
#
# PCOD8120970 Si02
#       7
#     4   4   4   4   4   4   4
#     4  11  21  35  59  91 123 162 205 249 301 363
#     4  11  23  42  64  91 121 154 204 264 315 369
#     4  10  23  41  61  90 120 155 208 265 313 362
#     4  12  22  39  68  94 121 164 207 251 309 370
#     4  11  21  40  64  86 119 165 209 253 306 368
#     4  10  22  38  57  87 129 165 202 249 302 364
#     4  11  22  37  58  93 130 161 201 249 300 368
#
# _framework density 21.462997999999999
#
# number of rings (size 3 to 8) (size 9 to 14) (size 15 to 20)
#    0.000    1.143    0.000    9.429    0.000    1.143 
#    0.000   10.714    0.000    0.000    0.000    0.000 
#    0.000    0.000    0.000    0.000    0.000    0.000 
#
# Total GULP energy -346960.203527 kJ/mol
# GULP energy per Si atom -12391.435840 kJ/mol
# Density = 2.141415 g / cm^3
# Si number density = 21.462998 Si / 1000 Ang^3
#
#
#
# Elastic Constant Matrix: (Units=GPa)
#
#
# Indices 1 2 3 4 5 6 
#
# 1 153.7414 48.1766 52.6450 0.0000 -8.1803 0.0000
# 2 48.1766 65.0301 56.3797 0.0000 -2.0080 0.0000
# 3 52.6450 56.3797 118.7520 0.0000 -13.1353 0.0000
# 4 0.0000 0.0000 0.0000 36.5412 0.0000 6.2118
# 5 -8.1803 -2.0080 -13.1353 0.0000 45.8786 0.0000
# 6 0.0000 0.0000 0.0000 6.2118 0.0000 21.5342
#
#
#
# Elastic Compliance Matrix: (Units=1/GPa)
#
#
# Indices 1 2 3 4 5 6 
#
# 1 0.008635 -0.005339 -0.001187 0.000000 0.000966 0.000000
# 2 -0.005339 0.029713 -0.012084 0.000000 -0.003111 0.000000
# 3 -0.001187 -0.012084 0.015080 0.000000 0.003577 0.000000
# 4 0.000000 0.000000 0.000000 0.028778 0.000000 -0.008301
# 5 0.000966 -0.003111 0.003577 0.000000 0.022857 0.000000
# 6 0.000000 0.000000 0.000000 -0.008301 0.000000 0.048832
#
#
# Mechanical properties :
#
#
# Convention : Reuss Voigt Hill
#
# Bulk Modulus (GPa) = 61.69358 72.43624 67.06491
# Shear Modulus (GPa) = 25.44304 32.81228 29.12766
#
# Velocity S-wave (km/s) = 3.44675 3.91421 3.68789
# Velocity P-wave (km/s) = 6.68182 7.36550 7.03198
#
# Compressibility (1/GPa) = 0.01620914
#
# Stress axis : x y z
#
# Youngs Moduli (GPa) = 115.80685 33.65490 66.31328
#
# Poissons Ratio (x) = 0.17967 0.07869
# Poissons Ratio (y) = 0.61824 0.80136
# Poissons Ratio (z) = 0.13742 0.40670
#
# Static dielectric constant tensor:
#      x y z
#    x 4.318380 0.000000 0.038900 
#    y 0.000000 3.869800 0.000000 
#    z 0.038900 0.000000 3.968960 
# 
# 
# High freq. dielectric constant tensor:
#      x y z
#    x 1.868210 0.000000 -0.003110 
#    y 0.000000 1.819970 0.000000 
#    z -0.003110 0.000000 1.836880 
# 
# From -- ./inp_files/47107.got.cif
#   From: 2010.06.25/outbox.cif.g09.slc.cpg/sg13_24_cif.got.tgz:47107.got - 2010.06.28 04:50:58.
