data_PCOD8120828
_publ_section_title
;
Structure prediction by ZEFSAII (Michael W. Deem and Ramdas Pophale) SiO2 
 PCOD8120828
Probable space group: P 2/C
;
_chemical_formula_sum "Si O2"
_cell_formula_units_Z 24
_cell_length_a 21.765696
_cell_length_b 5.943075
_cell_length_c 14.982958
_cell_angle_alpha 90.000000
_cell_angle_beta 35.623011
_cell_angle_gamma 90.000000
_cell_volume 1128.858723
_symmetry_space_group_name_H-M "P 2/C"
_symmetry_group_IT_number 13
_symmetry_cell_setting 'monoclinic'
loop_
_space_group_symop_operation_xyz
x,y,z
-x,y,1/2-z
-x,-y,-z
x,-y,1/2+z
loop_
_atom_site_type_symbol
_atom_site_label
_atom_site_fract_x
_atom_site_fract_y
_atom_site_fract_z
Si Si1 0.933900 0.969680 0.989343
Si Si2 0.469357 0.586790 0.939641
Si Si3 0.500000 0.760191 0.250000
Si Si4 0.642663 0.054601 0.185931
Si Si5 0.000000 0.670675 0.750000
Si Si6 0.174310 0.650099 0.988637
Si Si7 0.278607 0.728654 0.258133
O O1 0.998231 0.824512 0.840368
O O2 0.830228 0.838764 0.143562
O O3 0.904951 0.210580 0.981173
O O4 0.000000 0.000000 0.000000
O O5 0.467177 0.383682 0.873564
O O6 0.548701 0.774731 0.813880
O O7 0.500000 0.500000 0.000000
O O8 0.350749 0.687048 0.085974
O O9 0.604912 0.907997 0.146137
O O10 0.754191 0.182090 0.035004
O O11 0.657177 0.893305 0.253040
O O12 0.104966 0.516439 0.631904
O O13 0.256885 0.508954 0.832308
#
# Coordination Sequence:
#
# PCOD8120828 Si02
#       7
#     4   4   2   4   2   4   4
#     4  10  23  44  69  98 134 175 228 281 340 409
#     4  12  23  44  69  93 141 185 221 281 337 412
#     4  12  26  38  64 108 136 178 234 272 340 412
#     4  11  22  42  67  95 136 177 226 278 335 408
#     4  10  22  42  70  96 132 178 222 280 346 396
#     4  10  21  43  67  94 131 179 223 276 341 406
#     4  10  22  41  70  93 128 184 222 274 345 399
#
# _framework density 21.260411999999999
#
# number of rings (size 3 to 8) (size 9 to 14) (size 15 to 20)
#    0.000    1.333    3.333    1.500    0.000    2.667 
#    0.000   31.667    0.000    0.000    0.000    0.000 
#    0.000    0.000    0.000    0.000    0.000    0.000 
#
# Total GULP energy -297608.890321 kJ/mol
# GULP energy per Si atom -12400.370430 kJ/mol
# Density = 2.121202 g / cm^3
# Si number density = 21.260412 Si / 1000 Ang^3
#
#
#
# Elastic Constant Matrix: (Units=GPa)
#
#
# Indices 1 2 3 4 5 6 
#
# 1 156.0648 70.5962 62.5093 0.0000 -4.5965 0.0000
# 2 70.5962 136.1831 55.6070 0.0000 -2.2783 0.0000
# 3 62.5093 55.6070 120.5302 0.0000 -5.5249 0.0000
# 4 0.0000 0.0000 0.0000 13.7349 0.0000 -16.8519
# 5 -4.5965 -2.2783 -5.5249 0.0000 27.2272 0.0000
# 6 0.0000 0.0000 0.0000 -16.8519 0.0000 35.8824
#
#
#
# Elastic Compliance Matrix: (Units=1/GPa)
#
#
# Indices 1 2 3 4 5 6 
#
# 1 0.009281 -0.003508 -0.003166 0.000000 0.000631 0.000000
# 2 -0.003508 0.010374 -0.002982 0.000000 -0.000329 0.000000
# 3 -0.003166 -0.002982 0.011384 0.000000 0.001526 0.000000
# 4 0.000000 0.000000 0.000000 0.171807 0.000000 0.080688
# 5 0.000631 -0.000329 0.001526 0.000000 0.037117 0.000000
# 6 0.000000 0.000000 0.000000 0.080688 0.000000 0.065763
#
#
# Mechanical properties :
#
#
# Convention : Reuss Voigt Hill
#
# Bulk Modulus (GPa) = 85.26936 87.80036 86.53486
# Shear Modulus (GPa) = 15.20003 30.30661 22.75332
#
# Velocity S-wave (km/s) = 2.67675 3.77967 3.27497
# Velocity P-wave (km/s) = 7.05319 7.77400 7.42235
#
# Compressibility (1/GPa) = 0.01172754
#
# Stress axis : x y z
#
# Youngs Moduli (GPa) = 107.74587 96.39943 87.84099
#
# Poissons Ratio (x) = 0.33816 0.27811
# Poissons Ratio (y) = 0.37796 0.26191
# Poissons Ratio (z) = 0.34113 0.28743
#
# Static dielectric constant tensor:
#      x y z
#    x 3.881280 0.000000 0.014320 
#    y 0.000000 4.298470 0.000000 
#    z 0.014320 0.000000 4.441840 
# 
# 
# High freq. dielectric constant tensor:
#      x y z
#    x 1.818340 0.000000 -0.020770 
#    y 0.000000 1.860840 0.000000 
#    z -0.020770 0.000000 1.831840 
# 
# From -- ./inp_files/51869.got.cif
#   From: 2010.06.25/outbox.cif.g09.slc.cpg/sg13_26_cif.got.tgz:51869.got - 2010.06.28 04:50:58.
