data_PCOD8120144
_publ_section_title
;
Structure prediction by ZEFSAII (Michael W. Deem and Ramdas Pophale) SiO2 
 PCOD8120144
Probable space group: P 2/C
;
_chemical_formula_sum "Si O2"
_cell_formula_units_Z 24
_cell_length_a 6.664757
_cell_length_b 11.245529
_cell_length_c 18.834085
_cell_angle_alpha 90.000000
_cell_angle_beta 122.340026
_cell_angle_gamma 90.000000
_cell_volume 1192.636372
_symmetry_space_group_name_H-M "P 2/C"
_symmetry_group_IT_number 13
_symmetry_cell_setting 'monoclinic'
loop_
_space_group_symop_operation_xyz
x,y,z
-x,y,1/2-z
-x,-y,-z
x,-y,1/2+z
loop_
_atom_site_type_symbol
_atom_site_label
_atom_site_fract_x
_atom_site_fract_y
_atom_site_fract_z
Si Si1 0.662562 0.838174 0.472696
Si Si2 0.774713 0.337508 0.305956
Si Si3 0.151627 0.262288 0.031777
Si Si4 0.441703 0.930705 0.896137
Si Si5 0.000000 0.841288 0.750000
Si Si6 0.651930 0.610619 0.061824
Si Si7 0.000000 0.522838 0.250000
O O1 0.678768 0.907040 0.550459
O O2 0.530440 0.712842 0.451098
O O3 0.915100 0.815615 0.484651
O O4 0.531388 0.935556 0.399123
O O5 0.500000 0.300507 0.250000
O O6 0.847299 0.354371 0.401806
O O7 0.957314 0.238823 0.311560
O O8 0.820588 0.453438 0.267691
O O9 0.364057 0.169535 0.081854
O O10 0.172468 0.341075 0.965509
O O11 0.231749 0.921157 0.800006
O O12 0.816144 0.589495 0.162425
O O13 0.500000 0.500000 0.000000
#
# Coordination Sequence:
#
# PCOD8120144 Si02
#       7
#     4   4   4   4   2   4   2
#     4  10  22  40  61  88 129 166 205 253 324 384
#     4  11  21  36  62  95 123 158 210 270 313 371
#     4  11  21  39  67  94 121 164 217 258 317 387
#     4  10  21  37  62  94 126 160 202 263 323 383
#     4  11  20  35  60  94 128 159 203 262 318 376
#     4  11  25  43  64  93 126 174 218 265 317 381
#     4  11  26  41  62  90 134 167 213 266 326 378
#
# _framework density 20.123484000000001
#
# number of rings (size 3 to 8) (size 9 to 14) (size 15 to 20)
#    0.000    1.333    3.333    2.500    4.667    4.667 
#    0.000    0.000    3.667    0.000    0.000    0.000 
#    0.000    0.000    0.000    0.000    0.000    0.000 
#
# Total GULP energy -297418.661996 kJ/mol
# GULP energy per Si atom -12392.444250 kJ/mol
# Density = 2.007768 g / cm^3
# Si number density = 20.123484 Si / 1000 Ang^3
#
#
#
# Elastic Constant Matrix: (Units=GPa)
#
#
# Indices 1 2 3 4 5 6 
#
# 1 127.3641 43.7041 43.9492 0.0000 6.5899 0.0000
# 2 43.7041 112.8137 57.4886 0.0000 7.5360 0.0000
# 3 43.9492 57.4886 125.1470 0.0000 8.9636 0.0000
# 4 0.0000 0.0000 0.0000 15.4600 0.0000 6.7383
# 5 6.5899 7.5360 8.9636 0.0000 34.8795 0.0000
# 6 0.0000 0.0000 0.0000 6.7383 0.0000 23.3545
#
#
#
# Elastic Compliance Matrix: (Units=1/GPa)
#
#
# Indices 1 2 3 4 5 6 
#
# 1 0.009493 -0.002556 -0.002110 0.000000 -0.000699 0.000000
# 2 -0.002556 0.012307 -0.004686 0.000000 -0.000972 0.000000
# 3 -0.002110 -0.004686 0.010985 0.000000 -0.001412 0.000000
# 4 0.000000 0.000000 0.000000 0.073987 0.000000 -0.021347
# 5 -0.000699 -0.000972 -0.001412 0.000000 0.029375 0.000000
# 6 0.000000 0.000000 0.000000 -0.021347 0.000000 0.048978
#
#
# Mechanical properties :
#
#
# Convention : Reuss Voigt Hill
#
# Bulk Modulus (GPa) = 71.01332 72.84540 71.92936
# Shear Modulus (GPa) = 23.97821 29.41765 26.69793
#
# Velocity S-wave (km/s) = 3.45563 3.82757 3.64635
# Velocity P-wave (km/s) = 7.16151 7.47071 7.31774
#
# Compressibility (1/GPa) = 0.01408187
#
# Stress axis : x y z
#
# Youngs Moduli (GPa) = 105.34528 81.25210 91.03009
#
# Poissons Ratio (x) = 0.20766 0.19203
# Poissons Ratio (y) = 0.26924 0.42661
# Poissons Ratio (z) = 0.22223 0.38079
#
# Static dielectric constant tensor:
#      x y z
#    x 3.874340 0.000000 -0.011440 
#    y 0.000000 3.660340 0.000000 
#    z -0.011440 0.000000 3.663760 
# 
# 
# High freq. dielectric constant tensor:
#      x y z
#    x 1.803450 0.000000 0.005190 
#    y 0.000000 1.773930 0.000000 
#    z 0.005190 0.000000 1.780470 
# 
# From -- ./inp_files/53641.got.cif
#   From: 2010.06.25/outbox.cif.g09.slc.cpg/sg13_27_cif.got.tgz:53641.got - 2010.06.28 04:50:58.
