data_PCOD8120020
_publ_section_title
;
Structure prediction by ZEFSAII (Michael W. Deem and Ramdas Pophale) SiO2 
 PCOD8120020
Probable space group: P 2/C
;
_chemical_formula_sum "Si O2"
_cell_formula_units_Z 32
_cell_length_a 8.399940
_cell_length_b 11.576886
_cell_length_c 16.200979
_cell_angle_alpha 90.000000
_cell_angle_beta 92.676881
_cell_angle_gamma 90.000000
_cell_volume 1573.747450
_symmetry_space_group_name_H-M "P 2/C"
_symmetry_group_IT_number 13
_symmetry_cell_setting 'monoclinic'
loop_
_space_group_symop_operation_xyz
x,y,z
-x,y,1/2-z
-x,-y,-z
x,-y,1/2+z
loop_
_atom_site_type_symbol
_atom_site_label
_atom_site_fract_x
_atom_site_fract_y
_atom_site_fract_z
Si Si1 0.318294 0.721794 0.418749
Si Si2 0.386231 0.683363 0.173511
Si Si3 0.187928 0.536303 0.681689
Si Si4 0.664743 0.265480 0.397372
Si Si5 0.684753 0.102149 0.254092
Si Si6 0.183071 0.143767 0.764813
Si Si7 0.310058 0.673410 0.842358
Si Si8 0.106698 0.506505 0.919983
O O1 0.504739 0.705205 0.403117
O O2 0.324918 0.778036 0.509094
O O3 0.238718 0.813366 0.355676
O O4 0.224604 0.601517 0.414437
O O5 0.500000 0.644575 0.250000
O O6 0.268247 0.580101 0.152145
O O7 0.286281 0.797364 0.195060
O O8 0.209227 0.632296 0.610995
O O9 0.263230 0.583101 0.768468
O O10 0.998532 0.509622 0.668101
O O11 0.716810 0.155987 0.344543
O O12 0.497929 0.323458 0.364586
O O13 0.500000 0.065122 0.250000
O O14 0.734618 0.196191 0.185483
O O15 0.795802 0.993193 0.240966
O O16 0.000000 0.177152 0.750000
O O17 0.213850 0.625122 0.920072
O O18 0.000000 0.500000 0.000000
#
# Coordination Sequence:
#
# PCOD8120020 Si02
#       8
#     4   4   4   4   4   4   4   4
#     4  11  23  40  62  90 127 165 206 260 313 365
#     4  10  21  36  61  88 118 164 210 246 299 374
#     4  11  20  37  60  89 125 167 208 251 305 376
#     4  10  21  39  64  93 122 158 211 265 307 365
#     4   9  20  42  67  88 115 158 216 257 303 370
#     4  11  23  43  65  90 120 162 208 256 312 380
#     4  10  22  38  62  90 121 168 211 252 310 373
#     4  12  24  36  56  92 136 166 199 257 315 364
#
# _framework density 20.333631
#
# number of rings (size 3 to 8) (size 9 to 14) (size 15 to 20)
#    0.000    1.500    1.250    6.375    1.750    3.000 
#    0.000    6.250    0.000    0.000    0.000    0.000 
#    0.000    0.000    0.000    0.000    0.000    0.000 
#
# Total GULP energy -396627.658269 kJ/mol
# GULP energy per Si atom -12394.614321 kJ/mol
# Density = 2.028735 g / cm^3
# Si number density = 20.333631 Si / 1000 Ang^3
#
#
#
# Elastic Constant Matrix: (Units=GPa)
#
#
# Indices 1 2 3 4 5 6 
#
# 1 103.8635 49.4802 30.8333 0.0000 -2.2763 0.0000
# 2 49.4802 122.2792 47.0072 0.0000 -8.6997 0.0000
# 3 30.8333 47.0072 90.2914 0.0000 -7.1169 0.0000
# 4 0.0000 0.0000 0.0000 14.5182 0.0000 -12.2588
# 5 -2.2763 -8.6997 -7.1169 0.0000 32.1753 0.0000
# 6 0.0000 0.0000 0.0000 -12.2588 0.0000 25.5624
#
#
#
# Elastic Compliance Matrix: (Units=1/GPa)
#
#
# Indices 1 2 3 4 5 6 
#
# 1 0.012225 -0.004215 -0.002037 0.000000 -0.000726 0.000000
# 2 -0.004215 0.011761 -0.004535 0.000000 0.001879 0.000000
# 3 -0.002037 -0.004535 0.014273 0.000000 0.001787 0.000000
# 4 0.000000 0.000000 0.000000 0.115750 0.000000 0.055510
# 5 -0.000726 0.001879 0.001787 0.000000 0.031932 0.000000
# 6 0.000000 0.000000 0.000000 0.055510 0.000000 0.065740
#
#
# Mechanical properties :
#
#
# Convention : Reuss Voigt Hill
#
# Bulk Modulus (GPa) = 59.94141 63.45284 61.69713
# Shear Modulus (GPa) = 17.93283 27.05873 22.49578
#
# Velocity S-wave (km/s) = 2.97295 3.65189 3.32977
# Velocity P-wave (km/s) = 6.42865 7.00395 6.72246
#
# Compressibility (1/GPa) = 0.01668296
#
# Stress axis : x y z
#
# Youngs Moduli (GPa) = 81.79903 85.02760 70.06233
#
# Poissons Ratio (x) = 0.35842 0.14274
# Poissons Ratio (y) = 0.34481 0.31776
# Poissons Ratio (z) = 0.16665 0.38563
#
# Static dielectric constant tensor:
#      x y z
#    x 3.965070 0.000000 -0.036390 
#    y 0.000000 3.522340 0.000000 
#    z -0.036390 0.000000 4.079720 
# 
# 
# High freq. dielectric constant tensor:
#      x y z
#    x 1.807550 0.000000 -0.002790 
#    y 0.000000 1.782940 0.000000 
#    z -0.002790 0.000000 1.786890 
# 
# From -- ./inp_files/47233.got.cif
#   From: 2010.06.25/outbox.cif.g09.slc.cpg/sg13_24_cif.got.tgz:47233.got - 2010.06.28 04:50:58.
