data_PCOD8120809
_publ_section_title
;
Structure prediction by ZEFSAII (Michael W. Deem and Ramdas Pophale) SiO2 
 PCOD8120809
Probable space group: P 2/C
;
_chemical_formula_sum "Si O2"
_cell_formula_units_Z 20
_cell_length_a 8.536403
_cell_length_b 8.427393
_cell_length_c 16.457913
_cell_angle_alpha 90.000000
_cell_angle_beta 128.480414
_cell_angle_gamma 90.000000
_cell_volume 926.841215
_symmetry_space_group_name_H-M "P 2/C"
_symmetry_group_IT_number 13
_symmetry_cell_setting 'monoclinic'
loop_
_space_group_symop_operation_xyz
x,y,z
-x,y,1/2-z
-x,-y,-z
x,-y,1/2+z
loop_
_atom_site_type_symbol
_atom_site_label
_atom_site_fract_x
_atom_site_fract_y
_atom_site_fract_z
Si Si1 0.573344 0.308762 0.666361
Si Si2 0.403966 0.830429 0.963370
Si Si3 0.198224 0.159739 0.633358
Si Si4 0.023640 0.181383 0.092432
Si Si5 0.628118 0.330029 0.218464
O O1 0.549784 0.286539 0.562139
O O2 0.403062 0.198143 0.651650
O O3 0.785750 0.248706 0.773670
O O4 0.550662 0.493031 0.678311
O O5 0.403154 0.773958 0.871075
O O6 0.179953 0.842537 0.924340
O O7 0.500000 0.000000 0.000000
O O8 0.019861 0.223486 0.516713
O O9 0.162944 0.974811 0.639928
O O10 0.141775 0.323155 0.175998
O O11 0.500000 0.253850 0.250000
#
# Coordination Sequence:
#
# PCOD8120809 Si02
#       5
#     4   4   4   4   4
#     4  10  21  43  64  97 139 173 216 276 343 394
#     4  11  25  45  69  96 136 179 229 280 331 397
#     4   9  19  40  66  96 128 168 223 274 327 401
#     4  10  23  39  68  98 133 173 228 275 329 394
#     4  12  25  41  68 100 135 179 221 274 344 402
#
# _framework density 21.578669000000001
#
# number of rings (size 3 to 8) (size 9 to 14) (size 15 to 20)
#    0.000    1.600    2.000    2.400   11.200    0.800 
#    0.000    4.000    0.000    0.000    0.000    0.000 
#    0.000    0.000    0.000    0.000    0.000    0.000 
#
# Total GULP energy -247803.780386 kJ/mol
# GULP energy per Si atom -12390.189019 kJ/mol
# Density = 2.152956 g / cm^3
# Si number density = 21.578669 Si / 1000 Ang^3
#
#
#
# Elastic Constant Matrix: (Units=GPa)
#
#
# Indices 1 2 3 4 5 6 
#
# 1 91.7800 52.6603 61.6744 0.0000 -3.7227 0.0000
# 2 52.6603 99.5956 66.8807 0.0000 -0.8927 0.0000
# 3 61.6744 66.8807 204.4770 0.0000 -20.5679 0.0000
# 4 0.0000 0.0000 0.0000 38.1385 0.0000 -6.0201
# 5 -3.7227 -0.8927 -20.5679 0.0000 27.2929 0.0000
# 6 0.0000 0.0000 0.0000 -6.0201 0.0000 21.8491
#
#
#
# Elastic Compliance Matrix: (Units=1/GPa)
#
#
# Indices 1 2 3 4 5 6 
#
# 1 0.016779 -0.007012 -0.002770 0.000000 -0.000028 0.000000
# 2 -0.007012 0.016024 -0.003430 0.000000 -0.003017 0.000000
# 3 -0.002770 -0.003430 0.007356 0.000000 0.005054 0.000000
# 4 0.000000 0.000000 0.000000 0.027412 0.000000 0.007553
# 5 -0.000028 -0.003017 0.005054 0.000000 0.040345 0.000000
# 6 0.000000 0.000000 0.000000 0.007553 0.000000 0.047849
#
#
# Mechanical properties :
#
#
# Convention : Reuss Voigt Hill
#
# Bulk Modulus (GPa) = 72.80247 84.25369 78.52808
# Shear Modulus (GPa) = 26.77098 31.76525 29.26811
#
# Velocity S-wave (km/s) = 3.52607 3.84092 3.68685
# Velocity P-wave (km/s) = 7.09852 7.66810 7.38880
#
# Compressibility (1/GPa) = 0.01373580
#
# Stress axis : x y z
#
# Youngs Moduli (GPa) = 59.59753 62.40594 135.93800
#
# Poissons Ratio (x) = 0.43757 0.37660
# Poissons Ratio (y) = 0.41788 0.46624
# Poissons Ratio (z) = 0.16511 0.21404
#
# Static dielectric constant tensor:
#      x y z
#    x 3.838230 0.000000 -0.510340 
#    y 0.000000 3.653810 0.000000 
#    z -0.510340 0.000000 4.674870 
# 
# 
# High freq. dielectric constant tensor:
#      x y z
#    x 1.816340 0.000000 -0.010230 
#    y 0.000000 1.835000 0.000000 
#    z -0.010230 0.000000 1.889610 
# 
# From -- ./inp_files/63922.got.cif
#   From: 2010.06.25/outbox.cif.g09.slc.cpg/sg13_32_cif.got.tgz:63922.got - 2010.06.28 04:50:58.
