data_PCOD8120703
_publ_section_title
;
Structure prediction by ZEFSAII (Michael W. Deem and Ramdas Pophale) SiO2 
 PCOD8120703
Probable space group: P 2/C
;
_chemical_formula_sum "Si O2"
_cell_formula_units_Z 20
_cell_length_a 10.077757
_cell_length_b 11.346635
_cell_length_c 9.592351
_cell_angle_alpha 90.000000
_cell_angle_beta 53.336693
_cell_angle_gamma 90.000000
_cell_volume 879.865036
_symmetry_space_group_name_H-M "P 2/C"
_symmetry_group_IT_number 13
_symmetry_cell_setting 'monoclinic'
loop_
_space_group_symop_operation_xyz
x,y,z
-x,y,1/2-z
-x,-y,-z
x,-y,1/2+z
loop_
_atom_site_type_symbol
_atom_site_label
_atom_site_fract_x
_atom_site_fract_y
_atom_site_fract_z
Si Si1 0.161545 0.196979 0.063527
Si Si2 0.631420 0.579140 0.494334
Si Si3 0.463438 0.818564 0.575630
Si Si4 0.648185 0.046512 0.745395
Si Si5 0.828042 0.437118 0.597787
O O1 0.323196 0.220142 0.055064
O O2 0.000000 0.158151 0.250000
O O3 0.185534 0.092563 0.933679
O O4 0.129982 0.318775 0.008374
O O5 0.500000 0.500000 0.500000
O O6 0.547537 0.703592 0.590411
O O7 0.696883 0.518751 0.595534
O O8 0.772353 0.596264 0.289014
O O9 0.616486 0.898043 0.418673
O O10 0.364643 0.903363 0.746968
O O11 0.500000 0.103033 0.750000
O O12 0.000000 0.500000 0.500000
#
# Coordination Sequence:
#
# PCOD8120703 Si02
#       5
#     4   4   4   4   4
#     4  11  22  41  67  97 142 189 230 297 369 421
#     4  12  24  42  73 104 139 184 242 289 353 427
#     4  10  21  41  68  98 129 185 237 294 348 419
#     4   9  20  40  69  94 131 175 241 298 344 420
#     4  12  26  45  67 107 148 192 229 294 366 434
#
# _framework density 22.730758999999999
#
# number of rings (size 3 to 8) (size 9 to 14) (size 15 to 20)
#    0.000    1.200    4.000    2.400    0.000    2.400 
#    0.000    0.000    4.400    0.000    0.000    0.000 
#    0.000    0.000    0.000    0.000    0.000    0.000 
#
# Total GULP energy -247850.308047 kJ/mol
# GULP energy per Si atom -12392.515402 kJ/mol
# Density = 2.267902 g / cm^3
# Si number density = 22.730759 Si / 1000 Ang^3
#
#
#
# Elastic Constant Matrix: (Units=GPa)
#
#
# Indices 1 2 3 4 5 6 
#
# 1 69.0763 33.0724 12.8885 0.0000 0.8696 0.0000
# 2 33.0724 185.4364 68.7315 0.0000 -5.0633 0.0000
# 3 12.8885 68.7315 138.7174 0.0000 -0.4169 0.0000
# 4 0.0000 0.0000 0.0000 37.9408 0.0000 -2.6020
# 5 0.8696 -5.0633 -0.4169 0.0000 31.1141 0.0000
# 6 0.0000 0.0000 0.0000 -2.6020 0.0000 29.3359
#
#
#
# Elastic Compliance Matrix: (Units=1/GPa)
#
#
# Indices 1 2 3 4 5 6 
#
# 1 0.015854 -0.002824 -0.000077 0.000000 -0.000904 0.000000
# 2 -0.002824 0.007142 -0.003273 0.000000 0.001197 0.000000
# 3 -0.000077 -0.003273 0.008836 0.000000 -0.000412 0.000000
# 4 0.000000 0.000000 0.000000 0.026518 0.000000 0.002352
# 5 -0.000904 0.001197 -0.000412 0.000000 0.032354 0.000000
# 6 0.000000 0.000000 0.000000 0.002352 0.000000 0.034297
#
#
# Mechanical properties :
#
#
# Convention : Reuss Voigt Hill
#
# Bulk Modulus (GPa) = 51.31805 69.17944 60.24875
# Shear Modulus (GPa) = 34.75991 38.24735 36.50363
#
# Velocity S-wave (km/s) = 3.91474 4.10643 4.01173
# Velocity P-wave (km/s) = 6.56194 7.27902 6.92976
#
# Compressibility (1/GPa) = 0.01948632
#
# Stress axis : x y z
#
# Youngs Moduli (GPa) = 63.07380 140.01568 113.16875
#
# Poissons Ratio (x) = 0.39539 0.00867
# Poissons Ratio (y) = 0.17811 0.37037
# Poissons Ratio (z) = 0.00483 0.45824
#
# Static dielectric constant tensor:
#      x y z
#    x 4.360290 0.000000 0.477040 
#    y 0.000000 4.099420 0.000000 
#    z 0.477040 0.000000 4.678600 
# 
# 
# High freq. dielectric constant tensor:
#      x y z
#    x 1.875100 0.000000 0.013720 
#    y 0.000000 1.906520 0.000000 
#    z 0.013720 0.000000 1.907410 
# 
# From -- ./inp_files/33599.got.cif
#   From: 2010.06.25/outbox.cif.g09.slc.cpg/sg13_17_cif.got.tgz:33599.got - 2010.06.28 04:50:58.
