data_PCOD8120638
_publ_section_title
;
Structure prediction by ZEFSAII (Michael W. Deem and Ramdas Pophale) SiO2 
 PCOD8120638
Probable space group: P 2/C
;
_chemical_formula_sum "Si O2"
_cell_formula_units_Z 32
_cell_length_a 8.020250
_cell_length_b 11.707649
_cell_length_c 20.193924
_cell_angle_alpha 90.000000
_cell_angle_beta 50.565847
_cell_angle_gamma 90.000000
_cell_volume 1464.520068
_symmetry_space_group_name_H-M "P 2/C"
_symmetry_group_IT_number 13
_symmetry_cell_setting 'monoclinic'
loop_
_space_group_symop_operation_xyz
x,y,z
-x,y,1/2-z
-x,-y,-z
x,-y,1/2+z
loop_
_atom_site_type_symbol
_atom_site_label
_atom_site_fract_x
_atom_site_fract_y
_atom_site_fract_z
Si Si1 0.050340 0.373201 0.564135
Si Si2 0.495665 0.727365 0.989716
Si Si3 0.277485 0.794091 0.811882
Si Si4 0.915480 0.636117 0.949372
Si Si5 0.783268 0.989007 0.094375
Si Si6 0.259236 0.203648 0.791228
Si Si7 0.367370 0.101080 0.629946
Si Si8 0.764348 0.139054 0.317562
O O1 0.305529 0.352523 0.509827
O O2 0.016181 0.507298 0.583267
O O3 0.964817 0.334156 0.513477
O O4 0.907257 0.306469 0.653937
O O5 0.664617 0.660077 0.994812
O O6 0.617659 0.773599 0.894937
O O7 0.381405 0.828960 0.058726
O O8 0.500000 0.719006 0.750000
O O9 0.305624 0.875348 0.740675
O O10 0.066768 0.715372 0.865527
O O11 0.279399 0.881352 0.872632
O O12 0.813057 0.909489 0.151042
O O13 0.607004 0.934074 0.091031
O O14 0.000000 0.000000 0.000000
O O15 0.500000 0.243227 0.750000
O O16 0.248809 0.176207 0.715860
O O17 0.232909 0.985736 0.648588
O O18 0.000000 0.193247 0.250000
#
# Coordination Sequence:
#
# PCOD8120638 Si02
#       8
#     4   4   4   4   4   4   4   4
#     4  11  26  46  76  97 134 187 238 285 346 408
#     4  12  26  46  70 103 138 183 235 286 348 408
#     4  12  21  42  67  96 138 181 227 280 350 414
#     4  11  25  49  69 101 134 182 237 293 339 399
#     4  11  21  35  67  99 136 181 220 278 348 416
#     4  10  21  41  63 101 141 176 226 281 341 405
#     4  11  24  40  64 102 143 182 220 278 350 422
#     4  12  25  41  63 100 145 177 215 283 344 418
#
# _framework density 21.850162000000001
#
# number of rings (size 3 to 8) (size 9 to 14) (size 15 to 20)
#    0.000    0.750    3.750    4.875    3.500    0.500 
#    0.000    3.750    0.000    0.000    0.000    0.000 
#    0.000    0.000    0.000    0.000    0.000    0.000 
#
# Total GULP energy -396738.191672 kJ/mol
# GULP energy per Si atom -12398.068490 kJ/mol
# Density = 2.180043 g / cm^3
# Si number density = 21.850162 Si / 1000 Ang^3
#
#
#
# Elastic Constant Matrix: (Units=GPa)
#
#
# Indices 1 2 3 4 5 6 
#
# 1 95.5085 18.9226 33.5682 0.0000 -15.9070 0.0000
# 2 18.9226 91.0216 40.1790 0.0000 -9.8587 0.0000
# 3 33.5682 40.1790 133.1976 0.0000 -18.6118 0.0000
# 4 0.0000 0.0000 0.0000 20.7196 0.0000 -8.1075
# 5 -15.9070 -9.8587 -18.6118 0.0000 35.3650 0.0000
# 6 0.0000 0.0000 0.0000 -8.1075 0.0000 30.5532
#
#
#
# Elastic Compliance Matrix: (Units=1/GPa)
#
#
# Indices 1 2 3 4 5 6 
#
# 1 0.012118 -0.001136 -0.002152 0.000000 0.004001 0.000000
# 2 -0.001136 0.012869 -0.003417 0.000000 0.001278 0.000000
# 3 -0.002152 -0.003417 0.009512 0.000000 0.003085 0.000000
# 4 0.000000 0.000000 0.000000 0.053855 0.000000 0.014291
# 5 0.004001 0.001278 0.003085 0.000000 0.032056 0.000000
# 6 0.000000 0.000000 0.000000 0.014291 0.000000 0.036522
#
#
# Mechanical properties :
#
#
# Convention : Reuss Voigt Hill
#
# Bulk Modulus (GPa) = 47.41806 56.11858 51.76832
# Shear Modulus (GPa) = 28.18911 32.46476 30.32693
#
# Velocity S-wave (km/s) = 3.59571 3.85878 3.72956
# Velocity P-wave (km/s) = 6.24399 6.75223 6.50308
#
# Compressibility (1/GPa) = 0.02108901
#
# Stress axis : x y z
#
# Youngs Moduli (GPa) = 82.52063 77.70361 105.13090
#
# Poissons Ratio (x) = 0.08826 0.22627
# Poissons Ratio (y) = 0.09373 0.35925
# Poissons Ratio (z) = 0.17761 0.26553
#
# Static dielectric constant tensor:
#      x y z
#    x 4.022010 0.000000 0.017410 
#    y 0.000000 3.718360 0.000000 
#    z 0.017410 0.000000 3.922140 
# 
# 
# High freq. dielectric constant tensor:
#      x y z
#    x 1.868380 0.000000 -0.010620 
#    y 0.000000 1.837540 0.000000 
#    z -0.010620 0.000000 1.873240 
# 
# From -- ./inp_files/76451.got.cif
#   From: 2010.06.25/outbox.cif.g09.slc.cpg/sg13_39_cif.got.tgz:76451.got - 2010.06.28 04:50:58.
