data_PCOD8120920
_publ_section_title
;
Structure prediction by ZEFSAII (Michael W. Deem and Ramdas Pophale) SiO2 
 PCOD8120920
Probable space group: P 2/C
;
_chemical_formula_sum "Si O2"
_cell_formula_units_Z 28
_cell_length_a 22.803042
_cell_length_b 11.355887
_cell_length_c 19.535896
_cell_angle_alpha 90.000000
_cell_angle_beta 16.656444
_cell_angle_gamma 90.000000
_cell_volume 1450.014414
_symmetry_space_group_name_H-M "P 2/C"
_symmetry_group_IT_number 13
_symmetry_cell_setting 'monoclinic'
loop_
_space_group_symop_operation_xyz
x,y,z
-x,y,1/2-z
-x,-y,-z
x,-y,1/2+z
loop_
_atom_site_type_symbol
_atom_site_label
_atom_site_fract_x
_atom_site_fract_y
_atom_site_fract_z
Si Si1 0.967978 0.571113 0.603515
Si Si2 0.085408 0.012115 0.328645
Si Si3 0.591986 0.431645 0.073342
Si Si4 0.719823 0.223362 0.329222
Si Si5 0.576859 0.839720 0.586671
Si Si6 0.671404 0.936579 0.761660
Si Si7 0.405830 0.573828 0.167644
O O1 0.167919 0.595038 0.423898
O O2 0.000000 0.500000 0.500000
O O3 0.905533 0.696142 0.643945
O O4 0.804525 0.503019 0.833101
O O5 0.871530 0.021016 0.524027
O O6 0.253952 0.118452 0.143033
O O7 0.203522 0.899566 0.167773
O O8 0.000000 0.000000 0.500000
O O9 0.500000 0.442864 0.250000
O O10 0.617244 0.296153 0.023540
O O11 0.426713 0.491093 0.209384
O O12 0.745907 0.176553 0.222412
O O13 0.510009 0.298931 0.565743
O O14 0.500000 0.858029 0.750000
O O15 0.414239 0.895536 0.715542
O O16 0.500000 0.000000 0.000000
O O17 0.500000 0.500000 0.000000
#
# Coordination Sequence:
#
# PCOD8120920 Si02
#       7
#     4   4   4   4   4   4   4
#     4  11  23  36  62  94 125 164 211 263 302 378
#     4  10  22  38  61  91 122 167 212 260 308 377
#     4  10  24  42  62  94 133 166 206 259 327 384
#     4  10  22  36  61  97 120 157 216 261 313 357
#     4  11  24  41  63  95 133 166 203 266 321 384
#     4  11  22  37  65  93 125 169 210 262 314 377
#     4  11  21  38  63  93 124 165 214 263 309 368
#
# _framework density 19.310153
#
# number of rings (size 3 to 8) (size 9 to 14) (size 15 to 20)
#    0.000    1.429    5.714    0.857    6.000    1.143 
#    0.000    5.714    0.000    3.429    0.000    0.000 
#    0.000    0.000    0.000    0.000    0.000    0.000 
#
# Total GULP energy -346869.515068 kJ/mol
# GULP energy per Si atom -12388.196967 kJ/mol
# Density = 1.926620 g / cm^3
# Si number density = 19.310153 Si / 1000 Ang^3
#
#
#
# Elastic Constant Matrix: (Units=GPa)
#
#
# Indices 1 2 3 4 5 6 
#
# 1 111.6505 56.8103 51.4648 0.0000 -29.8370 0.0000
# 2 56.8103 120.0071 53.5913 0.0000 -11.1734 0.0000
# 3 51.4648 53.5913 114.9485 0.0000 -34.3654 0.0000
# 4 0.0000 0.0000 0.0000 23.6823 0.0000 0.0443
# 5 -29.8370 -11.1734 -34.3654 0.0000 41.5767 0.0000
# 6 0.0000 0.0000 0.0000 0.0443 0.0000 34.3810
#
#
#
# Elastic Compliance Matrix: (Units=1/GPa)
#
#
# Indices 1 2 3 4 5 6 
#
# 1 0.014513 -0.005397 -0.001729 0.000000 0.007536 0.000000
# 2 -0.005397 0.012615 -0.004794 0.000000 -0.004445 0.000000
# 3 -0.001729 -0.004794 0.014547 0.000000 0.009495 0.000000
# 4 0.000000 0.000000 0.000000 0.042226 0.000000 -0.000054
# 5 0.007536 -0.004445 0.009495 0.000000 0.036114 0.000000
# 6 0.000000 0.000000 0.000000 -0.000054 0.000000 0.029086
#
#
# Mechanical properties :
#
#
# Convention : Reuss Voigt Hill
#
# Bulk Modulus (GPa) = 56.06595 74.48210 65.27403
# Shear Modulus (GPa) = 27.95095 32.24398 30.09746
#
# Velocity S-wave (km/s) = 3.80870 4.09074 3.95224
# Velocity P-wave (km/s) = 6.95982 7.80817 7.39616
#
# Compressibility (1/GPa) = 0.01783614
#
# Stress axis : x y z
#
# Youngs Moduli (GPa) = 68.90223 79.27361 68.74144
#
# Poissons Ratio (x) = 0.42782 0.11884
# Poissons Ratio (y) = 0.37185 0.32954
# Poissons Ratio (z) = 0.11912 0.38003
#
# Static dielectric constant tensor:
#      x y z
#    x 3.638340 0.000000 -0.374870 
#    y 0.000000 3.808150 0.000000 
#    z -0.374870 0.000000 3.550430 
# 
# 
# High freq. dielectric constant tensor:
#      x y z
#    x 1.746410 0.000000 -0.028290 
#    y 0.000000 1.763940 0.000000 
#    z -0.028290 0.000000 1.745360 
# 
# From -- ./inp_files/70660.got.cif
#   From: 2010.06.25/outbox.cif.g09.slc.cpg/sg13_36_cif.got.tgz:70660.got - 2010.06.28 04:50:58.
