data_PCOD8120042
_publ_section_title
;
Structure prediction by ZEFSAII (Michael W. Deem and Ramdas Pophale) SiO2 
 PCOD8120042
Probable space group: P 2/C
;
_chemical_formula_sum "Si O2"
_cell_formula_units_Z 24
_cell_length_a 23.632656
_cell_length_b 10.890488
_cell_length_c 9.394777
_cell_angle_alpha 90.000000
_cell_angle_beta 29.721177
_cell_angle_gamma 90.000000
_cell_volume 1198.767831
_symmetry_space_group_name_H-M "P 2/C"
_symmetry_group_IT_number 13
_symmetry_cell_setting 'monoclinic'
loop_
_space_group_symop_operation_xyz
x,y,z
-x,y,1/2-z
-x,-y,-z
x,-y,1/2+z
loop_
_atom_site_type_symbol
_atom_site_label
_atom_site_fract_x
_atom_site_fract_y
_atom_site_fract_z
Si Si1 0.181979 0.383263 0.766963
Si Si2 0.354250 0.413476 0.816134
Si Si3 0.916375 0.752322 0.254467
Si Si4 0.000000 0.552034 0.250000
Si Si5 0.173711 0.748295 0.579329
Si Si6 0.500000 0.481287 0.750000
Si Si7 0.083204 0.015194 0.188513
O O1 0.292848 0.455974 0.475614
O O2 0.165478 0.263572 0.703415
O O3 0.185750 0.346616 0.923347
O O4 0.070507 0.468792 0.984976
O O5 0.427717 0.392894 0.800595
O O6 0.427432 0.428442 0.511695
O O7 0.270072 0.295627 0.981139
O O8 0.902427 0.635424 0.387979
O O9 0.875321 0.874860 0.430290
O O10 0.049735 0.749571 0.920924
O O11 0.187729 0.889838 0.491086
O O12 0.000000 0.070456 0.250000
O O13 0.000000 0.000000 0.500000
#
# Coordination Sequence:
#
# PCOD8120042 Si02
#       7
#     4   4   4   2   4   2   4
#     4  12  21  33  55  89 123 162 188 236 299 368
#     4  11  22  39  62  87 118 153 202 251 327 357
#     4  11  21  33  52  84 131 160 197 230 272 355
#     4  12  20  30  50  86 130 154 190 232 276 366
#     4  11  20  35  56  83 118 164 198 234 289 367
#     4  10  24  42  58  88 120 144 200 282 318 356
#     4  10  21  37  53  78 124 168 202 230 265 333
#
# _framework density 20.020558000000001
#
# number of rings (size 3 to 8) (size 9 to 14) (size 15 to 20)
#    0.000    1.000    5.833    3.500    0.000    0.000 
#    0.000    0.000    0.000    0.000    0.000    7.000 
#    0.000    0.000    0.000    0.000    0.000    0.000 
#
# Total GULP energy -297346.136329 kJ/mol
# GULP energy per Si atom -12389.422347 kJ/mol
# Density = 1.997499 g / cm^3
# Si number density = 20.020558 Si / 1000 Ang^3
#
#
#
# Elastic Constant Matrix: (Units=GPa)
#
#
# Indices 1 2 3 4 5 6 
#
# 1 137.9284 47.9871 22.8824 0.0000 -7.4269 0.0000
# 2 47.9871 120.6897 24.4569 0.0000 -11.9166 0.0000
# 3 22.8824 24.4569 66.0933 0.0000 -0.0297 0.0000
# 4 0.0000 0.0000 0.0000 16.2198 0.0000 0.2611
# 5 -7.4269 -11.9166 -0.0297 0.0000 26.9172 0.0000
# 6 0.0000 0.0000 0.0000 0.2611 0.0000 31.2536
#
#
#
# Elastic Compliance Matrix: (Units=1/GPa)
#
#
# Indices 1 2 3 4 5 6 
#
# 1 0.008649 -0.002947 -0.001904 0.000000 0.001080 0.000000
# 2 -0.002947 0.010405 -0.002828 0.000000 0.003790 0.000000
# 3 -0.001904 -0.002828 0.016835 0.000000 -0.001759 0.000000
# 4 0.000000 0.000000 0.000000 0.061661 0.000000 -0.000515
# 5 0.001080 0.003790 -0.001759 0.000000 0.039125 0.000000
# 6 0.000000 0.000000 0.000000 -0.000515 0.000000 0.032001
#
#
# Mechanical properties :
#
#
# Convention : Reuss Voigt Hill
#
# Bulk Modulus (GPa) = 48.70478 57.26267 52.98373
# Shear Modulus (GPa) = 26.19494 30.17047 28.18271
#
# Velocity S-wave (km/s) = 3.62111 3.88619 3.75599
# Velocity P-wave (km/s) = 6.47020 6.98575 6.73291
#
# Compressibility (1/GPa) = 0.02053187
#
# Stress axis : x y z
#
# Youngs Moduli (GPa) = 115.61664 96.11078 59.40020
#
# Poissons Ratio (x) = 0.28320 0.11308
# Poissons Ratio (y) = 0.34068 0.16800
# Poissons Ratio (z) = 0.22009 0.27182
#
# Static dielectric constant tensor:
#      x y z
#    x 3.978440 0.000000 0.206760 
#    y 0.000000 6.271990 0.000000 
#    z 0.206760 0.000000 3.430260 
# 
# 
# High freq. dielectric constant tensor:
#      x y z
#    x 1.790110 0.000000 0.032670 
#    y 0.000000 1.770690 0.000000 
#    z 0.032670 0.000000 1.745700 
# 
# From -- ./inp_files/21442.got.cif
#   From: 2010.06.25/outbox.cif.g09.slc.cpg/sg13_11_cif.got.tgz:21442.got - 2010.06.28 04:50:58.
