data_PCOD8120156
_publ_section_title
;
Structure prediction by ZEFSAII (Michael W. Deem and Ramdas Pophale) SiO2 
 PCOD8120156
Probable space group: P 2/C
;
_chemical_formula_sum "Si O2"
_cell_formula_units_Z 20
_cell_length_a 9.627205
_cell_length_b 11.891249
_cell_length_c 17.616462
_cell_angle_alpha 90.000000
_cell_angle_beta 26.422015
_cell_angle_gamma 90.000000
_cell_volume 897.400283
_symmetry_space_group_name_H-M "P 2/C"
_symmetry_group_IT_number 13
_symmetry_cell_setting 'monoclinic'
loop_
_space_group_symop_operation_xyz
x,y,z
-x,y,1/2-z
-x,-y,-z
x,-y,1/2+z
loop_
_atom_site_type_symbol
_atom_site_label
_atom_site_fract_x
_atom_site_fract_y
_atom_site_fract_z
Si Si1 0.526086 0.346072 0.866972
Si Si2 0.904314 0.443784 0.209745
Si Si3 0.590916 0.111769 0.786688
Si Si4 0.644435 0.762760 0.899168
Si Si5 0.182260 0.957586 0.082424
O O1 0.781921 0.442819 0.731575
O O2 0.572147 0.246395 0.784384
O O3 0.560356 0.284941 0.931545
O O4 0.195756 0.406089 0.016796
O O5 0.658789 0.339437 0.330562
O O6 0.000000 0.467682 0.250000
O O7 0.500000 0.056678 0.750000
O O8 0.944751 0.080485 0.633759
O O9 0.351493 0.071686 0.970664
O O10 0.000000 0.795000 0.750000
O O11 0.464741 0.868562 0.951842
O O12 0.000000 0.979497 0.250000
#
# Coordination Sequence:
#
# PCOD8120156 Si02
#       5
#     4   4   4   4   4
#     4  10  21  37  64  94 135 169 222 269 341 389
#     4   9  19  33  63  98 138 163 220 279 337 377
#     4  12  29  47  65  97 144 181 221 280 347 403
#     4   9  20  38  65 104 134 168 224 289 326 385
#     4  12  26  43  75  98 130 178 239 277 335 391
#
# _framework density 22.286598999999999
#
# number of rings (size 3 to 8) (size 9 to 14) (size 15 to 20)
#    0.000    2.000    2.000    3.600   11.200    0.800 
#    0.000    1.000    0.000    0.000    0.000    0.000 
#    0.000    0.000    0.000    0.000    0.000    0.000 
#
# Total GULP energy -247903.127946 kJ/mol
# GULP energy per Si atom -12395.156397 kJ/mol
# Density = 2.223587 g / cm^3
# Si number density = 22.286599 Si / 1000 Ang^3
#
#
#
# Elastic Constant Matrix: (Units=GPa)
#
#
# Indices 1 2 3 4 5 6 
#
# 1 92.4323 38.7039 38.0632 0.0000 -19.4867 0.0000
# 2 38.7039 162.0425 52.8859 0.0000 -16.1397 0.0000
# 3 38.0632 52.8859 76.7056 0.0000 -22.8928 0.0000
# 4 0.0000 0.0000 0.0000 41.1185 0.0000 -10.0680
# 5 -19.4867 -16.1397 -22.8928 0.0000 22.6977 0.0000
# 6 0.0000 0.0000 0.0000 -10.0680 0.0000 18.0077
#
#
#
# Elastic Compliance Matrix: (Units=1/GPa)
#
#
# Indices 1 2 3 4 5 6 
#
# 1 0.014667 -0.001434 -0.004057 0.000000 0.007481 0.000000
# 2 -0.001434 0.008104 -0.005041 0.000000 -0.000553 0.000000
# 3 -0.004057 -0.005041 0.023486 0.000000 0.016620 0.000000
# 4 0.000000 0.000000 0.000000 0.028177 0.000000 0.015754
# 5 0.007481 -0.000553 0.016620 0.000000 0.066850 0.000000
# 6 0.000000 0.000000 0.000000 0.015754 0.000000 0.064340
#
#
# Mechanical properties :
#
#
# Convention : Reuss Voigt Hill
#
# Bulk Modulus (GPa) = 39.69299 65.60960 52.65130
# Shear Modulus (GPa) = 21.26904 29.79995 25.53450
#
# Velocity S-wave (km/s) = 3.09259 3.66064 3.38854
# Velocity P-wave (km/s) = 5.53183 6.88258 6.24384
#
# Compressibility (1/GPa) = 0.02519336
#
# Stress axis : x y z
#
# Youngs Moduli (GPa) = 68.18103 123.39867 42.57941
#
# Poissons Ratio (x) = 0.17697 0.17273
# Poissons Ratio (y) = 0.09778 0.21463
# Poissons Ratio (z) = 0.27659 0.62201
#
# Static dielectric constant tensor:
#      x y z
#    x 3.570180 0.000000 -0.219710 
#    y 0.000000 4.346500 0.000000 
#    z -0.219710 0.000000 3.971610 
# 
# 
# High freq. dielectric constant tensor:
#      x y z
#    x 1.828290 0.000000 -0.017110 
#    y 0.000000 1.900500 0.000000 
#    z -0.017110 0.000000 1.875320 
# 
# From -- ./inp_files/64410.got.cif
#   From: 2010.06.25/outbox.cif.g09.slc.cpg/sg13_33_cif.got.tgz:64410.got - 2010.06.28 04:50:58.
