data_PCOD8120835
_publ_section_title
;
Structure prediction by ZEFSAII (Michael W. Deem and Ramdas Pophale) SiO2 
 PCOD8120835
Probable space group: P 2/C
;
_chemical_formula_sum "Si O2"
_cell_formula_units_Z 32
_cell_length_a 11.262483
_cell_length_b 19.241255
_cell_length_c 14.373218
_cell_angle_alpha 90.000000
_cell_angle_beta 151.331928
_cell_angle_gamma 90.000000
_cell_volume 1494.247816
_symmetry_space_group_name_H-M "P 2/C"
_symmetry_group_IT_number 13
_symmetry_cell_setting 'monoclinic'
loop_
_space_group_symop_operation_xyz
x,y,z
-x,y,1/2-z
-x,-y,-z
x,-y,1/2+z
loop_
_atom_site_type_symbol
_atom_site_label
_atom_site_fract_x
_atom_site_fract_y
_atom_site_fract_z
Si Si1 0.131623 0.447640 0.249209
Si Si2 0.159530 0.215883 0.603157
Si Si3 0.297905 0.060886 0.360130
Si Si4 0.310091 0.403130 0.870642
Si Si5 0.385708 0.171545 0.267607
Si Si6 0.757917 0.254624 0.632358
Si Si7 0.245751 0.634046 0.119922
Si Si8 0.743682 0.083283 0.958187
O O1 0.406205 0.422677 0.417191
O O2 0.130119 0.531035 0.259344
O O3 0.000000 0.414961 0.250000
O O4 0.968035 0.420501 0.052005
O O5 0.287203 0.226467 0.792572
O O6 0.183115 0.285126 0.555050
O O7 0.258839 0.153359 0.606469
O O8 0.880650 0.201001 0.438126
O O9 0.397721 0.109857 0.349189
O O10 0.298959 0.098877 0.461460
O O11 0.500000 0.000000 0.500000
O O12 0.008241 0.041461 0.133465
O O13 0.229280 0.337922 0.876946
O O14 0.282095 0.370411 0.752170
O O15 0.500000 0.144216 0.250000
O O16 0.527540 0.235031 0.410850
O O17 0.000000 0.221378 0.750000
O O18 0.500000 0.608889 0.250000
O O19 0.500000 0.041388 0.750000
#
# Coordination Sequence:
#
# PCOD8120835 Si02
#       8
#     4   4   4   4   4   4   4   4
#     4  11  21  39  57  83 114 161 211 258 320 380
#     4  10  22  39  64  95 130 166 209 267 321 379
#     4  10  24  44  65  99 134 172 214 256 312 382
#     4  10  23  38  59  80 120 160 207 264 316 382
#     4  11  22  41  65  95 131 165 212 258 313 378
#     4  11  21  39  62  92 125 164 209 262 325 383
#     4  11  21  37  59  89 120 156 208 263 322 380
#     4  10  21  43  68  97 132 170 216 261 317 374
#
# _framework density 21.415458000000001
#
# number of rings (size 3 to 8) (size 9 to 14) (size 15 to 20)
#    0.000    1.500    2.500    2.625    0.000    2.000 
#    6.750    0.000    0.000    0.000    0.000    0.000 
#    0.000    0.000    0.000    0.000    0.000    0.000 
#
# Total GULP energy -396426.165108 kJ/mol
# GULP energy per Si atom -12388.317660 kJ/mol
# Density = 2.136672 g / cm^3
# Si number density = 21.415458 Si / 1000 Ang^3
#
#
#
# Elastic Constant Matrix: (Units=GPa)
#
#
# Indices 1 2 3 4 5 6 
#
# 1 108.8393 35.1965 34.7128 0.0000 -1.9545 0.0000
# 2 35.1965 82.2254 47.3282 0.0000 1.9715 0.0000
# 3 34.7128 47.3282 108.4525 0.0000 9.4311 0.0000
# 4 0.0000 0.0000 0.0000 27.3517 0.0000 -3.0588
# 5 -1.9545 1.9715 9.4311 0.0000 33.2887 0.0000
# 6 0.0000 0.0000 0.0000 -3.0588 0.0000 15.7009
#
#
#
# Elastic Compliance Matrix: (Units=1/GPa)
#
#
# Indices 1 2 3 4 5 6 
#
# 1 0.011033 -0.003542 -0.002112 0.000000 0.001456 0.000000
# 2 -0.003542 0.017416 -0.006519 0.000000 0.000608 0.000000
# 3 -0.002112 -0.006519 0.013040 0.000000 -0.003432 0.000000
# 4 0.000000 0.000000 0.000000 0.037375 0.000000 0.007281
# 5 0.001456 0.000608 -0.003432 0.000000 0.031062 0.000000
# 6 0.000000 0.000000 0.000000 0.007281 0.000000 0.065109
#
#
# Mechanical properties :
#
#
# Convention : Reuss Voigt Hill
#
# Bulk Modulus (GPa) = 58.33628 59.33248 58.83438
# Shear Modulus (GPa) = 24.37878 27.42024 25.89951
#
# Velocity S-wave (km/s) = 3.37764 3.58214 3.48139
# Velocity P-wave (km/s) = 6.52002 6.69885 6.61004
#
# Compressibility (1/GPa) = 0.01714199
#
# Stress axis : x y z
#
# Youngs Moduli (GPa) = 90.63676 57.41976 76.68567
#
# Poissons Ratio (x) = 0.20336 0.16199
# Poissons Ratio (y) = 0.32101 0.49994
# Poissons Ratio (z) = 0.19146 0.37434
#
# Static dielectric constant tensor:
#      x y z
#    x 4.088480 0.000000 0.055800 
#    y 0.000000 3.770840 0.000000 
#    z 0.055800 0.000000 4.070960 
# 
# 
# High freq. dielectric constant tensor:
#      x y z
#    x 1.851970 0.000000 0.005400 
#    y 0.000000 1.821920 0.000000 
#    z 0.005400 0.000000 1.852430 
# 
# From -- ./inp_files/51656.got.cif
#   From: 2010.06.25/outbox.cif.g09.slc.cpg/sg13_26_cif.got.tgz:51656.got - 2010.06.28 04:50:58.
