data_PCOD8120304
_publ_section_title
;
Structure prediction by ZEFSAII (Michael W. Deem and Ramdas Pophale) SiO2 
 PCOD8120304
Probable space group: P 2/C
;
_chemical_formula_sum "Si O2"
_cell_formula_units_Z 32
_cell_length_a 21.137655
_cell_length_b 12.298982
_cell_length_c 8.776386
_cell_angle_alpha 90.000000
_cell_angle_beta 133.885339
_cell_angle_gamma 90.000000
_cell_volume 1644.422436
_symmetry_space_group_name_H-M "P 2/C"
_symmetry_group_IT_number 13
_symmetry_cell_setting 'monoclinic'
loop_
_space_group_symop_operation_xyz
x,y,z
-x,y,1/2-z
-x,-y,-z
x,-y,1/2+z
loop_
_atom_site_type_symbol
_atom_site_label
_atom_site_fract_x
_atom_site_fract_y
_atom_site_fract_z
Si Si1 0.942378 0.315772 0.875239
Si Si2 0.079933 0.922268 0.090538
Si Si3 0.791386 0.552464 0.240616
Si Si4 0.672417 0.499835 0.286086
Si Si5 0.261307 0.844905 0.885901
Si Si6 0.203203 0.003802 0.542060
Si Si7 0.599513 0.654191 0.410397
Si Si8 0.872360 0.327918 0.421111
O O1 0.956371 0.198804 0.971504
O O2 0.884652 0.387263 0.896108
O O3 0.893892 0.310179 0.633234
O O4 0.039833 0.364476 0.022362
O O5 0.119510 0.947058 0.991183
O O6 0.160851 0.927398 0.343059
O O7 0.000000 0.000000 0.000000
O O8 0.731896 0.584865 0.286304
O O9 0.801658 0.422147 0.276271
O O10 0.737137 0.574457 0.996676
O O11 0.609335 0.574506 0.282039
O O12 0.618309 0.415566 0.093480
O O13 0.168108 0.783380 0.711052
O O14 0.267014 0.934844 0.759894
O O15 0.260129 0.902777 0.050267
O O16 0.341926 0.762323 0.005567
O O17 0.500000 0.695621 0.250000
#
# Coordination Sequence:
#
# PCOD8120304 Si02
#       8
#     4   4   4   4   4   4   4   4
#     4  11  22  33  56  84 122 164 209 254 288 338
#     4  11  22  36  56  83 115 157 213 259 292 328
#     4  11  20  38  55  90 120 165 196 240 289 374
#     4  10  21  38  65  89 127 150 194 232 307 379
#     4  11  21  43  60  86 118 163 201 253 310 362
#     4  10  23  37  58  81 116 157 205 249 303 347
#     4  11  23  42  69  95 120 150 189 250 315 383
#     4  11  21  36  56  82 122 169 201 247 300 347
#
# _framework density 19.459719
#
# number of rings (size 3 to 8) (size 9 to 14) (size 15 to 20)
#    0.000    1.250    5.000    2.625    3.500    0.000 
#    0.000    1.875    0.000    0.000    0.000    0.000 
#    0.000    0.000    0.000    0.000    0.000    0.000 
#
# Total GULP energy -396755.883188 kJ/mol
# GULP energy per Si atom -12398.621350 kJ/mol
# Density = 1.941543 g / cm^3
# Si number density = 19.459719 Si / 1000 Ang^3
#
#
#
# Elastic Constant Matrix: (Units=GPa)
#
#
# Indices 1 2 3 4 5 6 
#
# 1 102.8415 41.0392 52.0044 0.0000 4.6356 0.0000
# 2 41.0392 96.7189 31.4884 0.0000 0.1291 0.0000
# 3 52.0044 31.4884 71.4537 0.0000 -1.0193 0.0000
# 4 0.0000 0.0000 0.0000 25.2566 0.0000 0.2105
# 5 4.6356 0.1291 -1.0193 0.0000 31.2433 0.0000
# 6 0.0000 0.0000 0.0000 0.2105 0.0000 31.1735
#
#
#
# Elastic Compliance Matrix: (Units=1/GPa)
#
#
# Indices 1 2 3 4 5 6 
#
# 1 0.016626 -0.003618 -0.010547 0.000000 -0.002796 0.000000
# 2 -0.003618 0.012860 -0.003029 0.000000 0.000385 0.000000
# 3 -0.010547 -0.003029 0.023039 0.000000 0.002329 0.000000
# 4 0.000000 0.000000 0.000000 0.039596 0.000000 -0.000267
# 5 -0.002796 0.000385 0.002329 0.000000 0.032496 0.000000
# 6 0.000000 0.000000 0.000000 -0.000267 0.000000 0.032080
#
#
# Mechanical properties :
#
#
# Convention : Reuss Voigt Hill
#
# Bulk Modulus (GPa) = 55.12840 57.78645 56.45743
# Shear Modulus (GPa) = 25.36408 27.30016 26.33212
#
# Velocity S-wave (km/s) = 3.61420 3.74960 3.68252
# Velocity P-wave (km/s) = 6.76813 6.96462 6.86708
#
# Compressibility (1/GPa) = 0.01813947
#
# Stress axis : x y z
#
# Youngs Moduli (GPa) = 60.14523 77.76208 43.40504
#
# Poissons Ratio (x) = 0.28131 0.45777
# Poissons Ratio (y) = 0.21758 0.13146
# Poissons Ratio (z) = 0.63432 0.23552
#
# Static dielectric constant tensor:
#      x y z
#    x 3.626030 0.000000 -0.202600 
#    y 0.000000 3.430750 0.000000 
#    z -0.202600 0.000000 3.427740 
# 
# 
# High freq. dielectric constant tensor:
#      x y z
#    x 1.758480 0.000000 -0.016620 
#    y 0.000000 1.747440 0.000000 
#    z -0.016620 0.000000 1.746740 
# 
# From -- ./inp_files/23375.got.cif
#   From: 2010.06.25/outbox.cif.g09.slc.cpg/sg13_12_cif.got.tgz:23375.got - 2010.06.28 04:50:58.
